data_image0
_chemical_formula_structural       FeHSPH3CHSHCPHFeS2FeSHFeSFeHS5CHC2HCH4SC2H8CH2C2HCFeHCHC6H3C4H3CH2C3H2C2HSC4H4SHSHC5HC6PC18H7CH4SH7C2HC3SHCH2CHC2H2C5PHCHC3FeCSH3C3HC4HPH2FeHCH2CH4C3HC2H2C2H2C5H4C5H5C2HC2HC3HCH2CSC5HC3HFeCHCSCHCHSCHCH6CHCHFeH2CH3CHCHC2H2C2H7CSCSCHC3PC21H5CH6C2HSC2H3C2SC2HC3HCHCH2FeC4HFeS2C2FeS3FeSFeS2FeS2FeS2FeSFeS3FeS2FeS2FeSFeS4HC2FeS2FeSCFeSFeS3FeS2FeS2FeSFeS3HSC7H4C6H4C9HC6H4C6H4C5H2CH2C6H4C6H4C6H4C6H3C7H4C6H4C6H3CHC4H4C4H4SH3CHCH3C3HC2HCHCHCHC2PC10SH10C5H2CH2C4H5CH5CHC2HC2HCH8C2HC2HFeCSC3HC3HCH4C4HCH2C4H2CPC10H2SH6C6PC18H15C3H2CH2C3HCH2CH2CPH3CHCH2CH5CHC3HC8PH4C3SCHCHCH2C3H3C4H4C4HC2HCH2C4H2C3FeSC4HCHC2SCHCHC2HCHC3HCH5C2H2CHC8HCSC2SH2C5H2CHC3PCH2C2H3C3HC5HCH2CHPC2HCHPHCHCSCHC5HCHCHCHCHCH2C3HCH5CH2CH2CHC2FeC3PC3HCH2CH3C2H2C4HC2H2CFeC5HCH2CH3CH2CHCH2FeHC6H2C2HC2H2CHSH3C3H3CHC2FeCH3CH2CH2CH3C2HCPCHC3HCHC2HCHPHPC2HCHC4H4SHC2HC2FeC3SH5CPH2CHCH4C2HSC2H4C4HCHCH2C2HFeC2HCH6C3HPC2HC4HSCS2HFeS2FeS2FeSFeS3FeS2FeS2FeSFeHS2CHSCHSCHFeCFeS2H2S2FeSHFeS2FeSFeS3FeS2FeS2FeSFeS4FeC3H2C5H2C6H4C6H4C3H2CH2C8H2C8H2C6H5C3PH4C3SCH2C7H4C6H4C6H4C6H4CHCHCFeHCHC2HC2SC2HC2HC2H2C4H2CH2CH2C2HC3HCHCHCHCHC2H4C3H2FeC3H3CHCHC2H2C2H3CHC3HCHCSHSH6CHCHC5HCHSHC6PC18H6C2H12C4PC16H17C3HCH2C5H2C2H3C2HC8H2SHPC5HC6H2FeH4C7H7C3HC3HFeCHCH2C2H2C2HCSC5H4PC3H3CHC4SHCHCH2C5H2C6H3C3HPC2HPC2HC3HCPH2C3HC2HCH2C3H2CHCFeHC4HC6H2PHC3H4CH3CHCH3C4HCFeHC2HC7H2C2SHC2H2C3HC2PC3H2C2SH2C4HCHCH2FeHC3H6C5H3FeHCH3C3HCHC3HCHC3H3CHC8HPCPCH3CHCH3C2H2CH3CH2C5HPCH3CSHCH3CHC2HC2SHCHC2SC2H3C2HC4HCSC3HCHCHC3H6C4HCH4CH7C3H3SC2H2C2HCH2CHCHC2FeH2CHC2SHC2FeCH2PSC3HC3HCSCH2CH4SC2HCHCHCH2C3H2CH2C2SFeSCFeS2FeSFeS3HCFeS2H4Fe2HS2FeSCSC3H3CHC3H2CH2CH3C6H4C6H4CPCHCHC5H7C6H2CH2CHC5H3C2H2C2PCHCH2CH2C5HPC2HC2HCHCHC3H6CH3CHC3HC4H2CHC4HC4H2CHC5HCFeH3PHCSHCH2CHC6PC14H12CH4CHCHC3HC3H3C2HCH2CHC3H2SC10HC8HCHCHCH5C2SC2H2CHCHC2HC10HSHC3H3CFeCHFeHSHC4H4SC2H3CHCSCHC3PH2C2HC2H3C2HC2HCH3CPH3CH2CHCHCHC2HCH2CH3SH2C2HC3HC2SCH2SHC2H2CH2CHPH2CH2C4HCHFeCFeC2SH2C5H2CHSH5C6PCSH2C2SHC5H3C2H2CHC3HSC2HCH2CH4C4HCSHC3H3C2H2FeHC2H3C2HC2HCHC3FeS2FeS2FeSFeS3FeS2FeS2FeSFeS3H2SH2FeS2FeS2FeSFeS3H2SHFeS2PCH2FeS2HSHFeSFeS2C3PHSCFeS2FeSFeHSCHFeS2FeH2S2FeS2FeS2FeSFeS2CH2CH2SC2HC5H5C6H3PH2C7H4CH2FeC2HC4HC3HC6H4C6H4CH2C2H2C2HC2HC6H4C6H4C6H3C2HC6H4C6H4C6H4C5HC4PC8H10CHC3HFeC2HCSH3FeCHC3HC6PCHCHCHC12H2CHC2HCH10C7PC15H11CH6SCHCHC5HC2H4C2HCPC6PC5HC10H5C2HCH6CHSHC4PC4HC13HCH2CH3CH5CH5C4HCHC10HCH5C2H3C2H3CH2C3HCHC2H6SHC2HCH2CFeH2C3H2CH4C5HC4H2C2S2CPCFeC2HC5HCHC7HC2H4CHPCHCH2CH2C2HCHC2HC2HCH3C2H4C2HC4H2C3H2CPC2H3C2H4C2HC4H2C4H2FeCSHCHC2H2C2HC2HCH2C2HC2H2CHCH2C2H6CH2C5H5C2HC2SCH3CH2PCPHC2H2CH2CH2CHFeC5HCHCH4CH2C2H2CHCFeC3PC4HCHC2HC2H2SCHSC4HC4H4CH3C2HC3HC2HSCHCH2C2HPHC4HPHCHCH2CH2CH2C6H2PHCH2C4HC2HC3HCHCH3CHSC4HCH2CH3C5H3CHC2H4CH2C5H2C2HC3HCHFeC3H2CHSH2C2H2CHCSC3SHCHCHCHSCH2CH3CFeS2HCH2SFeCSFeCSCSFeS2HCHCHC5FeS2C2HFeCFeS3FeCSFeS2FeHFeS3CHSC2SHSFeS2FeS2FeSFeS3FeS2FeS2FeSFeS3CFeS2CFeS2FeS2FeS2FeSFeHS2CH2SC6H3SH3CHC6H4C3HC2HC6H4C6H4C9H4C6H4C6H4C2H2C4HC6H5CSC2PHCH2C6H5C2HCHCH3C6H4C6H3C4H4CH2FeC2HCHCH2C3H2FeCSH3CH2C8PC18H19C6PC18H20C6PC18H17CH3C6PC2HCHC4H2C7H5PH6SH7CHC7FeCH2C2H2CSH2C2FeHCH3C3HCSH2PFeCFeHC7HCHC2H2CH2CH2CHC9HCHCSH2CH2FeCHCHCHCH3C2H2CH3C5HC2HCHC2HCH2C2H3C4H3C2S2C3HCHSHC2HPC3HCHC2H3CHC6H4CSC2HC3H2C2HCHCH2CHC2HCH2C3SH3CHC2HPC3H2C2H3C4SH6C3H2CH2CH2CHCHCH2C3H3CHCHC8HC2HC2HC3HCHC2HC2H3SHC2FeH2PC2HC3HC2HC3PSH3C2H3CH4C4HCHC6SC3SH3CH2C8SC4HCHCPCH2C2H2C3H2CH2CH6CH4C2H2CPHCFeH2CHC3HC3FeHCHPC3H2CH2CHPC3HC2SCH2CH2C2FeC3H2CHC2HC2HCH3CH3CHC3HCSC5H3SHCHC2FeC7HCHCH2CPH2CH4C2HC2HFePCH2C3HCHCH3CSHSC2HCPC2H2C3HC2HCHCH7C5H4C2H2C5HC2H2C6SCH2C2FeHCH6CHC2H5CHCHCHCHC2HFeS2FeSCFeSCHS2CHSC2H7C3SCSCSHC6H2C6H3C2HCHCH3C7H2C2HC2HCHCHC6H2C2HC5H2CHC2HCHCHC3HC3HCSC6H3CH3CHC6PSC6H3SCH2PC2H2CH12C2H2C3H3CH5SCH3CHCHCHC5HPCHC4H2C2H2CHCH2C8HC3HCHC3HFeHC2HCHSHCH5PH2CHC3H2CH2PCH2CHC2SHC2HC4H3SC4H2CHC2HCHC3HCH6CFeC9PHC4PCHCH2SH2C5H5CHC4HC4H8C2HC3HC3HSH3SHFeH2C2HCHC2FeCFeS2FeS2FeSFeS3FeS2CFeS2FeS2FeS2FeSFeHS2HCSFe2HSC3H2SFeSCFeSCFeSFeS2HFeS2FeSCFeSFeS3FeSHFeSFeSFeS3C8H4C5H3CSCHCHCH3C6H4C6HFeH2C6HCH3C3H4C2HC5HC2SCHCSHCHC7H4C6H5C7HCHC6H4C2HPCHCHC4H3CH3PC11H9C6PC18H20C4PC7HCPC4H8CHC2H5C2H3C4HCSHC3HC5H2C3SH3SCPHCHCHC5PC18H13CH3CH2C5HCH2CH4C2H3CH2C3HCHCHCSC4H2CHC2H3C3HFeH2CHCH2C8HCH2C2HC3H3C4H3CSHCH2C4H6CHSH6C2H3C6H3CHCPC2H5C4H3CHC2H2C6FeC4H4CSH2CH6CH3CH2CHC9FeC4HCHC2PC2HC4H2C2H2C3HP2H2C5H2C2HCH3CPHCH6C3FeHC2HC2HCHCH2CH4C2HCHCH2C3H2SH2C3HSHC2H5CH2CHCSHSC2HC2H4SC4FeSHFeS2FeSFeS3FeS2FeS2FeSFeS3FeSHFeSFeSFeS3FeS2CFeSCSHFeS2FeSCSFeS2FeSCFeCFeS3FeS2FeS2Fe3S3CHCHC2HCHCHC4HCHC7H4C6H4C7H4C6H4C6H5FeC3H4C7HC2HC3H4C6H3C6H4C6HC2H3C2H3C3HCH4CH2CH2CSC2HCHSCHCHCHCPC6PC3SC6HCH4C3H3CHC6PC18H20C5HCH3C2H2CH2C2HC5H2C5HPC3HCHC12H2CHCH2CH10CH2CHCH2C3H3C2H2CHPH2CH5C2HC2PCH5C5HC2HC6PC18HCH5CH7CH2C6PC7H11CH2PCH2CPC4SH3CHC4H2C7H3CHC5H4CHCSH2C4H3C2HCH5CHCHCH5C2H2C5H4C2HCH4CHCHC2H2C2HCH4CSPHC2HCSH3C5SHC3HC2H2C3H2C4SC4H3SH6C4H4CHC5H3CH2C3HC4HCH2C2PC7SC5FeCSFeCSC2HSCHSC2HCHFeSCFeSHFeSFeS3HCHC3H6C2H3C7H4CH2CHCHC2HCPH2C2HCHCHCHC2HPC3HC6PC9H13CH2CHC4H3SC5H5C2H3CHCSCHFeHCH2C3HC7PC18H22C3HCHSCHC2SH2C5H2CH2C4PH2CH3CH2C2HCHCHCH2CHCH2CHSHC4HCH3C4HCHCHC2H4CH3C4H3CHC2HC2H2C10HPC8H2C6H4C2HCHCHCH6C4HC2H2PC2H5CH2CHFeHCHCFeC2HCH2SC2FeC2H2C3HCSH3CSHCH3CHC3SCHC2HCHFeS2HC2S3HFeSFeS2FeSFeSFeS2FeS2FeS2FeSFeS3FeSFeSHSFeS2CSCFeSFeSCSFeS2H2SHSFeS2FeSFe2SFeSHSFeSHFeS2FeSFeS3FeSHFeS2FeSFeS3HCHC6H4CHC7H4C7FeH2C7H3C7H4CH3C2H4SCSH2C7H4C4H3C6HCH2C6H4C6H4C6H5C4H2CHC4HCHC2H3C6H4C6H6CHCPHPC3H3C3HSHCH2CHCPH2C6HC2H6CHCH3C7PC5HC4HC7H9C2H8C2SCHFeCH4C4H3C3H3CHC6H5CHFeC5FeC2HCH3CHSC5HC6PC18H17SH2CHCHSHSCHC3SC9H7CHFeC2FeC6PC14H13CH2CH4C2HC3H2SHC5HSHCHC3HCSC2H4CHPH2C2SH3C2H4C3HC4HCHC2HC6H2CH2C2HCH2CHC5H2CH2C6HCH3PHCHC6HC2H2CH3C3H3CHCFeCHC2HC4HCHC2H2C5H2CHC3H3C2H3C2PC7H2CHC3HC2HCH5CHCHCHC3HCPCH3CHCPCHC3HSCHC2FeCHC2HC2H3C2HC2HC2HCHSH5CHC2HC2HC4H2CHC3HC2HC2HCSCH2CH2CSH2SCHCHSH2CH2CHCHC3HCH2CH2C2HPHCHCH3CHPH3C3HC4H2C2H3C5HC2HFePCHCHCH2C5HCH2CH2C2HFeHC2H3C2HC2HCHCPC5PH2CHC4H2C3HC4H2CHC4H3CHCH3C2HC2H2CSFeHC4H2C2HPCHCH6CHC3FeSCPC4SHCHC2H4CHPC3H2C2H3CHCH2C3H5C6HCHC2SHCH4CHC6H2CHCHCFeC2H2CH2CSH4C2HC4H2FeSHC9H2C3HCH3C4HSHC2HC2HC2HFeC3HC2HC2H2SH2CHCH4C2HCS2C3HCH3CPSHFeH2C4H4CSC2H7SHC2HCH2CHCFeH3SC2H2CSHC3HC2HSC2HCHC2FeSH2C2SH2SC4H2CHC5H2C2H2CHC2PC3H4C2HCHCHCH3CH4C3H3C2HC2HCH2C4HCH2CH2CH2C4H5C5H2CHC5H4C2H7PCHSCFePC2HC3H2CHCH2C3HCHCHCHCHC2H2SC2HC3HC4PHFeC2SC2HSC2HCHC2HC4HC2SC2H2C3H3CH2CPHC5HC2H2CH2SC2FeS2H2FeSC2FeS2FeS2FeSFeS3FeS2FeS2FeSFeS3C3FeS2FeSCHSHFeS2CS2CSFeS2FeS2FeSFeS3FeSFeHSFe2S2FeCS2FeSFeS2Fe2S4HFeSC2HC2H3C5HC6H4C7H2C6H4C6H2CHC6HCH2C3H2C3HC3H4C6H4C6H4C3HCHC2H3C6H4C8H4FeCPC6H4CH2PC6H3CH2FeCH3CHCH3C2HCH3CHC3HCPSHC2PCH2C2H2CPC3PCH2CH3C3HC8H6C6PC7H4CH4C4SC3H4CHC5PH2CH2C3HC3HCH2C6H2FeH2C2HCH2CH6CHCHPHCHC2HCHC5HC3H5C9PC18H18C2HCHC6HCH5C2HC7H5SHCH2CH2SCHC3H4C2H4CHC2HCH2C2HC2PC3HC4HC3H2PH4CHCHC2HSC4H3CHC5H3C2H2C9HCH4C2HC3H2C2HC3HCHC2HSC2H3CHC2H2CHC5H3C2PC5HSCH4CHC3H2C3HC2H2C2HFeCHCHCHC2FePCHCHC3H2SHC3H3FeCHCH2CHC2SH5C3H2C5HC2HC4HC2H2CHSC6H2PCH3C4HCHCH2CHC3H6PHCHC2H3C2HCHC2H2C2HCH2CHC4H3C2HCH2CSPC2HCH2CHFeSC5HSC3H3CHC3H2C3HC2HCHC2HC2HSHC2H3C2H4C2HCH2C3HCHCHCHCHCH2C2HC3HCHSC2HCHSH2C2HCH4C3H5CHCHCHCHC2H2C5HCH3C7H2C2HCHC2H4CHC3SH2CHC2HC6HCHC2H2SHPH2CHC2HCH3CSH2C2SFeS2FeS2Fe2S3HSCHSCFeSFeSC2FeSHCSHFeSFeS2CFeS2FeSCFeSFeS3FeHSFeCSFeS2FeS2FeSFeS3CH3SCFeHFeHC2FeS2H4FeSFeSFeS2FeSFeSFeS4C6H4C6H4C2H2C3HC2HC6H4C6H4C6H2CHC8H4C7H3C6H4C6H5C3HC6H4C6H4C6H7CHC2H3C2H2CH5SHC2HC6PC15H11CH3C3HPH5CHCHC2HC2HSCHC4HC3PC2H3SHCHCHC2H2CHC2H2C3PCSC2FeC3HSC3PC13HCHC2H12C2H4C2H2C2H2C3HC2H5C4S2H5C3HC2SCH2CH2CH2C2SC3HC2HC3H3C2HC9H3SCH2CPHCHCHCH5CHC8PC18H12S2H6C6PC18H21CPH2CH4C4PC6FeHC4H4C2HCH4CHC2H4SC2FeC6HCH2C2HC2HC3HCHCHCHCHCHC2HC2H2C2H2C2H3PC5HC2HC4H3SCH3C2HCHCH3CHC3HC5H4C2HC2HCPCH2C2HCH2PCHCH4C2H4CFeCH4CHC2HC4HC3HCHCPC3HSCH2SH2CH2CHFeH2C2HCSC4HSC2H2C2HC3H2CHC4HC3HC2HCH2C2HC2H2CHC2H3CH5CH3C4HCHSH2CHCHCFeH2FeHC3H3CHC2H2CHCH4C2HC3H2CH6CHCH3FeSH2SCHCHCHCHCHC6HCHC4H3C2H5CHC2H4CHC5HC3PCH2C2HCH2C2H2C3HC4HC5HCHCHC4PCH2CHC5H2C2H3CHSHCH2C2H2CHCH2CHC3H2C3H3CSCH2C2H2CHSH2CFeSC2H2C2HC2H2C2H2C3HC2HC4HC5HC3HC5HC7H3CH2CPH2CHC4HSCH2C2HPC2H2CH3C2H4C2PCH3C4H3CH4CH3CHFeHSC3SH2C4H2CHC2SCH2FeS2FeS2FeSFeS3FeHC2HCH2SHSCFeS2FeS2FeSFeS2FeS2H3SFeSCS2FeS2FeSCFeSFeS3FeSCFeS2FeSFeS3FeHSFeS2CFeS3FeS2FeS2FeSFeS3HCHC2SH2C7H4C6H4C6H4C4H5C2SH2C6H4C6H4C6H4C2H2C8H4C6H5C2SC6HC6H4C6H4C6HFeH2C6H2C8HCH9C6PCH2C11H6CHC2HCH3C13H5C2SH3C6PC2H5C7H3CH6C2SC2H5C3HC6PC16H20C4H2C2HSCH2FeSHCHC2H2CHC2H3FeHC2H2C3H4C2H2CH2CH4C6PC18H6CH13CH3SH2CHC5SC5H8C5PC15HCH10C2H8SH4FeCH5PC8HC2H2CPCHC3H3CH6C4PC8HC2HCH5C2H2CH2C3H4C2HC3HC5H6C2HCH2CHCHC2H2C3HCHCH3C2H3C2HC2H3CH2C2PHCPH5C2HC4HCHC2HPHC4HSCH3C4HC2HC8FeHC3H4C2SH2CHCPC2H2SCH2CHC2SHFeC8HCPC2SH2CH2CHCHCSCHFeC4HCFeH2C5HCFeCH7C2H3C2H2SCHCHSH2C5HCFeHCHCHCHCHC2H2C2
_chemical_formula_sum              "Fe384 H4608 S768 P192 C5760"
_cell_length_a       79.7827
_cell_length_b       79.864
_cell_length_c       79.9395
_cell_angle_alpha    74.2594
_cell_angle_beta     74.2323
_cell_angle_gamma    74.287

_space_group_name_H-M_alt    "P 1"
_space_group_IT_number       1

loop_
  _space_group_symop_operation_xyz
  'x, y, z'

loop_
  _atom_site_type_symbol
  _atom_site_label
  _atom_site_symmetry_multiplicity
  _atom_site_fract_x
  _atom_site_fract_y
  _atom_site_fract_z
  _atom_site_occupancy
  Fe  Fe1       1.0  0.08139  0.02451  0.30778  1.0000
  H   H1        1.0  0.04716  0.36943  0.14037  1.0000
  S   S1        1.0  0.06106  0.05024  0.30665  1.0000
  P   P1        1.0  0.01815  0.24641  0.10026  1.0000
  H   H2        1.0  0.01632  0.33633  0.19994  1.0000
  H   H3        1.0  0.04856  0.21650  0.09339  1.0000
  H   H4        1.0  0.03398  0.17679  0.43057  1.0000
  C   C1        1.0  0.02395  0.07374  0.26278  1.0000
  H   H5        1.0  0.11750  0.14469  0.42424  1.0000
  S   S2        1.0  0.10733  0.02055  0.31560  1.0000
  H   H6        1.0  0.15165  0.07333  0.48398  1.0000
  C   C2        1.0  0.18262  0.05520  0.43219  1.0000
  P   P2        1.0  0.02450  0.00655  0.40542  1.0000
  H   H7        1.0  0.03819  0.46345  0.99406  1.0000
  Fe  Fe2       1.0  0.03990  0.33148  0.06886  1.0000
  S   S3        1.0  0.05519  0.35323  0.05540  1.0000
  S   S4        1.0  0.04603  0.31338  0.09455  1.0000
  Fe  Fe3       1.0  0.02039  0.33941  0.03924  1.0000
  S   S5        1.0  0.03356  0.36176  0.02330  1.0000
  H   H8        1.0  0.05139  0.08619  0.46000  1.0000
  Fe  Fe4       1.0  0.05857  0.34390  0.03045  1.0000
  S   S6        1.0  0.08367  0.34438  0.00930  1.0000
  Fe  Fe5       1.0  0.02918  0.36961  0.04924  1.0000
  H   H9        1.0  0.09327  0.02884  0.46416  1.0000
  S   S7        1.0  0.04594  0.32055  0.04430  1.0000
  S   S8        1.0  0.01334  0.34879  0.06487  1.0000
  S   S9        1.0  0.01654  0.13708  0.42117  1.0000
  S   S10       1.0  0.01209  0.47928  0.09002  1.0000
  S   S11       1.0  0.02747  0.42854  0.11076  1.0000
  C   C3        1.0  0.00564  0.18628  0.43844  1.0000
  H   H10       1.0  0.05628  0.12587  0.41697  1.0000
  C   C4        1.0  0.01739  0.27632  0.07266  1.0000
  C   C5        1.0  0.99928  0.07110  0.40159  1.0000
  H   H11       1.0  0.01450  0.37957  0.14684  1.0000
  C   C6        1.0  0.00812  0.05229  0.31643  1.0000
  H   H12       1.0  0.16813  0.27127  0.01485  1.0000
  H   H13       1.0  0.01131  0.22652  0.04952  1.0000
  H   H14       1.0  0.07771  0.24783  0.12597  1.0000
  H   H15       1.0  0.12358  0.10610  0.39339  1.0000
  S   S12       1.0  0.14432  0.00675  0.27606  1.0000
  C   C7        1.0  0.00078  0.08724  0.40436  1.0000
  C   C8        1.0  0.05000  0.08575  0.47398  1.0000
  H   H16       1.0  0.01057  0.15140  0.48153  1.0000
  H   H17       1.0  0.06236  0.00880  0.45629  1.0000
  H   H18       1.0  0.00800  0.31450  0.09822  1.0000
  H   H19       1.0  0.13100  0.08178  0.41865  1.0000
  H   H20       1.0  0.03993  0.45855  0.06553  1.0000
  H   H21       1.0  0.05790  0.32980  0.00150  1.0000
  H   H22       1.0  0.18028  0.19776  0.48773  1.0000
  H   H23       1.0  0.00233  0.24541  0.07163  1.0000
  C   C9        1.0  0.12766  0.09546  0.42015  1.0000
  H   H24       1.0  0.18633  0.18861  0.40421  1.0000
  H   H25       1.0  0.10646  0.45264  0.06570  1.0000
  C   C10       1.0  0.03785  0.35492  0.10838  1.0000
  C   C11       1.0  0.00679  0.00413  0.34978  1.0000
  H   H26       1.0  0.06589  0.27348  0.10362  1.0000
  C   C12       1.0  0.08856  0.49229  0.05561  1.0000
  Fe  Fe6       1.0  0.11846  0.00318  0.29540  1.0000
  H   H27       1.0  0.05567  0.47223  0.08375  1.0000
  C   C13       1.0  0.02426  0.40718  0.06453  1.0000
  H   H28       1.0  0.15075  0.01398  0.35368  1.0000
  C   C14       1.0  0.01781  0.43145  0.07970  1.0000
  C   C15       1.0  0.02676  0.42037  0.09275  1.0000
  C   C16       1.0  0.03514  0.40284  0.09130  1.0000
  C   C17       1.0  0.03373  0.39616  0.07729  1.0000
  C   C18       1.0  0.05388  0.14252  0.48426  1.0000
  C   C19       1.0  0.01933  0.36079  0.11184  1.0000
  H   H29       1.0  0.04246  0.39440  0.10114  1.0000
  H   H30       1.0  0.03981  0.38250  0.07641  1.0000
  H   H31       1.0  0.12531  0.12063  0.44938  1.0000
  C   C20       1.0  0.02288  0.28601  0.14151  1.0000
  C   C21       1.0  0.03487  0.29440  0.12766  1.0000
  C   C22       1.0  0.02968  0.30453  0.11193  1.0000
  C   C23       1.0  0.01212  0.30665  0.11032  1.0000
  H   H32       1.0  0.01177  0.35755  0.10420  1.0000
  H   H33       1.0  0.02720  0.27800  0.15347  1.0000
  H   H34       1.0  0.04838  0.29276  0.12904  1.0000
  C   C24       1.0  0.00105  0.01520  0.41321  1.0000
  H   H35       1.0  0.09659  0.49367  0.12736  1.0000
  H   H36       1.0  0.10128  0.10405  0.47147  1.0000
  C   C25       1.0  0.01032  0.29360  0.06439  1.0000
  C   C26       1.0  0.04045  0.04564  0.30774  1.0000
  C   C27       1.0  0.02454  0.05660  0.31464  1.0000
  H   H37       1.0  0.02453  0.36406  0.18014  1.0000
  H   H38       1.0  0.01187  0.44512  0.08048  1.0000
  C   C28       1.0  0.02345  0.02682  0.30325  1.0000
  C   C29       1.0  0.03988  0.03073  0.30207  1.0000
  H   H39       1.0  0.02493  0.06820  0.31891  1.0000
  S   S13       1.0  0.13716  0.99584  0.43951  1.0000
  C   C30       1.0  0.11967  0.12693  0.40733  1.0000
  C   C31       1.0  0.17676  0.00990  0.29595  1.0000
  C   C32       1.0  0.99999  0.29828  0.12436  1.0000
  C   C33       1.0  0.02086  0.37309  0.13580  1.0000
  H   H40       1.0  0.01002  0.43368  0.05527  1.0000
  H   H41       1.0  0.04184  0.03208  0.41079  1.0000
  H   H42       1.0  0.19481  0.00065  0.45254  1.0000
  H   H43       1.0  0.03769  0.22108  0.12607  1.0000
  S   S14       1.0  0.00277  0.46848  0.13376  1.0000
  H   H44       1.0  0.16588  0.01485  0.24178  1.0000
  S   S15       1.0  0.09297  0.00942  0.28594  1.0000
  H   H45       1.0  0.01234  0.31519  0.99693  1.0000
  C   C34       1.0  0.12842  0.43310  0.99731  1.0000
  C   C35       1.0  0.14503  0.48163  0.08785  1.0000
  C   C36       1.0  0.17466  0.01332  0.47196  1.0000
  C   C37       1.0  0.00644  0.34872  0.19914  1.0000
  C   C38       1.0  0.12762  0.00308  0.35763  1.0000
  H   H46       1.0  0.08460  0.10945  0.42590  1.0000
  C   C39       1.0  0.08464  0.41913  0.08731  1.0000
  C   C40       1.0  0.09277  0.43102  0.07319  1.0000
  C   C41       1.0  0.09988  0.44361  0.07664  1.0000
  C   C42       1.0  0.09845  0.44466  0.09418  1.0000
  C   C43       1.0  0.09024  0.43279  0.10848  1.0000
  C   C44       1.0  0.08370  0.41977  0.10486  1.0000
  P   P3        1.0  0.08955  0.43307  0.13126  1.0000
  C   C45       1.0  0.10006  0.41113  0.14172  1.0000
  C   C46       1.0  0.10175  0.44900  0.13153  1.0000
  C   C47       1.0  0.11903  0.44343  0.13493  1.0000
  C   C48       1.0  0.12799  0.45592  0.13574  1.0000
  C   C49       1.0  0.11985  0.47397  0.13304  1.0000
  C   C50       1.0  0.10286  0.47964  0.12930  1.0000
  C   C51       1.0  0.09379  0.46723  0.12860  1.0000
  C   C52       1.0  0.09494  0.40475  0.16014  1.0000
  C   C53       1.0  0.10336  0.38788  0.16823  1.0000
  C   C54       1.0  0.11698  0.37731  0.15802  1.0000
  C   C55       1.0  0.12223  0.38362  0.13971  1.0000
  C   C56       1.0  0.11386  0.40049  0.13158  1.0000
  C   C57       1.0  0.06705  0.43884  0.14398  1.0000
  C   C58       1.0  0.05275  0.43428  0.14044  1.0000
  C   C59       1.0  0.03567  0.43777  0.15109  1.0000
  C   C60       1.0  0.03256  0.44623  0.16514  1.0000
  C   C61       1.0  0.04666  0.45087  0.16879  1.0000
  C   C62       1.0  0.06384  0.44711  0.15835  1.0000
  H   H47       1.0  0.07916  0.40929  0.08469  1.0000
  H   H48       1.0  0.09369  0.43038  0.05959  1.0000
  H   H49       1.0  0.12354  0.36428  0.16432  1.0000
  H   H50       1.0  0.10397  0.45463  0.09642  1.0000
  H   H51       1.0  0.07798  0.40996  0.11557  1.0000
  H   H52       1.0  0.12558  0.42951  0.13719  1.0000
  H   H53       1.0  0.14123  0.45172  0.13859  1.0000
  C   C63       1.0  0.02329  0.18298  0.44009  1.0000
  H   H54       1.0  0.05450  0.47893  0.00925  1.0000
  H   H55       1.0  0.08040  0.47186  0.12621  1.0000
  H   H56       1.0  0.08456  0.41279  0.16832  1.0000
  H   H57       1.0  0.09939  0.38305  0.18245  1.0000
  S   S16       1.0  0.00246  0.32939  0.02863  1.0000
  H   H58       1.0  0.11830  0.40526  0.11741  1.0000
  H   H59       1.0  0.05451  0.42807  0.12951  1.0000
  H   H60       1.0  0.02479  0.43412  0.14819  1.0000
  H   H61       1.0  0.01920  0.44935  0.17307  1.0000
  H   H62       1.0  0.04427  0.45750  0.17964  1.0000
  H   H63       1.0  0.07456  0.45069  0.16160  1.0000
  H   H64       1.0  0.15763  0.02853  0.49114  1.0000
  C   C64       1.0  0.01071  0.37035  0.12529  1.0000
  C   C65       1.0  0.19095  0.18650  0.41632  1.0000
  H   H65       1.0  0.99878  0.42617  0.02514  1.0000
  C   C66       1.0  0.05760  0.41874  0.00389  1.0000
  C   C67       1.0  0.19420  0.17051  0.48697  1.0000
  C   C68       1.0  0.05490  0.46778  0.02053  1.0000
  S   S17       1.0  0.16543  0.12257  0.48839  1.0000
  H   H66       1.0  0.17273  0.49211  0.00668  1.0000
  C   C69       1.0  0.14067  0.00764  0.36331  1.0000
  H   H67       1.0  0.15576  0.05249  0.43664  1.0000
  H   H68       1.0  0.09578  0.49363  0.04192  1.0000
  C   C70       1.0  0.18284  0.03647  0.48086  1.0000
  H   H69       1.0  0.16569  0.18277  0.43360  1.0000
  C   C71       1.0  0.04523  0.20815  0.07143  1.0000
  C   C72       1.0  0.12073  0.06458  0.45737  1.0000
  H   H70       1.0  0.09242  0.99988  0.43761  1.0000
  H   H71       1.0  0.17609  0.17764  0.46117  1.0000
  C   C73       1.0  0.09783  0.00822  0.22197  1.0000
  C   C74       1.0  0.12730  0.08841  0.47528  1.0000
  C   C75       1.0  0.12360  0.10920  0.40577  1.0000
  C   C76       1.0  0.02921  0.03140  0.37356  1.0000
  C   C77       1.0  0.19385  0.48527  0.10622  1.0000
  P   P4        1.0  0.13322  0.08134  0.45445  1.0000
  H   H72       1.0  0.09021  0.02854  0.38463  1.0000
  C   C78       1.0  0.12745  0.04662  0.46433  1.0000
  H   H73       1.0  0.14517  0.47146  0.09996  1.0000
  C   C79       1.0  0.19393  0.06470  0.43439  1.0000
  C   C80       1.0  0.19139  0.01061  0.46046  1.0000
  C   C81       1.0  0.01681  0.42497  0.06547  1.0000
  Fe  Fe7       1.0  0.00809  0.45490  0.11116  1.0000
  C   C82       1.0  0.00757  0.03742  0.31068  1.0000
  S   S18       1.0  0.02113  0.39916  0.04749  1.0000
  H   H74       1.0  0.00266  0.18283  0.42749  1.0000
  H   H75       1.0  0.07209  0.42319  0.03168  1.0000
  H   H76       1.0  0.19736  0.47238  0.11475  1.0000
  C   C83       1.0  0.05629  0.43946  0.05011  1.0000
  C   C84       1.0  0.16423  0.05994  0.43858  1.0000
  C   C85       1.0  0.03351  0.04731  0.36283  1.0000
  H   H77       1.0  0.08112  0.05243  0.33214  1.0000
  C   C86       1.0  0.14107  0.00326  0.38139  1.0000
  C   C87       1.0  0.06401  0.45060  0.01817  1.0000
  C   C88       1.0  0.10074  0.03885  0.46259  1.0000
  C   C89       1.0  0.02207  0.15090  0.48640  1.0000
  H   H78       1.0  0.08170  0.08196  0.33607  1.0000
  P   P5        1.0  0.07522  0.44658  0.99630  1.0000
  H   H79       1.0  0.06999  0.10095  0.46910  1.0000
  H   H80       1.0  0.04341  0.11370  0.39887  1.0000
  Fe  Fe8       1.0  0.01699  0.13339  0.45011  1.0000
  H   H81       1.0  0.10718  0.41926  0.00360  1.0000
  C   C90       1.0  0.06056  0.09402  0.47912  1.0000
  H   H82       1.0  0.08640  0.08512  0.36425  1.0000
  H   H83       1.0  0.04701  0.42611  0.01257  1.0000
  C   C91       1.0  0.06319  0.11349  0.41280  1.0000
  H   H84       1.0  0.17953  0.28631  0.03150  1.0000
  H   H85       1.0  0.03013  0.26933  0.06623  1.0000
  H   H86       1.0  0.00686  0.05873  0.40778  1.0000
  H   H87       1.0  0.00868  0.41298  0.99882  1.0000
  C   C92       1.0  0.04523  0.26172  0.10209  1.0000
  C   C93       1.0  0.03713  0.24695  0.10825  1.0000
  C   C94       1.0  0.09359  0.05681  0.45641  1.0000
  H   H88       1.0  0.04851  0.06044  0.39207  1.0000
  C   C95       1.0  0.05847  0.23279  0.12728  1.0000
  C   C96       1.0  0.01434  0.23504  0.07171  1.0000
  H   H89       1.0  0.02708  0.06251  0.25650  1.0000
  H   H90       1.0  0.04332  0.07037  0.36133  1.0000
  C   C97       1.0  0.17932  0.18327  0.43286  1.0000
  C   C98       1.0  0.18650  0.00585  0.27964  1.0000
  H   H91       1.0  0.12672  0.48356  0.13393  1.0000
  H   H92       1.0  0.12767  0.00591  0.34363  1.0000
  C   C99       1.0  0.11510  0.00800  0.24269  1.0000
  C   C100      1.0  0.03306  0.09179  0.27715  1.0000
  C   C101      1.0  0.01106  0.36434  0.18797  1.0000
  C   C102      1.0  0.17057  0.28455  0.00905  1.0000
  C   C103      1.0  0.02473  0.23235  0.08425  1.0000
  H   H93       1.0  0.05656  0.42844  0.06156  1.0000
  H   H94       1.0  0.12312  0.01988  0.47159  1.0000
  H   H95       1.0  0.06344  0.22171  0.13724  1.0000
  H   H96       1.0  0.03883  0.48382  0.03936  1.0000
  C   C104      1.0  0.12435  0.11720  0.43751  1.0000
  C   C105      1.0  0.04616  0.47065  0.03756  1.0000
  C   C106      1.0  0.13908  0.08257  0.48695  1.0000
  C   C107      1.0  0.03708  0.07738  0.26897  1.0000
  C   C108      1.0  0.06652  0.24747  0.12095  1.0000
  H   H97       1.0  0.02838  0.07198  0.48267  1.0000
  H   H98       1.0  0.04326  0.09448  0.28205  1.0000
  H   H99       1.0  0.05031  0.06887  0.26772  1.0000
  H   H100      1.0  0.18206  0.01320  0.26751  1.0000
  H   H101      1.0  0.11650  0.13759  0.39620  1.0000
  C   C109      1.0  0.00154  0.23809  0.11874  1.0000
  C   C110      1.0  0.04052  0.05777  0.36948  1.0000
  H   H102      1.0  0.18506  0.31675  0.01818  1.0000
  C   C111      1.0  0.07917  0.10417  0.41787  1.0000
  C   C112      1.0  0.03893  0.14312  0.47780  1.0000
  H   H103      1.0  0.04443  0.34780  0.09780  1.0000
  C   C113      1.0  0.18687  0.07901  0.44288  1.0000
  C   C114      1.0  0.05600  0.10670  0.40258  1.0000
  C   C115      1.0  0.04363  0.05210  0.38672  1.0000
  H   H104      1.0  0.02291  0.02395  0.36856  1.0000
  C   C116      1.0  0.16621  0.00073  0.24482  1.0000
  H   H105      1.0  0.01757  0.29974  0.05169  1.0000
  H   H106      1.0  0.08046  0.06076  0.45337  1.0000
  C   C117      1.0  0.03981  0.03597  0.39732  1.0000
  S   S19       1.0  0.04161  0.13500  0.45845  1.0000
  C   C118      1.0  0.04789  0.35802  0.11862  1.0000
  C   C119      1.0  0.03939  0.36709  0.13237  1.0000
  C   C120      1.0  0.11759  0.03379  0.46668  1.0000
  C   C121      1.0  0.00007  0.43477  0.01195  1.0000
  C   C122      1.0  0.01328  0.19453  0.46705  1.0000
  H   H107      1.0  0.04402  0.39724  0.00992  1.0000
  C   C123      1.0  0.04682  0.45647  0.05233  1.0000
  C   C124      1.0  0.10516  0.01739  0.22983  1.0000
  C   C125      1.0  0.05572  0.40240  0.00228  1.0000
  H   H108      1.0  0.14040  0.04246  0.46775  1.0000
  Fe  Fe9       1.0  0.00616  0.11176  0.42995  1.0000
  C   C126      1.0  0.16848  0.08390  0.44914  1.0000
  H   H109      1.0  0.13289  0.37549  0.13182  1.0000
  C   C127      1.0  0.11074  0.09972  0.48005  1.0000
  S   S20       1.0  0.07323  0.00120  0.32812  1.0000
  C   C128      1.0  0.03247  0.02556  0.39082  1.0000
  H   H110      1.0  0.19574  0.08608  0.44494  1.0000
  C   C129      1.0  0.06494  0.43652  0.03313  1.0000
  H   H111      1.0  0.02311  0.01524  0.29891  1.0000
  S   S21       1.0  0.01515  0.08745  0.41764  1.0000
  C   C130      1.0  0.10346  0.06965  0.45401  1.0000
  H   H112      1.0  0.08556  0.02584  0.35641  1.0000
  C   C131      1.0  0.12016  0.13092  0.42315  1.0000
  H   H113      1.0  0.17458  0.00371  0.32420  1.0000
  H   H114      1.0  0.00878  0.24803  0.13793  1.0000
  H   H115      1.0  0.01288  0.11329  0.28614  1.0000
  H   H116      1.0  0.09021  0.01550  0.21193  1.0000
  H   H117      1.0  0.10321  0.03176  0.22596  1.0000
  H   H118      1.0  0.12090  0.01504  0.24877  1.0000
  C   C132      1.0  0.18528  0.18043  0.44853  1.0000
  H   H119      1.0  0.04016  0.27337  0.09279  1.0000
  C   C133      1.0  0.17051  0.02625  0.48222  1.0000
  H   H120      1.0  0.06168  0.48682  0.10440  1.0000
  Fe  Fe10      1.0  0.00482  0.49338  0.11263  1.0000
  H   H121      1.0  0.18819  0.04385  0.42595  1.0000
  H   H122      1.0  0.02647  0.49056  0.14354  1.0000
  C   C134      1.0  0.07544  0.48215  0.06150  1.0000
  H   H123      1.0  0.13829  0.42107  0.00043  1.0000
  H   H124      1.0  0.05724  0.19778  0.07127  1.0000
  H   H125      1.0  0.03101  0.05175  0.34949  1.0000
  C   C135      1.0  0.03697  0.07784  0.48676  1.0000
  H   H126      1.0  0.05211  0.02223  0.29671  1.0000
  C   C136      1.0  0.15703  0.07413  0.44738  1.0000
  H   H127      1.0  0.03873  0.20266  0.04927  1.0000
  C   C137      1.0  0.02710  0.18715  0.45435  1.0000
  C   C138      1.0  0.16085  0.48693  0.07824  1.0000
  H   H128      1.0  0.06222  0.35331  0.11590  1.0000
  H   H129      1.0  0.15375  0.05969  0.36574  1.0000
  C   C139      1.0  0.99994  0.24107  0.13568  1.0000
  C   C140      1.0  0.00225  0.09810  0.27432  1.0000
  H   H130      1.0  0.12140  0.06589  0.36774  1.0000
  H   H131      1.0  0.01667  0.19703  0.47823  1.0000
  H   H132      1.0  0.04676  0.48873  0.16299  1.0000
  H   H133      1.0  0.00642  0.02689  0.47608  1.0000
  H   H134      1.0  0.04075  0.18407  0.45593  1.0000
  H   H135      1.0  0.16327  0.09523  0.45544  1.0000
  H   H136      1.0  0.09765  0.08353  0.44947  1.0000
  C   C141      1.0  0.01579  0.10228  0.27960  1.0000
  S   S22       1.0  0.00875  0.10709  0.45820  1.0000
  C   C142      1.0  0.12762  0.09935  0.43627  1.0000
  S   S23       1.0  0.15839  0.00689  0.38862  1.0000
  C   C143      1.0  0.04023  0.21882  0.08401  1.0000
  H   H137      1.0  0.17313  0.48083  0.08288  1.0000
  C   C144      1.0  0.08795  0.08804  0.41276  1.0000
  C   C145      1.0  0.08093  0.08119  0.40235  1.0000
  C   C146      1.0  0.06475  0.09060  0.39746  1.0000
  P   P6        1.0  0.09126  0.05931  0.39773  1.0000
  C   C147      1.0  0.11499  0.05547  0.39621  1.0000
  C   C148      1.0  0.08172  0.04310  0.41583  1.0000
  C   C149      1.0  0.06461  0.04795  0.42624  1.0000
  C   C150      1.0  0.05767  0.03559  0.44077  1.0000
  C   C151      1.0  0.06775  0.01836  0.44505  1.0000
  C   C152      1.0  0.08463  0.01334  0.43456  1.0000
  C   C153      1.0  0.09149  0.02558  0.41989  1.0000
  C   C154      1.0  0.12217  0.04778  0.41147  1.0000
  C   C155      1.0  0.14056  0.04407  0.41015  1.0000
  C   C156      1.0  0.15191  0.04863  0.39373  1.0000
  C   C157      1.0  0.14487  0.05669  0.37856  1.0000
  C   C158      1.0  0.12649  0.06006  0.37975  1.0000
  C   C159      1.0  0.08801  0.05719  0.37691  1.0000
  C   C160      1.0  0.08596  0.07214  0.36288  1.0000
  C   C161      1.0  0.08345  0.07041  0.34682  1.0000
  C   C162      1.0  0.08319  0.05376  0.34455  1.0000
  C   C163      1.0  0.08563  0.03877  0.35826  1.0000
  C   C164      1.0  0.08815  0.04042  0.37434  1.0000
  C   C165      1.0  0.04386  0.23250  0.12094  1.0000
  C   C166      1.0  0.05994  0.26187  0.10832  1.0000
  C   C167      1.0  0.06581  0.48014  0.07910  1.0000
  H   H138      1.0  0.10009  0.08081  0.41710  1.0000
  H   H139      1.0  0.05858  0.08545  0.39001  1.0000
  H   H140      1.0  0.05648  0.06120  0.42318  1.0000
  H   H141      1.0  0.04441  0.03944  0.44862  1.0000
  H   H142      1.0  0.11695  0.48571  0.09003  1.0000
  C   C168      1.0  0.06931  0.48826  0.09082  1.0000
  H   H143      1.0  0.10452  0.02140  0.41179  1.0000
  H   H144      1.0  0.11369  0.04413  0.42433  1.0000
  H   H145      1.0  0.14609  0.03695  0.42171  1.0000
  H   H146      1.0  0.16622  0.04518  0.39263  1.0000
  H   H147      1.0  0.06703  0.13660  0.47763  1.0000
  H   H148      1.0  0.00535  0.02783  0.43204  1.0000
  C   C169      1.0  0.18220  0.00027  0.31168  1.0000
  C   C170      1.0  0.11079  0.43212  0.99886  1.0000
  H   H149      1.0  0.16479  0.02036  0.29636  1.0000
  S   S24       1.0  0.16178  0.48825  0.12967  1.0000
  C   C171      1.0  0.00834  0.26838  0.08934  1.0000
  C   C172      1.0  0.00567  0.42733  0.99687  1.0000
  H   H150      1.0  0.03371  0.00740  0.34531  1.0000
  H   H151      1.0  0.18412  0.99672  0.22006  1.0000
  H   H152      1.0  0.07291  0.47567  0.05245  1.0000
  C   C173      1.0  0.01937  0.22434  0.05917  1.0000
  C   C174      1.0  0.02520  0.99983  0.34349  1.0000
  S   S25       1.0  0.15872  0.00063  0.47437  1.0000
  C   C175      1.0  0.03684  0.99674  0.42282  1.0000
  C   C176      1.0  0.17700  0.29302  0.01842  1.0000
  H   H153      1.0  0.00111  0.01508  0.35647  1.0000
  C   C177      1.0  0.00542  0.28783  0.13996  1.0000
  C   C178      1.0  0.18010  0.31016  0.01092  1.0000
  C   C179      1.0  0.12906  0.48980  0.08216  1.0000
  H   H154      1.0  0.17925  0.04670  0.48838  1.0000
  C   C180      1.0  0.03481  0.21091  0.05903  1.0000
  H   H155      1.0  0.00173  0.39234  0.17791  1.0000
  C   C181      1.0  0.00666  0.08422  0.26518  1.0000
  H   H156      1.0  0.05260  0.99578  0.37551  1.0000
  H   H157      1.0  0.00244  0.99618  0.30002  1.0000
  Fe  Fe11      1.0  0.10002  0.99584  0.33431  1.0000
  C   C182      1.0  0.17668  0.31891  0.99410  1.0000
  C   C183      1.0  0.07305  0.42521  0.99462  1.0000
  C   C184      1.0  0.09809  0.44762  0.99417  1.0000
  C   C185      1.0  0.06851  0.43432  0.92727  1.0000
  H   H158      1.0  0.12769  0.04187  0.55125  1.0000
  Fe  Fe12      1.0  0.18772  0.11326  0.72057  1.0000
  S   S26       1.0  0.17980  0.10581  0.69940  1.0000
  S   S27       1.0  0.16764  0.12689  0.74116  1.0000
  C   C186      1.0  0.02990  0.39493  0.97256  1.0000
  C   C187      1.0  0.08918  0.47204  0.89711  1.0000
  Fe  Fe13      1.0  0.10632  0.05610  0.61458  1.0000
  S   S28       1.0  0.10750  0.07003  0.63482  1.0000
  S   S29       1.0  0.11014  0.06768  0.58547  1.0000
  S   S30       1.0  0.09777  0.03392  0.66450  1.0000
  Fe  Fe14      1.0  0.08312  0.05976  0.65031  1.0000
  S   S31       1.0  0.05909  0.07691  0.66386  1.0000
  Fe  Fe15      1.0  0.12245  0.04350  0.64733  1.0000
  S   S32       1.0  0.14947  0.04478  0.65100  1.0000
  S   S33       1.0  0.08030  0.04875  0.62863  1.0000
  Fe  Fe16      1.0  0.14364  0.20358  0.65426  1.0000
  S   S34       1.0  0.11842  0.19354  0.66165  1.0000
  S   S35       1.0  0.16786  0.18538  0.64268  1.0000
  Fe  Fe17      1.0  0.12697  0.23669  0.66917  1.0000
  S   S36       1.0  0.09992  0.22992  0.67718  1.0000
  S   S37       1.0  0.13197  0.26137  0.67449  1.0000
  Fe  Fe18      1.0  0.11454  0.20229  0.68705  1.0000
  S   S38       1.0  0.10490  0.18684  0.71439  1.0000
  Fe  Fe19      1.0  0.10608  0.22181  0.65077  1.0000
  S   S39       1.0  0.08450  0.23013  0.63457  1.0000
  S   S40       1.0  0.14112  0.20947  0.68075  1.0000
  S   S41       1.0  0.13180  0.23144  0.64165  1.0000
  Fe  Fe20      1.0  0.08086  0.14637  0.56060  1.0000
  S   S42       1.0  0.05556  0.13837  0.56179  1.0000
  S   S43       1.0  0.10724  0.12718  0.55957  1.0000
  Fe  Fe21      1.0  0.06285  0.18289  0.56716  1.0000
  S   S44       1.0  0.03576  0.17863  0.56814  1.0000
  S   S45       1.0  0.06682  0.20890  0.57052  1.0000
  Fe  Fe22      1.0  0.04442  0.15173  0.58480  1.0000
  S   S46       1.0  0.02474  0.14081  0.60850  1.0000
  Fe  Fe23      1.0  0.04863  0.16551  0.54473  1.0000
  S   S47       1.0  0.03169  0.16973  0.52446  1.0000
  S   S48       1.0  0.07039  0.15692  0.58560  1.0000
  S   S49       1.0  0.07489  0.17270  0.54179  1.0000
  S   S50       1.0  0.10731  0.45133  0.80209  1.0000
  H   H159      1.0  0.06382  0.06734  0.59221  1.0000
  C   C188      1.0  0.16194  0.48899  0.69113  1.0000
  C   C189      1.0  0.09190  0.34786  0.97322  1.0000
  Fe  Fe24      1.0  0.16818  0.28465  0.74431  1.0000
  S   S51       1.0  0.14692  0.30944  0.74177  1.0000
  S   S52       1.0  0.16674  0.25898  0.73831  1.0000
  Fe  Fe25      1.0  0.19068  0.30188  0.75732  1.0000
  S   S53       1.0  0.17130  0.32826  0.75553  1.0000
  C   C190      1.0  0.04967  0.48459  0.95090  1.0000
  Fe  Fe26      1.0  0.15055  0.31170  0.76792  1.0000
  S   S54       1.0  0.12564  0.32006  0.78797  1.0000
  Fe  Fe27      1.0  0.16945  0.32377  0.72972  1.0000
  S   S55       1.0  0.16776  0.34383  0.70401  1.0000
  S   S56       1.0  0.17010  0.28552  0.77168  1.0000
  S   S57       1.0  0.19059  0.29863  0.73027  1.0000
  Fe  Fe28      1.0  0.09232  0.38111  0.88491  1.0000
  S   S58       1.0  0.12205  0.37408  0.87505  1.0000
  S   S59       1.0  0.07420  0.40735  0.87632  1.0000
  Fe  Fe29      1.0  0.09173  0.34778  0.91393  1.0000
  S   S60       1.0  0.12114  0.33799  0.90656  1.0000
  S   S61       1.0  0.07518  0.33242  0.93735  1.0000
  Fe  Fe30      1.0  0.12283  0.36602  0.90403  1.0000
  S   S62       1.0  0.14326  0.37117  0.91544  1.0000
  Fe  Fe31      1.0  0.11766  0.34661  0.87836  1.0000
  S   S63       1.0  0.13517  0.32705  0.86176  1.0000
  S   S64       1.0  0.09365  0.37530  0.91358  1.0000
  S   S65       1.0  0.08771  0.35420  0.88595  1.0000
  H   H160      1.0  0.03904  0.35347  0.95181  1.0000
  S   S66       1.0  0.12464  0.44014  0.94664  1.0000
  C   C191      1.0  0.04508  0.24432  0.77292  1.0000
  C   C192      1.0  0.13740  0.39128  0.92262  1.0000
  C   C193      1.0  0.11987  0.39785  0.93094  1.0000
  C   C194      1.0  0.11585  0.41322  0.93784  1.0000
  C   C195      1.0  0.12934  0.42199  0.93647  1.0000
  C   C196      1.0  0.14667  0.41581  0.92756  1.0000
  C   C197      1.0  0.15069  0.40045  0.92072  1.0000
  H   H161      1.0  0.10960  0.39071  0.93267  1.0000
  H   H162      1.0  0.10240  0.41806  0.94450  1.0000
  H   H163      1.0  0.15718  0.42241  0.92651  1.0000
  H   H164      1.0  0.16419  0.39546  0.91424  1.0000
  C   C198      1.0  0.12826  0.32206  0.80846  1.0000
  C   C199      1.0  0.11497  0.33337  0.81830  1.0000
  C   C200      1.0  0.11684  0.33516  0.83470  1.0000
  C   C201      1.0  0.13179  0.32521  0.84151  1.0000
  C   C202      1.0  0.14470  0.31343  0.83196  1.0000
  C   C203      1.0  0.14315  0.31209  0.81532  1.0000
  H   H165      1.0  0.10335  0.34091  0.81309  1.0000
  H   H166      1.0  0.10680  0.34420  0.84205  1.0000
  H   H167      1.0  0.15606  0.30548  0.83740  1.0000
  H   H168      1.0  0.15334  0.30319  0.80794  1.0000
  C   C204      1.0  0.04486  0.08676  0.50992  1.0000
  C   C205      1.0  0.05754  0.49356  0.86028  1.0000
  C   C206      1.0  0.02009  0.07235  0.56389  1.0000
  C   C207      1.0  0.18055  0.24242  0.82797  1.0000
  C   C208      1.0  0.17224  0.37265  0.95545  1.0000
  C   C209      1.0  0.11531  0.46630  0.73468  1.0000
  C   C210      1.0  0.04272  0.30038  0.96223  1.0000
  C   C211      1.0  0.13144  0.46647  0.72202  1.0000
  C   C212      1.0  0.19616  0.29858  0.94942  1.0000
  H   H169      1.0  0.18733  0.30130  0.79528  1.0000
  C   C213      1.0  0.17987  0.39946  0.68989  1.0000
  C   C214      1.0  0.18378  0.38770  0.70563  1.0000
  C   C215      1.0  0.17986  0.37058  0.71045  1.0000
  C   C216      1.0  0.17260  0.36509  0.69924  1.0000
  C   C217      1.0  0.16911  0.37675  0.68342  1.0000
  C   C218      1.0  0.17254  0.39388  0.67887  1.0000
  H   H170      1.0  0.16490  0.27464  0.61486  1.0000
  H   H171      1.0  0.15269  0.39590  0.96170  1.0000
  H   H172      1.0  0.16355  0.37256  0.67469  1.0000
  H   H173      1.0  0.16962  0.40280  0.66666  1.0000
  C   C219      1.0  0.08353  0.41952  0.85571  1.0000
  C   C220      1.0  0.07666  0.43783  0.85093  1.0000
  C   C221      1.0  0.08419  0.44786  0.83463  1.0000
  C   C222      1.0  0.09834  0.43945  0.82297  1.0000
  C   C223      1.0  0.10502  0.42112  0.82764  1.0000
  C   C224      1.0  0.09777  0.41116  0.84408  1.0000
  H   H174      1.0  0.06570  0.44424  0.85996  1.0000
  H   H175      1.0  0.07889  0.46200  0.83095  1.0000
  H   H176      1.0  0.11570  0.41462  0.81842  1.0000
  H   H177      1.0  0.10292  0.39699  0.84755  1.0000
  C   C225      1.0  0.05632  0.43114  0.91949  1.0000
  C   C226      1.0  0.06516  0.33144  0.97316  1.0000
  C   C227      1.0  0.07693  0.33670  0.95718  1.0000
  C   C228      1.0  0.09017  0.34513  0.95722  1.0000
  C   C229      1.0  0.12767  0.43172  0.68464  1.0000
  H   H178      1.0  0.09957  0.34892  0.94506  1.0000
  H   H179      1.0  0.12635  0.16808  0.59751  1.0000
  C   C230      1.0  0.11338  0.01903  0.52934  1.0000
  H   H180      1.0  0.02461  0.48369  0.96959  1.0000
  H   H181      1.0  0.08261  0.34995  0.77109  1.0000
  C   C231      1.0  0.14187  0.26035  0.69220  1.0000
  C   C232      1.0  0.14524  0.27600  0.69423  1.0000
  C   C233      1.0  0.15259  0.27583  0.70845  1.0000
  C   C234      1.0  0.15692  0.25991  0.72061  1.0000
  C   C235      1.0  0.15354  0.24428  0.71862  1.0000
  C   C236      1.0  0.14606  0.24448  0.70448  1.0000
  H   H182      1.0  0.14195  0.28836  0.68485  1.0000
  H   H183      1.0  0.15490  0.28802  0.70997  1.0000
  H   H184      1.0  0.15643  0.23201  0.72823  1.0000
  H   H185      1.0  0.14334  0.23240  0.70321  1.0000
  C   C237      1.0  0.08062  0.22268  0.61712  1.0000
  C   C238      1.0  0.08947  0.20635  0.61218  1.0000
  C   C239      1.0  0.08520  0.20147  0.59822  1.0000
  C   C240      1.0  0.07219  0.21301  0.58909  1.0000
  C   C241      1.0  0.06362  0.22922  0.59408  1.0000
  C   C242      1.0  0.06759  0.23387  0.60804  1.0000
  H   H186      1.0  0.09956  0.19759  0.61906  1.0000
  H   H187      1.0  0.09216  0.18903  0.59431  1.0000
  H   H188      1.0  0.05375  0.23834  0.58708  1.0000
  H   H189      1.0  0.06066  0.24647  0.61166  1.0000
  C   C243      1.0  0.05020  0.09495  0.64828  1.0000
  C   C244      1.0  0.05877  0.09789  0.63027  1.0000
  C   C245      1.0  0.05123  0.11222  0.61798  1.0000
  C   C246      1.0  0.03493  0.12334  0.62364  1.0000
  C   C247      1.0  0.02640  0.12038  0.64162  1.0000
  C   C248      1.0  0.03417  0.10640  0.65396  1.0000
  H   H190      1.0  0.07123  0.08920  0.62577  1.0000
  H   H191      1.0  0.05794  0.11452  0.60410  1.0000
  H   H192      1.0  0.01383  0.12899  0.64601  1.0000
  H   H193      1.0  0.02760  0.10424  0.66788  1.0000
  C   C249      1.0  0.17103  0.05582  0.69401  1.0000
  C   C250      1.0  0.17886  0.06047  0.67596  1.0000
  C   C251      1.0  0.17168  0.05756  0.66298  1.0000
  C   C252      1.0  0.15621  0.05057  0.66777  1.0000
  C   C253      1.0  0.14780  0.04681  0.68577  1.0000
  C   C254      1.0  0.15536  0.04914  0.69884  1.0000
  H   H194      1.0  0.19503  0.13935  0.55454  1.0000
  H   H195      1.0  0.17839  0.06037  0.64915  1.0000
  H   H196      1.0  0.06702  0.17704  0.62230  1.0000
  C   C255      1.0  0.12496  0.27075  0.77237  1.0000
  C   C256      1.0  0.15034  0.14328  0.73320  1.0000
  C   C257      1.0  0.13519  0.14941  0.74545  1.0000
  C   C258      1.0  0.12121  0.16265  0.73957  1.0000
  C   C259      1.0  0.12242  0.17001  0.72141  1.0000
  C   C260      1.0  0.13774  0.16420  0.70913  1.0000
  C   C261      1.0  0.15163  0.15065  0.71500  1.0000
  H   H197      1.0  0.13426  0.14384  0.75953  1.0000
  H   H198      1.0  0.10959  0.16740  0.74914  1.0000
  H   H199      1.0  0.13882  0.17002  0.69509  1.0000
  H   H200      1.0  0.16339  0.14604  0.70548  1.0000
  C   C262      1.0  0.16947  0.05963  0.56156  1.0000
  C   C263      1.0  0.16335  0.05666  0.58000  1.0000
  C   C264      1.0  0.14506  0.05982  0.58739  1.0000
  C   C265      1.0  0.13286  0.06583  0.57631  1.0000
  C   C266      1.0  0.13893  0.06930  0.55785  1.0000
  C   C267      1.0  0.15724  0.06619  0.55048  1.0000
  H   H201      1.0  0.17272  0.05202  0.58859  1.0000
  H   H202      1.0  0.14043  0.05744  0.60167  1.0000
  H   H203      1.0  0.12951  0.07436  0.54925  1.0000
  H   H204      1.0  0.16183  0.06873  0.53628  1.0000
  C   C268      1.0  0.14908  0.12453  0.50798  1.0000
  C   C269      1.0  0.15185  0.11288  0.52399  1.0000
  C   C270      1.0  0.13898  0.11418  0.53968  1.0000
  C   C271      1.0  0.12306  0.12690  0.53951  1.0000
  C   C272      1.0  0.12011  0.13863  0.52351  1.0000
  C   C273      1.0  0.11222  0.12061  0.62098  1.0000
  H   H205      1.0  0.16383  0.10267  0.52437  1.0000
  H   H206      1.0  0.14127  0.10510  0.55201  1.0000
  H   H207      1.0  0.10777  0.14844  0.52326  1.0000
  C   C274      1.0  0.08599  0.41566  0.98282  1.0000
  H   H208      1.0  0.16358  0.01273  0.63713  1.0000
  C   C275      1.0  0.18213  0.19554  0.62436  1.0000
  C   C276      1.0  0.18062  0.21400  0.61989  1.0000
  C   C277      1.0  0.03668  0.04377  0.65344  1.0000
  C   C278      1.0  0.02514  0.09847  0.59671  1.0000
  H   H209      1.0  0.17004  0.22242  0.62742  1.0000
  H   H210      1.0  0.00089  0.09458  0.61561  1.0000
  H   H211      1.0  0.11503  0.08489  0.77881  1.0000
  H   H212      1.0  0.14772  0.07278  0.77308  1.0000
  C   C279      1.0  0.06433  0.18483  0.66062  1.0000
  C   C280      1.0  0.06778  0.19609  0.66936  1.0000
  C   C281      1.0  0.07711  0.18901  0.68303  1.0000
  C   C282      1.0  0.08328  0.17063  0.68781  1.0000
  H   H213      1.0  0.06340  0.21040  0.66535  1.0000
  H   H214      1.0  0.07991  0.19779  0.68966  1.0000
  H   H215      1.0  0.09094  0.16526  0.69810  1.0000
  H   H216      1.0  0.09607  0.47647  0.69285  1.0000
  S   S67       1.0  0.18572  0.47976  0.92502  1.0000
  H   H217      1.0  0.10180  0.10401  0.68290  1.0000
  H   H218      1.0  0.06050  0.42878  0.90605  1.0000
  H   H219      1.0  0.02903  0.46258  0.89571  1.0000
  C   C283      1.0  0.10269  0.27268  0.72520  1.0000
  H   H220      1.0  0.11583  0.10605  0.51865  1.0000
  C   C284      1.0  0.03031  0.32487  0.88172  1.0000
  H   H221      1.0  0.10271  0.47253  0.73076  1.0000
  H   H222      1.0  0.19461  0.20505  0.57041  1.0000
  H   H223      1.0  0.18752  0.17936  0.66868  1.0000
  C   C285      1.0  0.07681  0.39693  0.81875  1.0000
  C   C286      1.0  0.02286  0.10921  0.53516  1.0000
  C   C287      1.0  0.18370  0.00766  0.55607  1.0000
  H   H224      1.0  0.11031  0.27687  0.73202  1.0000
  C   C288      1.0  0.08392  0.07786  0.55408  1.0000
  C   C289      1.0  0.16610  0.17920  0.50725  1.0000
  H   H225      1.0  0.05377  0.00248  0.67554  1.0000
  C   C290      1.0  0.18707  0.32615  0.92897  1.0000
  H   H226      1.0  0.00754  0.00341  0.50382  1.0000
  C   C291      1.0  0.18766  0.44494  0.86330  1.0000
  H   H227      1.0  0.06948  0.39018  0.83110  1.0000
  C   C292      1.0  0.17461  0.35497  0.86178  1.0000
  H   H228      1.0  0.09864  0.00436  0.56612  1.0000
  C   C293      1.0  0.17280  0.38612  0.86071  1.0000
  C   C294      1.0  0.17141  0.37284  0.85298  1.0000
  P   P7        1.0  0.16741  0.40935  0.85016  1.0000
  C   C295      1.0  0.14463  0.41908  0.85935  1.0000
  C   C296      1.0  0.13570  0.43491  0.84985  1.0000
  C   C297      1.0  0.11802  0.44239  0.85677  1.0000
  C   C298      1.0  0.10905  0.43399  0.87315  1.0000
  C   C299      1.0  0.11791  0.41836  0.88281  1.0000
  C   C300      1.0  0.13569  0.41102  0.87602  1.0000
  C   C301      1.0  0.17043  0.41043  0.82672  1.0000
  C   C302      1.0  0.15623  0.40954  0.81999  1.0000
  C   C303      1.0  0.15895  0.40831  0.80230  1.0000
  C   C304      1.0  0.03363  0.43302  0.94671  1.0000
  S   S68       1.0  0.09985  0.49358  0.82316  1.0000
  H   H229      1.0  0.16792  0.37616  0.84018  1.0000
  H   H230      1.0  0.16241  0.44397  0.85960  1.0000
  H   H231      1.0  0.14236  0.44134  0.83700  1.0000
  H   H232      1.0  0.11113  0.45443  0.84917  1.0000
  H   H233      1.0  0.09513  0.43934  0.87816  1.0000
  H   H234      1.0  0.11095  0.41165  0.89540  1.0000
  H   H235      1.0  0.14226  0.39887  0.88367  1.0000
  H   H236      1.0  0.14318  0.40922  0.82857  1.0000
  H   H237      1.0  0.14792  0.40765  0.79723  1.0000
  H   H238      1.0  0.04506  0.31360  0.93488  1.0000
  C   C305      1.0  0.13150  0.45002  0.75780  1.0000
  C   C306      1.0  0.14754  0.45007  0.74530  1.0000
  C   C307      1.0  0.14755  0.45816  0.72743  1.0000
  C   C308      1.0  0.16714  0.29325  0.99223  1.0000
  C   C309      1.0  0.11504  0.12748  0.63409  1.0000
  H   H239      1.0  0.13162  0.44360  0.77156  1.0000
  H   H240      1.0  0.15997  0.44370  0.74948  1.0000
  C   C310      1.0  0.03232  0.07030  0.54785  1.0000
  H   H241      1.0  0.17602  0.46927  0.73968  1.0000
  H   H242      1.0  0.05477  0.32520  0.97317  1.0000
  C   C311      1.0  0.18706  0.17407  0.54463  1.0000
  C   C312      1.0  0.18034  0.18382  0.49353  1.0000
  C   C313      1.0  0.18538  0.13107  0.56028  1.0000
  C   C314      1.0  0.18227  0.24443  0.64829  1.0000
  H   H243      1.0  0.15421  0.46479  0.66585  1.0000
  H   H244      1.0  0.09007  0.36802  0.78732  1.0000
  H   H245      1.0  0.07055  0.11186  0.66685  1.0000
  H   H246      1.0  0.03929  0.05709  0.64940  1.0000
  H   H247      1.0  0.03387  0.32021  0.86942  1.0000
  C   C315      1.0  0.17956  0.00719  0.59436  1.0000
  H   H248      1.0  0.19205  0.23576  0.60234  1.0000
  H   H249      1.0  0.09411  0.11537  0.49901  1.0000
  H   H250      1.0  0.09278  0.11770  0.60840  1.0000
  H   H251      1.0  0.13100  0.14655  0.49536  1.0000
  H   H252      1.0  0.14503  0.48485  0.75111  1.0000
  C   C316      1.0  0.01449  0.08835  0.61042  1.0000
  H   H253      1.0  0.19221  0.06551  0.59930  1.0000
  C   C317      1.0  0.03495  0.03822  0.55712  1.0000
  C   C318      1.0  0.00811  0.33304  0.90733  1.0000
  H   H254      1.0  0.18264  0.29332  0.68784  1.0000
  C   C319      1.0  0.10033  0.28268  0.70838  1.0000
  C   C320      1.0  0.03910  0.43000  0.92933  1.0000
  H   H255      1.0  0.00256  0.33898  0.97245  1.0000
  C   C321      1.0  0.07968  0.15929  0.67927  1.0000
  H   H256      1.0  0.09977  0.09789  0.75372  1.0000
  H   H257      1.0  0.16976  0.23543  0.83167  1.0000
  H   H258      1.0  0.03217  0.11475  0.55580  1.0000
  H   H259      1.0  0.15288  0.47987  0.88132  1.0000
  H   H260      1.0  0.01986  0.11244  0.59171  1.0000
  H   H261      1.0  0.04358  0.49291  0.94004  1.0000
  H   H262      1.0  0.15878  0.29495  0.87228  1.0000
  H   H263      1.0  0.07780  0.43850  0.79335  1.0000
  C   C322      1.0  0.19589  0.18471  0.61465  1.0000
  C   C323      1.0  0.13992  0.01543  0.58434  1.0000
  H   H264      1.0  0.15808  0.02303  0.55073  1.0000
  C   C324      1.0  0.11643  0.46875  0.90662  1.0000
  C   C325      1.0  0.15073  0.07873  0.74468  1.0000
  H   H265      1.0  0.10625  0.29420  0.70239  1.0000
  Fe  Fe32      1.0  0.14811  0.45339  0.93868  1.0000
  C   C326      1.0  0.14096  0.07836  0.76211  1.0000
  S   S69       1.0  0.13122  0.48848  0.78754  1.0000
  C   C327      1.0  0.03503  0.15835  0.50718  1.0000
  C   C328      1.0  0.11704  0.30786  0.97431  1.0000
  C   C329      1.0  0.08412  0.26205  0.70621  1.0000
  H   H266      1.0  0.15160  0.46110  0.81162  1.0000
  C   C330      1.0  0.05194  0.14997  0.49901  1.0000
  C   C331      1.0  0.08635  0.25206  0.72306  1.0000
  C   C332      1.0  0.01910  0.31467  0.98330  1.0000
  H   H267      1.0  0.00899  0.14180  0.55909  1.0000
  C   C333      1.0  0.15299  0.47891  0.68604  1.0000
  H   H268      1.0  0.15148  0.18073  0.75121  1.0000
  H   H269      1.0  0.04965  0.05117  0.53253  1.0000
  H   H270      1.0  0.02784  0.99595  0.66896  1.0000
  H   H271      1.0  0.00980  0.10785  0.51518  1.0000
  C   C334      1.0  0.06534  0.46241  0.97891  1.0000
  C   C335      1.0  0.17305  0.31838  0.67123  1.0000
  C   C336      1.0  0.17702  0.33457  0.66087  1.0000
  C   C337      1.0  0.04595  0.48106  0.89121  1.0000
  H   H272      1.0  0.01011  0.22883  0.51288  1.0000
  C   C338      1.0  0.03975  0.05310  0.54454  1.0000
  H   H273      1.0  0.09000  0.28467  0.68551  1.0000
  H   H274      1.0  0.14648  0.14888  0.67566  1.0000
  C   C339      1.0  0.19805  0.30577  0.79745  1.0000
  C   C340      1.0  0.14193  0.19325  0.75151  1.0000
  C   C341      1.0  0.12149  0.01686  0.58970  1.0000
  C   C342      1.0  0.08630  0.49067  0.89438  1.0000
  H   H275      1.0  0.16000  0.31571  0.67296  1.0000
  H   H276      1.0  0.16699  0.34446  0.65466  1.0000
  C   C343      1.0  0.99859  0.20722  0.53031  1.0000
  P   P8        1.0  0.16100  0.16042  0.57228  1.0000
  C   C344      1.0  0.14179  0.17227  0.56297  1.0000
  C   C345      1.0  0.16820  0.13758  0.56960  1.0000
  C   C346      1.0  0.15653  0.12584  0.57757  1.0000
  C   C347      1.0  0.16172  0.10817  0.57563  1.0000
  C   C348      1.0  0.17873  0.10195  0.56607  1.0000
  C   C349      1.0  0.13507  0.19037  0.56338  1.0000
  C   C350      1.0  0.11974  0.19964  0.55692  1.0000
  C   C351      1.0  0.11121  0.19098  0.54977  1.0000
  C   C352      1.0  0.11790  0.17302  0.54925  1.0000
  C   C353      1.0  0.13300  0.16363  0.55596  1.0000
  H   H277      1.0  0.14327  0.13045  0.58501  1.0000
  H   H278      1.0  0.15251  0.09929  0.58143  1.0000
  S   S70       1.0  0.08881  0.99734  0.64278  1.0000
  H   H279      1.0  0.14139  0.19722  0.56912  1.0000
  H   H280      1.0  0.11421  0.21344  0.55779  1.0000
  H   H281      1.0  0.09923  0.19813  0.54492  1.0000
  H   H282      1.0  0.11124  0.16619  0.54393  1.0000
  H   H283      1.0  0.13764  0.14969  0.55553  1.0000
  H   H284      1.0  0.18215  0.14956  0.59937  1.0000
  C   C354      1.0  0.08017  0.10865  0.53850  1.0000
  C   C355      1.0  0.08050  0.13221  0.62936  1.0000
  C   C356      1.0  0.03733  0.31388  0.94823  1.0000
  C   C357      1.0  0.09668  0.41462  0.78777  1.0000
  C   C358      1.0  0.10193  0.39609  0.79338  1.0000
  C   C359      1.0  0.09187  0.38734  0.80900  1.0000
  P   P9        1.0  0.12173  0.38350  0.78126  1.0000
  C   C360      1.0  0.11611  0.36939  0.77017  1.0000
  C   C361      1.0  0.13396  0.39770  0.76322  1.0000
  C   C362      1.0  0.12610  0.40735  0.74878  1.0000
  C   C363      1.0  0.13622  0.41577  0.73323  1.0000
  C   C364      1.0  0.15433  0.41449  0.73186  1.0000
  C   C365      1.0  0.16222  0.40519  0.74626  1.0000
  C   C366      1.0  0.15208  0.39691  0.76193  1.0000
  C   C367      1.0  0.12809  0.36414  0.75502  1.0000
  C   C368      1.0  0.12357  0.35418  0.74565  1.0000
  C   C369      1.0  0.10717  0.34909  0.75141  1.0000
  C   C370      1.0  0.09518  0.35417  0.76645  1.0000
  C   C371      1.0  0.09957  0.36434  0.77575  1.0000
  C   C372      1.0  0.13629  0.37028  0.79603  1.0000
  C   C373      1.0  0.13406  0.37357  0.81300  1.0000
  C   C374      1.0  0.14611  0.36389  0.82378  1.0000
  C   C375      1.0  0.16086  0.35139  0.81748  1.0000
  C   C376      1.0  0.16327  0.34824  0.80055  1.0000
  C   C377      1.0  0.15087  0.35735  0.79004  1.0000
  H   H285      1.0  0.10451  0.42195  0.77633  1.0000
  H   H286      1.0  0.09599  0.37314  0.81390  1.0000
  H   H287      1.0  0.11229  0.40775  0.74930  1.0000
  H   H288      1.0  0.13007  0.42297  0.72216  1.0000
  H   H289      1.0  0.16223  0.42077  0.71966  1.0000
  H   H290      1.0  0.17632  0.40405  0.74517  1.0000
  H   H291      1.0  0.15870  0.38938  0.77264  1.0000
  H   H292      1.0  0.14096  0.36777  0.75030  1.0000
  H   H293      1.0  0.13293  0.35024  0.73400  1.0000
  H   H294      1.0  0.10391  0.34097  0.74439  1.0000
  H   H295      1.0  0.12309  0.38350  0.81806  1.0000
  H   H296      1.0  0.14384  0.36581  0.83718  1.0000
  H   H297      1.0  0.17020  0.34386  0.82586  1.0000
  H   H298      1.0  0.17462  0.33858  0.79560  1.0000
  H   H299      1.0  0.15291  0.35458  0.77707  1.0000
  C   C378      1.0  0.03145  0.37663  0.97924  1.0000
  C   C379      1.0  0.09786  0.13356  0.72994  1.0000
  C   C380      1.0  0.08999  0.26625  0.77917  1.0000
  H   H300      1.0  0.11582  0.06709  0.52887  1.0000
  H   H301      1.0  0.04247  0.43774  0.96809  1.0000
  C   C381      1.0  0.00194  0.21948  0.51426  1.0000
  H   H302      1.0  0.12258  0.13910  0.70011  1.0000
  H   H303      1.0  0.16219  0.28648  0.98512  1.0000
  C   C382      1.0  0.13488  0.08902  0.50249  1.0000
  C   C383      1.0  0.18434  0.31511  0.94601  1.0000
  C   C384      1.0  0.16960  0.25515  0.63857  1.0000
  H   H304      1.0  0.00713  0.16534  0.50679  1.0000
  C   C385      1.0  0.06820  0.47883  0.94819  1.0000
  H   H305      1.0  0.04056  0.40095  0.97241  1.0000
  H   H306      1.0  0.03787  0.39798  0.89496  1.0000
  C   C386      1.0  0.03775  0.11304  0.70419  1.0000
  H   H307      1.0  0.19706  0.17047  0.61810  1.0000
  H   H308      1.0  0.17917  0.33218  0.98857  1.0000
  C   C387      1.0  0.06688  0.33415  0.98918  1.0000
  P   P10       1.0  0.01219  0.42929  0.96005  1.0000
  H   H309      1.0  0.13947  0.08658  0.68827  1.0000
  H   H310      1.0  0.11490  0.28758  0.79145  1.0000
  H   H311      1.0  0.13640  0.41902  0.68278  1.0000
  C   C388      1.0  0.14396  0.35498  0.96783  1.0000
  H   H312      1.0  0.07826  0.00985  0.51905  1.0000
  C   C389      1.0  0.03355  0.30072  0.97976  1.0000
  H   H313      1.0  0.13714  0.19586  0.72558  1.0000
  H   H314      1.0  0.09097  0.06653  0.56230  1.0000
  C   C390      1.0  0.02019  0.15877  0.50073  1.0000
  H   H315      1.0  0.00584  0.05920  0.58866  1.0000
  H   H316      1.0  0.17780  0.23599  0.66098  1.0000
  H   H317      1.0  0.15569  0.25458  0.64351  1.0000
  H   H318      1.0  0.01508  0.18787  0.61113  1.0000
  H   H319      1.0  0.15595  0.49473  0.70277  1.0000
  C   C391      1.0  0.09422  0.27688  0.78811  1.0000
  H   H320      1.0  0.06024  0.42284  0.82079  1.0000
  C   C392      1.0  0.04597  0.43634  0.95439  1.0000
  C   C393      1.0  0.18584  0.02273  0.61907  1.0000
  C   C394      1.0  0.00271  0.37869  0.97342  1.0000
  H   H321      1.0  0.19090  0.06560  0.67207  1.0000
  C   C395      1.0  0.05626  0.49234  0.87842  1.0000
  C   C396      1.0  0.08126  0.00032  0.49549  1.0000
  C   C397      1.0  0.18681  0.48425  0.66637  1.0000
  C   C398      1.0  0.07750  0.23755  0.76600  1.0000
  C   C399      1.0  0.00894  0.13407  0.54985  1.0000
  C   C400      1.0  0.18096  0.20013  0.71727  1.0000
  C   C401      1.0  0.17838  0.18310  0.71891  1.0000
  C   C402      1.0  0.18523  0.16893  0.73157  1.0000
  P   P11       1.0  0.13114  0.47593  0.69887  1.0000
  H   H322      1.0  0.04507  0.04929  0.61600  1.0000
  H   H323      1.0  0.19783  0.24992  0.71063  1.0000
  H   H324      1.0  0.01921  0.37555  0.90357  1.0000
  H   H325      1.0  0.08212  0.43416  0.92001  1.0000
  C   C403      1.0  0.18859  0.20045  0.77400  1.0000
  C   C404      1.0  0.18399  0.49312  0.72317  1.0000
  C   C405      1.0  0.14438  0.13550  0.67809  1.0000
  S   S71       1.0  0.17170  0.44445  0.95153  1.0000
  C   C406      1.0  0.09496  0.12296  0.61863  1.0000
  H   H326      1.0  0.12699  0.01122  0.55124  1.0000
  C   C407      1.0  0.00663  0.43840  0.97977  1.0000
  H   H327      1.0  0.08661  0.15683  0.74122  1.0000
  C   C408      1.0  0.03693  0.47129  0.88590  1.0000
  H   H328      1.0  0.06765  0.37980  0.99005  1.0000
  H   H329      1.0  0.17776  0.25253  0.80075  1.0000
  C   C409      1.0  0.16116  0.34556  0.96160  1.0000
  C   C410      1.0  0.17876  0.21802  0.77083  1.0000
  C   C411      1.0  0.10051  0.09146  0.69212  1.0000
  H   H330      1.0  0.18595  0.23479  0.85420  1.0000
  H   H331      1.0  0.17563  0.21107  0.70739  1.0000
  H   H332      1.0  0.17110  0.18085  0.71034  1.0000
  C   C412      1.0  0.16891  0.00581  0.61166  1.0000
  C   C413      1.0  0.17206  0.01355  0.62391  1.0000
  C   C414      1.0  0.19414  0.17180  0.74301  1.0000
  C   C415      1.0  0.15379  0.10618  0.67138  1.0000
  H   H333      1.0  0.18332  0.15571  0.73274  1.0000
  H   H334      1.0  0.12335  0.11349  0.61256  1.0000
  H   H335      1.0  0.01866  0.35450  0.98589  1.0000
  H   H336      1.0  0.06556  0.06349  0.55289  1.0000
  C   C416      1.0  0.00969  0.11490  0.52502  1.0000
  C   C417      1.0  0.11168  0.27915  0.78469  1.0000
  C   C418      1.0  0.03931  0.06296  0.61070  1.0000
  C   C419      1.0  0.18248  0.42054  0.85398  1.0000
  H   H337      1.0  0.14925  0.04544  0.71277  1.0000
  C   C420      1.0  0.16764  0.07761  0.61448  1.0000
  C   C421      1.0  0.10792  0.05075  0.51620  1.0000
  H   H338      1.0  0.07636  0.26482  0.78195  1.0000
  C   C422      1.0  0.09748  0.05867  0.71530  1.0000
  H   H339      1.0  0.05438  0.28997  0.95948  1.0000
  H   H340      1.0  0.12336  0.49299  0.90644  1.0000
  C   C423      1.0  0.10330  0.25777  0.76674  1.0000
  C   C424      1.0  0.19739  0.02413  0.52105  1.0000
  C   C425      1.0  0.18099  0.36333  0.88589  1.0000
  C   C426      1.0  0.17763  0.38120  0.87725  1.0000
  H   H341      1.0  0.05701  0.19080  0.65015  1.0000
  H   H342      1.0  0.17278  0.18616  0.58482  1.0000
  C   C427      1.0  0.18038  0.18523  0.57151  1.0000
  C   C428      1.0  0.11605  0.22493  0.75282  1.0000
  C   C429      1.0  0.15141  0.99883  0.58321  1.0000
  Fe  Fe33      1.0  0.09651  0.02340  0.64130  1.0000
  S   S72       1.0  0.12280  0.03006  0.62569  1.0000
  C   C430      1.0  0.15492  0.15899  0.59596  1.0000
  C   C431      1.0  0.15510  0.38184  0.96185  1.0000
  C   C432      1.0  0.17005  0.31057  0.98466  1.0000
  C   C433      1.0  0.16830  0.15334  0.60581  1.0000
  H   H343      1.0  0.06812  0.02377  0.61867  1.0000
  C   C434      1.0  0.17779  0.17369  0.56234  1.0000
  H   H344      1.0  0.17858  0.39114  0.88364  1.0000
  C   C435      1.0  0.07156  0.41531  0.81294  1.0000
  C   C436      1.0  0.13705  0.16401  0.60463  1.0000
  S   S73       1.0  0.19239  0.05507  0.55266  1.0000
  C   C437      1.0  0.01364  0.32817  0.96933  1.0000
  H   H345      1.0  0.15652  0.23753  0.78087  1.0000
  C   C438      1.0  0.08407  0.14743  0.73516  1.0000
  H   H346      1.0  0.18392  0.31057  0.82337  1.0000
  C   C439      1.0  0.10515  0.46423  0.69018  1.0000
  C   C440      1.0  0.17593  0.40772  0.79129  1.0000
  H   H347      1.0  0.04566  0.19314  0.60300  1.0000
  C   C441      1.0  0.13165  0.31355  0.97560  1.0000
  H   H348      1.0  0.17822  0.40665  0.77760  1.0000
  C   C442      1.0  0.13283  0.16436  0.62268  1.0000
  C   C443      1.0  0.11441  0.00164  0.59449  1.0000
  C   C444      1.0  0.11369  0.48719  0.90397  1.0000
  H   H349      1.0  0.11915  0.16893  0.62920  1.0000
  C   C445      1.0  0.07018  0.16628  0.66558  1.0000
  H   H350      1.0  0.03258  0.22300  0.78968  1.0000
  H   H351      1.0  0.05706  0.39796  0.91455  1.0000
  H   H352      1.0  0.13602  0.04125  0.68970  1.0000
  H   H353      1.0  0.16010  0.45787  0.71789  1.0000
  H   H354      1.0  0.08019  0.46580  0.89418  1.0000
  C   C446      1.0  0.06899  0.39262  0.99106  1.0000
  C   C447      1.0  0.16400  0.15361  0.62387  1.0000
  H   H355      1.0  0.16498  0.07334  0.74216  1.0000
  H   H356      1.0  0.08426  0.14506  0.68339  1.0000
  C   C448      1.0  0.01272  0.32696  0.89149  1.0000
  H   H357      1.0  0.05722  0.37605  0.94319  1.0000
  C   C449      1.0  0.05028  0.01048  0.61371  1.0000
  C   C450      1.0  0.19059  0.11336  0.55852  1.0000
  C   C451      1.0  0.12258  0.08521  0.76529  1.0000
  C   C452      1.0  0.04149  0.18407  0.61531  1.0000
  C   C453      1.0  0.05352  0.17494  0.62628  1.0000
  C   C454      1.0  0.04831  0.38870  0.91875  1.0000
  C   C455      1.0  0.04845  0.37630  0.93485  1.0000
  C   C456      1.0  0.09485  0.12167  0.72149  1.0000
  H   H358      1.0  0.07490  0.11461  0.71244  1.0000
  C   C457      1.0  0.01886  0.02288  0.65526  1.0000
  S   S74       1.0  0.18422  0.07250  0.50329  1.0000
  C   C458      1.0  0.09499  0.07879  0.68695  1.0000
  C   C459      1.0  0.14631  0.15939  0.63221  1.0000
  S   S75       1.0  0.14286  0.48170  0.94118  1.0000
  H   H359      1.0  0.08113  0.24005  0.72839  1.0000
  H   H360      1.0  0.09654  0.04585  0.72415  1.0000
  C   C460      1.0  0.03755  0.38858  0.90765  1.0000
  C   C461      1.0  0.03808  0.36349  0.93972  1.0000
  C   C462      1.0  0.17905  0.02781  0.52811  1.0000
  C   C463      1.0  0.10317  0.07123  0.72048  1.0000
  C   C464      1.0  0.14599  0.31551  0.96092  1.0000
  H   H361      1.0  0.06353  0.14981  0.50364  1.0000
  H   H362      1.0  0.10229  0.35417  0.97320  1.0000
  C   C465      1.0  0.06123  0.21505  0.78481  1.0000
  H   H363      1.0  0.00434  0.20694  0.54125  1.0000
  C   C466      1.0  0.06392  0.13750  0.72411  1.0000
  C   C467      1.0  0.02417  0.18120  0.61996  1.0000
  C   C468      1.0  0.04821  0.16308  0.64220  1.0000
  P   P12       1.0  0.06414  0.15125  0.65602  1.0000
  C   C469      1.0  0.05998  0.11756  0.67678  1.0000
  H   H364      1.0  0.17282  0.30827  0.88796  1.0000
  H   H365      1.0  0.08971  0.21063  0.77762  1.0000
  C   C470      1.0  0.02748  0.36306  0.92855  1.0000
  C   C471      1.0  0.02712  0.37582  0.91254  1.0000
  H   H366      1.0  0.17014  0.03730  0.52022  1.0000
  H   H367      1.0  0.10665  0.06789  0.73334  1.0000
  H   H368      1.0  0.05884  0.03324  0.66645  1.0000
  C   C472      1.0  0.05407  0.13606  0.67482  1.0000
  C   C473      1.0  0.05194  0.10614  0.69156  1.0000
  C   C474      1.0  0.12137  0.02215  0.54154  1.0000
  H   H369      1.0  0.00562  0.16650  0.63886  1.0000
  C   C475      1.0  0.06335  0.43692  0.94469  1.0000
  C   C476      1.0  0.19018  0.20303  0.72847  1.0000
  C   C477      1.0  0.02113  0.33702  0.91354  1.0000
  C   C478      1.0  0.04332  0.32888  0.88776  1.0000
  C   C479      1.0  0.08144  0.42413  0.79742  1.0000
  H   H370      1.0  0.14315  0.16061  0.64591  1.0000
  C   C480      1.0  0.17621  0.43717  0.85879  1.0000
  H   H371      1.0  0.10296  0.06189  0.50626  1.0000
  H   H372      1.0  0.10320  0.14223  0.65459  1.0000
  C   C481      1.0  0.14221  0.08612  0.73040  1.0000
  H   H373      1.0  0.10688  0.44685  0.90493  1.0000
  P   P13       1.0  0.17524  0.99703  0.57873  1.0000
  C   C482      1.0  0.16606  0.45142  0.78797  1.0000
  C   C483      1.0  0.03079  0.16013  0.64671  1.0000
  H   H374      1.0  0.16175  0.11229  0.63390  1.0000
  C   C484      1.0  0.04002  0.14293  0.68777  1.0000
  H   H375      1.0  0.03532  0.15720  0.68646  1.0000
  P   P14       1.0  0.01560  0.34545  0.93364  1.0000
  H   H376      1.0  0.04493  0.47981  0.90527  1.0000
  C   C485      1.0  0.03877  0.33496  0.90357  1.0000
  H   H377      1.0  0.05698  0.32736  0.88019  1.0000
  C   C486      1.0  0.17531  0.35456  0.95541  1.0000
  S   S76       1.0  0.16443  0.45797  0.91079  1.0000
  C   C487      1.0  0.04866  0.48359  0.85508  1.0000
  H   H378      1.0  0.17450  0.15021  0.63123  1.0000
  C   C488      1.0  0.08317  0.13927  0.64248  1.0000
  C   C489      1.0  0.00191  0.45696  0.97809  1.0000
  C   C490      1.0  0.10310  0.46416  0.98878  1.0000
  C   C491      1.0  0.11401  0.09262  0.75102  1.0000
  C   C492      1.0  0.06373  0.01148  0.62153  1.0000
  H   H379      1.0  0.10130  0.03151  0.50644  1.0000
  C   C493      1.0  0.10059  0.13683  0.64478  1.0000
  H   H380      1.0  0.02647  0.15046  0.65838  1.0000
  C   C494      1.0  0.13321  0.13751  0.50773  1.0000
  H   H381      1.0  0.16029  0.06861  0.61320  1.0000
  C   C495      1.0  0.11008  0.43560  0.68261  1.0000
  H   H382      1.0  0.04908  0.33808  0.90801  1.0000
  C   C496      1.0  0.17943  0.35021  0.87822  1.0000
  H   H383      1.0  0.14794  0.00203  0.51206  1.0000
  C   C497      1.0  0.11537  0.45823  0.75255  1.0000
  H   H384      1.0  0.14489  0.09187  0.63035  1.0000
  H   H385      1.0  0.14752  0.44066  0.69140  1.0000
  C   C498      1.0  0.10692  0.03346  0.51644  1.0000
  C   C499      1.0  0.02256  0.32776  0.95162  1.0000
  C   C500      1.0  0.13400  0.44409  0.68938  1.0000
  H   H386      1.0  0.04329  0.36867  0.98390  1.0000
  C   C501      1.0  0.07602  0.46775  0.96211  1.0000
  H   H387      1.0  0.06574  0.10181  0.50048  1.0000
  H   H388      1.0  0.03020  0.42629  0.92352  1.0000
  H   H389      1.0  0.15013  0.08616  0.71708  1.0000
  H   H390      1.0  0.06723  0.13397  0.62729  1.0000
  H   H391      1.0  0.14426  0.08509  0.51115  1.0000
  C   C502      1.0  0.04776  0.03030  0.66321  1.0000
  H   H392      1.0  0.13284  0.34844  0.97266  1.0000
  H   H393      1.0  0.12844  0.12574  0.63585  1.0000
  C   C503      1.0  0.12383  0.09337  0.73343  1.0000
  H   H394      1.0  0.10297  0.45842  0.76241  1.0000
  H   H395      1.0  0.17781  0.33872  0.92588  1.0000
  C   C504      1.0  0.15892  0.09077  0.62420  1.0000
  H   H396      1.0  0.16399  0.18529  0.81485  1.0000
  C   C505      1.0  0.16846  0.10198  0.62650  1.0000
  C   C506      1.0  0.04288  0.09088  0.59011  1.0000
  Fe  Fe34      1.0  0.16779  0.47349  0.95189  1.0000
  C   C507      1.0  0.06713  0.14944  0.73219  1.0000
  C   C508      1.0  0.16825  0.19451  0.80264  1.0000
  C   C509      1.0  0.15577  0.12372  0.66773  1.0000
  P   P15       1.0  0.11287  0.10376  0.71500  1.0000
  C   C510      1.0  0.07770  0.12365  0.71873  1.0000
  C   C511      1.0  0.10467  0.08774  0.70893  1.0000
  C   C512      1.0  0.09335  0.06247  0.69858  1.0000
  H   H397      1.0  0.08902  0.05272  0.69454  1.0000
  C   C513      1.0  0.08400  0.39934  0.98116  1.0000
  H   H398      1.0  0.05647  0.09185  0.69300  1.0000
  H   H399      1.0  0.15593  0.31366  0.93322  1.0000
  C   C514      1.0  0.17266  0.28974  0.87294  1.0000
  H   H400      1.0  0.05075  0.13908  0.72194  1.0000
  H   H401      1.0  0.00738  0.01979  0.65303  1.0000
  H   H402      1.0  0.12760  0.38028  0.97247  1.0000
  C   C515      1.0  0.14034  0.10042  0.68531  1.0000
  C   C516      1.0  0.07171  0.99652  0.63277  1.0000
  H   H403      1.0  0.04442  0.02214  0.60490  1.0000
  H   H404      1.0  0.06750  0.00581  0.49447  1.0000
  C   C517      1.0  0.11533  0.05372  0.52879  1.0000
  C   C518      1.0  0.06940  0.07621  0.54860  1.0000
  C   C519      1.0  0.03431  0.07843  0.50464  1.0000
  C   C520      1.0  0.01765  0.36859  0.98012  1.0000
  H   H405      1.0  0.11097  0.13221  0.73234  1.0000
  C   C521      1.0  0.00110  0.39702  0.96667  1.0000
  C   C522      1.0  0.17858  0.46457  0.80442  1.0000
  H   H406      1.0  0.09205  0.08155  0.67387  1.0000
  H   H407      1.0  0.05654  0.16037  0.73604  1.0000
  C   C523      1.0  0.12880  0.11215  0.69583  1.0000
  Fe  Fe35      1.0  0.10530  0.48029  0.80028  1.0000
  C   C524      1.0  0.14532  0.31191  0.94489  1.0000
  C   C525      1.0  0.01883  0.16924  0.63566  1.0000
  C   C526      1.0  0.19276  0.19607  0.56341  1.0000
  C   C527      1.0  0.12204  0.03946  0.54144  1.0000
  C   C528      1.0  0.18979  0.24205  0.84068  1.0000
  H   H408      1.0  0.03118  0.46517  0.86362  1.0000
  C   C529      1.0  0.13090  0.12979  0.69209  1.0000
  H   H409      1.0  0.16663  0.12796  0.65738  1.0000
  H   H410      1.0  0.16323  0.09678  0.66401  1.0000
  C   C530      1.0  0.18738  0.41001  0.81550  1.0000
  H   H411      1.0  0.19416  0.28959  0.96225  1.0000
  H   H412      1.0  0.01915  0.02883  0.58280  1.0000
  H   H413      1.0  0.07657  0.48259  0.93521  1.0000
  C   C531      1.0  0.15883  0.21219  0.79956  1.0000
  H   H414      1.0  0.14709  0.45033  0.99010  1.0000
  H   H415      1.0  0.02360  0.07296  0.51423  1.0000
  C   C532      1.0  0.18297  0.18858  0.78982  1.0000
  H   H416      1.0  0.10020  0.09546  0.55396  1.0000
  C   C533      1.0  0.17878  0.49162  0.68132  1.0000
  H   H417      1.0  0.00262  0.32394  0.88672  1.0000
  H   H418      1.0  0.11276  0.02968  0.59098  1.0000
  Fe  Fe36      1.0  0.18774  0.45138  0.92365  1.0000
  H   H419      1.0  0.14731  0.21674  0.80939  1.0000
  C   C534      1.0  0.08743  0.00270  0.50929  1.0000
  C   C535      1.0  0.17480  0.26652  0.62237  1.0000
  C   C536      1.0  0.08049  0.34207  0.98925  1.0000
  C   C537      1.0  0.14095  0.37304  0.96792  1.0000
  C   C538      1.0  0.04474  0.01302  0.66855  1.0000
  C   C539      1.0  0.04508  0.22708  0.78314  1.0000
  H   H420      1.0  0.18237  0.36169  0.72280  1.0000
  H   H421      1.0  0.07302  0.43885  0.95082  1.0000
  C   C540      1.0  0.17223  0.01967  0.54556  1.0000
  C   C541      1.0  0.04672  0.46805  0.98145  1.0000
  H   H422      1.0  0.14528  0.02721  0.58163  1.0000
  C   C542      1.0  0.04993  0.07310  0.59703  1.0000
  C   C543      1.0  0.08920  0.09410  0.54923  1.0000
  H   H423      1.0  0.19030  0.41116  0.92230  1.0000
  H   H424      1.0  0.15475  0.44750  0.78627  1.0000
  C   C544      1.0  0.13368  0.20164  0.73717  1.0000
  H   H425      1.0  0.18466  0.16611  0.53689  1.0000
  S   S77       1.0  0.18363  0.42130  0.68350  1.0000
  H   H426      1.0  0.10488  0.30047  0.95715  1.0000
  H   H427      1.0  0.08507  0.45468  0.68420  1.0000
  H   H428      1.0  0.08433  0.12126  0.53483  1.0000
  C   C545      1.0  0.16091  0.47206  0.67060  1.0000
  C   C546      1.0  0.13068  0.30616  0.94370  1.0000
  C   C547      1.0  0.03020  0.00935  0.66472  1.0000
  H   H429      1.0  0.15525  0.18946  0.51207  1.0000
  H   H430      1.0  0.18186  0.33640  0.88501  1.0000
  H   H431      1.0  0.11426  0.22329  0.72669  1.0000
  C   C548      1.0  0.12294  0.46060  0.69179  1.0000
  H   H432      1.0  0.09766  0.42075  0.97498  1.0000
  C   C549      1.0  0.11651  0.30424  0.95834  1.0000
  C   C550      1.0  0.18585  0.07576  0.60683  1.0000
  Fe  Fe37      1.0  0.19592  0.07866  0.70750  1.0000
  C   C551      1.0  0.02166  0.07062  0.61783  1.0000
  H   H433      1.0  0.09347  0.47634  0.98551  1.0000
  H   H434      1.0  0.18397  0.44277  0.76487  1.0000
  H   H435      1.0  0.17667  0.47066  0.81553  1.0000
  C   C552      1.0  0.06549  0.10713  0.53309  1.0000
  H   H436      1.0  0.19499  0.44568  0.97562  1.0000
  H   H437      1.0  0.09413  0.39179  0.97229  1.0000
  C   C553      1.0  0.07739  0.22024  0.77628  1.0000
  H   H438      1.0  0.05825  0.11874  0.52529  1.0000
  H   H439      1.0  0.08394  0.28356  0.79757  1.0000
  C   C554      1.0  0.16429  0.45895  0.80237  1.0000
  H   H440      1.0  0.07733  0.25773  0.69862  1.0000
  H   H441      1.0  0.18265  0.45753  0.86748  1.0000
  H   H442      1.0  0.01452  0.08536  0.56702  1.0000
  C   C555      1.0  0.03896  0.47931  0.96755  1.0000
  C   C556      1.0  0.10427  0.46118  0.90316  1.0000
  H   H443      1.0  0.12815  0.46026  0.91108  1.0000
  C   C557      1.0  0.16402  0.22391  0.78358  1.0000
  P   P16       1.0  0.03997  0.08935  0.53262  1.0000
  C   C558      1.0  0.09112  0.27733  0.69886  1.0000
  H   H444      1.0  0.18240  0.22714  0.75838  1.0000
  C   C559      1.0  0.02227  0.11885  0.54772  1.0000
  C   C560      1.0  0.05985  0.09092  0.53828  1.0000
  C   C561      1.0  0.03170  0.13145  0.70224  1.0000
  H   H445      1.0  0.18786  0.02914  0.62852  1.0000
  C   C562      1.0  0.18503  0.25207  0.81057  1.0000
  H   H446      1.0  0.06125  0.20163  0.79260  1.0000
  C   C563      1.0  0.18684  0.09952  0.61977  1.0000
  C   C564      1.0  0.12081  0.26007  0.76348  1.0000
  H   H447      1.0  0.14420  0.19440  0.77733  1.0000
  C   C565      1.0  0.13766  0.20088  0.76632  1.0000
  H   H448      1.0  0.09035  0.46290  0.95954  1.0000
  P   P17       1.0  0.09824  0.24437  0.75457  1.0000
  H   H449      1.0  0.06099  0.26294  0.75641  1.0000
  P   P18       1.0  0.16533  0.32182  0.96302  1.0000
  C   C566      1.0  0.09554  0.25738  0.73276  1.0000
  C   C567      1.0  0.12475  0.21666  0.76701  1.0000
  H   H450      1.0  0.03139  0.10408  0.71539  1.0000
  C   C568      1.0  0.12071  0.46509  0.98737  1.0000
  H   H451      1.0  0.12131  0.22219  0.77875  1.0000
  C   C569      1.0  0.17187  0.48348  0.73530  1.0000
  C   C570      1.0  0.01452  0.40538  0.96660  1.0000
  C   C571      1.0  0.18240  0.44893  0.77587  1.0000
  C   C572      1.0  0.16571  0.16129  0.51459  1.0000
  H   H452      1.0  0.03256  0.25363  0.77153  1.0000
  H   H453      1.0  0.18418  0.46862  0.64949  1.0000
  H   H454      1.0  0.13844  0.27273  0.76947  1.0000
  H   H455      1.0  0.10516  0.42593  0.67905  1.0000
  S   S78       1.0  0.19366  0.43494  0.72348  1.0000
  H   H456      1.0  0.13119  0.25383  0.75380  1.0000
  C   C573      1.0  0.06121  0.24955  0.76436  1.0000
  C   C574      1.0  0.12068  0.21733  0.73785  1.0000
  H   H457      1.0  0.12470  0.47781  0.98286  1.0000
  C   C575      1.0  0.19607  0.31109  0.81334  1.0000
  C   C576      1.0  0.02252  0.04002  0.64881  1.0000
  Fe  Fe38      1.0  0.16100  0.48570  0.91422  1.0000
  C   C577      1.0  0.17787  0.47449  0.66099  1.0000
  C   C578      1.0  0.05797  0.09461  0.49699  1.0000
  C   C579      1.0  0.09880  0.45181  0.68546  1.0000
  S   S79       1.0  0.16734  0.48100  0.97761  1.0000
  H   H458      1.0  0.01284  0.02635  0.62169  1.0000
  H   H459      1.0  0.18441  0.35984  0.89876  1.0000
  H   H460      1.0  0.04090  0.02492  0.55477  1.0000
  H   H461      1.0  0.13014  0.30353  0.93127  1.0000
  H   H462      1.0  0.15803  0.99890  0.61571  1.0000
  C   C580      1.0  0.19685  0.45420  0.77807  1.0000
  P   P19       1.0  0.00835  0.05786  0.63638  1.0000
  H   H463      1.0  0.05135  0.09889  0.58000  1.0000
  H   H464      1.0  0.17336  0.34476  0.85588  1.0000
  C   C581      1.0  0.01523  0.05746  0.57632  1.0000
  H   H465      1.0  0.17941  0.13420  0.51445  1.0000
  C   C582      1.0  0.02269  0.04040  0.57300  1.0000
  H   H466      1.0  0.10023  0.00267  0.59976  1.0000
  H   H467      1.0  0.02063  0.13683  0.71198  1.0000
  H   H468      1.0  0.00969  0.45442  0.92506  1.0000
  H   H469      1.0  0.10582  0.30684  0.98553  1.0000
  C   C583      1.0  0.03817  0.47268  0.86783  1.0000
  C   C584      1.0  0.17976  0.14805  0.50865  1.0000
  H   H470      1.0  0.15451  0.15756  0.52475  1.0000
  S   S80       1.0  0.18146  0.05653  0.71077  1.0000
  C   C585      1.0  0.19317  0.22151  0.60585  1.0000
  C   C586      1.0  0.11875  0.10087  0.50676  1.0000
  H   H471      1.0  0.04991  0.48430  0.84110  1.0000
  H   H472      1.0  0.18274  0.08828  0.56456  1.0000
  H   H473      1.0  0.19155  0.21645  0.72737  1.0000
  H   H474      1.0  0.18312  0.37961  0.95031  1.0000
  C   C587      1.0  0.19006  0.40873  0.79787  1.0000
  C   C588      1.0  0.10657  0.10607  0.49567  1.0000
  C   C589      1.0  0.13339  0.44957  0.99149  1.0000
  C   C590      1.0  0.18060  0.29723  0.88185  1.0000
  H   H475      1.0  0.19644  0.23342  0.68925  1.0000
  C   C591      1.0  0.18268  0.27593  0.86444  1.0000
  H   H476      1.0  0.18949  0.39190  0.71423  1.0000
  C   C592      1.0  0.19562  0.08676  0.60938  1.0000
  H   H477      1.0  0.19649  0.35084  0.65096  1.0000
  H   H478      1.0  0.18876  0.34767  0.95060  1.0000
  C   C593      1.0  0.19667  0.02395  0.60200  1.0000
  C   C594      1.0  0.19375  0.33818  0.65890  1.0000
  H   H479      1.0  0.19677  0.27621  0.60336  1.0000
  Fe  Fe39      1.0  0.18850  0.10037  0.49511  1.0000
  C   C595      1.0  0.19272  0.26739  0.61593  1.0000
  C   C596      1.0  0.19709  0.18880  0.74127  1.0000
  H   H480      1.0  0.18973  0.17470  0.79218  1.0000
  C   C597      1.0  0.18578  0.30580  0.67969  1.0000
  H   H481      1.0  0.17624  0.27078  0.85725  1.0000
  H   H482      1.0  0.01235  0.08964  0.64536  1.0000
  H   H483      1.0  0.13163  0.31659  0.98801  1.0000
  H   H484      1.0  0.00206  0.46572  0.96509  1.0000
  H   H485      1.0  0.14977  0.47717  0.85228  1.0000
  H   H486      1.0  0.19422  0.10740  0.62298  1.0000
  C   C598      1.0  0.19686  0.18510  0.67178  1.0000
  C   C599      1.0  0.19354  0.01628  0.58964  1.0000
  C   C600      1.0  0.15441  0.49234  0.74189  1.0000
  H   H487      1.0  0.19357  0.20839  0.65104  1.0000
  P   P20       1.0  0.11227  0.99652  0.53007  1.0000
  C   C601      1.0  0.19485  0.46263  0.79201  1.0000
  C   C602      1.0  0.99972  0.03456  0.62098  1.0000
  H   H488      1.0  0.19374  0.38151  0.91577  1.0000
  C   C603      1.0  0.14827  0.49018  0.85485  1.0000
  C   C604      1.0  0.15033  0.49169  0.87123  1.0000
  C   C605      1.0  0.00026  0.08586  0.65382  1.0000
  C   C606      1.0  0.19382  0.15257  0.49473  1.0000
  H   H489      1.0  0.03798  0.29050  0.99064  1.0000
  S   S81       1.0  0.07372  0.96667  0.30214  1.0000
  C   C607      1.0  0.17900  0.91417  0.41667  1.0000
  S   S82       1.0  0.18083  0.91168  0.23804  1.0000
  S   S83       1.0  0.17648  0.89066  0.20085  1.0000
  H   H490      1.0  0.15326  0.67470  0.03560  1.0000
  Fe  Fe40      1.0  0.07222  0.89054  0.38528  1.0000
  S   S84       1.0  0.10197  0.88763  0.37776  1.0000
  S   S85       1.0  0.05199  0.90860  0.37001  1.0000
  Fe  Fe41      1.0  0.07315  0.86143  0.41806  1.0000
  S   S86       1.0  0.10284  0.85570  0.41318  1.0000
  S   S87       1.0  0.05619  0.84744  0.44221  1.0000
  Fe  Fe42      1.0  0.09956  0.88532  0.40701  1.0000
  S   S88       1.0  0.11764  0.89367  0.41906  1.0000
  Fe  Fe43      1.0  0.10262  0.85818  0.38460  1.0000
  S   S89       1.0  0.12431  0.83989  0.36875  1.0000
  S   S90       1.0  0.06976  0.89090  0.41385  1.0000
  S   S91       1.0  0.07298  0.86130  0.39008  1.0000
  Fe  Fe44      1.0  0.14033  0.78338  0.30003  1.0000
  S   S92       1.0  0.16417  0.76072  0.29649  1.0000
  S   S93       1.0  0.11963  0.78526  0.32585  1.0000
  Fe  Fe45      1.0  0.15037  0.80327  0.26158  1.0000
  S   S94       1.0  0.17528  0.78286  0.25541  1.0000
  S   S95       1.0  0.14016  0.82514  0.23999  1.0000
  Fe  Fe46      1.0  0.15809  0.76308  0.26980  1.0000
  S   S96       1.0  0.16214  0.74071  0.25566  1.0000
  Fe  Fe47      1.0  0.17908  0.78249  0.28232  1.0000
  H   H491      1.0  0.10527  0.92214  0.24925  1.0000
  S   S97       1.0  0.13290  0.78350  0.27469  1.0000
  S   S98       1.0  0.15563  0.80494  0.28713  1.0000
  C   C608      1.0  0.12588  0.94575  0.26349  1.0000
  H   H492      1.0  0.03918  0.51072  0.06317  1.0000
  S   S99       1.0  0.10728  0.96036  0.45221  1.0000
  C   C609      1.0  0.07540  0.65664  0.19321  1.0000
  H   H493      1.0  0.04403  0.88751  0.45013  1.0000
  S   S100      1.0  0.17097  0.61231  0.23702  1.0000
  C   C610      1.0  0.00109  0.51343  0.00417  1.0000
  H   H494      1.0  0.16699  0.58013  0.08046  1.0000
  Fe  Fe48      1.0  0.12466  0.52971  0.16966  1.0000
  C   C611      1.0  0.15782  0.71365  0.01778  1.0000
  Fe  Fe49      1.0  0.11899  0.54738  0.13243  1.0000
  S   S101      1.0  0.11647  0.52277  0.12581  1.0000
  S   S102      1.0  0.11886  0.57332  0.11293  1.0000
  H   H495      1.0  0.11250  0.76309  0.08076  1.0000
  H   H496      1.0  0.00582  0.67851  0.00159  1.0000
  S   S103      1.0  0.10005  0.54417  0.15886  1.0000
  S   S104      1.0  0.14359  0.53474  0.14334  1.0000
  Fe  Fe50      1.0  0.04233  0.67118  0.04803  1.0000
  S   S105      1.0  0.06328  0.68661  0.04504  1.0000
  H   H497      1.0  0.04117  0.94717  0.37311  1.0000
  Fe  Fe51      1.0  0.05183  0.64603  0.08147  1.0000
  S   S106      1.0  0.07427  0.65836  0.08085  1.0000
  S   S107      1.0  0.04455  0.62238  0.10246  1.0000
  Fe  Fe52      1.0  0.05531  0.68424  0.07484  1.0000
  S   S108      1.0  0.05516  0.70593  0.08858  1.0000
  Fe  Fe53      1.0  0.08081  0.65968  0.05152  1.0000
  S   S109      1.0  0.10910  0.65468  0.03596  1.0000
  S   S110      1.0  0.03214  0.67194  0.07715  1.0000
  S   S111      1.0  0.06049  0.64448  0.05276  1.0000
  Fe  Fe54      1.0  0.10876  0.70659  0.16069  1.0000
  S   S112      1.0  0.10590  0.73530  0.16136  1.0000
  S   S113      1.0  0.09037  0.69198  0.15541  1.0000
  Fe  Fe55      1.0  0.14590  0.69628  0.16868  1.0000
  S   S114      1.0  0.14667  0.72392  0.16921  1.0000
  S   S115      1.0  0.17041  0.67479  0.16937  1.0000
  Fe  Fe56      1.0  0.11876  0.72489  0.18528  1.0000
  S   S116      1.0  0.10952  0.73622  0.21038  1.0000
  Fe  Fe57      1.0  0.13418  0.73194  0.14556  1.0000
  S   S117      1.0  0.14322  0.75185  0.12110  1.0000
  S   S118      1.0  0.11876  0.69640  0.18625  1.0000
  S   S119      1.0  0.13622  0.70410  0.14347  1.0000
  S   S120      1.0  0.18275  0.53941  0.03320  1.0000
  Fe  Fe58      1.0  0.17251  0.56632  0.03971  1.0000
  C   C612      1.0  0.16036  0.74179  0.10554  1.0000
  C   C613      1.0  0.16297  0.75045  0.08758  1.0000
  C   C614      1.0  0.17162  0.72544  0.11085  1.0000
  H   H498      1.0  0.15431  0.76309  0.08344  1.0000
  H   H499      1.0  0.16981  0.71877  0.12474  1.0000
  C   C615      1.0  0.11897  0.63199  0.04055  1.0000
  C   C616      1.0  0.13744  0.62622  0.03554  1.0000
  C   C617      1.0  0.13451  0.59556  0.04769  1.0000
  C   C618      1.0  0.11607  0.60141  0.05261  1.0000
  C   C619      1.0  0.10834  0.61955  0.04900  1.0000
  H   H500      1.0  0.10771  0.59194  0.05935  1.0000
  H   H501      1.0  0.09415  0.62383  0.05285  1.0000
  C   C620      1.0  0.06614  0.70198  0.10640  1.0000
  C   C621      1.0  0.07482  0.68491  0.11378  1.0000
  C   C622      1.0  0.08299  0.68222  0.12814  1.0000
  C   C623      1.0  0.08235  0.69647  0.13559  1.0000
  C   C624      1.0  0.07364  0.71356  0.12826  1.0000
  C   C625      1.0  0.06577  0.71630  0.11364  1.0000
  H   H502      1.0  0.07484  0.67366  0.10878  1.0000
  H   H503      1.0  0.08950  0.66893  0.13374  1.0000
  H   H504      1.0  0.07266  0.72463  0.13408  1.0000
  H   H505      1.0  0.05901  0.72956  0.10817  1.0000
  C   C626      1.0  0.09780  0.58605  0.11034  1.0000
  C   C627      1.0  0.08207  0.58110  0.12101  1.0000
  C   C628      1.0  0.06544  0.59213  0.11868  1.0000
  C   C629      1.0  0.06473  0.60771  0.10537  1.0000
  C   C630      1.0  0.08043  0.61191  0.09421  1.0000
  C   C631      1.0  0.09687  0.60140  0.09694  1.0000
  H   H506      1.0  0.08274  0.56887  0.13095  1.0000
  H   H507      1.0  0.05324  0.58861  0.12710  1.0000
  H   H508      1.0  0.07999  0.62319  0.08328  1.0000
  H   H509      1.0  0.10886  0.60512  0.08841  1.0000
  C   C632      1.0  0.11508  0.99045  0.38817  1.0000
  C   C633      1.0  0.17253  0.51286  0.09950  1.0000
  C   C634      1.0  0.18482  0.51847  0.08393  1.0000
  H   H510      1.0  0.18602  0.62280  0.99670  1.0000
  H   H511      1.0  0.15954  0.60360  0.03555  1.0000
  C   C635      1.0  0.19728  0.79834  0.34023  1.0000
  H   H512      1.0  0.15950  0.52130  0.10273  1.0000
  H   H513      1.0  0.18120  0.53126  0.07530  1.0000
  C   C636      1.0  0.14862  0.53660  0.19840  1.0000
  C   C637      1.0  0.15263  0.55130  0.20177  1.0000
  C   C638      1.0  0.16763  0.54937  0.20875  1.0000
  C   C639      1.0  0.17862  0.53257  0.21286  1.0000
  C   C640      1.0  0.17487  0.51790  0.20916  1.0000
  C   C641      1.0  0.16006  0.51992  0.20178  1.0000
  C   C642      1.0  0.14523  0.60797  0.03899  1.0000
  C   C643      1.0  0.17576  0.95311  0.37982  1.0000
  H   H514      1.0  0.01576  0.61226  0.09437  1.0000
  H   H515      1.0  0.15699  0.50842  0.19954  1.0000
  C   C644      1.0  0.17064  0.63019  0.21873  1.0000
  C   C645      1.0  0.18593  0.63113  0.20521  1.0000
  C   C646      1.0  0.18564  0.64505  0.19023  1.0000
  C   C647      1.0  0.17010  0.65798  0.18862  1.0000
  C   C648      1.0  0.15472  0.65703  0.20207  1.0000
  C   C649      1.0  0.15505  0.64322  0.21728  1.0000
  C   C650      1.0  0.02068  0.56455  0.08802  1.0000
  C   C651      1.0  0.11036  0.98015  0.23997  1.0000
  H   H516      1.0  0.14259  0.66676  0.20068  1.0000
  H   H517      1.0  0.14317  0.64242  0.22768  1.0000
  C   C652      1.0  0.14751  0.74221  0.24179  1.0000
  C   C653      1.0  0.15440  0.73595  0.22596  1.0000
  C   C654      1.0  0.14297  0.73460  0.21589  1.0000
  C   C655      1.0  0.12447  0.73941  0.22164  1.0000
  C   C656      1.0  0.11760  0.74631  0.23715  1.0000
  C   C657      1.0  0.12905  0.74780  0.24713  1.0000
  H   H518      1.0  0.16861  0.73171  0.22174  1.0000
  H   H519      1.0  0.14839  0.72935  0.20398  1.0000
  H   H520      1.0  0.10332  0.75018  0.24166  1.0000
  H   H521      1.0  0.12351  0.75262  0.25931  1.0000
  H   H522      1.0  0.07200  0.57546  0.19502  1.0000
  C   C658      1.0  0.05669  0.97799  0.44881  1.0000
  C   C659      1.0  0.18487  0.79077  0.33703  1.0000
  C   C660      1.0  0.11014  0.68838  0.05540  1.0000
  P   P21       1.0  0.19670  0.70576  0.33092  1.0000
  H   H523      1.0  0.15562  0.72538  0.06248  1.0000
  H   H524      1.0  0.17780  0.78006  0.31849  1.0000
  H   H525      1.0  0.17277  0.78929  0.34690  1.0000
  H   H526      1.0  0.14574  0.63583  0.02937  1.0000
  C   C661      1.0  0.02118  0.56719  0.10447  1.0000
  C   C662      1.0  0.06192  0.84793  0.46174  1.0000
  C   C663      1.0  0.07674  0.85454  0.46089  1.0000
  S   S121      1.0  0.07433  0.50669  0.15957  1.0000
  C   C664      1.0  0.09762  0.65574  0.23231  1.0000
  H   H527      1.0  0.08458  0.85975  0.44818  1.0000
  H   H528      1.0  0.10982  0.93954  0.38114  1.0000
  C   C665      1.0  0.02935  0.60050  0.17327  1.0000
  C   C666      1.0  0.11348  0.91228  0.42851  1.0000
  C   C667      1.0  0.09647  0.92281  0.43304  1.0000
  C   C668      1.0  0.09434  0.93743  0.44073  1.0000
  C   C669      1.0  0.10924  0.94166  0.44351  1.0000
  C   C670      1.0  0.12604  0.93088  0.43923  1.0000
  C   C671      1.0  0.12810  0.91634  0.43176  1.0000
  H   H529      1.0  0.08506  0.91965  0.43070  1.0000
  H   H530      1.0  0.08122  0.94544  0.44428  1.0000
  H   H531      1.0  0.13752  0.93352  0.44192  1.0000
  H   H532      1.0  0.14119  0.90807  0.42852  1.0000
  C   C672      1.0  0.12220  0.82478  0.35721  1.0000
  C   C673      1.0  0.10596  0.82034  0.35868  1.0000
  C   C674      1.0  0.10527  0.80798  0.34928  1.0000
  C   C675      1.0  0.12064  0.80050  0.33789  1.0000
  C   C676      1.0  0.13679  0.80487  0.33662  1.0000
  C   C677      1.0  0.13762  0.81664  0.34650  1.0000
  H   H533      1.0  0.09400  0.82639  0.36705  1.0000
  H   H534      1.0  0.09272  0.80455  0.35047  1.0000
  H   H535      1.0  0.14871  0.79905  0.32809  1.0000
  H   H536      1.0  0.15029  0.81963  0.34566  1.0000
  C   C678      1.0  0.16734  0.87187  0.21196  1.0000
  C   C679      1.0  0.15416  0.86869  0.20545  1.0000
  C   C680      1.0  0.14598  0.85432  0.21427  1.0000
  C   C681      1.0  0.15116  0.84276  0.22946  1.0000
  C   C682      1.0  0.16482  0.84545  0.23568  1.0000
  C   C683      1.0  0.17284  0.86014  0.22698  1.0000
  H   H537      1.0  0.14999  0.87760  0.19376  1.0000
  H   H538      1.0  0.13553  0.85219  0.20934  1.0000
  H   H539      1.0  0.16907  0.83631  0.24722  1.0000
  H   H540      1.0  0.18327  0.86235  0.23184  1.0000
  C   C684      1.0  0.06913  0.94969  0.32071  1.0000
  C   C685      1.0  0.07647  0.94667  0.33558  1.0000
  C   C686      1.0  0.07218  0.93320  0.35050  1.0000
  C   C687      1.0  0.06010  0.92325  0.35066  1.0000
  C   C688      1.0  0.05284  0.92632  0.33576  1.0000
  C   C689      1.0  0.05763  0.93926  0.32068  1.0000
  H   H541      1.0  0.08530  0.95479  0.33563  1.0000
  H   H542      1.0  0.07762  0.93101  0.36212  1.0000
  H   H543      1.0  0.04344  0.91871  0.33591  1.0000
  H   H544      1.0  0.05198  0.94156  0.30919  1.0000
  C   C690      1.0  0.16750  0.96415  0.25235  1.0000
  H   H545      1.0  0.16821  0.94998  0.25535  1.0000
  C   C691      1.0  0.19192  0.94739  0.28264  1.0000
  H   H546      1.0  0.01539  0.94531  0.35162  1.0000
  C   C692      1.0  0.01473  0.66556  0.00318  1.0000
  Fe  Fe59      1.0  0.13445  0.96748  0.44511  1.0000
  H   H547      1.0  0.16719  0.63831  0.16124  1.0000
  C   C693      1.0  0.16934  0.96822  0.34566  1.0000
  H   H548      1.0  0.15143  0.95629  0.22717  1.0000
  C   C694      1.0  0.12519  0.50870  0.02564  1.0000
  C   C695      1.0  0.14145  0.72908  0.04165  1.0000
  H   H549      1.0  0.01515  0.60132  0.17808  1.0000
  C   C696      1.0  0.15598  0.72214  0.05004  1.0000
  C   C697      1.0  0.09900  0.53453  0.06849  1.0000
  S   S122      1.0  0.14381  0.57279  0.05303  1.0000
  C   C698      1.0  0.15037  0.60916  0.19745  1.0000
  C   C699      1.0  0.04778  0.49777  0.15014  1.0000
  H   H550      1.0  0.16020  0.78795  0.03654  1.0000
  C   C700      1.0  0.12554  0.68651  0.04203  1.0000
  C   C701      1.0  0.00048  0.95347  0.30211  1.0000
  H   H551      1.0  0.08476  0.50482  0.09427  1.0000
  C   C702      1.0  0.19230  0.60439  0.34493  1.0000
  C   C703      1.0  0.10998  0.74317  0.10471  1.0000
  H   H552      1.0  0.11149  0.56491  0.08274  1.0000
  H   H553      1.0  0.00380  0.82049  0.47937  1.0000
  C   C704      1.0  0.05151  0.84180  0.47834  1.0000
  C   C705      1.0  0.02544  0.66077  0.01580  1.0000
  C   C706      1.0  0.14624  0.57459  0.15737  1.0000
  C   C707      1.0  0.03832  0.89810  0.47366  1.0000
  H   H554      1.0  0.07976  0.78955  0.42993  1.0000
  H   H555      1.0  0.18527  0.80816  0.47445  1.0000
  C   C708      1.0  0.14133  0.92737  0.29283  1.0000
  H   H556      1.0  0.10651  0.75264  0.11324  1.0000
  H   H557      1.0  0.17030  0.94577  0.20054  1.0000
  C   C709      1.0  0.19049  0.70549  0.19465  1.0000
  H   H558      1.0  0.15505  0.59845  0.20784  1.0000
  H   H559      1.0  0.11691  0.69868  0.10747  1.0000
  C   C710      1.0  0.18027  0.88581  0.45682  1.0000
  C   C711      1.0  0.03796  0.63232  0.00675  1.0000
  H   H560      1.0  0.09965  0.66926  0.22712  1.0000
  C   C712      1.0  0.13380  0.76798  0.47514  1.0000
  C   C713      1.0  0.09816  0.73614  0.45608  1.0000
  C   C714      1.0  0.09366  0.94892  0.25315  1.0000
  H   H561      1.0  0.01895  0.69155  0.11961  1.0000
  C   C715      1.0  0.00791  0.95275  0.28425  1.0000
  H   H562      1.0  0.17427  0.59255  0.11144  1.0000
  C   C716      1.0  0.04634  0.80728  0.45713  1.0000
  H   H563      1.0  0.12345  0.70879  0.07471  1.0000
  C   C717      1.0  0.12694  0.66982  0.07734  1.0000
  H   H564      1.0  0.12438  0.78024  0.47722  1.0000
  C   C718      1.0  0.14808  0.92208  0.27664  1.0000
  H   H565      1.0  0.02275  0.82432  0.44889  1.0000
  C   C719      1.0  0.15682  0.97460  0.26469  1.0000
  C   C720      1.0  0.04977  0.52161  0.11733  1.0000
  H   H566      1.0  0.99937  0.87330  0.49054  1.0000
  H   H567      1.0  0.09888  0.68153  0.08329  1.0000
  H   H568      1.0  0.18137  0.62504  0.31201  1.0000
  H   H569      1.0  0.16027  0.92326  0.48976  1.0000
  C   C721      1.0  0.15634  0.94503  0.20438  1.0000
  C   C722      1.0  0.16654  0.58754  0.12431  1.0000
  C   C723      1.0  0.01024  0.88023  0.48589  1.0000
  H   H570      1.0  0.02199  0.55110  0.08679  1.0000
  H   H571      1.0  0.15273  0.81342  0.18013  1.0000
  Fe  Fe60      1.0  0.08710  0.98559  0.30715  1.0000
  C   C724      1.0  0.11330  0.81185  0.41770  1.0000
  C   C725      1.0  0.05553  0.99216  0.41815  1.0000
  C   C726      1.0  0.12032  0.94320  0.21446  1.0000
  H   H572      1.0  0.15924  0.91081  0.27547  1.0000
  H   H573      1.0  0.13509  0.64893  0.16046  1.0000
  H   H574      1.0  0.18582  0.85027  0.18410  1.0000
  C   C727      1.0  0.18162  0.86901  0.45380  1.0000
  H   H575      1.0  0.15764  0.93312  0.18280  1.0000
  C   C728      1.0  0.00316  0.98143  0.33688  1.0000
  H   H576      1.0  0.14928  0.96845  0.27719  1.0000
  C   C729      1.0  0.18190  0.51671  0.99585  1.0000
  C   C730      1.0  0.10846  0.54164  0.00791  1.0000
  H   H577      1.0  0.18261  0.70635  0.04859  1.0000
  H   H578      1.0  0.08810  0.98846  0.47259  1.0000
  C   C731      1.0  0.11983  0.57679  0.02257  1.0000
  C   C732      1.0  0.11291  0.52062  0.03554  1.0000
  H   H579      1.0  0.10516  0.91204  0.48327  1.0000
  H   H580      1.0  0.18324  0.50484  0.21231  1.0000
  H   H581      1.0  0.01484  0.60787  0.06534  1.0000
  C   C733      1.0  0.02678  0.68065  0.12758  1.0000
  H   H582      1.0  0.16680  0.83187  0.49030  1.0000
  C   C734      1.0  0.19496  0.81283  0.46294  1.0000
  C   C735      1.0  0.00170  0.59263  0.04329  1.0000
  C   C736      1.0  0.02746  0.89874  0.49069  1.0000
  H   H583      1.0  0.02304  0.55586  0.11545  1.0000
  C   C737      1.0  0.18793  0.72642  0.08022  1.0000
  H   H584      1.0  0.17836  0.71305  0.20131  1.0000
  C   C738      1.0  0.18550  0.71782  0.09821  1.0000
  S   S123      1.0  0.12775  0.53894  0.19310  1.0000
  H   H585      1.0  0.03523  0.57258  0.17291  1.0000
  S   S124      1.0  0.11354  0.97807  0.31500  1.0000
  H   H586      1.0  0.18300  0.51803  0.00856  1.0000
  H   H587      1.0  0.06455  0.65457  0.22126  1.0000
  H   H588      1.0  0.14198  0.59488  0.11515  1.0000
  H   H589      1.0  0.14014  0.93345  0.32912  1.0000
  H   H590      1.0  0.09109  0.72676  0.06682  1.0000
  H   H591      1.0  0.17018  0.56075  0.21169  1.0000
  C   C739      1.0  0.12673  0.94160  0.29451  1.0000
  H   H592      1.0  0.12478  0.69246  0.02831  1.0000
  C   C740      1.0  0.13935  0.63754  0.17056  1.0000
  H   H593      1.0  0.02743  0.62816  0.17184  1.0000
  C   C741      1.0  0.11052  0.98355  0.48453  1.0000
  C   C742      1.0  0.14915  0.93807  0.19432  1.0000
  C   C743      1.0  0.15571  0.96254  0.35954  1.0000
  C   C744      1.0  0.01455  0.51936  0.05403  1.0000
  C   C745      1.0  0.04063  0.58434  0.17035  1.0000
  H   H594      1.0  0.10991  0.82366  0.48312  1.0000
  C   C746      1.0  0.06462  0.65038  0.20944  1.0000
  H   H595      1.0  0.01868  0.93356  0.47110  1.0000
  S   S125      1.0  0.15536  0.95704  0.46159  1.0000
  H   H596      1.0  0.09753  0.69585  0.05207  1.0000
  C   C747      1.0  0.08808  0.84087  0.31748  1.0000
  C   C748      1.0  0.09096  0.82648  0.30953  1.0000
  C   C749      1.0  0.10450  0.82471  0.29440  1.0000
  C   C750      1.0  0.11531  0.83719  0.28731  1.0000
  C   C751      1.0  0.11248  0.85171  0.29517  1.0000
  C   C752      1.0  0.09876  0.85348  0.31035  1.0000
  P   P22       1.0  0.12711  0.86723  0.28618  1.0000
  C   C753      1.0  0.12107  0.88322  0.30020  1.0000
  C   C754      1.0  0.14945  0.85437  0.28723  1.0000
  C   C755      1.0  0.16420  0.85736  0.27332  1.0000
  C   C756      1.0  0.18124  0.84712  0.27451  1.0000
  C   C757      1.0  0.18382  0.83402  0.28970  1.0000
  C   C758      1.0  0.16928  0.83099  0.30359  1.0000
  C   C759      1.0  0.15216  0.84089  0.30227  1.0000
  C   C760      1.0  0.10954  0.89968  0.29572  1.0000
  C   C761      1.0  0.10363  0.91145  0.30728  1.0000
  C   C762      1.0  0.10935  0.90698  0.32329  1.0000
  C   C763      1.0  0.12077  0.89064  0.32787  1.0000
  C   C764      1.0  0.12639  0.87871  0.31652  1.0000
  C   C765      1.0  0.12533  0.87867  0.26363  1.0000
  C   C766      1.0  0.11406  0.87480  0.25504  1.0000
  C   C767      1.0  0.11364  0.88307  0.23730  1.0000
  C   C768      1.0  0.12449  0.89516  0.22797  1.0000
  C   C769      1.0  0.13551  0.89929  0.23648  1.0000
  C   C770      1.0  0.13555  0.89145  0.25437  1.0000
  H   H597      1.0  0.07785  0.84201  0.32946  1.0000
  H   H598      1.0  0.08306  0.81640  0.31533  1.0000
  H   H599      1.0  0.10686  0.81343  0.28840  1.0000
  H   H600      1.0  0.12592  0.83550  0.27570  1.0000
  H   H601      1.0  0.09640  0.86431  0.31696  1.0000
  H   H602      1.0  0.16288  0.86738  0.26142  1.0000
  C   C771      1.0  0.02514  0.80325  0.49156  1.0000
  C   C772      1.0  0.18828  0.77535  0.43012  1.0000
  H   H603      1.0  0.17122  0.82090  0.31538  1.0000
  H   H604      1.0  0.14101  0.83803  0.31299  1.0000
  H   H605      1.0  0.10483  0.90332  0.28350  1.0000
  H   H606      1.0  0.09473  0.92412  0.30373  1.0000
  H   H607      1.0  0.10488  0.91610  0.33223  1.0000
  H   H608      1.0  0.12504  0.88698  0.34039  1.0000
  H   H609      1.0  0.13448  0.86584  0.32087  1.0000
  H   H610      1.0  0.10586  0.86516  0.26175  1.0000
  H   H611      1.0  0.10547  0.87948  0.23056  1.0000
  H   H612      1.0  0.12487  0.90083  0.21398  1.0000
  H   H613      1.0  0.14445  0.90812  0.22902  1.0000
  H   H614      1.0  0.14420  0.89470  0.26079  1.0000
  C   C773      1.0  0.05370  0.63899  0.21032  1.0000
  C   C774      1.0  0.05358  0.63382  0.19496  1.0000
  C   C775      1.0  0.06449  0.63995  0.17860  1.0000
  C   C776      1.0  0.07529  0.65150  0.17788  1.0000
  P   P23       1.0  0.06347  0.63463  0.15831  1.0000
  C   C777      1.0  0.08538  0.63156  0.14384  1.0000
  C   C778      1.0  0.05476  0.61478  0.16322  1.0000
  C   C779      1.0  0.06597  0.59854  0.16013  1.0000
  C   C780      1.0  0.05888  0.58338  0.16383  1.0000
  C   C781      1.0  0.03637  0.61566  0.16972  1.0000
  C   C782      1.0  0.08721  0.63481  0.12533  1.0000
  C   C783      1.0  0.10411  0.63370  0.11407  1.0000
  C   C784      1.0  0.11930  0.62922  0.12118  1.0000
  C   C785      1.0  0.11765  0.62532  0.13961  1.0000
  C   C786      1.0  0.10077  0.62620  0.15092  1.0000
  C   C787      1.0  0.04861  0.65267  0.14688  1.0000
  C   C788      1.0  0.04541  0.67012  0.14933  1.0000
  C   C789      1.0  0.03458  0.68404  0.13966  1.0000
  C   C790      1.0  0.17831  0.79551  0.17492  1.0000
  C   C791      1.0  0.02955  0.66327  0.12540  1.0000
  C   C792      1.0  0.04046  0.64936  0.13493  1.0000
  H   H615      1.0  0.04519  0.63429  0.22288  1.0000
  H   H616      1.0  0.04493  0.62511  0.19597  1.0000
  H   H617      1.0  0.08340  0.65687  0.16535  1.0000
  H   H618      1.0  0.08013  0.59751  0.15470  1.0000
  H   H619      1.0  0.06751  0.57089  0.16135  1.0000
  H   H620      1.0  0.07565  0.63828  0.11951  1.0000
  H   H621      1.0  0.10538  0.63622  0.09980  1.0000
  H   H622      1.0  0.13236  0.62845  0.11243  1.0000
  H   H623      1.0  0.12948  0.62143  0.14512  1.0000
  H   H624      1.0  0.09976  0.62287  0.16514  1.0000
  H   H625      1.0  0.05174  0.67325  0.15812  1.0000
  H   H626      1.0  0.03284  0.69759  0.14098  1.0000
  H   H627      1.0  0.02038  0.58641  0.11930  1.0000
  H   H628      1.0  0.13481  0.81405  0.03576  1.0000
  H   H629      1.0  0.04284  0.63607  0.13265  1.0000
  H   H630      1.0  0.19183  0.67244  0.06831  1.0000
  H   H631      1.0  0.10475  0.80619  0.46252  1.0000
  C   C793      1.0  0.18083  0.61892  0.07250  1.0000
  C   C794      1.0  0.08308  0.73009  0.45665  1.0000
  C   C795      1.0  0.11087  0.68009  0.07303  1.0000
  H   H632      1.0  0.07834  0.97353  0.26101  1.0000
  C   C796      1.0  0.11347  0.74900  0.08625  1.0000
  H   H633      1.0  0.13842  0.56919  0.17000  1.0000
  H   H634      1.0  0.06446  0.97054  0.45873  1.0000
  C   C797      1.0  0.14358  0.69889  0.25533  1.0000
  C   C798      1.0  0.13413  0.69556  0.24465  1.0000
  C   C799      1.0  0.18523  0.69648  0.32020  1.0000
  C   C800      1.0  0.19722  0.98617  0.31124  1.0000
  C   C801      1.0  0.11913  0.95087  0.27987  1.0000
  H   H635      1.0  0.11939  0.97598  0.47502  1.0000
  H   H636      1.0  0.09317  0.85925  0.47578  1.0000
  C   C802      1.0  0.10116  0.75404  0.02606  1.0000
  C   C803      1.0  0.02932  0.52204  0.05835  1.0000
  H   H637      1.0  0.00949  0.94064  0.27979  1.0000
  H   H638      1.0  0.13644  0.70486  0.26661  1.0000
  H   H639      1.0  0.11968  0.69889  0.24767  1.0000
  C   C804      1.0  0.15184  0.83191  0.47139  1.0000
  C   C805      1.0  0.09019  0.73440  0.05352  1.0000
  H   H640      1.0  0.10779  0.96182  0.28139  1.0000
  C   C806      1.0  0.16948  0.70060  0.29679  1.0000
  C   C807      1.0  0.16644  0.68335  0.30332  1.0000
  C   C808      1.0  0.17064  0.69689  0.43613  1.0000
  C   C809      1.0  0.15476  0.82937  0.48854  1.0000
  C   C810      1.0  0.15593  0.78304  0.38837  1.0000
  C   C811      1.0  0.17893  0.70709  0.30509  1.0000
  C   C812      1.0  0.14330  0.68874  0.22956  1.0000
  C   C813      1.0  0.08059  0.54184  0.07091  1.0000
  H   H641      1.0  0.05430  0.80952  0.44375  1.0000
  H   H642      1.0  0.10227  0.55453  0.00103  1.0000
  S   S126      1.0  0.18091  0.98071  0.42953  1.0000
  H   H643      1.0  0.12181  0.81795  0.40582  1.0000
  P   P24       1.0  0.07713  0.78526  0.46797  1.0000
  C   C814      1.0  0.17314  0.94335  0.31223  1.0000
  C   C815      1.0  0.14306  0.76609  0.45794  1.0000
  C   C816      1.0  0.16937  0.87621  0.35134  1.0000
  C   C817      1.0  0.03622  0.49884  0.13915  1.0000
  C   C818      1.0  0.10042  0.80386  0.41616  1.0000
  H   H644      1.0  0.09490  0.54654  0.03378  1.0000
  C   C819      1.0  0.18194  0.72495  0.33873  1.0000
  C   C820      1.0  0.16376  0.72958  0.33813  1.0000
  C   C821      1.0  0.15269  0.74450  0.34433  1.0000
  C   C822      1.0  0.15950  0.75455  0.35167  1.0000
  C   C823      1.0  0.17739  0.74966  0.35285  1.0000
  C   C824      1.0  0.03107  0.53932  0.05709  1.0000
  H   H645      1.0  0.16427  0.70916  0.28544  1.0000
  H   H646      1.0  0.15900  0.67841  0.29688  1.0000
  Fe  Fe61      1.0  0.19654  0.55340  0.00702  1.0000
  H   H647      1.0  0.03978  0.83712  0.47907  1.0000
  H   H648      1.0  0.18102  0.72057  0.29988  1.0000
  H   H649      1.0  0.12427  0.81944  0.43557  1.0000
  H   H650      1.0  0.11093  0.76168  0.01785  1.0000
  C   C825      1.0  0.08655  0.65134  0.24896  1.0000
  C   C826      1.0  0.11474  0.81258  0.43450  1.0000
  C   C827      1.0  0.00461  0.60400  0.02645  1.0000
  C   C828      1.0  0.12196  0.93391  0.37262  1.0000
  C   C829      1.0  0.13864  0.78117  0.39002  1.0000
  C   C830      1.0  0.12350  0.93768  0.35423  1.0000
  C   C831      1.0  0.06537  0.98269  0.43107  1.0000
  H   H651      1.0  0.17686  0.68695  0.36365  1.0000
  H   H652      1.0  0.15801  0.72196  0.33275  1.0000
  H   H653      1.0  0.13884  0.74851  0.34319  1.0000
  H   H654      1.0  0.15094  0.76628  0.35617  1.0000
  H   H655      1.0  0.16653  0.97390  0.33258  1.0000
  H   H656      1.0  0.18572  0.66711  0.39095  1.0000
  H   H657      1.0  0.12086  0.94498  0.30732  1.0000
  C   C832      1.0  0.17664  0.74273  0.07495  1.0000
  C   C833      1.0  0.06048  0.50847  0.14481  1.0000
  C   C834      1.0  0.15744  0.63140  0.17077  1.0000
  H   H658      1.0  0.14077  0.77707  0.44679  1.0000
  C   C835      1.0  0.13553  0.82982  0.46953  1.0000
  C   C836      1.0  0.19004  0.82811  0.45013  1.0000
  C   C837      1.0  0.06248  0.57793  0.00936  1.0000
  H   H659      1.0  0.14707  0.92010  0.30419  1.0000
  Fe  Fe62      1.0  0.19486  0.59118  0.22973  1.0000
  C   C838      1.0  0.17134  0.71128  0.04221  1.0000
  H   H660      1.0  0.07129  0.52862  0.12389  1.0000
  C   C839      1.0  0.14245  0.72465  0.02550  1.0000
  H   H661      1.0  0.17698  0.61226  0.18407  1.0000
  H   H662      1.0  0.12407  0.58320  0.14432  1.0000
  C   C840      1.0  0.16295  0.61690  0.18387  1.0000
  C   C841      1.0  0.16638  0.59429  0.07824  1.0000
  H   H663      1.0  0.04685  0.98291  0.32914  1.0000
  H   H664      1.0  0.05058  0.53095  0.10464  1.0000
  C   C842      1.0  0.13814  0.58247  0.14290  1.0000
  C   C843      1.0  0.14828  0.58909  0.12641  1.0000
  H   H665      1.0  0.10396  0.80960  0.04159  1.0000
  C   C844      1.0  0.17229  0.70705  0.02609  1.0000
  S   S127      1.0  0.15350  0.96189  0.42003  1.0000
  C   C845      1.0  0.02170  0.97703  0.33089  1.0000
  C   C846      1.0  0.18183  0.60065  0.07531  1.0000
  C   C847      1.0  0.01774  0.55406  0.05210  1.0000
  C   C848      1.0  0.06159  0.52028  0.12820  1.0000
  C   C849      1.0  0.12671  0.62957  0.18391  1.0000
  H   H666      1.0  0.02357  0.66054  0.11605  1.0000
  H   H667      1.0  0.10636  0.94268  0.21795  1.0000
  H   H668      1.0  0.07993  0.66147  0.25666  1.0000
  H   H669      1.0  0.01375  0.99443  0.44447  1.0000
  P   P25       1.0  0.10824  0.51468  0.05958  1.0000
  C   C850      1.0  0.07262  0.59139  0.21262  1.0000
  C   C851      1.0  0.02872  0.98874  0.39399  1.0000
  C   C852      1.0  0.03528  0.88842  0.46302  1.0000
  H   H670      1.0  0.15356  0.58090  0.26042  1.0000
  H   H671      1.0  0.13654  0.60600  0.24181  1.0000
  H   H672      1.0  0.11270  0.63482  0.18394  1.0000
  C   C853      1.0  0.10308  0.74417  0.04316  1.0000
  H   H673      1.0  0.04926  0.90496  0.46854  1.0000
  C   C854      1.0  0.04636  0.57486  0.02078  1.0000
  C   C855      1.0  0.13210  0.61583  0.19788  1.0000
  C   C856      1.0  0.11816  0.73669  0.07524  1.0000
  C   C857      1.0  0.16455  0.57292  0.15535  1.0000
  S   S128      1.0  0.02466  0.67650  0.02822  1.0000
  H   H674      1.0  0.11009  0.57445  0.03491  1.0000
  C   C858      1.0  0.14675  0.78606  0.03874  1.0000
  H   H675      1.0  0.06615  0.57484  0.99630  1.0000
  C   C859      1.0  0.17491  0.57888  0.13859  1.0000
  H   H676      1.0  0.01911  0.96701  0.25835  1.0000
  H   H677      1.0  0.09843  0.77930  0.04820  1.0000
  C   C860      1.0  0.14535  0.57831  0.25301  1.0000
  C   C861      1.0  0.13575  0.59252  0.24238  1.0000
  C   C862      1.0  0.11110  0.72510  0.11228  1.0000
  C   C863      1.0  0.07361  0.58548  0.01460  1.0000
  C   C864      1.0  0.14998  0.60618  0.07826  1.0000
  H   H678      1.0  0.13823  0.60100  0.08028  1.0000
  H   H679      1.0  0.16624  0.77258  0.22474  1.0000
  C   C865      1.0  0.11202  0.78105  0.04519  1.0000
  C   C866      1.0  0.11509  0.79824  0.04159  1.0000
  C   C867      1.0  0.13714  0.75430  0.48978  1.0000
  C   C868      1.0  0.03770  0.95879  0.37886  1.0000
  C   C869      1.0  0.04115  0.57949  0.03747  1.0000
  C   C870      1.0  0.12905  0.51324  0.00706  1.0000
  H   H680      1.0  0.00021  0.96373  0.46422  1.0000
  H   H681      1.0  0.17054  0.56664  0.16675  1.0000
  H   H682      1.0  0.11515  0.64653  0.20980  1.0000
  C   C871      1.0  0.07922  0.76361  0.46382  1.0000
  C   C872      1.0  0.03810  0.98261  0.45363  1.0000
  C   C873      1.0  0.18877  0.75701  0.43402  1.0000
  H   H683      1.0  0.13147  0.72961  0.01877  1.0000
  P   P26       1.0  0.12213  0.74403  0.05138  1.0000
  C   C874      1.0  0.14373  0.76887  0.04227  1.0000
  C   C875      1.0  0.12635  0.76624  0.04532  1.0000
  H   H684      1.0  0.12135  0.59120  0.18672  1.0000
  P   P27       1.0  0.01981  0.57623  0.05162  1.0000
  C   C876      1.0  0.13245  0.80075  0.03835  1.0000
  C   C877      1.0  0.06867  0.58987  0.03129  1.0000
  H   H685      1.0  0.17849  0.94698  0.39289  1.0000
  C   C878      1.0  0.11610  0.71270  0.10146  1.0000
  C   C879      1.0  0.05251  0.58694  0.04267  1.0000
  C   C880      1.0  0.17656  0.99045  0.23250  1.0000
  H   H686      1.0  0.15498  0.75771  0.04284  1.0000
  C   C881      1.0  0.12588  0.58934  0.23192  1.0000
  P   P28       1.0  0.11552  0.60781  0.21661  1.0000
  H   H687      1.0  0.09153  0.60714  0.25154  1.0000
  H   H688      1.0  0.04898  0.59079  0.05535  1.0000
  C   C882      1.0  0.14018  0.93105  0.26213  1.0000
  C   C883      1.0  0.04319  0.79488  0.48874  1.0000
  C   C884      1.0  0.11969  0.71847  0.08297  1.0000
  H   H689      1.0  0.07716  0.59593  0.03532  1.0000
  C   C885      1.0  0.14561  0.95089  0.21956  1.0000
  C   C886      1.0  0.14166  0.67620  0.04624  1.0000
  H   H690      1.0  0.10535  0.98361  0.39782  1.0000
  C   C887      1.0  0.14250  0.66776  0.06395  1.0000
  H   H691      1.0  0.10293  0.57598  0.17813  1.0000
  H   H692      1.0  0.13520  0.89956  0.46562  1.0000
  C   C888      1.0  0.14886  0.62448  0.07531  1.0000
  C   C889      1.0  0.15178  0.91549  0.36917  1.0000
  C   C890      1.0  0.16430  0.63097  0.07257  1.0000
  H   H693      1.0  0.13565  0.55016  0.02742  1.0000
  H   H694      1.0  0.10634  0.63690  0.00990  1.0000
  C   C891      1.0  0.14492  0.56081  0.25349  1.0000
  H   H695      1.0  0.15284  0.54977  0.26124  1.0000
  C   C892      1.0  0.09301  0.62075  0.24585  1.0000
  Fe  Fe63      1.0  0.09916  0.51829  0.15323  1.0000
  H   H696      1.0  0.07599  0.63034  0.26882  1.0000
  C   C893      1.0  0.10629  0.64271  0.22236  1.0000
  C   C894      1.0  0.09080  0.79657  0.44843  1.0000
  C   C895      1.0  0.10381  0.62512  0.22889  1.0000
  C   C896      1.0  0.02126  0.87948  0.46912  1.0000
  H   H697      1.0  0.11760  0.76791  0.40584  1.0000
  C   C897      1.0  0.10763  0.59171  0.19379  1.0000
  C   C898      1.0  0.08430  0.63383  0.25576  1.0000
  C   C899      1.0  0.10072  0.60000  0.20838  1.0000
  C   C900      1.0  0.12511  0.57172  0.23285  1.0000
  C   C901      1.0  0.13462  0.55754  0.24360  1.0000
  C   C902      1.0  0.14816  0.89098  0.46248  1.0000
  H   H698      1.0  0.19476  0.86085  0.45053  1.0000
  H   H699      1.0  0.16897  0.63116  0.10441  1.0000
  P   P29       1.0  0.16316  0.65442  0.06980  1.0000
  H   H700      1.0  0.14508  0.92631  0.24996  1.0000
  C   C903      1.0  0.16213  0.80209  0.18570  1.0000
  C   C904      1.0  0.09723  0.58308  0.18888  1.0000
  C   C905      1.0  0.11872  0.59383  0.01162  1.0000
  H   H701      1.0  0.13599  0.63341  0.07501  1.0000
  H   H702      1.0  0.14539  0.79907  0.21212  1.0000
  H   H703      1.0  0.12432  0.53794  0.07096  1.0000
  H   H704      1.0  0.00710  0.97683  0.41153  1.0000
  C   C906      1.0  0.03694  0.51099  0.12279  1.0000
  H   H705      1.0  0.13733  0.87012  0.46006  1.0000
  H   H706      1.0  0.13458  0.54396  0.24364  1.0000
  H   H707      1.0  0.11774  0.56869  0.22491  1.0000
  C   C907      1.0  0.07578  0.73435  0.04674  1.0000
  H   H708      1.0  0.04502  0.63985  0.02744  1.0000
  C   C908      1.0  0.18227  0.65981  0.05284  1.0000
  H   H709      1.0  0.17300  0.50493  0.05592  1.0000
  H   H710      1.0  0.12715  0.66341  0.09111  1.0000
  H   H711      1.0  0.13120  0.78884  0.37990  1.0000
  C   C909      1.0  0.06250  0.95385  0.26841  1.0000
  C   C910      1.0  0.08672  0.75394  0.01936  1.0000
  C   C911      1.0  0.12802  0.99505  0.39380  1.0000
  C   C912      1.0  0.08304  0.59995  0.21763  1.0000
  H   H712      1.0  0.06588  0.72676  0.05475  1.0000
  C   C913      1.0  0.18243  0.67904  0.32654  1.0000
  Fe  Fe64      1.0  0.13924  0.50958  0.13954  1.0000
  H   H713      1.0  0.18757  0.67036  0.33782  1.0000
  C   C914      1.0  0.01638  0.59638  0.07622  1.0000
  C   C915      1.0  0.15792  0.79398  0.20371  1.0000
  H   H714      1.0  0.18428  0.69874  0.02001  1.0000
  C   C916      1.0  0.10346  0.80514  0.44980  1.0000
  C   C917      1.0  0.16672  0.64491  0.10522  1.0000
  C   C918      1.0  0.06610  0.74080  0.46067  1.0000
  C   C919      1.0  0.17289  0.67259  0.31820  1.0000
  C   C920      1.0  0.07406  0.74404  0.02969  1.0000
  C   C921      1.0  0.07980  0.58274  0.19842  1.0000
  C   C922      1.0  0.14748  0.56622  0.00312  1.0000
  H   H715      1.0  0.07736  0.60609  0.22895  1.0000
  H   H716      1.0  0.14387  0.56421  0.19939  1.0000
  C   C923      1.0  0.13107  0.93748  0.19915  1.0000
  C   C924      1.0  0.12772  0.94933  0.22513  1.0000
  S   S129      1.0  0.19097  0.96019  0.22000  1.0000
  H   H717      1.0  0.01923  0.87169  0.46092  1.0000
  C   C925      1.0  0.14943  0.87427  0.45930  1.0000
  C   C926      1.0  0.00441  0.93915  0.35306  1.0000
  H   H718      1.0  0.05911  0.59105  0.22000  1.0000
  H   H719      1.0  0.15939  0.69381  0.10938  1.0000
  C   C927      1.0  0.17118  0.88942  0.33566  1.0000
  C   C928      1.0  0.16371  0.65886  0.09058  1.0000
  C   C929      1.0  0.08452  0.56571  0.08176  1.0000
  H   H720      1.0  0.06006  0.96969  0.36211  1.0000
  C   C930      1.0  0.02287  0.96081  0.39281  1.0000
  C   C931      1.0  0.04828  0.97149  0.37265  1.0000
  P   P30       1.0  0.11452  0.95616  0.24535  1.0000
  C   C932      1.0  0.07754  0.92498  0.26181  1.0000
  C   C933      1.0  0.09328  0.93123  0.25407  1.0000
  C   C934      1.0  0.04388  0.98639  0.38022  1.0000
  H   H721      1.0  0.07744  0.91124  0.26262  1.0000
  H   H722      1.0  0.16959  0.63771  0.13227  1.0000
  C   C935      1.0  0.18932  0.95890  0.36607  1.0000
  C   C936      1.0  0.08450  0.78297  0.48813  1.0000
  S   S130      1.0  0.19656  0.52933  0.22338  1.0000
  H   H723      1.0  0.03143  0.97868  0.46735  1.0000
  H   H724      1.0  0.14412  0.86952  0.39746  1.0000
  C   C937      1.0  0.19576  0.75538  0.12395  1.0000
  C   C938      1.0  0.08213  0.64925  0.00071  1.0000
  C   C939      1.0  0.16702  0.64860  0.12121  1.0000
  C   C940      1.0  0.08150  0.85440  0.47657  1.0000
  H   H725      1.0  0.05921  0.56289  0.07966  1.0000
  C   C941      1.0  0.06216  0.93629  0.26904  1.0000
  H   H726      1.0  0.05012  0.93133  0.27555  1.0000
  C   C942      1.0  0.09279  0.99062  0.48318  1.0000
  H   H727      1.0  0.13592  0.68660  0.22106  1.0000
  H   H728      1.0  0.07900  0.57779  0.08677  1.0000
  Fe  Fe65      1.0  0.17472  0.95341  0.43576  1.0000
  H   H729      1.0  0.14824  0.95090  0.38742  1.0000
  C   C943      1.0  0.10280  0.55848  0.07946  1.0000
  C   C944      1.0  0.16453  0.66619  0.12272  1.0000
  C   C945      1.0  0.16979  0.77913  0.21088  1.0000
  H   H730      1.0  0.19786  0.62185  0.24655  1.0000
  H   H731      1.0  0.16211  0.68747  0.44271  1.0000
  H   H732      1.0  0.01255  0.50940  0.01026  1.0000
  H   H733      1.0  0.17193  0.59989  0.36869  1.0000
  H   H734      1.0  0.03770  0.56934  0.01641  1.0000
  H   H735      1.0  0.16517  0.90179  0.40532  1.0000
  C   C946      1.0  0.14924  0.85709  0.40592  1.0000
  C   C947      1.0  0.18601  0.77257  0.20017  1.0000
  C   C948      1.0  0.00356  0.95864  0.47719  1.0000
  C   C949      1.0  0.07817  0.96016  0.26050  1.0000
  C   C950      1.0  0.12889  0.50330  0.06666  1.0000
  H   H736      1.0  0.12550  0.93236  0.19113  1.0000
  H   H737      1.0  0.14735  0.84084  0.38931  1.0000
  H   H738      1.0  0.15280  0.87007  0.42446  1.0000
  Fe  Fe66      1.0  0.15972  0.98517  0.45394  1.0000
  H   H739      1.0  0.16966  0.86597  0.30662  1.0000
  C   C951      1.0  0.01333  0.96759  0.27217  1.0000
  H   H740      1.0  0.16707  0.84244  0.33447  1.0000
  H   H741      1.0  0.07180  0.53557  0.06769  1.0000
  H   H742      1.0  0.14259  0.96409  0.35712  1.0000
  C   C952      1.0  0.15120  0.84094  0.40124  1.0000
  C   C953      1.0  0.15409  0.85734  0.42137  1.0000
  C   C954      1.0  0.07869  0.92818  0.48847  1.0000
  H   H743      1.0  0.19734  0.64568  0.17965  1.0000
  C   C955      1.0  0.19244  0.88782  0.40395  1.0000
  H   H744      1.0  0.15208  0.71861  0.44653  1.0000
  C   C956      1.0  0.08941  0.79600  0.43143  1.0000
  C   C957      1.0  0.18598  0.65454  0.03660  1.0000
  C   C958      1.0  0.15825  0.82497  0.41185  1.0000
  H   H745      1.0  0.16877  0.68038  0.21308  1.0000
  C   C959      1.0  0.16358  0.89692  0.46084  1.0000
  H   H746      1.0  0.13236  0.83283  0.45657  1.0000
  C   C960      1.0  0.16928  0.86884  0.31919  1.0000
  C   C961      1.0  0.16784  0.85565  0.33476  1.0000
  C   C962      1.0  0.17645  0.61356  0.29291  1.0000
  H   H747      1.0  0.09900  0.80385  0.40304  1.0000
  H   H748      1.0  0.18357  0.65287  0.23622  1.0000
  H   H749      1.0  0.16011  0.81257  0.40784  1.0000
  C   C963      1.0  0.01693  0.59894  0.09265  1.0000
  H   H750      1.0  0.08590  0.58822  0.00562  1.0000
  C   C964      1.0  0.15917  0.73682  0.47013  1.0000
  C   C965      1.0  0.16304  0.82515  0.42737  1.0000
  C   C966      1.0  0.00310  0.55126  0.04742  1.0000
  C   C967      1.0  0.16096  0.84134  0.43224  1.0000
  C   C968      1.0  0.16619  0.86316  0.45486  1.0000
  C   C969      1.0  0.12086  0.52977  0.99819  1.0000
  C   C970      1.0  0.17772  0.90136  0.40829  1.0000
  C   C971      1.0  0.18799  0.82431  0.20150  1.0000
  H   H751      1.0  0.17888  0.62060  0.38281  1.0000
  P   P31       1.0  0.16743  0.84105  0.45227  1.0000
  C   C972      1.0  0.16221  0.69573  0.25072  1.0000
  P   P32       1.0  0.16974  0.74910  0.43365  1.0000
  C   C973      1.0  0.17071  0.88574  0.31964  1.0000
  H   H752      1.0  0.17183  0.89559  0.30735  1.0000
  H   H753      1.0  0.07905  0.81135  0.48619  1.0000
  H   H754      1.0  0.16738  0.92420  0.42030  1.0000
  C   C974      1.0  0.16767  0.85941  0.35084  1.0000
  H   H755      1.0  0.11245  0.94622  0.34854  1.0000
  C   C975      1.0  0.14975  0.73869  0.48726  1.0000
  H   H756      1.0  0.16693  0.84902  0.36278  1.0000
  H   H757      1.0  0.18122  0.80174  0.16091  1.0000
  H   H758      1.0  0.01775  0.60326  0.01791  1.0000
  C   C976      1.0  0.11007  0.54303  0.07276  1.0000
  C   C977      1.0  0.07340  0.55735  0.07759  1.0000
  H   H759      1.0  0.17545  0.60017  0.27323  1.0000
  H   H760      1.0  0.16848  0.81275  0.43555  1.0000
  C   C978      1.0  0.18635  0.61873  0.36969  1.0000
  H   H761      1.0  0.17345  0.96874  0.29393  1.0000
  H   H762      1.0  0.16350  0.94924  0.32254  1.0000
  H   H763      1.0  0.14504  0.51960  0.04567  1.0000
  C   C979      1.0  0.18743  0.69128  0.42575  1.0000
  H   H764      1.0  0.17713  0.78488  0.42551  1.0000
  H   H765      1.0  0.17048  0.65923  0.32329  1.0000
  C   C980      1.0  0.13928  0.93057  0.34327  1.0000
  C   C981      1.0  0.13608  0.92274  0.38004  1.0000
  C   C982      1.0  0.17897  0.95451  0.29606  1.0000
  C   C983      1.0  0.19279  0.72104  0.41923  1.0000
  C   C984      1.0  0.15381  0.91992  0.35062  1.0000
  H   H766      1.0  0.04712  0.61955  0.00810  1.0000
  P   P33       1.0  0.17428  0.91064  0.33659  1.0000
  C   C985      1.0  0.18017  0.92492  0.31509  1.0000
  H   H767      1.0  0.18265  0.75746  0.35856  1.0000
  H   H768      1.0  0.16983  0.87864  0.36388  1.0000
  H   H769      1.0  0.04252  0.54117  0.06063  1.0000
  C   C986      1.0  0.18366  0.60212  0.28105  1.0000
  S   S131      1.0  0.12196  0.50326  0.16683  1.0000
  H   H770      1.0  0.17775  0.64685  0.03441  1.0000
  C   C987      1.0  0.10438  0.53706  0.02653  1.0000
  H   H771      1.0  0.16267  0.91025  0.46231  1.0000
  H   H772      1.0  0.17936  0.77437  0.39927  1.0000
  H   H773      1.0  0.02774  0.96683  0.32322  1.0000
  C   C988      1.0  0.18619  0.96666  0.34893  1.0000
  H   H774      1.0  0.08357  0.66586  0.19231  1.0000
  C   C989      1.0  0.18767  0.78560  0.32090  1.0000
  C   C990      1.0  0.00392  0.98396  0.29575  1.0000
  H   H775      1.0  0.08534  0.76148  0.00614  1.0000
  C   C991      1.0  0.16072  0.67655  0.09230  1.0000
  C   C992      1.0  0.01769  0.81369  0.47719  1.0000
  S   S132      1.0  0.02208  0.51337  0.10887  1.0000
  H   H776      1.0  0.16170  0.79229  0.37705  1.0000
  C   C993      1.0  0.17742  0.97213  0.23622  1.0000
  H   H777      1.0  0.05089  0.96243  0.27477  1.0000
  C   C994      1.0  0.19351  0.91796  0.30167  1.0000
  C   C995      1.0  0.03679  0.64389  0.01777  1.0000
  S   S133      1.0  0.19795  0.87974  0.27758  1.0000
  C   C996      1.0  0.19563  0.67257  0.38015  1.0000
  C   C997      1.0  0.16192  0.68543  0.22499  1.0000
  H   H778      1.0  0.12512  0.98253  0.25788  1.0000
  H   H779      1.0  0.13860  0.50402  0.99950  1.0000
  H   H780      1.0  0.16229  0.90640  0.37532  1.0000
  C   C998      1.0  0.18710  0.61603  0.30299  1.0000
  C   C999      1.0  0.15574  0.75042  0.45533  1.0000
  H   H781      1.0  0.09501  0.98265  0.22057  1.0000
  C   C1000     1.0  0.09625  0.75287  0.45957  1.0000
  C   C1001     1.0  0.02831  0.81574  0.46001  1.0000
  C   C1002     1.0  0.01837  0.97571  0.40041  1.0000
  C   C1003     1.0  0.16572  0.77312  0.40127  1.0000
  H   H782      1.0  0.13491  0.91965  0.39427  1.0000
  C   C1004     1.0  0.16504  0.71451  0.43833  1.0000
  S   S134      1.0  0.18964  0.87207  0.39367  1.0000
  C   C1005     1.0  0.15782  0.76187  0.41644  1.0000
  C   C1006     1.0  0.15887  0.95512  0.37665  1.0000
  C   C1007     1.0  0.17153  0.68922  0.23536  1.0000
  H   H783      1.0  0.19705  0.82629  0.29074  1.0000
  C   C1008     1.0  0.18245  0.60706  0.36173  1.0000
  H   H784      1.0  0.18541  0.71869  0.16861  1.0000
  C   C1009     1.0  0.13200  0.59720  0.99624  1.0000
  H   H785      1.0  0.06287  0.74386  0.02454  1.0000
  C   C1010     1.0  0.06414  0.75753  0.46419  1.0000
  C   C1011     1.0  0.12266  0.82473  0.48458  1.0000
  C   C1012     1.0  0.09106  0.91207  0.48781  1.0000
  H   H786      1.0  0.01291  0.50600  0.05533  1.0000
  H   H787      1.0  0.07979  0.97875  0.42724  1.0000
  H   H788      1.0  0.17447  0.82350  0.20219  1.0000
  H   H789      1.0  0.15855  0.71029  0.00532  1.0000
  H   H790      1.0  0.17858  0.74945  0.06109  1.0000
  H   H791      1.0  0.10783  0.60438  0.01561  1.0000
  C   C1013     1.0  0.18509  0.75375  0.14109  1.0000
  C   C1014     1.0  0.17632  0.72658  0.43024  1.0000
  C   C1015     1.0  0.14046  0.75994  0.41792  1.0000
  C   C1016     1.0  0.05398  0.79682  0.47147  1.0000
  H   H792      1.0  0.07577  0.65513  0.01223  1.0000
  C   C1017     1.0  0.14486  0.50875  0.05725  1.0000
  H   H793      1.0  0.11132  0.72788  0.45288  1.0000
  H   H794      1.0  0.05443  0.73616  0.46094  1.0000
  H   H795      1.0  0.17310  0.74858  0.14403  1.0000
  H   H796      1.0  0.15825  0.68753  0.08120  1.0000
  C   C1018     1.0  0.00161  0.53394  0.04835  1.0000
  H   H797      1.0  0.19296  0.62360  0.07032  1.0000
  H   H798      1.0  0.13427  0.75102  0.42927  1.0000
  H   H799      1.0  0.18285  0.92744  0.36065  1.0000
  H   H800      1.0  0.16263  0.62054  0.29416  1.0000
  H   H801      1.0  0.10803  0.75747  0.45900  1.0000
  H   H802      1.0  0.18933  0.59507  0.33907  1.0000
  H   H803      1.0  0.16915  0.69923  0.25868  1.0000
  C   C1019     1.0  0.13098  0.76944  0.40469  1.0000
  C   C1020     1.0  0.00471  0.92196  0.36353  1.0000
  C   C1021     1.0  0.01952  0.58436  0.10672  1.0000
  H   H804      1.0  0.19794  0.62104  0.20608  1.0000
  H   H805      1.0  0.16953  0.72502  0.46850  1.0000
  H   H806      1.0  0.16521  0.66902  0.13504  1.0000
  S   S135      1.0  0.18437  0.58066  0.01277  1.0000
  C   C1022     1.0  0.01854  0.57914  0.07365  1.0000
  C   C1023     1.0  0.01400  0.94149  0.48115  1.0000
  H   H807      1.0  0.19251  0.84970  0.26376  1.0000
  H   H808      1.0  0.10780  0.72076  0.12658  1.0000
  C   C1024     1.0  0.18863  0.73510  0.34616  1.0000
  C   C1025     1.0  0.03263  0.98616  0.33422  1.0000
  H   H809      1.0  0.08456  0.71715  0.45389  1.0000
  C   C1026     1.0  0.16131  0.68016  0.10826  1.0000
  H   H810      1.0  0.01516  0.95056  0.39797  1.0000
  H   H811      1.0  0.01579  0.91513  0.36994  1.0000
  C   C1027     1.0  0.13429  0.56306  0.01841  1.0000
  H   H812      1.0  0.05087  0.76567  0.46712  1.0000
  C   C1028     1.0  0.19071  0.68369  0.36462  1.0000
  H   H813      1.0  0.19204  0.67753  0.42441  1.0000
  C   C1029     1.0  0.19334  0.90623  0.34638  1.0000
  C   C1030     1.0  0.09946  0.63894  0.99933  1.0000
  Fe  Fe67      1.0  0.19306  0.89823  0.21514  1.0000
  H   H814      1.0  0.19223  0.89047  0.45549  1.0000
  H   H815      1.0  0.08333  0.94053  0.48442  1.0000
  C   C1031     1.0  0.19508  0.91359  0.42085  1.0000
  H   H816      1.0  0.15885  0.55562  0.00011  1.0000
  C   C1032     1.0  0.19395  0.91678  0.35754  1.0000
  C   C1033     1.0  0.01135  0.98318  0.27794  1.0000
  S   S136      1.0  0.19290  0.80463  0.36074  1.0000
  H   H817      1.0  0.18137  0.75728  0.16759  1.0000
  C   C1034     1.0  0.09212  0.50058  0.06731  1.0000
  C   C1035     1.0  0.11756  0.98947  0.24783  1.0000
  Fe  Fe68      1.0  0.15803  0.98929  0.41574  1.0000
  C   C1036     1.0  0.19676  0.65000  0.23892  1.0000
  H   H818      1.0  0.19724  0.59552  0.16108  1.0000
  H   H819      1.0  0.18719  0.55400  0.11705  1.0000
  P   P34       1.0  0.19551  0.68658  0.22851  1.0000
  S   S137      1.0  0.19668  0.92880  0.43261  1.0000
  C   C1037     1.0  0.18979  0.75885  0.15434  1.0000
  C   C1038     1.0  0.16699  0.64786  0.99592  1.0000
  C   C1039     1.0  0.10051  0.98965  0.22694  1.0000
  H   H820      1.0  0.01560  0.99471  0.26865  1.0000
  C   C1040     1.0  0.15624  0.99295  0.26091  1.0000
  C   C1041     1.0  0.19056  0.78090  0.18215  1.0000
  C   C1042     1.0  0.08240  0.49844  0.08500  1.0000
  H   H821      1.0  0.19209  0.53988  0.15200  1.0000
  C   C1043     1.0  0.02815  0.99174  0.44065  1.0000
  S   S138      1.0  0.09931  0.98721  0.36349  1.0000
  C   C1044     1.0  0.16076  0.50051  0.06300  1.0000
  H   H822      1.0  0.13191  0.49591  0.03226  1.0000
  H   H823      1.0  0.19632  0.95603  0.27003  1.0000
  C   C1045     1.0  0.19448  0.70883  0.17607  1.0000
  H   H824      1.0  0.19207  0.75133  0.11376  1.0000
  H   H825      1.0  0.12795  0.99199  0.40779  1.0000
  H   H826      1.0  0.17543  0.65434  0.99942  1.0000
  H   H827      1.0  0.19467  0.76081  0.20597  1.0000
  S   S139      1.0  0.19489  0.56523  0.05210  1.0000
  C   C1046     1.0  0.17704  0.49619  0.11062  1.0000
  C   C1047     1.0  0.19382  0.66875  0.05575  1.0000
  H   H828      1.0  0.19352  0.79919  0.21960  1.0000
  C   C1048     1.0  0.19437  0.83940  0.19134  1.0000
  H   H829      1.0  0.19454  0.59136  0.07531  1.0000
  C   C1049     1.0  0.11501  0.99421  0.37009  1.0000
  H   H830      1.0  0.19420  0.70522  0.10239  1.0000
  C   C1050     1.0  0.02749  0.63728  0.99393  1.0000
  H   H831      1.0  0.18819  0.99549  0.35918  1.0000
  H   H832      1.0  0.06253  0.99540  0.40439  1.0000
  C   C1051     1.0  0.17610  0.50195  0.99473  1.0000
  C   C1052     1.0  0.08520  0.89609  0.49263  1.0000
  C   C1053     1.0  0.07138  0.84779  0.49316  1.0000
  H   H833      1.0  0.09472  0.88355  0.49200  1.0000
  H   H834      1.0  0.14529  0.67081  0.99458  1.0000
  C   C1054     1.0  0.17293  0.63010  0.99440  1.0000
  H   H835      1.0  0.00145  0.77422  0.65257  1.0000
  H   H836      1.0  0.06039  0.78409  0.61564  1.0000
  C   C1055     1.0  0.07811  0.92945  0.54035  1.0000
  C   C1056     1.0  0.08648  0.56010  0.91314  1.0000
  S   S140      1.0  0.02575  0.71376  0.62388  1.0000
  Fe  Fe69      1.0  0.02772  0.83291  0.56494  1.0000
  S   S141      1.0  0.04852  0.84874  0.55930  1.0000
  C   C1057     1.0  0.01449  0.75423  0.53951  1.0000
  Fe  Fe70      1.0  0.05451  0.79844  0.56195  1.0000
  S   S142      1.0  0.07764  0.81147  0.55666  1.0000
  S   S143      1.0  0.06122  0.76947  0.56081  1.0000
  Fe  Fe71      1.0  0.06115  0.82584  0.57818  1.0000
  S   S144      1.0  0.07236  0.82980  0.59943  1.0000
  Fe  Fe72      1.0  0.06278  0.83317  0.53829  1.0000
  S   S145      1.0  0.07857  0.84638  0.51249  1.0000
  S   S146      1.0  0.03945  0.81075  0.58522  1.0000
  S   S147      1.0  0.04065  0.81923  0.54203  1.0000
  H   H837      1.0  0.05224  0.50718  0.80788  1.0000
  C   C1058     1.0  0.19842  0.94675  0.57043  1.0000
  Fe  Fe73      1.0  0.03195  0.92889  0.60780  1.0000
  S   S148      1.0  0.05660  0.90797  0.61215  1.0000
  S   S149      1.0  0.03361  0.95296  0.58555  1.0000
  H   H838      1.0  0.14411  0.82243  0.51677  1.0000
  H   H839      1.0  0.10853  0.88496  0.57429  1.0000
  H   H840      1.0  0.01163  0.75651  0.70784  1.0000
  H   H841      1.0  0.06525  0.50221  0.85008  1.0000
  Fe  Fe74      1.0  0.00795  0.62542  0.96547  1.0000
  Fe  Fe75      1.0  0.08632  0.51727  0.80507  1.0000
  H   H842      1.0  0.01702  0.80184  0.50495  1.0000
  S   S150      1.0  0.06165  0.53641  0.81559  1.0000
  S   S151      1.0  0.14809  0.50314  0.81958  1.0000
  Fe  Fe76      1.0  0.11556  0.51218  0.77233  1.0000
  S   S152      1.0  0.12703  0.52222  0.74344  1.0000
  C   C1059     1.0  0.00560  0.88489  0.63064  1.0000
  S   S153      1.0  0.11087  0.52856  0.79258  1.0000
  C   C1060     1.0  0.14899  0.51079  0.73612  1.0000
  C   C1061     1.0  0.18514  0.52732  0.96409  1.0000
  C   C1062     1.0  0.06462  0.53845  0.86233  1.0000
  H   H843      1.0  0.03281  0.95892  0.53054  1.0000
  H   H844      1.0  0.06173  0.91336  0.56135  1.0000
  H   H845      1.0  0.01295  0.53146  0.98143  1.0000
  C   C1063     1.0  0.04572  0.93544  0.54672  1.0000
  H   H846      1.0  0.00657  0.89075  0.57867  1.0000
  C   C1064     1.0  0.00500  0.90676  0.53500  1.0000
  C   C1065     1.0  0.14406  0.52212  0.84456  1.0000
  C   C1066     1.0  0.14618  0.52361  0.86090  1.0000
  H   H847      1.0  0.01957  0.69187  0.78220  1.0000
  H   H848      1.0  0.06210  0.96978  0.59056  1.0000
  C   C1067     1.0  0.02479  0.50778  0.82150  1.0000
  H   H849      1.0  0.14247  0.53384  0.83399  1.0000
  H   H850      1.0  0.05538  0.84663  0.65859  1.0000
  C   C1068     1.0  0.10802  0.63171  0.98424  1.0000
  H   H851      1.0  0.10205  0.54964  0.86601  1.0000
  H   H852      1.0  0.03329  0.93189  0.55465  1.0000
  H   H853      1.0  0.00715  0.66701  0.85999  1.0000
  C   C1069     1.0  0.06681  0.85155  0.60327  1.0000
  C   C1070     1.0  0.07693  0.85590  0.61263  1.0000
  C   C1071     1.0  0.07360  0.87326  0.61518  1.0000
  C   C1072     1.0  0.05989  0.88638  0.60871  1.0000
  C   C1073     1.0  0.04940  0.88206  0.59969  1.0000
  C   C1074     1.0  0.05283  0.86459  0.59702  1.0000
  H   H854      1.0  0.08762  0.84587  0.61763  1.0000
  H   H855      1.0  0.08172  0.87653  0.62220  1.0000
  H   H856      1.0  0.03874  0.89217  0.59475  1.0000
  H   H857      1.0  0.04453  0.86115  0.59040  1.0000
  C   C1075     1.0  0.03462  0.72977  0.60618  1.0000
  C   C1076     1.0  0.02554  0.74758  0.60240  1.0000
  C   C1077     1.0  0.03381  0.76012  0.58889  1.0000
  C   C1078     1.0  0.05078  0.75466  0.57865  1.0000
  C   C1079     1.0  0.05938  0.73673  0.58191  1.0000
  C   C1080     1.0  0.05148  0.72441  0.59579  1.0000
  H   H858      1.0  0.05076  0.61729  0.83586  1.0000
  H   H859      1.0  0.02706  0.77394  0.58639  1.0000
  H   H860      1.0  0.07239  0.73238  0.57393  1.0000
  H   H861      1.0  0.05850  0.71066  0.59855  1.0000
  C   C1081     1.0  0.03625  0.79501  0.63273  1.0000
  P   P35       1.0  0.06755  0.50513  0.88548  1.0000
  C   C1082     1.0  0.09637  0.89294  0.55133  1.0000
  H   H862      1.0  0.15712  0.58538  0.98057  1.0000
  C   C1083     1.0  0.04482  0.53128  0.92671  1.0000
  H   H863      1.0  0.00751  0.65791  0.98258  1.0000
  C   C1084     1.0  0.06624  0.98042  0.63581  1.0000
  C   C1085     1.0  0.05285  0.97934  0.62789  1.0000
  C   C1086     1.0  0.01103  0.87251  0.72667  1.0000
  C   C1087     1.0  0.12648  0.90470  0.51791  1.0000
  C   C1088     1.0  0.04548  0.95064  0.53303  1.0000
  H   H864      1.0  0.07238  0.96871  0.64439  1.0000
  H   H865      1.0  0.04881  0.96685  0.63036  1.0000
  H   H866      1.0  0.12915  0.59409  0.96220  1.0000
  H   H867      1.0  0.16033  0.61167  0.91047  1.0000
  H   H868      1.0  0.05007  0.82013  0.68264  1.0000
  H   H869      1.0  0.17795  0.51129  0.95029  1.0000
  H   H870      1.0  0.04798  0.83723  0.50672  1.0000
  C   C1089     1.0  0.00986  0.51638  0.83235  1.0000
  C   C1090     1.0  0.01083  0.53132  0.83770  1.0000
  C   C1091     1.0  0.02674  0.53755  0.83230  1.0000
  C   C1092     1.0  0.04174  0.52875  0.82167  1.0000
  C   C1093     1.0  0.04073  0.51395  0.81616  1.0000
  C   C1094     1.0  0.12566  0.98509  0.59302  1.0000
  H   H871      1.0  0.00202  0.65750  0.83532  1.0000
  H   H872      1.0  0.02746  0.54905  0.83653  1.0000
  C   C1095     1.0  0.12581  0.82192  0.50158  1.0000
  H   H873      1.0  0.18150  0.95281  0.53183  1.0000
  H   H874      1.0  0.12476  0.96047  0.55072  1.0000
  C   C1096     1.0  0.99894  0.87101  0.70242  1.0000
  H   H875      1.0  0.12007  0.97331  0.59695  1.0000
  C   C1097     1.0  0.16113  0.52033  0.72387  1.0000
  C   C1098     1.0  0.13700  0.60339  0.95327  1.0000
  C   C1099     1.0  0.00574  0.88766  0.66003  1.0000
  C   C1100     1.0  0.01347  0.88957  0.64187  1.0000
  C   C1101     1.0  0.02897  0.74846  0.51005  1.0000
  H   H876      1.0  0.14228  0.59063  0.93127  1.0000
  H   H877      1.0  0.06132  0.96673  0.51194  1.0000
  H   H878      1.0  0.18795  0.51913  0.70836  1.0000
  C   C1102     1.0  0.01435  0.77650  0.64468  1.0000
  C   C1103     1.0  0.02955  0.81566  0.67256  1.0000
  H   H879      1.0  0.01508  0.94051  0.52381  1.0000
  H   H880      1.0  0.04064  0.80715  0.63110  1.0000
  C   C1104     1.0  0.04253  0.76594  0.62580  1.0000
  C   C1105     1.0  0.13997  0.61710  0.95928  1.0000
  P   P36       1.0  0.13088  0.61928  0.98209  1.0000
  C   C1106     1.0  0.00521  0.61636  0.82445  1.0000
  H   H881      1.0  0.02303  0.77641  0.67993  1.0000
  C   C1107     1.0  0.15001  0.62909  0.94735  1.0000
  H   H882      1.0  0.02775  0.80399  0.68291  1.0000
  H   H883      1.0  0.09039  0.97035  0.53665  1.0000
  C   C1108     1.0  0.00483  0.60332  0.81581  1.0000
  H   H884      1.0  0.04921  0.53541  0.93636  1.0000
  H   H885      1.0  0.06259  0.88379  0.50134  1.0000
  C   C1109     1.0  0.08706  0.79692  0.51057  1.0000
  C   C1110     1.0  0.09185  0.78021  0.52133  1.0000
  C   C1111     1.0  0.01815  0.93470  0.49803  1.0000
  C   C1112     1.0  0.09753  0.55254  0.87918  1.0000
  C   C1113     1.0  0.02273  0.83646  0.64573  1.0000
  H   H886      1.0  0.17784  0.98313  0.51246  1.0000
  P   P37       1.0  0.02206  0.62955  0.81573  1.0000
  C   C1114     1.0  0.01395  0.64926  0.80013  1.0000
  C   C1115     1.0  0.04528  0.83971  0.65897  1.0000
  H   H887      1.0  0.08974  0.75405  0.49523  1.0000
  C   C1116     1.0  0.17863  0.51159  0.71770  1.0000
  C   C1117     1.0  0.03540  0.84559  0.64573  1.0000
  H   H888      1.0  0.07523  0.92610  0.57809  1.0000
  C   C1118     1.0  0.00015  0.64977  0.79210  1.0000
  H   H889      1.0  0.01976  0.57028  0.77787  1.0000
  C   C1119     1.0  0.14827  0.92205  0.49999  1.0000
  H   H890      1.0  0.00926  0.78846  0.54683  1.0000
  C   C1120     1.0  0.00111  0.70201  0.59920  1.0000
  C   C1121     1.0  0.14411  0.98365  0.58733  1.0000
  C   C1122     1.0  0.01446  0.72342  0.57509  1.0000
  H   H891      1.0  0.08571  0.80883  0.51526  1.0000
  H   H892      1.0  0.09414  0.77918  0.53438  1.0000
  H   H893      1.0  0.14878  0.89557  0.49794  1.0000
  H   H894      1.0  0.03804  0.85807  0.72700  1.0000
  H   H895      1.0  0.02195  0.75092  0.63758  1.0000
  H   H896      1.0  0.05106  0.54151  0.86968  1.0000
  C   C1123     1.0  0.02712  0.86160  0.72020  1.0000
  H   H897      1.0  0.11752  0.94505  0.52896  1.0000
  H   H898      1.0  0.07115  0.51890  0.91513  1.0000
  H   H899      1.0  0.04160  0.84680  0.69994  1.0000
  C   C1124     1.0  0.17911  0.51267  0.96299  1.0000
  H   H900      1.0  0.00465  0.88995  0.50970  1.0000
  C   C1125     1.0  0.08037  0.98747  0.57995  1.0000
  C   C1126     1.0  0.18631  0.97383  0.58190  1.0000
  C   C1127     1.0  0.11406  0.50785  0.70968  1.0000
  H   H901      1.0  0.01711  0.54324  0.93540  1.0000
  C   C1128     1.0  0.05442  0.91237  0.49843  1.0000
  C   C1129     1.0  0.10260  0.88082  0.56583  1.0000
  C   C1130     1.0  0.10152  0.54675  0.90931  1.0000
  C   C1131     1.0  0.06151  0.95508  0.52271  1.0000
  H   H902      1.0  0.15703  0.53456  0.71932  1.0000
  H   H903      1.0  0.04869  0.78707  0.50012  1.0000
  C   C1132     1.0  0.06041  0.92836  0.49380  1.0000
  H   H904      1.0  0.19398  0.50156  0.85458  1.0000
  C   C1133     1.0  0.01963  0.79228  0.64345  1.0000
  C   C1134     1.0  0.02952  0.89231  0.55698  1.0000
  C   C1135     1.0  0.16627  0.97822  0.52099  1.0000
  C   C1136     1.0  0.08754  0.97550  0.54853  1.0000
  H   H905      1.0  0.05570  0.62731  0.86031  1.0000
  C   C1137     1.0  0.05613  0.84190  0.49403  1.0000
  C   C1138     1.0  0.14433  0.60144  0.93573  1.0000
  C   C1139     1.0  0.00042  0.68046  0.77712  1.0000
  C   C1140     1.0  0.16828  0.96116  0.53185  1.0000
  H   H906      1.0  0.16520  0.63630  0.92073  1.0000
  H   H907      1.0  0.13031  0.75595  0.50312  1.0000
  C   C1141     1.0  0.14926  0.98894  0.52074  1.0000
  H   H908      1.0  0.07778  0.99185  0.59225  1.0000
  C   C1142     1.0  0.01391  0.65083  0.84054  1.0000
  C   C1143     1.0  0.00203  0.78714  0.56051  1.0000
  C   C1144     1.0  0.08929  0.76616  0.49906  1.0000
  C   C1145     1.0  0.10421  0.52537  0.70740  1.0000
  C   C1146     1.0  0.09778  0.53335  0.69186  1.0000
  H   H909      1.0  0.99941  0.53797  0.84616  1.0000
  C   C1147     1.0  0.09855  0.63420  0.97096  1.0000
  Fe  Fe77      1.0  0.00635  0.95133  0.58411  1.0000
  H   H910      1.0  0.06824  0.95937  0.56249  1.0000
  H   H911      1.0  0.10457  0.62854  0.95933  1.0000
  H   H912      1.0  0.01160  0.88617  0.61661  1.0000
  P   P38       1.0  0.09892  0.91570  0.54552  1.0000
  H   H913      1.0  0.13178  0.91591  0.55557  1.0000
  C   C1148     1.0  0.02337  0.90423  0.52738  1.0000
  S   S154      1.0  0.02824  0.99377  0.60603  1.0000
  H   H914      1.0  0.01239  0.75180  0.61018  1.0000
  C   C1149     1.0  0.18677  0.52933  0.98047  1.0000
  H   H915      1.0  0.10188  0.53280  0.71765  1.0000
  H   H916      1.0  0.09026  0.54698  0.69011  1.0000
  C   C1150     1.0  0.13903  0.64863  0.98891  1.0000
  H   H917      1.0  0.05964  0.59681  0.96293  1.0000
  C   C1151     1.0  0.03226  0.57438  0.95621  1.0000
  C   C1152     1.0  0.04015  0.58177  0.96527  1.0000
  C   C1153     1.0  0.05375  0.59081  0.95591  1.0000
  C   C1154     1.0  0.05923  0.59278  0.93746  1.0000
  C   C1155     1.0  0.05087  0.58598  0.92816  1.0000
  C   C1156     1.0  0.03756  0.57648  0.93770  1.0000
  P   P39       1.0  0.05834  0.58817  0.90437  1.0000
  C   C1157     1.0  0.04016  0.58844  0.89466  1.0000
  C   C1158     1.0  0.06560  0.60906  0.89516  1.0000
  C   C1159     1.0  0.05568  0.62444  0.90142  1.0000
  C   C1160     1.0  0.06123  0.64058  0.89457  1.0000
  C   C1161     1.0  0.07678  0.64155  0.88141  1.0000
  C   C1162     1.0  0.08684  0.62633  0.87517  1.0000
  C   C1163     1.0  0.08132  0.61014  0.88202  1.0000
  C   C1164     1.0  0.03822  0.57273  0.89134  1.0000
  C   C1165     1.0  0.02450  0.57307  0.88334  1.0000
  C   C1166     1.0  0.01265  0.58905  0.87856  1.0000
  C   C1167     1.0  0.01419  0.60464  0.88219  1.0000
  C   C1168     1.0  0.02771  0.60432  0.89040  1.0000
  C   C1169     1.0  0.07686  0.56985  0.89995  1.0000
  C   C1170     1.0  0.08242  0.56584  0.88296  1.0000
  H   H918      1.0  0.02156  0.56757  0.96349  1.0000
  H   H919      1.0  0.10154  0.50475  0.85908  1.0000
  H   H920      1.0  0.00199  0.72057  0.89104  1.0000
  H   H921      1.0  0.06981  0.59982  0.93049  1.0000
  H   H922      1.0  0.03090  0.57115  0.93084  1.0000
  H   H923      1.0  0.04366  0.62397  0.91170  1.0000
  H   H924      1.0  0.05344  0.65234  0.89953  1.0000
  H   H925      1.0  0.08108  0.65408  0.87612  1.0000
  H   H926      1.0  0.09897  0.62707  0.86503  1.0000
  H   H927      1.0  0.08943  0.59858  0.87701  1.0000
  H   H928      1.0  0.04719  0.56018  0.89499  1.0000
  H   H929      1.0  0.02281  0.56096  0.88098  1.0000
  C   C1171     1.0  0.00132  0.52581  0.98797  1.0000
  H   H930      1.0  0.03169  0.66445  0.80237  1.0000
  H   H931      1.0  0.02825  0.61653  0.89340  1.0000
  H   H932      1.0  0.08268  0.56288  0.92632  1.0000
  H   H933      1.0  0.07534  0.57326  0.87252  1.0000
  C   C1172     1.0  0.00566  0.57025  0.78219  1.0000
  H   H934      1.0  0.18851  0.50281  0.80233  1.0000
  C   C1173     1.0  0.10137  0.52384  0.67850  1.0000
  H   H935      1.0  0.07375  0.64623  0.96230  1.0000
  C   C1174     1.0  0.11682  0.98607  0.49816  1.0000
  C   C1175     1.0  0.00176  0.96252  0.50666  1.0000
  C   C1176     1.0  0.15451  0.61328  0.92401  1.0000
  H   H936      1.0  0.04978  0.89492  0.53325  1.0000
  C   C1177     1.0  0.04762  0.78186  0.62395  1.0000
  C   C1178     1.0  0.01126  0.89465  0.56441  1.0000
  C   C1179     1.0  0.06697  0.89624  0.49793  1.0000
  H   H937      1.0  0.00716  0.53428  0.91289  1.0000
  H   H938      1.0  0.08081  0.93361  0.60356  1.0000
  H   H939      1.0  0.10911  0.53937  0.91938  1.0000
  C   C1180     1.0  0.04405  0.63387  0.85478  1.0000
  C   C1181     1.0  0.04593  0.75443  0.52788  1.0000
  H   H940      1.0  0.11442  0.49925  0.67008  1.0000
  C   C1182     1.0  0.14643  0.58320  0.99210  1.0000
  H   H941      1.0  0.02881  0.51798  0.89141  1.0000
  H   H942      1.0  0.11556  0.81854  0.51321  1.0000
  C   C1183     1.0  0.16191  0.62159  0.99018  1.0000
  H   H943      1.0  0.09666  0.53015  0.66632  1.0000
  C   C1184     1.0  0.09191  0.93022  0.59281  1.0000
  C   C1185     1.0  0.02913  0.85525  0.70496  1.0000
  C   C1186     1.0  0.08109  0.64432  0.97250  1.0000
  H   H944      1.0  0.03165  0.75912  0.55359  1.0000
  H   H945      1.0  0.03902  0.88668  0.56549  1.0000
  S   S155      1.0  0.02996  0.62263  0.97979  1.0000
  C   C1187     1.0  0.06769  0.61316  0.78021  1.0000
  C   C1188     1.0  0.07246  0.59498  0.78750  1.0000
  C   C1189     1.0  0.06227  0.58744  0.80356  1.0000
  C   C1190     1.0  0.04731  0.59805  0.81235  1.0000
  C   C1191     1.0  0.04211  0.61624  0.80484  1.0000
  C   C1192     1.0  0.05257  0.62378  0.78882  1.0000
  C   C1193     1.0  0.15327  0.95488  0.54260  1.0000
  C   C1194     1.0  0.02608  0.63668  0.83364  1.0000
  C   C1195     1.0  0.04512  0.75036  0.51223  1.0000
  C   C1196     1.0  0.05727  0.52186  0.91457  1.0000
  H   H946      1.0  0.11159  0.93277  0.60523  1.0000
  C   C1197     1.0  0.12356  0.92459  0.58024  1.0000
  C   C1198     1.0  0.10298  0.92128  0.56435  1.0000
  C   C1199     1.0  0.14963  0.50838  0.87419  1.0000
  C   C1200     1.0  0.19032  0.50408  0.82823  1.0000
  C   C1201     1.0  0.01673  0.65628  0.85457  1.0000
  C   C1202     1.0  0.00902  0.77938  0.68617  1.0000
  C   C1203     1.0  0.14187  0.82420  0.50356  1.0000
  C   C1204     1.0  0.03176  0.64780  0.86172  1.0000
  H   H947      1.0  0.03795  0.85694  0.63511  1.0000
  C   C1205     1.0  0.12047  0.92029  0.56564  1.0000
  H   H948      1.0  0.18859  0.97128  0.60895  1.0000
  C   C1206     1.0  0.10926  0.92966  0.59377  1.0000
  H   H949      1.0  0.05136  0.75573  0.61903  1.0000
  C   C1207     1.0  0.00260  0.76798  0.70194  1.0000
  H   H950      1.0  0.07560  0.61897  0.76771  1.0000
  H   H951      1.0  0.08395  0.58666  0.78064  1.0000
  H   H952      1.0  0.06577  0.57326  0.80899  1.0000
  H   H953      1.0  0.03952  0.59192  0.82476  1.0000
  H   H954      1.0  0.04897  0.63776  0.78278  1.0000
  C   C1208     1.0  0.07779  0.94445  0.52623  1.0000
  C   C1209     1.0  0.15728  0.62714  0.92980  1.0000
  S   S156      1.0  0.01147  0.61980  0.93835  1.0000
  C   C1210     1.0  0.01429  0.68003  0.78488  1.0000
  C   C1211     1.0  0.01370  0.75031  0.52368  1.0000
  H   H955      1.0  0.08998  0.94800  0.51787  1.0000
  H   H956      1.0  0.13706  0.92366  0.58127  1.0000
  C   C1212     1.0  0.00017  0.55491  0.79301  1.0000
  H   H957      1.0  0.05961  0.66021  0.98822  1.0000
  C   C1213     1.0  0.07160  0.97493  0.57902  1.0000
  H   H958      1.0  0.01458  0.60092  0.80385  1.0000
  C   C1214     1.0  0.08878  0.92595  0.57824  1.0000
  C   C1215     1.0  0.01566  0.65387  0.99238  1.0000
  H   H959      1.0  0.15262  0.72825  0.49866  1.0000
  C   C1216     1.0  0.12408  0.93427  0.52211  1.0000
  C   C1217     1.0  0.07072  0.55114  0.84764  1.0000
  C   C1218     1.0  0.08782  0.54709  0.83717  1.0000
  C   C1219     1.0  0.09883  0.53039  0.84145  1.0000
  C   C1220     1.0  0.09287  0.51775  0.85629  1.0000
  C   C1221     1.0  0.07575  0.52177  0.86696  1.0000
  C   C1222     1.0  0.05168  0.51659  0.90191  1.0000
  C   C1223     1.0  0.02674  0.53564  0.92623  1.0000
  C   C1224     1.0  0.02111  0.53059  0.91359  1.0000
  C   C1225     1.0  0.03349  0.52122  0.90144  1.0000
  H   H960      1.0  0.09606  0.75193  0.52431  1.0000
  S   S157      1.0  0.01936  0.94450  0.62923  1.0000
  H   H961      1.0  0.05835  0.75594  0.52976  1.0000
  C   C1226     1.0  0.01986  0.82125  0.65903  1.0000
  C   C1227     1.0  0.11756  0.91856  0.52690  1.0000
  C   C1228     1.0  0.18985  0.96473  0.56813  1.0000
  H   H962      1.0  0.06188  0.56377  0.84385  1.0000
  H   H963      1.0  0.09232  0.55658  0.82532  1.0000
  H   H964      1.0  0.11182  0.52704  0.83294  1.0000
  C   C1229     1.0  0.02107  0.66449  0.79632  1.0000
  Fe  Fe78      1.0  0.12462  0.50382  0.80884  1.0000
  C   C1230     1.0  0.04120  0.62823  0.84087  1.0000
  H   H965      1.0  0.02932  0.69947  0.58903  1.0000
  Fe  Fe79      1.0  0.01955  0.96850  0.60684  1.0000
  H   H966      1.0  0.03543  0.58094  0.97947  1.0000
  S   S158      1.0  0.15323  0.51076  0.89414  1.0000
  H   H967      1.0  0.18042  0.51639  0.82840  1.0000
  C   C1231     1.0  0.10094  0.86310  0.56972  1.0000
  C   C1232     1.0  0.09303  0.85742  0.55925  1.0000
  C   C1233     1.0  0.08686  0.86942  0.54480  1.0000
  C   C1234     1.0  0.08856  0.88709  0.54079  1.0000
  H   H968      1.0  0.10542  0.85377  0.58110  1.0000
  H   H969      1.0  0.09147  0.84376  0.56252  1.0000
  H   H970      1.0  0.08066  0.86502  0.53676  1.0000
  H   H971      1.0  0.08377  0.89618  0.52949  1.0000
  S   S159      1.0  0.00617  0.92567  0.60439  1.0000
  C   C1235     1.0  0.19124  0.96463  0.59808  1.0000
  C   C1236     1.0  0.03559  0.89694  0.53856  1.0000
  H   H972      1.0  0.05702  0.74862  0.50189  1.0000
  H   H973      1.0  0.02406  0.49626  0.81729  1.0000
  H   H974      1.0  0.14453  0.94802  0.50517  1.0000
  C   C1237     1.0  0.01506  0.85986  0.69615  1.0000
  H   H975      1.0  0.18870  0.53710  0.95216  1.0000
  C   C1238     1.0  0.14474  0.63062  0.98776  1.0000
  S   S160      1.0  0.08971  0.50300  0.78324  1.0000
  C   C1239     1.0  0.01619  0.70736  0.58763  1.0000
  H   H976      1.0  0.00470  0.61695  0.87885  1.0000
  C   C1240     1.0  0.07302  0.65209  0.98720  1.0000
  C   C1241     1.0  0.06192  0.92495  0.55045  1.0000
  C   C1242     1.0  0.07509  0.96905  0.56325  1.0000
  P   P40       1.0  0.00582  0.80782  0.65701  1.0000
  H   H977      1.0  0.00256  0.68994  0.60943  1.0000
  H   H978      1.0  0.02556  0.89466  0.63648  1.0000
  C   C1243     1.0  0.13410  0.98266  0.53125  1.0000
  C   C1244     1.0  0.14178  0.90646  0.50455  1.0000
  H   H979      1.0  0.12429  0.53338  0.98379  1.0000
  C   C1245     1.0  0.02590  0.76328  0.63616  1.0000
  C   C1246     1.0  0.13620  0.96558  0.54234  1.0000
  H   H980      1.0  0.12197  0.89235  0.52134  1.0000
  H   H981      1.0  0.11889  0.53292  0.88937  1.0000
  H   H982      1.0  0.09748  0.51235  0.89467  1.0000
  C   C1247     1.0  0.00108  0.80012  0.56971  1.0000
  C   C1248     1.0  0.03070  0.75635  0.54141  1.0000
  H   H983      1.0  0.15235  0.63988  0.95159  1.0000
  C   C1249     1.0  0.04227  0.82482  0.67247  1.0000
  C   C1250     1.0  0.99902  0.90196  0.55342  1.0000
  H   H984      1.0  0.15488  0.94166  0.55102  1.0000
  C   C1251     1.0  0.09604  0.98852  0.54920  1.0000
  H   H985      1.0  0.02648  0.72746  0.56686  1.0000
  H   H986      1.0  0.03374  0.65200  0.87271  1.0000
  H   H987      1.0  0.00996  0.54308  0.79704  1.0000
  C   C1252     1.0  0.09292  0.76484  0.51560  1.0000
  P   P41       1.0  0.03089  0.91235  0.50374  1.0000
  H   H988      1.0  0.01668  0.85476  0.68444  1.0000
  H   H989      1.0  0.00194  0.58924  0.87248  1.0000
  H   H990      1.0  0.15258  0.97062  0.58687  1.0000
  C   C1253     1.0  0.11131  0.50632  0.68072  1.0000
  H   H991      1.0  0.14581  0.53655  0.86299  1.0000
  H   H992      1.0  0.11935  0.50217  0.72162  1.0000
  C   C1254     1.0  0.10711  0.54311  0.89231  1.0000
  H   H993      1.0  0.12610  0.65621  0.98666  1.0000
  C   C1255     1.0  0.01214  0.94544  0.51065  1.0000
  H   H994      1.0  0.01577  0.84087  0.63487  1.0000
  C   C1256     1.0  0.13938  0.93599  0.50871  1.0000
  H   H995      1.0  0.00748  0.81123  0.56327  1.0000
  C   C1257     1.0  0.08331  0.79830  0.49411  1.0000
  C   C1258     1.0  0.04474  0.99442  0.61684  1.0000
  H   H996      1.0  0.00459  0.84607  0.53755  1.0000
  C   C1259     1.0  0.14532  0.50538  0.84142  1.0000
  H   H997      1.0  0.18606  0.97159  0.55558  1.0000
  H   H998      1.0  0.01204  0.89138  0.66848  1.0000
  C   C1260     1.0  0.01330  0.88977  0.49670  1.0000
  H   H999      1.0  0.02832  0.74529  0.49793  1.0000
  H   H1000     1.0  0.16684  0.60796  0.98875  1.0000
  H   H1001     1.0  0.13066  0.98052  0.49881  1.0000
  S   S161      1.0  0.19543  0.54744  0.98101  1.0000
  H   H1002     1.0  0.00945  0.87740  0.73852  1.0000
  H   H1003     1.0  0.05106  0.94098  0.49399  1.0000
  C   C1261     1.0  0.17479  0.49979  0.97829  1.0000
  C   C1262     1.0  0.11742  0.49809  0.69649  1.0000
  H   H1004     1.0  0.18576  0.49915  0.68546  1.0000
  C   C1263     1.0  0.09889  0.49811  0.89756  1.0000
  C   C1264     1.0  0.19499  0.49635  0.81343  1.0000
  C   C1265     1.0  0.09238  0.99442  0.56507  1.0000
  H   H1005     1.0  0.00141  0.74840  0.52192  1.0000
  C   C1266     1.0  0.19801  0.49574  0.84294  1.0000
  C   C1267     1.0  0.10525  0.99548  0.51079  1.0000
  S   S162      1.0  0.99985  0.84669  0.57472  1.0000
  C   C1268     1.0  0.15006  0.65713  0.99314  1.0000
  H   H1006     1.0  0.28789  0.27075  0.99648  1.0000
  H   H1007     1.0  0.20406  0.14196  0.48992  1.0000
  S   S163      1.0  0.35589  0.01523  0.02732  1.0000
  H   H1008     1.0  0.30406  0.05874  0.99878  1.0000
  C   C1269     1.0  0.31815  0.00824  0.01796  1.0000
  C   C1270     1.0  0.33139  0.49193  0.16472  1.0000
  H   H1009     1.0  0.24395  0.11749  0.45611  1.0000
  H   H1010     1.0  0.22566  0.46165  0.02848  1.0000
  C   C1271     1.0  0.28761  0.08607  0.01481  1.0000
  H   H1011     1.0  0.30658  0.01423  0.04372  1.0000
  H   H1012     1.0  0.26954  0.24817  0.00326  1.0000
  C   C1272     1.0  0.22999  0.14361  0.46061  1.0000
  H   H1013     1.0  0.20826  0.06060  0.43008  1.0000
  P   P42       1.0  0.21119  0.17668  0.46770  1.0000
  H   H1014     1.0  0.22905  0.08042  0.05690  1.0000
  H   H1015     1.0  0.37144  0.01688  0.05439  1.0000
  C   C1273     1.0  0.32375  0.47778  0.19583  1.0000
  H   H1016     1.0  0.31419  0.07427  0.04495  1.0000
  H   H1017     1.0  0.28476  0.11111  0.99580  1.0000
  C   C1274     1.0  0.20396  0.02048  0.45956  1.0000
  C   C1275     1.0  0.29572  0.03479  0.09059  1.0000
  C   C1276     1.0  0.33474  0.47769  0.17892  1.0000
  C   C1277     1.0  0.38736  0.10926  0.02515  1.0000
  H   H1018     1.0  0.22840  0.18405  0.43022  1.0000
  C   C1278     1.0  0.26080  0.13080  0.46238  1.0000
  H   H1019     1.0  0.36236  0.04924  0.04329  1.0000
  Fe  Fe80      1.0  0.21103  0.06551  0.48586  1.0000
  C   C1279     1.0  0.22589  0.47322  0.01762  1.0000
  Fe  Fe81      1.0  0.36051  0.03866  0.00491  1.0000
  C   C1280     1.0  0.30917  0.01972  0.02955  1.0000
  C   C1281     1.0  0.26257  0.03987  0.04048  1.0000
  S   S164      1.0  0.38385  0.05051  0.00167  1.0000
  H   H1020     1.0  0.22682  0.23892  0.47653  1.0000
  H   H1021     1.0  0.27209  0.11961  0.46201  1.0000
  C   C1282     1.0  0.20124  0.99820  0.35244  1.0000
  C   C1283     1.0  0.24487  0.12958  0.45917  1.0000
  C   C1284     1.0  0.21637  0.19654  0.46996  1.0000
  C   C1285     1.0  0.37485  0.04378  0.04766  1.0000
  C   C1286     1.0  0.23083  0.15891  0.46558  1.0000
  H   H1022     1.0  0.38313  0.27014  0.48137  1.0000
  H   H1023     1.0  0.31924  0.02314  0.10150  1.0000
  C   C1287     1.0  0.26190  0.14611  0.46692  1.0000
  H   H1024     1.0  0.34587  0.46659  0.17683  1.0000
  S   S165      1.0  0.21594  0.04562  0.46839  1.0000
  H   H1025     1.0  0.34006  0.02599  0.07192  1.0000
  H   H1026     1.0  0.26138  0.07911  0.05054  1.0000
  H   H1027     1.0  0.28664  0.03357  0.10348  1.0000
  H   H1028     1.0  0.21794  0.05590  0.05288  1.0000
  H   H1029     1.0  0.39221  0.47502  0.46047  1.0000
  C   C1288     1.0  0.20623  0.49104  0.09096  1.0000
  C   C1289     1.0  0.38513  0.10078  0.01298  1.0000
  C   C1290     1.0  0.32582  0.03057  0.07289  1.0000
  C   C1291     1.0  0.31920  0.03811  0.05740  1.0000
  C   C1292     1.0  0.30078  0.04381  0.05835  1.0000
  C   C1293     1.0  0.28905  0.04223  0.07508  1.0000
  P   P43       1.0  0.29259  0.05288  0.03805  1.0000
  C   C1294     1.0  0.26896  0.05374  0.04264  1.0000
  S   S166      1.0  0.21450  0.09397  0.47585  1.0000
  H   H1030     1.0  0.21698  0.01809  0.45087  1.0000
  H   H1031     1.0  0.21551  0.24028  0.45004  1.0000
  C   C1295     1.0  0.29611  0.07530  0.02852  1.0000
  C   C1296     1.0  0.30737  0.08216  0.03449  1.0000
  S   S167      1.0  0.36406  0.09657  0.01516  1.0000
  H   H1032     1.0  0.37626  0.36157  0.48991  1.0000
  C   C1297     1.0  0.23215  0.05528  0.05007  1.0000
  C   C1298     1.0  0.29084  0.10311  0.00680  1.0000
  C   C1299     1.0  0.20297  0.18089  0.44771  1.0000
  C   C1300     1.0  0.23095  0.47116  0.99998  1.0000
  C   C1301     1.0  0.21463  0.18396  0.43106  1.0000
  H   H1033     1.0  0.32845  0.03944  0.04461  1.0000
  H   H1034     1.0  0.22850  0.02411  0.35310  1.0000
  H   H1035     1.0  0.24835  0.17160  0.47229  1.0000
  C   C1302     1.0  0.30771  0.04471  0.00441  1.0000
  C   C1303     1.0  0.32198  0.01500  0.99962  1.0000
  H   H1036     1.0  0.33994  0.49188  0.15161  1.0000
  H   H1037     1.0  0.39389  0.00143  0.03190  1.0000
  C   C1304     1.0  0.31409  0.02891  0.08949  1.0000
  H   H1038     1.0  0.30105  0.49187  0.21177  1.0000
  C   C1305     1.0  0.30400  0.03812  0.02288  1.0000
  C   C1306     1.0  0.19979  0.03342  0.46984  1.0000
  C   C1307     1.0  0.24702  0.16012  0.46850  1.0000
  H   H1039     1.0  0.27479  0.04662  0.07625  1.0000
  S   S168      1.0  0.34097  0.06449  0.00597  1.0000
  C   C1308     1.0  0.20861  0.18683  0.41543  1.0000
  C   C1309     1.0  0.24423  0.04068  0.04417  1.0000
  H   H1040     1.0  0.23937  0.02998  0.04241  1.0000
  C   C1310     1.0  0.22378  0.22718  0.47472  1.0000
  H   H1041     1.0  0.32009  0.10402  0.03039  1.0000
  H   H1042     1.0  0.32639  0.46676  0.20686  1.0000
  C   C1311     1.0  0.22384  0.01462  0.34900  1.0000
  H   H1043     1.0  0.27886  0.08114  0.00996  1.0000
  H   H1044     1.0  0.36949  0.00664  0.09021  1.0000
  H   H1045     1.0  0.24709  0.00997  0.32813  1.0000
  H   H1046     1.0  0.37626  0.11294  0.03571  1.0000
  C   C1312     1.0  0.22621  0.21126  0.48735  1.0000
  C   C1313     1.0  0.31068  0.09916  0.02634  1.0000
  C   C1314     1.0  0.22121  0.49022  0.02130  1.0000
  C   C1315     1.0  0.20727  0.01046  0.35767  1.0000
  H   H1047     1.0  0.27412  0.14683  0.46989  1.0000
  C   C1316     1.0  0.25674  0.06833  0.04866  1.0000
  S   S169      1.0  0.37875  0.43946  0.49078  1.0000
  H   H1048     1.0  0.20869  0.21358  0.44584  1.0000
  C   C1317     1.0  0.38006  0.02545  0.05393  1.0000
  C   C1318     1.0  0.30247  0.10960  0.01247  1.0000
  C   C1319     1.0  0.23841  0.06909  0.05233  1.0000
  H   H1049     1.0  0.30541  0.12257  0.00585  1.0000
  H   H1050     1.0  0.21769  0.14233  0.45825  1.0000
  H   H1051     1.0  0.27166  0.02844  0.03593  1.0000
  C   C1320     1.0  0.22235  0.19610  0.48504  1.0000
  C   C1321     1.0  0.30934  0.49205  0.19855  1.0000
  H   H1052     1.0  0.19898  0.01671  0.36847  1.0000
  H   H1053     1.0  0.21928  0.48262  0.08780  1.0000
  Fe  Fe82      1.0  0.36462  0.07670  0.99983  1.0000
  H   H1054     1.0  0.38207  0.06923  0.04132  1.0000
  C   C1322     1.0  0.38601  0.05505  0.04642  1.0000
  C   C1323     1.0  0.23433  0.00661  0.33497  1.0000
  H   H1055     1.0  0.21769  0.18916  0.40262  1.0000
  H   H1056     1.0  0.21735  0.49191  0.03496  1.0000
  H   H1057     1.0  0.23476  0.45787  0.99739  1.0000
  C   C1324     1.0  0.21373  0.21265  0.45739  1.0000
  C   C1325     1.0  0.21748  0.22789  0.45977  1.0000
  H   H1058     1.0  0.34489  0.46148  0.48690  1.0000
  C   C1326     1.0  0.38967  0.27702  0.48684  1.0000
  C   C1327     1.0  0.39643  0.01818  0.05914  1.0000
  H   H1059     1.0  0.33030  0.49176  0.49203  1.0000
  C   C1328     1.0  0.35211  0.46901  0.49072  1.0000
  H   H1060     1.0  0.39832  0.38039  0.48362  1.0000
  C   C1329     1.0  0.38950  0.35556  0.49238  1.0000
  C   C1330     1.0  0.36938  0.46137  0.49342  1.0000
  C   C1331     1.0  0.29311  0.12695  0.94899  1.0000
  Fe  Fe83      1.0  0.28464  0.17127  0.92432  1.0000
  S   S170      1.0  0.25632  0.18051  0.92117  1.0000
  S   S171      1.0  0.29364  0.16070  0.95024  1.0000
  Fe  Fe84      1.0  0.29941  0.18202  0.88514  1.0000
  S   S172      1.0  0.27263  0.19263  0.87805  1.0000
  S   S173      1.0  0.32386  0.17960  0.86368  1.0000
  Fe  Fe85      1.0  0.26548  0.20426  0.90223  1.0000
  S   S174      1.0  0.24791  0.23113  0.90374  1.0000
  Fe  Fe86      1.0  0.26582  0.16807  0.89727  1.0000
  S   S175      1.0  0.24882  0.15312  0.89133  1.0000
  S   S176      1.0  0.29310  0.19623  0.90734  1.0000
  S   S177      1.0  0.29328  0.15629  0.90237  1.0000
  Fe  Fe87      1.0  0.33426  0.10928  0.78415  1.0000
  S   S178      1.0  0.33671  0.13114  0.75939  1.0000
  S   S179      1.0  0.35590  0.08435  0.78945  1.0000
  Fe  Fe88      1.0  0.29680  0.12747  0.79975  1.0000
  S   S180      1.0  0.29676  0.15067  0.77685  1.0000
  S   S181      1.0  0.27059  0.12670  0.81925  1.0000
  Fe  Fe89      1.0  0.30838  0.13080  0.75940  1.0000
  S   S182      1.0  0.29524  0.13733  0.73552  1.0000
  Fe  Fe90      1.0  0.32467  0.14919  0.77877  1.0000
  S   S183      1.0  0.33356  0.17443  0.77703  1.0000
  S   S184      1.0  0.30701  0.10742  0.78237  1.0000
  S   S185      1.0  0.32368  0.12746  0.80348  1.0000
  H   H1061     1.0  0.29152  0.28234  0.90111  1.0000
  H   H1062     1.0  0.32087  0.34842  0.57513  1.0000
  S   S186      1.0  0.38567  0.21829  0.85441  1.0000
  H   H1063     1.0  0.27891  0.11189  0.50576  1.0000
  H   H1064     1.0  0.32727  0.19421  0.61426  1.0000
  Fe  Fe91      1.0  0.26766  0.16126  0.57583  1.0000
  S   S187      1.0  0.24252  0.17214  0.56543  1.0000
  S   S188      1.0  0.27333  0.13646  0.59701  1.0000
  Fe  Fe92      1.0  0.28457  0.19217  0.55313  1.0000
  S   S189      1.0  0.26110  0.20500  0.54015  1.0000
  S   S190      1.0  0.30867  0.20385  0.54974  1.0000
  Fe  Fe93      1.0  0.24490  0.19864  0.56783  1.0000
  S   S191      1.0  0.22293  0.21976  0.57891  1.0000
  Fe  Fe94      1.0  0.26061  0.17721  0.53864  1.0000
  S   S192      1.0  0.25035  0.17198  0.51681  1.0000
  S   S193      1.0  0.26822  0.18733  0.58079  1.0000
  S   S194      1.0  0.28593  0.16488  0.54885  1.0000
  H   H1065     1.0  0.21207  0.29967  0.68464  1.0000
  H   H1066     1.0  0.30732  0.15896  0.69882  1.0000
  S   S195      1.0  0.22598  0.06036  0.50755  1.0000
  H   H1067     1.0  0.38082  0.17790  0.73447  1.0000
  Fe  Fe95      1.0  0.22629  0.09446  0.71115  1.0000
  S   S196      1.0  0.22167  0.08429  0.68921  1.0000
  S   S197      1.0  0.25271  0.08753  0.72019  1.0000
  P   P44       1.0  0.29825  0.22685  0.94743  1.0000
  C   C1332     1.0  0.31301  0.34004  0.54224  1.0000
  H   H1068     1.0  0.22441  0.18384  0.49486  1.0000
  H   H1069     1.0  0.26487  0.24242  0.93447  1.0000
  Fe  Fe96      1.0  0.34629  0.30643  0.57696  1.0000
  S   S198      1.0  0.31752  0.30761  0.59058  1.0000
  S   S199      1.0  0.35556  0.32807  0.55413  1.0000
  H   H1070     1.0  0.28500  0.26427  0.93155  1.0000
  S   S200      1.0  0.33078  0.26898  0.61633  1.0000
  H   H1071     1.0  0.21983  0.26895  0.70282  1.0000
  Fe  Fe97      1.0  0.32269  0.27859  0.58987  1.0000
  S   S201      1.0  0.30008  0.26913  0.58540  1.0000
  Fe  Fe98      1.0  0.32774  0.29790  0.61576  1.0000
  S   S202      1.0  0.31561  0.31034  0.63970  1.0000
  S   S203      1.0  0.35061  0.27836  0.57362  1.0000
  C   C1333     1.0  0.33474  0.46696  0.54289  1.0000
  C   C1334     1.0  0.20707  0.25084  0.69782  1.0000
  C   C1335     1.0  0.34712  0.48562  0.58116  1.0000
  P   P45       1.0  0.31101  0.08611  0.86552  1.0000
  H   H1072     1.0  0.37459  0.44405  0.69647  1.0000
  S   S204      1.0  0.38826  0.39768  0.67825  1.0000
  C   C1336     1.0  0.26204  0.15993  0.64576  1.0000
  Fe  Fe99      1.0  0.36777  0.37755  0.65151  1.0000
  S   S205      1.0  0.35696  0.37627  0.68066  1.0000
  S   S206      1.0  0.35750  0.36968  0.63188  1.0000
  Fe  Fe100     1.0  0.36028  0.40446  0.67424  1.0000
  S   S207      1.0  0.33895  0.42522  0.68639  1.0000
  Fe  Fe101     1.0  0.38572  0.36945  0.68246  1.0000
  H   H1073     1.0  0.38420  0.32935  0.50229  1.0000
  S   S208      1.0  0.36872  0.40649  0.64484  1.0000
  C   C1337     1.0  0.37198  0.43067  0.59831  1.0000
  H   H1074     1.0  0.25372  0.45715  0.93994  1.0000
  Fe  Fe102     1.0  0.24065  0.42793  0.69292  1.0000
  S   S209      1.0  0.23611  0.43496  0.71943  1.0000
  S   S210      1.0  0.26561  0.42345  0.67188  1.0000
  Fe  Fe103     1.0  0.21838  0.41515  0.72915  1.0000
  H   H1075     1.0  0.27557  0.38910  0.56138  1.0000
  H   H1076     1.0  0.29913  0.46384  0.97633  1.0000
  S   S211      1.0  0.22546  0.40604  0.70354  1.0000
  S   S212      1.0  0.21757  0.44848  0.68433  1.0000
  Fe  Fe104     1.0  0.26241  0.32028  0.85462  1.0000
  S   S213      1.0  0.23385  0.32327  0.86918  1.0000
  S   S214      1.0  0.28370  0.29520  0.85846  1.0000
  Fe  Fe105     1.0  0.25497  0.35633  0.83022  1.0000
  S   S215      1.0  0.22578  0.36235  0.84305  1.0000
  S   S216      1.0  0.26712  0.37398  0.80545  1.0000
  Fe  Fe106     1.0  0.23526  0.35118  0.86867  1.0000
  S   S217      1.0  0.22149  0.36036  0.89450  1.0000
  Fe  Fe107     1.0  0.22727  0.33405  0.84230  1.0000
  S   S218      1.0  0.26454  0.34739  0.85587  1.0000
  S   S219      1.0  0.25568  0.32892  0.82778  1.0000
  C   C1338     1.0  0.20042  0.24459  0.64149  1.0000
  H   H1077     1.0  0.36795  0.21100  0.71296  1.0000
  H   H1078     1.0  0.24020  0.27213  0.67292  1.0000
  C   C1339     1.0  0.26866  0.24166  0.76508  1.0000
  H   H1079     1.0  0.25804  0.38035  0.59149  1.0000
  H   H1080     1.0  0.36050  0.05197  0.89503  1.0000
  S   S220      1.0  0.21434  0.43584  0.91106  1.0000
  C   C1340     1.0  0.32729  0.10670  0.90406  1.0000
  C   C1341     1.0  0.23185  0.36136  0.63947  1.0000
  H   H1081     1.0  0.34617  0.11980  0.88404  1.0000
  C   C1342     1.0  0.21915  0.38201  0.89769  1.0000
  C   C1343     1.0  0.23263  0.39162  0.88993  1.0000
  C   C1344     1.0  0.23097  0.40812  0.89411  1.0000
  C   C1345     1.0  0.21566  0.41534  0.90571  1.0000
  C   C1346     1.0  0.26631  0.13756  0.51232  1.0000
  H   H1082     1.0  0.29714  0.48227  0.92102  1.0000
  H   H1083     1.0  0.24452  0.38610  0.88112  1.0000
  H   H1084     1.0  0.24159  0.41532  0.88835  1.0000
  H   H1085     1.0  0.23402  0.38607  0.62040  1.0000
  H   H1086     1.0  0.36896  0.13278  0.88997  1.0000
  C   C1347     1.0  0.22915  0.38882  0.76767  1.0000
  C   C1348     1.0  0.24381  0.39682  0.76315  1.0000
  C   C1349     1.0  0.25583  0.39199  0.77451  1.0000
  C   C1350     1.0  0.25303  0.37930  0.79043  1.0000
  C   C1351     1.0  0.23854  0.37113  0.79466  1.0000
  C   C1352     1.0  0.22656  0.37598  0.78340  1.0000
  H   H1087     1.0  0.24567  0.40691  0.75111  1.0000
  H   H1088     1.0  0.26706  0.39830  0.77112  1.0000
  H   H1089     1.0  0.23639  0.36110  0.80666  1.0000
  P   P46       1.0  0.31233  0.37492  0.54340  1.0000
  H   H1090     1.0  0.36325  0.33565  0.58503  1.0000
  H   H1091     1.0  0.33786  0.02164  0.87351  1.0000
  C   C1353     1.0  0.25203  0.26382  0.78920  1.0000
  C   C1354     1.0  0.31838  0.42421  0.68314  1.0000
  C   C1355     1.0  0.31787  0.41399  0.67165  1.0000
  C   C1356     1.0  0.30154  0.41369  0.66849  1.0000
  C   C1357     1.0  0.28563  0.42332  0.67705  1.0000
  C   C1358     1.0  0.28603  0.43334  0.68878  1.0000
  C   C1359     1.0  0.30245  0.43394  0.69168  1.0000
  H   H1092     1.0  0.33007  0.40662  0.66485  1.0000
  H   H1093     1.0  0.30125  0.40601  0.65936  1.0000
  H   H1094     1.0  0.27375  0.44093  0.69528  1.0000
  H   H1095     1.0  0.30281  0.44188  0.70054  1.0000
  C   C1360     1.0  0.25440  0.22183  0.64370  1.0000
  H   H1096     1.0  0.21517  0.36982  0.78700  1.0000
  H   H1097     1.0  0.31015  0.17863  0.64184  1.0000
  Fe  Fe108     1.0  0.38533  0.05496  0.97250  1.0000
  C   C1361     1.0  0.26301  0.23406  0.78317  1.0000
  C   C1362     1.0  0.20640  0.24143  0.68570  1.0000
  H   H1098     1.0  0.35241  0.33835  0.50132  1.0000
  C   C1363     1.0  0.23088  0.26340  0.67656  1.0000
  C   C1364     1.0  0.36757  0.34266  0.55644  1.0000
  C   C1365     1.0  0.36945  0.34377  0.57300  1.0000
  C   C1366     1.0  0.37959  0.35534  0.57395  1.0000
  H   H1099     1.0  0.37426  0.06839  0.84145  1.0000
  C   C1367     1.0  0.38598  0.36462  0.54194  1.0000
  C   C1368     1.0  0.37563  0.35334  0.54102  1.0000
  C   C1369     1.0  0.33123  0.17746  0.95000  1.0000
  H   H1100     1.0  0.23433  0.20227  0.95946  1.0000
  C   C1370     1.0  0.32671  0.32716  0.63799  1.0000
  C   C1371     1.0  0.32845  0.33130  0.65331  1.0000
  C   C1372     1.0  0.33778  0.34447  0.65187  1.0000
  C   C1373     1.0  0.34508  0.35362  0.63502  1.0000
  C   C1374     1.0  0.34286  0.34978  0.61979  1.0000
  C   C1375     1.0  0.33395  0.33643  0.62124  1.0000
  H   H1101     1.0  0.32297  0.32397  0.66619  1.0000
  H   H1102     1.0  0.33943  0.34747  0.66366  1.0000
  H   H1103     1.0  0.34841  0.35693  0.60675  1.0000
  H   H1104     1.0  0.33279  0.33331  0.60933  1.0000
  C   C1376     1.0  0.30618  0.22179  0.55998  1.0000
  C   C1377     1.0  0.28933  0.23107  0.56715  1.0000
  C   C1378     1.0  0.28772  0.24547  0.57492  1.0000
  C   C1379     1.0  0.30291  0.25067  0.57576  1.0000
  C   C1380     1.0  0.31979  0.24128  0.56875  1.0000
  C   C1381     1.0  0.32139  0.22698  0.56081  1.0000
  H   H1105     1.0  0.27752  0.22733  0.56646  1.0000
  H   H1106     1.0  0.27461  0.25265  0.58024  1.0000
  H   H1107     1.0  0.33159  0.24515  0.56928  1.0000
  H   H1108     1.0  0.33447  0.21991  0.55526  1.0000
  C   C1382     1.0  0.27845  0.39574  0.50888  1.0000
  H   H1109     1.0  0.35656  0.41259  0.51273  1.0000
  H   H1110     1.0  0.21946  0.18351  0.59405  1.0000
  C   C1383     1.0  0.25040  0.15029  0.51490  1.0000
  C   C1384     1.0  0.26283  0.47899  0.95736  1.0000
  H   H1111     1.0  0.33201  0.16538  0.94582  1.0000
  H   H1112     1.0  0.30978  0.19228  0.93715  1.0000
  C   C1385     1.0  0.23459  0.12986  0.51070  1.0000
  C   C1386     1.0  0.23451  0.14625  0.51424  1.0000
  H   H1113     1.0  0.28606  0.31505  0.62225  1.0000
  C   C1387     1.0  0.36582  0.48677  0.61288  1.0000
  C   C1388     1.0  0.34225  0.17749  0.96088  1.0000
  H   H1114     1.0  0.32017  0.13765  0.96900  1.0000
  C   C1389     1.0  0.25401  0.13201  0.61272  1.0000
  C   C1390     1.0  0.25515  0.12199  0.62988  1.0000
  C   C1391     1.0  0.23958  0.11904  0.64263  1.0000
  C   C1392     1.0  0.22293  0.12614  0.63812  1.0000
  C   C1393     1.0  0.22191  0.13540  0.62077  1.0000
  C   C1394     1.0  0.23739  0.13850  0.60819  1.0000
  H   H1115     1.0  0.26799  0.11688  0.63345  1.0000
  H   H1116     1.0  0.24043  0.11181  0.65604  1.0000
  H   H1117     1.0  0.39580  0.22254  0.70355  1.0000
  H   H1118     1.0  0.23644  0.14589  0.59498  1.0000
  C   C1395     1.0  0.28280  0.12354  0.73205  1.0000
  C   C1396     1.0  0.27067  0.13088  0.72068  1.0000
  C   C1397     1.0  0.26070  0.12027  0.71756  1.0000
  C   C1398     1.0  0.26320  0.10204  0.72531  1.0000
  C   C1399     1.0  0.27537  0.09476  0.73660  1.0000
  C   C1400     1.0  0.28488  0.10546  0.74019  1.0000
  H   H1119     1.0  0.26892  0.14484  0.71431  1.0000
  H   H1120     1.0  0.25152  0.12604  0.70872  1.0000
  H   H1121     1.0  0.27750  0.08068  0.74258  1.0000
  H   H1122     1.0  0.29415  0.09959  0.74892  1.0000
  C   C1401     1.0  0.35269  0.17068  0.78568  1.0000
  C   C1402     1.0  0.36361  0.15372  0.78810  1.0000
  C   C1403     1.0  0.38006  0.15109  0.79258  1.0000
  C   C1404     1.0  0.38533  0.16508  0.79577  1.0000
  C   C1405     1.0  0.37387  0.18192  0.79452  1.0000
  C   C1406     1.0  0.35769  0.18478  0.78913  1.0000
  H   H1123     1.0  0.35982  0.14281  0.78554  1.0000
  H   H1124     1.0  0.37775  0.19280  0.79707  1.0000
  H   H1125     1.0  0.34917  0.19793  0.78741  1.0000
  C   C1407     1.0  0.37535  0.10001  0.80234  1.0000
  C   C1408     1.0  0.37359  0.08443  0.79886  1.0000
  H   H1126     1.0  0.36568  0.11221  0.79946  1.0000
  C   C1409     1.0  0.25845  0.24853  0.89149  1.0000
  C   C1410     1.0  0.27448  0.24548  0.87903  1.0000
  C   C1411     1.0  0.28225  0.25986  0.86882  1.0000
  C   C1412     1.0  0.27414  0.27717  0.87130  1.0000
  C   C1413     1.0  0.25855  0.27998  0.88429  1.0000
  C   C1414     1.0  0.25058  0.26574  0.89422  1.0000
  H   H1127     1.0  0.28065  0.23214  0.87703  1.0000
  H   H1128     1.0  0.29443  0.25759  0.85893  1.0000
  H   H1129     1.0  0.25286  0.29308  0.88696  1.0000
  H   H1130     1.0  0.23835  0.26804  0.90407  1.0000
  C   C1415     1.0  0.36778  0.20844  0.85712  1.0000
  C   C1416     1.0  0.35387  0.20881  0.87220  1.0000
  C   C1417     1.0  0.33990  0.20030  0.87435  1.0000
  C   C1418     1.0  0.34007  0.19140  0.86141  1.0000
  C   C1419     1.0  0.35388  0.19123  0.84634  1.0000
  C   C1420     1.0  0.36771  0.19968  0.84423  1.0000
  H   H1131     1.0  0.35419  0.21525  0.88235  1.0000
  H   H1132     1.0  0.32929  0.20029  0.88609  1.0000
  H   H1133     1.0  0.35405  0.18432  0.83635  1.0000
  H   H1134     1.0  0.37833  0.19933  0.83257  1.0000
  C   C1421     1.0  0.25502  0.14766  0.87031  1.0000
  C   C1422     1.0  0.27124  0.14998  0.85853  1.0000
  C   C1423     1.0  0.27631  0.14375  0.84257  1.0000
  C   C1424     1.0  0.26498  0.13552  0.83839  1.0000
  C   C1425     1.0  0.24857  0.13386  0.84991  1.0000
  C   C1426     1.0  0.24362  0.13986  0.86579  1.0000
  H   H1135     1.0  0.28007  0.15607  0.86195  1.0000
  H   H1136     1.0  0.28906  0.14494  0.83374  1.0000
  H   H1137     1.0  0.23978  0.12751  0.84673  1.0000
  H   H1138     1.0  0.23109  0.13805  0.87482  1.0000
  C   C1427     1.0  0.31659  0.20816  0.95137  1.0000
  C   C1428     1.0  0.32059  0.11098  0.96750  1.0000
  C   C1429     1.0  0.31430  0.12951  0.96436  1.0000
  C   C1430     1.0  0.30079  0.13751  0.95482  1.0000
  C   C1431     1.0  0.23072  0.23551  0.74646  1.0000
  H   H1139     1.0  0.24887  0.24537  0.72270  1.0000
  C   C1432     1.0  0.28832  0.18365  0.74247  1.0000
  C   C1433     1.0  0.27015  0.18597  0.75036  1.0000
  C   C1434     1.0  0.26329  0.19425  0.76488  1.0000
  C   C1435     1.0  0.27468  0.19992  0.77179  1.0000
  P   P47       1.0  0.26636  0.21013  0.79087  1.0000
  C   C1436     1.0  0.28280  0.20139  0.80453  1.0000
  C   C1437     1.0  0.29158  0.18340  0.80634  1.0000
  C   C1438     1.0  0.30514  0.17658  0.81582  1.0000
  C   C1439     1.0  0.30996  0.18759  0.82370  1.0000
  C   C1440     1.0  0.30071  0.20526  0.82280  1.0000
  C   C1441     1.0  0.28730  0.21226  0.81306  1.0000
  C   C1442     1.0  0.23114  0.37971  0.63435  1.0000
  C   C1443     1.0  0.25441  0.24533  0.79516  1.0000
  H   H1140     1.0  0.29389  0.17615  0.73207  1.0000
  H   H1141     1.0  0.26157  0.18068  0.74564  1.0000
  H   H1142     1.0  0.24928  0.19580  0.77094  1.0000
  H   H1143     1.0  0.28822  0.17465  0.80014  1.0000
  H   H1144     1.0  0.31236  0.16288  0.81656  1.0000
  H   H1145     1.0  0.32101  0.18236  0.83031  1.0000
  H   H1146     1.0  0.30411  0.21349  0.82956  1.0000
  H   H1147     1.0  0.28072  0.22608  0.81210  1.0000
  H   H1148     1.0  0.24561  0.27256  0.79840  1.0000
  H   H1149     1.0  0.24962  0.23983  0.80910  1.0000
  C   C1444     1.0  0.23842  0.17705  0.63034  1.0000
  H   H1150     1.0  0.23400  0.18734  0.61953  1.0000
  C   C1445     1.0  0.22038  0.22272  0.75488  1.0000
  C   C1446     1.0  0.28975  0.38383  0.51955  1.0000
  C   C1447     1.0  0.30943  0.17666  0.62922  1.0000
  H   H1151     1.0  0.31542  0.25505  0.94717  1.0000
  Fe  Fe109     1.0  0.19925  0.06938  0.52425  1.0000
  C   C1448     1.0  0.24634  0.20707  0.95747  1.0000
  C   C1449     1.0  0.37374  0.32189  0.69101  1.0000
  H   H1152     1.0  0.32026  0.21813  0.91334  1.0000
  C   C1450     1.0  0.20207  0.40584  0.91324  1.0000
  S   S221      1.0  0.36772  0.08237  0.97030  1.0000
  H   H1153     1.0  0.28246  0.13308  0.94188  1.0000
  H   H1154     1.0  0.36673  0.28330  0.50754  1.0000
  H   H1155     1.0  0.35961  0.02307  0.88992  1.0000
  Fe  Fe110     1.0  0.21170  0.45421  0.71159  1.0000
  C   C1451     1.0  0.35691  0.40316  0.54053  1.0000
  H   H1156     1.0  0.21420  0.21153  0.91209  1.0000
  C   C1452     1.0  0.32225  0.47191  0.55770  1.0000
  C   C1453     1.0  0.31413  0.23216  0.91104  1.0000
  C   C1454     1.0  0.27094  0.17936  0.67087  1.0000
  H   H1157     1.0  0.28963  0.15566  0.61054  1.0000
  C   C1455     1.0  0.24438  0.03398  0.59085  1.0000
  C   C1456     1.0  0.24164  0.03535  0.57394  1.0000
  C   C1457     1.0  0.23182  0.05111  0.56546  1.0000
  C   C1458     1.0  0.22474  0.06553  0.57383  1.0000
  C   C1459     1.0  0.22773  0.06442  0.59066  1.0000
  C   C1460     1.0  0.23742  0.04843  0.59922  1.0000
  P   P48       1.0  0.21944  0.08359  0.60079  1.0000
  C   C1461     1.0  0.22571  0.10276  0.58440  1.0000
  H   H1158     1.0  0.38187  0.13382  0.98665  1.0000
  C   C1462     1.0  0.22635  0.38998  0.64724  1.0000
  H   H1159     1.0  0.25226  0.11443  0.89777  1.0000
  C   C1463     1.0  0.31303  0.10042  0.96151  1.0000
  H   H1160     1.0  0.20006  0.48594  0.65909  1.0000
  C   C1464     1.0  0.33359  0.32410  0.52047  1.0000
  C   C1465     1.0  0.21582  0.12007  0.58532  1.0000
  C   C1466     1.0  0.22125  0.13477  0.57302  1.0000
  C   C1467     1.0  0.23653  0.13232  0.55966  1.0000
  C   C1468     1.0  0.24644  0.11520  0.55853  1.0000
  C   C1469     1.0  0.24114  0.10048  0.57089  1.0000
  C   C1470     1.0  0.23002  0.07988  0.61916  1.0000
  C   C1471     1.0  0.24642  0.08464  0.61641  1.0000
  C   C1472     1.0  0.25511  0.08059  0.63048  1.0000
  C   C1473     1.0  0.24739  0.07203  0.64741  1.0000
  C   C1474     1.0  0.23109  0.06724  0.65024  1.0000
  C   C1475     1.0  0.22244  0.07110  0.63618  1.0000
  H   H1161     1.0  0.39293  0.28671  0.58594  1.0000
  H   H1162     1.0  0.22965  0.05221  0.55235  1.0000
  C   C1476     1.0  0.23127  0.48615  0.98582  1.0000
  H   H1163     1.0  0.23984  0.04710  0.61225  1.0000
  C   C1477     1.0  0.27805  0.21897  0.95106  1.0000
  C   C1478     1.0  0.20019  0.20169  0.66194  1.0000
  H   H1164     1.0  0.30827  0.14638  0.67352  1.0000
  C   C1479     1.0  0.30806  0.17238  0.59609  1.0000
  H   H1165     1.0  0.27384  0.22912  0.98217  1.0000
  H   H1166     1.0  0.33117  0.10488  0.97467  1.0000
  H   H1167     1.0  0.20407  0.12243  0.59553  1.0000
  H   H1168     1.0  0.24087  0.14373  0.55034  1.0000
  H   H1169     1.0  0.25839  0.11340  0.54818  1.0000
  H   H1170     1.0  0.24933  0.08738  0.57001  1.0000
  H   H1171     1.0  0.25253  0.09156  0.60350  1.0000
  H   H1172     1.0  0.26762  0.08454  0.62831  1.0000
  H   H1173     1.0  0.25392  0.06932  0.65840  1.0000
  H   H1174     1.0  0.22507  0.06065  0.66340  1.0000
  C   C1480     1.0  0.27604  0.20242  0.96238  1.0000
  C   C1481     1.0  0.29866  0.29943  0.72916  1.0000
  C   C1482     1.0  0.31525  0.29616  0.71762  1.0000
  C   C1483     1.0  0.32114  0.31005  0.70438  1.0000
  C   C1484     1.0  0.31039  0.32716  0.70250  1.0000
  C   C1485     1.0  0.29352  0.33057  0.71375  1.0000
  C   C1486     1.0  0.28778  0.31654  0.72722  1.0000
  P   P49       1.0  0.27905  0.35243  0.70981  1.0000
  C   C1487     1.0  0.25703  0.35220  0.72372  1.0000
  C   C1488     1.0  0.28739  0.36908  0.71486  1.0000
  C   C1489     1.0  0.27540  0.38407  0.72038  1.0000
  C   C1490     1.0  0.28170  0.39723  0.72386  1.0000
  C   C1491     1.0  0.29995  0.39561  0.72187  1.0000
  C   C1492     1.0  0.31198  0.38088  0.71628  1.0000
  C   C1493     1.0  0.30577  0.36765  0.71281  1.0000
  C   C1494     1.0  0.24219  0.35492  0.71628  1.0000
  C   C1495     1.0  0.22000  0.20990  0.74603  1.0000
  C   C1496     1.0  0.22298  0.35206  0.74570  1.0000
  C   C1497     1.0  0.23767  0.34932  0.75316  1.0000
  C   C1498     1.0  0.25457  0.34975  0.74223  1.0000
  C   C1499     1.0  0.27738  0.35904  0.68670  1.0000
  C   C1500     1.0  0.26833  0.38205  0.66194  1.0000
  C   C1501     1.0  0.27008  0.37679  0.67965  1.0000
  H   H1175     1.0  0.29416  0.28869  0.73956  1.0000
  H   H1176     1.0  0.32361  0.28291  0.71890  1.0000
  H   H1177     1.0  0.33393  0.30757  0.69532  1.0000
  H   H1178     1.0  0.31498  0.33763  0.69177  1.0000
  H   H1179     1.0  0.27484  0.31857  0.73606  1.0000
  H   H1180     1.0  0.26117  0.38581  0.72181  1.0000
  H   H1181     1.0  0.27244  0.40890  0.72778  1.0000
  H   H1182     1.0  0.30483  0.40599  0.72425  1.0000
  H   H1183     1.0  0.32617  0.37993  0.71433  1.0000
  H   H1184     1.0  0.31548  0.35658  0.70834  1.0000
  H   H1185     1.0  0.24355  0.35707  0.70208  1.0000
  C   C1502     1.0  0.28187  0.37849  0.57081  1.0000
  H   H1186     1.0  0.23582  0.34734  0.76744  1.0000
  H   H1187     1.0  0.26569  0.34823  0.74824  1.0000
  H   H1188     1.0  0.26263  0.39582  0.65667  1.0000
  H   H1189     1.0  0.26560  0.38660  0.68786  1.0000
  H   H1190     1.0  0.28661  0.19391  0.96878  1.0000
  H   H1191     1.0  0.31466  0.47028  0.94463  1.0000
  S   S222      1.0  0.32114  0.07731  0.96466  1.0000
  C   C1503     1.0  0.31756  0.24254  0.89380  1.0000
  H   H1192     1.0  0.26486  0.33145  0.64425  1.0000
  C   C1504     1.0  0.28123  0.07956  0.91678  1.0000
  H   H1193     1.0  0.37571  0.30343  0.80423  1.0000
  C   C1505     1.0  0.21850  0.18258  0.68892  1.0000
  C   C1506     1.0  0.25374  0.27988  0.82908  1.0000
  C   C1507     1.0  0.26931  0.26682  0.83028  1.0000
  C   C1508     1.0  0.26823  0.24911  0.83805  1.0000
  C   C1509     1.0  0.23712  0.27529  0.83571  1.0000
  H   H1194     1.0  0.27157  0.35567  0.61360  1.0000
  C   C1510     1.0  0.21192  0.41999  0.85755  1.0000
  C   C1511     1.0  0.20546  0.25662  0.62553  1.0000
  H   H1195     1.0  0.25448  0.29368  0.82347  1.0000
  H   H1196     1.0  0.28214  0.27056  0.82579  1.0000
  H   H1197     1.0  0.28025  0.23911  0.83967  1.0000
  H   H1198     1.0  0.21378  0.35753  0.72147  1.0000
  C   C1512     1.0  0.19974  0.18460  0.53678  1.0000
  C   C1513     1.0  0.29469  0.07719  0.90167  1.0000
  H   H1199     1.0  0.27866  0.14051  0.51267  1.0000
  C   C1514     1.0  0.22428  0.19837  0.87283  1.0000
  P   P50       1.0  0.20713  0.19301  0.75699  1.0000
  C   C1515     1.0  0.35185  0.23340  0.80413  1.0000
  C   C1516     1.0  0.33870  0.22613  0.81735  1.0000
  C   C1517     1.0  0.32964  0.23445  0.83156  1.0000
  C   C1518     1.0  0.33390  0.24994  0.83267  1.0000
  C   C1519     1.0  0.34762  0.25690  0.81981  1.0000
  C   C1520     1.0  0.35618  0.24884  0.80525  1.0000
  P   P51       1.0  0.35381  0.27639  0.82157  1.0000
  C   C1521     1.0  0.35085  0.27692  0.84465  1.0000
  C   C1522     1.0  0.37747  0.27495  0.81273  1.0000
  C   C1523     1.0  0.21359  0.22926  0.88651  1.0000
  C   C1524     1.0  0.20272  0.19547  0.54622  1.0000
  C   C1525     1.0  0.36046  0.49400  0.54997  1.0000
  H   H1200     1.0  0.36762  0.40949  0.53972  1.0000
  C   C1526     1.0  0.30523  0.25357  0.95928  1.0000
  C   C1527     1.0  0.34542  0.29315  0.85026  1.0000
  C   C1528     1.0  0.35363  0.26131  0.87475  1.0000
  C   C1529     1.0  0.35505  0.26106  0.85701  1.0000
  C   C1530     1.0  0.33951  0.29549  0.81064  1.0000
  C   C1531     1.0  0.32205  0.30137  0.81973  1.0000
  C   C1532     1.0  0.31104  0.31666  0.81194  1.0000
  C   C1533     1.0  0.31729  0.32608  0.79489  1.0000
  C   C1534     1.0  0.33443  0.31991  0.78544  1.0000
  C   C1535     1.0  0.34538  0.30444  0.79312  1.0000
  H   H1201     1.0  0.35900  0.22677  0.79327  1.0000
  H   H1202     1.0  0.33588  0.21378  0.81679  1.0000
  H   H1203     1.0  0.31972  0.22859  0.84204  1.0000
  H   H1204     1.0  0.32681  0.25618  0.84379  1.0000
  H   H1205     1.0  0.36652  0.25420  0.79502  1.0000
  C   C1536     1.0  0.26037  0.19640  0.96530  1.0000
  C   C1537     1.0  0.20890  0.01220  0.53139  1.0000
  H   H1206     1.0  0.22002  0.28082  0.93885  1.0000
  C   C1538     1.0  0.22216  0.38194  0.66523  1.0000
  H   H1207     1.0  0.38451  0.24622  0.82157  1.0000
  H   H1208     1.0  0.34255  0.30565  0.84092  1.0000
  H   H1209     1.0  0.35947  0.24850  0.85288  1.0000
  H   H1210     1.0  0.31699  0.29433  0.83302  1.0000
  H   H1211     1.0  0.29771  0.32133  0.81929  1.0000
  H   H1212     1.0  0.30879  0.33813  0.78904  1.0000
  C   C1539     1.0  0.28191  0.23897  0.97890  1.0000
  H   H1213     1.0  0.21984  0.18231  0.79025  1.0000
  S   S223      1.0  0.20594  0.48269  0.71448  1.0000
  H   H1214     1.0  0.22559  0.40423  0.64338  1.0000
  C   C1540     1.0  0.38566  0.13342  0.75135  1.0000
  C   C1541     1.0  0.25063  0.11755  0.50721  1.0000
  C   C1542     1.0  0.37049  0.29221  0.70793  1.0000
  C   C1543     1.0  0.37306  0.30919  0.70701  1.0000
  P   P52       1.0  0.36926  0.27592  0.72883  1.0000
  C   C1544     1.0  0.36878  0.25487  0.72478  1.0000
  C   C1545     1.0  0.38951  0.27227  0.73667  1.0000
  C   C1546     1.0  0.39028  0.26381  0.75441  1.0000
  C   C1547     1.0  0.32756  0.06640  0.87157  1.0000
  H   H1215     1.0  0.23086  0.20485  0.68274  1.0000
  C   C1548     1.0  0.29895  0.10840  0.95271  1.0000
  C   C1549     1.0  0.37551  0.21019  0.91114  1.0000
  C   C1550     1.0  0.38432  0.24506  0.71574  1.0000
  C   C1551     1.0  0.38393  0.22944  0.71131  1.0000
  C   C1552     1.0  0.36820  0.22314  0.71636  1.0000
  C   C1553     1.0  0.25079  0.29606  0.62916  1.0000
  C   C1554     1.0  0.35285  0.24871  0.72937  1.0000
  C   C1555     1.0  0.34973  0.28277  0.74551  1.0000
  C   C1556     1.0  0.33943  0.30023  0.74291  1.0000
  C   C1557     1.0  0.32405  0.30515  0.75552  1.0000
  C   C1558     1.0  0.31888  0.29280  0.77097  1.0000
  C   C1559     1.0  0.32903  0.27545  0.77377  1.0000
  C   C1560     1.0  0.34429  0.27041  0.76109  1.0000
  H   H1216     1.0  0.24164  0.43391  0.93513  1.0000
  C   C1561     1.0  0.24112  0.45454  0.94816  1.0000
  H   H1217     1.0  0.21812  0.38999  0.67520  1.0000
  H   H1218     1.0  0.33186  0.37545  0.57013  1.0000
  C   C1562     1.0  0.39408  0.33726  0.49937  1.0000
  H   H1219     1.0  0.37891  0.25953  0.76367  1.0000
  H   H1220     1.0  0.31592  0.11691  0.90070  1.0000
  H   H1221     1.0  0.36942  0.16120  0.86800  1.0000
  C   C1563     1.0  0.25481  0.21968  0.60927  1.0000
  H   H1222     1.0  0.35483  0.39130  0.56839  1.0000
  H   H1223     1.0  0.22313  0.00963  0.52594  1.0000
  H   H1224     1.0  0.27529  0.43726  0.77687  1.0000
  H   H1225     1.0  0.31341  0.31320  0.54132  1.0000
  H   H1226     1.0  0.27717  0.29253  0.61235  1.0000
  C   C1564     1.0  0.21550  0.47203  0.82785  1.0000
  H   H1227     1.0  0.34291  0.31009  0.73107  1.0000
  H   H1228     1.0  0.31614  0.31862  0.75332  1.0000
  H   H1229     1.0  0.30708  0.29673  0.78083  1.0000
  H   H1230     1.0  0.32501  0.26586  0.78577  1.0000
  H   H1231     1.0  0.35161  0.25673  0.76330  1.0000
  C   C1565     1.0  0.34141  0.33885  0.51272  1.0000
  C   C1566     1.0  0.32419  0.41420  0.60285  1.0000
  C   C1567     1.0  0.35973  0.42072  0.59878  1.0000
  C   C1568     1.0  0.36589  0.40260  0.59830  1.0000
  H   H1232     1.0  0.20314  0.40859  0.78926  1.0000
  C   C1569     1.0  0.23436  0.44130  0.94540  1.0000
  H   H1233     1.0  0.31083  0.27408  0.96844  1.0000
  C   C1570     1.0  0.34095  0.19297  0.96652  1.0000
  C   C1571     1.0  0.32173  0.40292  0.61977  1.0000
  C   C1572     1.0  0.31234  0.38949  0.62339  1.0000
  C   C1573     1.0  0.30538  0.38720  0.61013  1.0000
  C   C1574     1.0  0.32569  0.44298  0.61657  1.0000
  C   C1575     1.0  0.30697  0.44808  0.62044  1.0000
  C   C1576     1.0  0.29794  0.45546  0.63525  1.0000
  C   C1577     1.0  0.30748  0.45775  0.64643  1.0000
  C   C1578     1.0  0.32603  0.45248  0.64291  1.0000
  C   C1579     1.0  0.33512  0.44507  0.62812  1.0000
  H   H1234     1.0  0.35708  0.39458  0.59798  1.0000
  C   C1580     1.0  0.21943  0.26166  0.69335  1.0000
  H   H1235     1.0  0.31130  0.08999  0.92412  1.0000
  H   H1236     1.0  0.37009  0.29711  0.66421  1.0000
  H   H1237     1.0  0.32746  0.40423  0.63009  1.0000
  H   H1238     1.0  0.31091  0.38058  0.63638  1.0000
  H   H1239     1.0  0.29862  0.37644  0.61288  1.0000
  C   C1581     1.0  0.25161  0.24446  0.84473  1.0000
  C   C1582     1.0  0.27286  0.47214  0.97062  1.0000
  H   H1240     1.0  0.30044  0.46272  0.65836  1.0000
  H   H1241     1.0  0.33324  0.45313  0.65235  1.0000
  H   H1242     1.0  0.34932  0.44022  0.62643  1.0000
  C   C1583     1.0  0.26228  0.43692  0.78554  1.0000
  C   C1584     1.0  0.35081  0.40469  0.52528  1.0000
  H   H1243     1.0  0.35167  0.16549  0.96508  1.0000
  H   H1244     1.0  0.25933  0.18325  0.97334  1.0000
  H   H1245     1.0  0.22234  0.12690  0.51023  1.0000
  C   C1585     1.0  0.29037  0.47944  0.93488  1.0000
  H   H1246     1.0  0.28811  0.33270  0.68074  1.0000
  H   H1247     1.0  0.19869  0.41024  0.82033  1.0000
  C   C1586     1.0  0.38038  0.06628  0.85260  1.0000
  C   C1587     1.0  0.29409  0.40852  0.52890  1.0000
  C   C1588     1.0  0.30265  0.23992  0.92497  1.0000
  H   H1248     1.0  0.32600  0.23653  0.88296  1.0000
  C   C1589     1.0  0.21458  0.46134  0.97074  1.0000
  H   H1249     1.0  0.29924  0.44564  0.61244  1.0000
  C   C1590     1.0  0.37570  0.14875  0.86381  1.0000
  C   C1591     1.0  0.23555  0.32131  0.68536  1.0000
  H   H1250     1.0  0.24709  0.02423  0.56737  1.0000
  H   H1251     1.0  0.22900  0.22636  0.78953  1.0000
  H   H1252     1.0  0.29997  0.41368  0.53665  1.0000
  H   H1253     1.0  0.35684  0.46936  0.63769  1.0000
  H   H1254     1.0  0.33291  0.39739  0.51420  1.0000
  H   H1255     1.0  0.35734  0.44741  0.53342  1.0000
  S   S224      1.0  0.21333  0.39499  0.75444  1.0000
  H   H1256     1.0  0.30186  0.34020  0.55352  1.0000
  C   C1592     1.0  0.24835  0.45190  0.78407  1.0000
  C   C1593     1.0  0.35843  0.48101  0.56562  1.0000
  H   H1257     1.0  0.26486  0.18158  0.62265  1.0000
  C   C1594     1.0  0.37829  0.08033  0.86075  1.0000
  H   H1258     1.0  0.24246  0.15694  0.80180  1.0000
  H   H1259     1.0  0.23522  0.35368  0.62930  1.0000
  C   C1595     1.0  0.24795  0.22380  0.94674  1.0000
  Fe  Fe111     1.0  0.34545  0.06795  0.97656  1.0000
  H   H1260     1.0  0.21415  0.44186  0.86711  1.0000
  H   H1261     1.0  0.20990  0.06713  0.63864  1.0000
  C   C1596     1.0  0.22856  0.43561  0.80753  1.0000
  C   C1597     1.0  0.24251  0.42064  0.80891  1.0000
  C   C1598     1.0  0.25939  0.42137  0.79804  1.0000
  H   H1262     1.0  0.21714  0.07763  0.56704  1.0000
  H   H1263     1.0  0.21309  0.16927  0.64089  1.0000
  C   C1599     1.0  0.21785  0.43796  0.95541  1.0000
  H   H1264     1.0  0.20708  0.03142  0.59810  1.0000
  H   H1265     1.0  0.21553  0.43490  0.81605  1.0000
  H   H1266     1.0  0.24026  0.40835  0.81824  1.0000
  H   H1267     1.0  0.27019  0.40976  0.79912  1.0000
  C   C1600     1.0  0.31859  0.19277  0.94510  1.0000
  C   C1601     1.0  0.20243  0.30943  0.67787  1.0000
  C   C1602     1.0  0.26780  0.29967  0.62208  1.0000
  C   C1603     1.0  0.37066  0.48867  0.50056  1.0000
  C   C1604     1.0  0.31849  0.18343  0.59705  1.0000
  H   H1268     1.0  0.37056  0.09320  0.85577  1.0000
  C   C1605     1.0  0.29732  0.16485  0.69082  1.0000
  C   C1606     1.0  0.32046  0.13610  0.85819  1.0000
  C   C1607     1.0  0.28283  0.42039  0.51818  1.0000
  C   C1608     1.0  0.21342  0.19420  0.82323  1.0000
  H   H1269     1.0  0.31233  0.48421  0.55596  1.0000
  H   H1270     1.0  0.38085  0.35626  0.58679  1.0000
  C   C1609     1.0  0.28281  0.34659  0.67573  1.0000
  C   C1610     1.0  0.23589  0.25756  0.84362  1.0000
  S   S225      1.0  0.38364  0.25094  0.60429  1.0000
  S   S226      1.0  0.25165  0.09788  0.50027  1.0000
  C   C1611     1.0  0.22138  0.19943  0.67955  1.0000
  P   P53       1.0  0.33660  0.43122  0.59871  1.0000
  C   C1612     1.0  0.22665  0.16701  0.64233  1.0000
  Fe  Fe112     1.0  0.20554  0.11189  0.68213  1.0000
  C   C1613     1.0  0.33749  0.39593  0.52618  1.0000
  C   C1614     1.0  0.29958  0.18999  0.74879  1.0000
  H   H1271     1.0  0.37132  0.32296  0.63290  1.0000
  C   C1615     1.0  0.25604  0.17361  0.63209  1.0000
  C   C1616     1.0  0.25350  0.31384  0.68615  1.0000
  C   C1617     1.0  0.30746  0.39859  0.59334  1.0000
  C   C1618     1.0  0.32116  0.35475  0.53489  1.0000
  C   C1619     1.0  0.27411  0.36970  0.65103  1.0000
  H   H1272     1.0  0.35837  0.29960  0.78538  1.0000
  C   C1620     1.0  0.27278  0.31246  0.62758  1.0000
  H   H1273     1.0  0.26636  0.42323  0.49980  1.0000
  C   C1621     1.0  0.28438  0.16471  0.66666  1.0000
  C   C1622     1.0  0.29279  0.19813  0.76336  1.0000
  C   C1623     1.0  0.28160  0.35203  0.65786  1.0000
  C   C1624     1.0  0.27180  0.37353  0.58795  1.0000
  C   C1625     1.0  0.38966  0.09980  0.80956  1.0000
  C   C1626     1.0  0.33527  0.35411  0.51991  1.0000
  C   C1627     1.0  0.21223  0.20915  0.66601  1.0000
  H   H1274     1.0  0.30739  0.17090  0.58319  1.0000
  C   C1628     1.0  0.24994  0.15030  0.65809  1.0000
  C   C1629     1.0  0.29968  0.36957  0.56597  1.0000
  H   H1275     1.0  0.31376  0.18772  0.74306  1.0000
  H   H1276     1.0  0.30184  0.20247  0.76842  1.0000
  H   H1277     1.0  0.27286  0.37391  0.63731  1.0000
  H   H1278     1.0  0.25117  0.23078  0.85129  1.0000
  C   C1630     1.0  0.34820  0.44046  0.56194  1.0000
  H   H1279     1.0  0.32934  0.00616  0.99069  1.0000
  P   P54       1.0  0.38157  0.09576  0.88653  1.0000
  C   C1631     1.0  0.31692  0.41204  0.58964  1.0000
  H   H1280     1.0  0.30200  0.39683  0.58311  1.0000
  C   C1632     1.0  0.31937  0.32471  0.53520  1.0000
  H   H1281     1.0  0.23074  0.24556  0.75326  1.0000
  H   H1282     1.0  0.29262  0.10025  0.94863  1.0000
  C   C1633     1.0  0.23233  0.15386  0.65633  1.0000
  H   H1283     1.0  0.26366  0.31242  0.67422  1.0000
  H   H1284     1.0  0.26062  0.18509  0.66328  1.0000
  C   C1634     1.0  0.28091  0.07998  0.83402  1.0000
  C   C1635     1.0  0.25771  0.27120  0.77123  1.0000
  H   H1285     1.0  0.27598  0.11054  0.87105  1.0000
  C   C1636     1.0  0.29778  0.39016  0.52952  1.0000
  H   H1286     1.0  0.37808  0.09398  0.92493  1.0000
  C   C1637     1.0  0.39552  0.40406  0.59906  1.0000
  C   C1638     1.0  0.26596  0.09299  0.91537  1.0000
  H   H1287     1.0  0.29216  0.36972  0.51996  1.0000
  C   C1639     1.0  0.29771  0.15762  0.67660  1.0000
  C   C1640     1.0  0.24566  0.20396  0.80374  1.0000
  H   H1288     1.0  0.36432  0.21994  0.91630  1.0000
  C   C1641     1.0  0.27072  0.18668  0.68497  1.0000
  H   H1289     1.0  0.25487  0.21899  0.59589  1.0000
  H   H1290     1.0  0.35834  0.42830  0.56329  1.0000
  H   H1291     1.0  0.25790  0.17999  0.82061  1.0000
  C   C1642     1.0  0.23880  0.30511  0.64184  1.0000
  C   C1643     1.0  0.34368  0.29336  0.86810  1.0000
  H   H1292     1.0  0.21679  0.47345  0.85405  1.0000
  H   H1293     1.0  0.20553  0.39905  0.85006  1.0000
  H   H1294     1.0  0.23126  0.21053  0.49891  1.0000
  H   H1295     1.0  0.36767  0.06984  0.91652  1.0000
  C   C1644     1.0  0.33661  0.38383  0.55758  1.0000
  C   C1645     1.0  0.29810  0.26841  0.90405  1.0000
  H   H1296     1.0  0.26037  0.19796  0.68820  1.0000
  C   C1646     1.0  0.27504  0.41401  0.50815  1.0000
  C   C1647     1.0  0.20857  0.19213  0.60094  1.0000
  C   C1648     1.0  0.24563  0.18852  0.81738  1.0000
  C   C1649     1.0  0.22934  0.21441  0.79995  1.0000
  H   H1297     1.0  0.35697  0.24892  0.88411  1.0000
  H   H1298     1.0  0.34172  0.36523  0.51391  1.0000
  C   C1650     1.0  0.39033  0.04955  0.85883  1.0000
  C   C1651     1.0  0.30273  0.26430  0.97134  1.0000
  C   C1652     1.0  0.37872  0.47119  0.49833  1.0000
  H   H1299     1.0  0.36782  0.44481  0.59791  1.0000
  H   H1300     1.0  0.31869  0.42052  0.57647  1.0000
  C   C1653     1.0  0.39535  0.47592  0.59611  1.0000
  P   P55       1.0  0.28470  0.15538  0.64837  1.0000
  C   C1654     1.0  0.29869  0.16567  0.62837  1.0000
  C   C1655     1.0  0.29814  0.16362  0.61164  1.0000
  H   H1301     1.0  0.25451  0.22242  0.65701  1.0000
  H   H1302     1.0  0.30303  0.12842  0.62648  1.0000
  H   H1303     1.0  0.30298  0.34013  0.60548  1.0000
  C   C1656     1.0  0.28384  0.17938  0.69499  1.0000
  C   C1657     1.0  0.33760  0.10495  0.84580  1.0000
  H   H1304     1.0  0.28273  0.07108  0.92964  1.0000
  H   H1305     1.0  0.28342  0.21404  0.60515  1.0000
  H   H1306     1.0  0.22574  0.17497  0.69919  1.0000
  H   H1307     1.0  0.25544  0.28553  0.76663  1.0000
  C   C1658     1.0  0.21085  0.49262  0.76005  1.0000
  C   C1659     1.0  0.34781  0.27745  0.88035  1.0000
  H   H1308     1.0  0.33917  0.30589  0.87241  1.0000
  C   C1660     1.0  0.24372  0.31798  0.64748  1.0000
  C   C1661     1.0  0.38608  0.07779  0.87525  1.0000
  C   C1662     1.0  0.35651  0.08032  0.91302  1.0000
  C   C1663     1.0  0.23145  0.45143  0.79524  1.0000
  H   H1309     1.0  0.33715  0.06659  0.93194  1.0000
  H   H1310     1.0  0.39664  0.24982  0.71144  1.0000
  C   C1664     1.0  0.30981  0.26068  0.89039  1.0000
  C   C1665     1.0  0.27938  0.35964  0.60038  1.0000
  C   C1666     1.0  0.33586  0.44549  0.57697  1.0000
  C   C1667     1.0  0.36746  0.47113  0.62601  1.0000
  H   H1311     1.0  0.25198  0.02175  0.59744  1.0000
  H   H1312     1.0  0.21895  0.35792  0.68441  1.0000
  Fe  Fe113     1.0  0.35831  0.27074  0.60016  1.0000
  C   C1668     1.0  0.30723  0.35569  0.57863  1.0000
  S   S227      1.0  0.35608  0.29870  0.60217  1.0000
  H   H1313     1.0  0.23565  0.32316  0.80522  1.0000
  C   C1669     1.0  0.26593  0.26015  0.75916  1.0000
  H   H1314     1.0  0.21267  0.20354  0.54020  1.0000
  C   C1670     1.0  0.33923  0.07836  0.92170  1.0000
  C   C1671     1.0  0.38318  0.11649  0.87083  1.0000
  H   H1315     1.0  0.20945  0.45214  0.76859  1.0000
  H   H1316     1.0  0.36872  0.49032  0.53778  1.0000
  C   C1672     1.0  0.38605  0.41856  0.71109  1.0000
  C   C1673     1.0  0.33022  0.38542  0.54236  1.0000
  H   H1317     1.0  0.22570  0.41321  0.85729  1.0000
  C   C1674     1.0  0.39560  0.06080  0.88185  1.0000
  C   C1675     1.0  0.22123  0.19710  0.89114  1.0000
  H   H1318     1.0  0.23983  0.31245  0.77766  1.0000
  C   C1676     1.0  0.22958  0.18376  0.82713  1.0000
  H   H1319     1.0  0.27507  0.23346  0.75540  1.0000
  H   H1320     1.0  0.34649  0.27762  0.89415  1.0000
  C   C1677     1.0  0.24092  0.23542  0.72923  1.0000
  C   C1678     1.0  0.35934  0.09536  0.89955  1.0000
  H   H1321     1.0  0.34046  0.07958  0.88310  1.0000
  C   C1679     1.0  0.29711  0.35084  0.59577  1.0000
  C   C1680     1.0  0.21885  0.48807  0.77480  1.0000
  H   H1322     1.0  0.21378  0.14814  0.57398  1.0000
  H   H1323     1.0  0.33387  0.16605  0.90294  1.0000
  C   C1681     1.0  0.21332  0.20942  0.80953  1.0000
  H   H1324     1.0  0.28352  0.18491  0.70601  1.0000
  C   C1682     1.0  0.22529  0.31805  0.80324  1.0000
  H   H1325     1.0  0.22975  0.17184  0.83765  1.0000
  H   H1326     1.0  0.31298  0.46540  0.58591  1.0000
  C   C1683     1.0  0.32271  0.46119  0.57469  1.0000
  C   C1684     1.0  0.34767  0.45121  0.54498  1.0000
  H   H1327     1.0  0.22315  0.14601  0.66545  1.0000
  H   H1328     1.0  0.22258  0.27194  0.87473  1.0000
  H   H1329     1.0  0.27006  0.26593  0.74518  1.0000
  H   H1330     1.0  0.36140  0.17444  0.90281  1.0000
  H   H1331     1.0  0.28986  0.07318  0.80827  1.0000
  H   H1332     1.0  0.37388  0.35284  0.52828  1.0000
  C   C1685     1.0  0.35892  0.16164  0.91063  1.0000
  H   H1333     1.0  0.20441  0.33000  0.90298  1.0000
  H   H1334     1.0  0.32766  0.13672  0.92018  1.0000
  C   C1686     1.0  0.37542  0.13266  0.87623  1.0000
  C   C1687     1.0  0.32465  0.09156  0.91728  1.0000
  C   C1688     1.0  0.34457  0.10847  0.89492  1.0000
  C   C1689     1.0  0.34332  0.15689  0.91049  1.0000
  C   C1690     1.0  0.33989  0.14028  0.92002  1.0000
  H   H1335     1.0  0.25402  0.13983  0.66892  1.0000
  H   H1336     1.0  0.22208  0.15581  0.51634  1.0000
  H   H1337     1.0  0.20387  0.16240  0.69226  1.0000
  H   H1338     1.0  0.24969  0.30570  0.73103  1.0000
  H   H1339     1.0  0.36561  0.18789  0.92900  1.0000
  C   C1691     1.0  0.38416  0.31997  0.62410  1.0000
  C   C1692     1.0  0.22786  0.35314  0.65758  1.0000
  H   H1340     1.0  0.38890  0.13820  0.79318  1.0000
  C   C1693     1.0  0.38042  0.28446  0.50156  1.0000
  C   C1694     1.0  0.34969  0.39288  0.55669  1.0000
  S   S228      1.0  0.36341  0.04093  0.97571  1.0000
  C   C1695     1.0  0.27175  0.48260  0.93943  1.0000
  H   H1341     1.0  0.22573  0.30201  0.64704  1.0000
  H   H1342     1.0  0.38858  0.22974  0.89143  1.0000
  H   H1343     1.0  0.39552  0.21600  0.65404  1.0000
  C   C1696     1.0  0.35233  0.12817  0.92922  1.0000
  H   H1344     1.0  0.33070  0.07782  0.83096  1.0000
  H   H1345     1.0  0.36299  0.26141  0.63691  1.0000
  P   P56       1.0  0.23874  0.48324  0.96304  1.0000
  C   C1697     1.0  0.32673  0.04985  0.86921  1.0000
  P   P57       1.0  0.39130  0.15590  0.92100  1.0000
  H   H1346     1.0  0.34973  0.11517  0.93635  1.0000
  C   C1698     1.0  0.31921  0.18555  0.61360  1.0000
  C   C1699     1.0  0.35060  0.03510  0.88487  1.0000
  H   H1347     1.0  0.22539  0.30120  0.90932  1.0000
  H   H1348     1.0  0.39211  0.37256  0.52988  1.0000
  C   C1700     1.0  0.37116  0.14983  0.92051  1.0000
  H   H1349     1.0  0.21251  0.42794  0.95292  1.0000
  H   H1350     1.0  0.36798  0.27490  0.69229  1.0000
  C   C1701     1.0  0.36803  0.13281  0.92924  1.0000
  H   H1351     1.0  0.22518  0.28567  0.83517  1.0000
  H   H1352     1.0  0.20635  0.46948  0.98007  1.0000
  C   C1702     1.0  0.22276  0.36365  0.67041  1.0000
  H   H1353     1.0  0.30009  0.12234  0.87359  1.0000
  Fe  Fe114     1.0  0.20196  0.42712  0.69712  1.0000
  C   C1703     1.0  0.33841  0.03432  0.87558  1.0000
  C   C1704     1.0  0.32813  0.20825  0.96185  1.0000
  C   C1705     1.0  0.38795  0.36583  0.55841  1.0000
  C   C1706     1.0  0.21832  0.24255  0.66906  1.0000
  C   C1707     1.0  0.19857  0.29070  0.88252  1.0000
  H   H1354     1.0  0.25561  0.09500  0.92708  1.0000
  C   C1708     1.0  0.27753  0.10167  0.88370  1.0000
  H   H1355     1.0  0.34050  0.25622  0.73578  1.0000
  C   C1709     1.0  0.20861  0.27672  0.87422  1.0000
  H   H1356     1.0  0.32586  0.19046  0.58489  1.0000
  H   H1357     1.0  0.33860  0.31213  0.51518  1.0000
  H   H1358     1.0  0.28115  0.12900  0.68210  1.0000
  H   H1359     1.0  0.38814  0.38022  0.59869  1.0000
  C   C1710     1.0  0.31672  0.03320  0.99286  1.0000
  H   H1360     1.0  0.21001  0.24099  0.89209  1.0000
  H   H1361     1.0  0.37769  0.12313  0.93614  1.0000
  C   C1711     1.0  0.26078  0.32164  0.64012  1.0000
  C   C1712     1.0  0.29213  0.13140  0.65378  1.0000
  H   H1362     1.0  0.26431  0.48781  0.92895  1.0000
  H   H1363     1.0  0.23064  0.16224  0.74253  1.0000
  C   C1713     1.0  0.31671  0.07868  0.83205  1.0000
  H   H1364     1.0  0.35809  0.11943  0.83057  1.0000
  C   C1714     1.0  0.38885  0.29323  0.50872  1.0000
  Fe  Fe115     1.0  0.22686  0.08949  0.49947  1.0000
  C   C1715     1.0  0.39493  0.18682  0.69414  1.0000
  C   C1716     1.0  0.39258  0.11663  0.85323  1.0000
  C   C1717     1.0  0.30022  0.12174  0.64031  1.0000
  P   P58       1.0  0.21326  0.47058  0.79379  1.0000
  C   C1718     1.0  0.33985  0.06704  0.88089  1.0000
  C   C1719     1.0  0.29378  0.07564  0.81920  1.0000
  C   C1720     1.0  0.22760  0.31202  0.78761  1.0000
  C   C1721     1.0  0.33683  0.13543  0.84613  1.0000
  H   H1365     1.0  0.34044  0.22790  0.72921  1.0000
  C   C1722     1.0  0.29304  0.08834  0.88495  1.0000
  H   H1366     1.0  0.32703  0.21987  0.96687  1.0000
  C   C1723     1.0  0.23263  0.16115  0.75568  1.0000
  C   C1724     1.0  0.21074  0.47982  0.84267  1.0000
  H   H1367     1.0  0.20483  0.29674  0.88911  1.0000
  C   C1725     1.0  0.27085  0.21696  0.61449  1.0000
  C   C1726     1.0  0.37734  0.15134  0.74692  1.0000
  H   H1368     1.0  0.19849  0.16072  0.75330  1.0000
  H   H1369     1.0  0.28315  0.21559  0.63577  1.0000
  S   S229      1.0  0.21680  0.29849  0.76505  1.0000
  C   C1727     1.0  0.36938  0.28799  0.69232  1.0000
  H   H1370     1.0  0.20083  0.48607  0.75958  1.0000
  S   S230      1.0  0.39419  0.35016  0.70651  1.0000
  C   C1728     1.0  0.22522  0.35507  0.72726  1.0000
  C   C1729     1.0  0.27066  0.21785  0.63176  1.0000
  C   C1730     1.0  0.20546  0.43623  0.86289  1.0000
  C   C1731     1.0  0.23015  0.25409  0.66433  1.0000
  H   H1371     1.0  0.22885  0.18633  0.86761  1.0000
  C   C1732     1.0  0.37622  0.19203  0.91824  1.0000
  C   C1733     1.0  0.22289  0.32310  0.70122  1.0000
  C   C1734     1.0  0.39044  0.17927  0.91130  1.0000
  C   C1735     1.0  0.30428  0.10311  0.64452  1.0000
  H   H1372     1.0  0.31029  0.09581  0.63400  1.0000
  H   H1373     1.0  0.28348  0.45859  0.63861  1.0000
  H   H1374     1.0  0.37558  0.33500  0.69044  1.0000
  H   H1375     1.0  0.25878  0.13425  0.78406  1.0000
  C   C1736     1.0  0.21652  0.23068  0.86811  1.0000
  H   H1376     1.0  0.32173  0.07152  0.80677  1.0000
  H   H1377     1.0  0.27251  0.30256  0.70304  1.0000
  H   H1378     1.0  0.33445  0.47540  0.52981  1.0000
  C   C1737     1.0  0.38919  0.21572  0.89727  1.0000
  C   C1738     1.0  0.38933  0.25828  0.81471  1.0000
  H   H1379     1.0  0.34535  0.47546  0.59324  1.0000
  C   C1739     1.0  0.24877  0.14530  0.77901  1.0000
  C   C1740     1.0  0.23822  0.22498  0.63838  1.0000
  C   C1741     1.0  0.23859  0.22323  0.62126  1.0000
  H   H1380     1.0  0.31240  0.26870  0.87701  1.0000
  C   C1742     1.0  0.23950  0.15812  0.78901  1.0000
  C   C1743     1.0  0.24527  0.14678  0.76242  1.0000
  H   H1381     1.0  0.38252  0.29310  0.62599  1.0000
  S   S231      1.0  0.20110  0.09795  0.51784  1.0000
  C   C1744     1.0  0.21384  0.30491  0.91949  1.0000
  H   H1382     1.0  0.21343  0.49056  0.93959  1.0000
  C   C1745     1.0  0.29464  0.24100  0.96285  1.0000
  H   H1383     1.0  0.23878  0.25593  0.65121  1.0000
  H   H1384     1.0  0.37656  0.19675  0.67644  1.0000
  C   C1746     1.0  0.20800  0.44793  0.96813  1.0000
  C   C1747     1.0  0.28795  0.12201  0.67148  1.0000
  H   H1385     1.0  0.24696  0.28621  0.62474  1.0000
  P   P59       1.0  0.21418  0.25221  0.85310  1.0000
  H   H1386     1.0  0.22636  0.22470  0.61701  1.0000
  C   C1748     1.0  0.22192  0.21510  0.86132  1.0000
  C   C1749     1.0  0.22663  0.17236  0.78246  1.0000
  C   C1750     1.0  0.22290  0.17388  0.76584  1.0000
  C   C1751     1.0  0.31265  0.12125  0.86413  1.0000
  H   H1387     1.0  0.28020  0.43457  0.51760  1.0000
  P   P60       1.0  0.22863  0.32946  0.66431  1.0000
  H   H1388     1.0  0.39217  0.46537  0.50027  1.0000
  C   C1752     1.0  0.20947  0.31757  0.81618  1.0000
  H   H1389     1.0  0.25249  0.13675  0.75477  1.0000
  C   C1753     1.0  0.38616  0.06857  0.80293  1.0000
  H   H1390     1.0  0.26697  0.08095  0.83454  1.0000
  H   H1391     1.0  0.28672  0.34252  0.64930  1.0000
  C   C1754     1.0  0.35267  0.23273  0.72545  1.0000
  H   H1392     1.0  0.37342  0.41658  0.71990  1.0000
  H   H1393     1.0  0.34462  0.09304  0.84089  1.0000
  C   C1755     1.0  0.30013  0.09395  0.66218  1.0000
  H   H1394     1.0  0.37466  0.31264  0.71862  1.0000
  H   H1395     1.0  0.38480  0.05641  0.80043  1.0000
  C   C1756     1.0  0.39198  0.09216  0.91835  1.0000
  C   C1757     1.0  0.38989  0.25273  0.62301  1.0000
  C   C1758     1.0  0.26407  0.10395  0.89883  1.0000
  C   C1759     1.0  0.38969  0.42219  0.59893  1.0000
  C   C1760     1.0  0.29194  0.10341  0.67565  1.0000
  C   C1761     1.0  0.22807  0.31740  0.71754  1.0000
  H   H1396     1.0  0.30299  0.07953  0.66542  1.0000
  H   H1397     1.0  0.37405  0.13917  0.95774  1.0000
  P   P61       1.0  0.21710  0.23042  0.65352  1.0000
  H   H1398     1.0  0.22332  0.18416  0.90005  1.0000
  C   C1762     1.0  0.38438  0.29036  0.80490  1.0000
  H   H1399     1.0  0.38431  0.44571  0.63441  1.0000
  H   H1400     1.0  0.20910  0.14060  0.61717  1.0000
  C   C1763     1.0  0.35115  0.05142  0.88771  1.0000
  C   C1764     1.0  0.38212  0.25958  0.65226  1.0000
  C   C1765     1.0  0.23133  0.46457  0.96099  1.0000
  C   C1766     1.0  0.24588  0.30993  0.71826  1.0000
  H   H1401     1.0  0.27562  0.08637  0.85937  1.0000
  C   C1767     1.0  0.31169  0.07482  0.81831  1.0000
  C   C1768     1.0  0.28983  0.26241  0.98714  1.0000
  H   H1402     1.0  0.28831  0.09634  0.68933  1.0000
  C   C1769     1.0  0.32108  0.10549  0.85794  1.0000
  C   C1770     1.0  0.30387  0.08306  0.84707  1.0000
  C   C1771     1.0  0.39046  0.30311  0.62015  1.0000
  H   H1403     1.0  0.38968  0.34588  0.62007  1.0000
  C   C1772     1.0  0.29442  0.25808  0.92124  1.0000
  H   H1404     1.0  0.26643  0.46926  0.98454  1.0000
  C   C1773     1.0  0.26380  0.22966  0.94332  1.0000
  H   H1405     1.0  0.21926  0.25760  0.62031  1.0000
  H   H1406     1.0  0.33918  0.32709  0.77211  1.0000
  H   H1407     1.0  0.23058  0.19979  0.72186  1.0000
  C   C1774     1.0  0.39449  0.33284  0.61685  1.0000
  H   H1408     1.0  0.37358  0.32738  0.66316  1.0000
  S   S232      1.0  0.21189  0.12264  0.70249  1.0000
  C   C1775     1.0  0.28591  0.08345  0.84800  1.0000
  C   C1776     1.0  0.20749  0.48018  0.81318  1.0000
  C   C1777     1.0  0.24081  0.22255  0.72042  1.0000
  C   C1778     1.0  0.23045  0.20977  0.72879  1.0000
  H   H1409     1.0  0.24870  0.22255  0.70705  1.0000
  C   C1779     1.0  0.25863  0.30818  0.70255  1.0000
  H   H1410     1.0  0.31376  0.14819  0.86295  1.0000
  H   H1411     1.0  0.30639  0.06677  0.90328  1.0000
  C   C1780     1.0  0.19872  0.26136  0.80591  1.0000
  H   H1412     1.0  0.38412  0.16118  0.83627  1.0000
  H   H1413     1.0  0.31695  0.04886  0.86261  1.0000
  H   H1414     1.0  0.34286  0.14699  0.84159  1.0000
  C   C1781     1.0  0.38297  0.45788  0.62424  1.0000
  C   C1782     1.0  0.34540  0.11987  0.83995  1.0000
  C   C1783     1.0  0.21389  0.30605  0.78461  1.0000
  C   C1784     1.0  0.38408  0.14874  0.84602  1.0000
  C   C1785     1.0  0.38365  0.39431  0.59862  1.0000
  H   H1415     1.0  0.23711  0.23201  0.94053  1.0000
  H   H1416     1.0  0.38646  0.17846  0.70351  1.0000
  H   H1417     1.0  0.36310  0.15556  0.75164  1.0000
  C   C1786     1.0  0.20211  0.00396  0.54883  1.0000
  H   H1418     1.0  0.38142  0.29891  0.52018  1.0000
  C   C1787     1.0  0.39281  0.13268  0.84084  1.0000
  C   C1788     1.0  0.21592  0.21252  0.89796  1.0000
  H   H1419     1.0  0.21741  0.26954  0.81509  1.0000
  H   H1420     1.0  0.22533  0.45967  0.82799  1.0000
  H   H1421     1.0  0.36542  0.46734  0.56558  1.0000
  H   H1422     1.0  0.37787  0.12372  0.75953  1.0000
  C   C1789     1.0  0.37697  0.25829  0.63730  1.0000
  H   H1423     1.0  0.20981  0.35224  0.75422  1.0000
  H   H1424     1.0  0.31992  0.03853  0.97865  1.0000
  C   C1790     1.0  0.38928  0.19708  0.67864  1.0000
  C   C1791     1.0  0.37053  0.30061  0.67625  1.0000
  C   C1792     1.0  0.21086  0.29352  0.93618  1.0000
  C   C1793     1.0  0.30024  0.47268  0.94816  1.0000
  C   C1794     1.0  0.37259  0.31760  0.67562  1.0000
  H   H1425     1.0  0.37208  0.26357  0.66344  1.0000
  H   H1426     1.0  0.21824  0.31910  0.72968  1.0000
  C   C1795     1.0  0.29148  0.46903  0.96602  1.0000
  C   C1796     1.0  0.20399  0.38910  0.90947  1.0000
  H   H1427     1.0  0.22465  0.21588  0.84713  1.0000
  C   C1797     1.0  0.20619  0.17545  0.68504  1.0000
  C   C1798     1.0  0.38534  0.14382  0.95828  1.0000
  C   C1799     1.0  0.20725  0.21051  0.59646  1.0000
  H   H1428     1.0  0.39217  0.03869  0.85237  1.0000
  C   C1800     1.0  0.26643  0.12135  0.50836  1.0000
  H   H1429     1.0  0.20174  0.01799  0.57635  1.0000
  Fe  Fe116     1.0  0.39658  0.39719  0.64926  1.0000
  C   C1801     1.0  0.38740  0.16397  0.73696  1.0000
  C   C1802     1.0  0.20193  0.32115  0.91589  1.0000
  C   C1803     1.0  0.37965  0.48911  0.59788  1.0000
  H   H1430     1.0  0.20899  0.32913  0.70102  1.0000
  H   H1431     1.0  0.25085  0.46367  0.77409  1.0000
  C   C1804     1.0  0.39698  0.46040  0.60953  1.0000
  H   H1432     1.0  0.27237  0.39079  0.50114  1.0000
  S   S233      1.0  0.20593  0.32445  0.83624  1.0000
  H   H1433     1.0  0.39790  0.08950  0.98983  1.0000
  H   H1434     1.0  0.39084  0.11181  0.81246  1.0000
  C   C1805     1.0  0.20659  0.32559  0.66739  1.0000
  C   C1806     1.0  0.38967  0.14082  0.97483  1.0000
  H   H1435     1.0  0.20082  0.21726  0.80626  1.0000
  H   H1436     1.0  0.34960  0.19296  0.97489  1.0000
  C   C1807     1.0  0.38669  0.43403  0.69784  1.0000
  H   H1437     1.0  0.21268  0.22291  0.76826  1.0000
  C   C1808     1.0  0.27947  0.24972  0.99095  1.0000
  S   S234      1.0  0.39641  0.36817  0.65370  1.0000
  C   C1809     1.0  0.39740  0.09223  0.90010  1.0000
  C   C1810     1.0  0.39563  0.15258  0.94288  1.0000
  C   C1811     1.0  0.20765  0.26139  0.81872  1.0000
  S   S235      1.0  0.20222  0.08559  0.73035  1.0000
  H   H1438     1.0  0.20732  0.18437  0.52339  1.0000
  C   C1812     1.0  0.20077  0.26932  0.86496  1.0000
  H   H1439     1.0  0.20205  0.26907  0.79249  1.0000
  C   C1813     1.0  0.39770  0.04677  0.87358  1.0000
  H   H1440     1.0  0.20278  0.03069  0.50765  1.0000
  C   C1814     1.0  0.20340  0.25159  0.83616  1.0000
  H   H1441     1.0  0.39532  0.02839  0.94697  1.0000
  S   S236      1.0  0.20305  0.12502  0.65404  1.0000
  C   C1815     1.0  0.20046  0.41206  0.85333  1.0000
  H   H1442     1.0  0.20100  0.19039  0.83074  1.0000
  H   H1443     1.0  0.20387  0.10851  0.55126  1.0000
  C   C1816     1.0  0.39775  0.29039  0.57171  1.0000
  H   H1444     1.0  0.39830  0.26476  0.56751  1.0000
  H   H1445     1.0  0.23740  0.49445  0.78622  1.0000
  H   H1446     1.0  0.36287  0.00515  0.99342  1.0000
  C   C1817     1.0  0.34391  0.48617  0.49350  1.0000
  Fe  Fe117     1.0  0.23051  0.90034  0.21504  1.0000
  S   S237      1.0  0.22179  0.91409  0.23799  1.0000
  S   S238      1.0  0.25793  0.89207  0.19895  1.0000
  H   H1447     1.0  0.30607  0.62290  0.37923  1.0000
  C   C1818     1.0  0.26049  0.80377  0.00362  1.0000
  H   H1448     1.0  0.24410  0.79760  0.18781  1.0000
  H   H1449     1.0  0.30482  0.91797  0.17948  1.0000
  S   S239      1.0  0.21460  0.87921  0.22776  1.0000
  Fe  Fe118     1.0  0.23888  0.81579  0.38582  1.0000
  C   C1819     1.0  0.20971  0.70742  0.26294  1.0000
  S   S240      1.0  0.25549  0.79493  0.40343  1.0000
  Fe  Fe119     1.0  0.23948  0.84140  0.35048  1.0000
  C   C1820     1.0  0.20513  0.76587  0.15046  1.0000
  S   S241      1.0  0.25523  0.85432  0.32452  1.0000
  C   C1821     1.0  0.20526  0.69578  0.25534  1.0000
  S   S242      1.0  0.37934  0.54056  0.47182  1.0000
  Fe  Fe120     1.0  0.21090  0.81953  0.36544  1.0000
  S   S243      1.0  0.24044  0.84473  0.37723  1.0000
  S   S244      1.0  0.24065  0.81201  0.35851  1.0000
  H   H1450     1.0  0.25553  0.60416  0.31892  1.0000
  C   C1822     1.0  0.21657  0.76946  0.43862  1.0000
  H   H1451     1.0  0.29502  0.80421  0.02944  1.0000
  C   C1823     1.0  0.21263  0.80319  0.46081  1.0000
  H   H1452     1.0  0.24465  0.63776  0.24736  1.0000
  C   C1824     1.0  0.31824  0.90059  0.09214  1.0000
  C   C1825     1.0  0.33814  0.70888  0.43079  1.0000
  C   C1826     1.0  0.31199  0.87116  0.11954  1.0000
  C   C1827     1.0  0.21561  0.71172  0.31403  1.0000
  C   C1828     1.0  0.39213  0.67622  0.45418  1.0000
  Fe  Fe121     1.0  0.35032  0.88363  0.20371  1.0000
  S   S245      1.0  0.35226  0.89853  0.17536  1.0000
  S   S246      1.0  0.32625  0.89090  0.22492  1.0000
  C   C1829     1.0  0.32802  0.69759  0.42965  1.0000
  C   C1830     1.0  0.33889  0.58827  0.25733  1.0000
  H   H1453     1.0  0.23031  0.82742  0.42097  1.0000
  Fe  Fe122     1.0  0.38107  0.89608  0.17506  1.0000
  C   C1831     1.0  0.24443  0.50694  0.22224  1.0000
  Fe  Fe123     1.0  0.36078  0.87143  0.16900  1.0000
  S   S247      1.0  0.35149  0.86579  0.14719  1.0000
  S   S248      1.0  0.37839  0.88349  0.20420  1.0000
  S   S249      1.0  0.35674  0.85663  0.19740  1.0000
  Fe  Fe124     1.0  0.31816  0.78867  0.13885  1.0000
  C   C1832     1.0  0.35378  0.68465  0.45060  1.0000
  S   S250      1.0  0.30634  0.80841  0.15668  1.0000
  Fe  Fe125     1.0  0.30842  0.76584  0.11886  1.0000
  S   S251      1.0  0.33703  0.75271  0.11029  1.0000
  S   S252      1.0  0.28415  0.75917  0.11455  1.0000
  Fe  Fe126     1.0  0.33897  0.75065  0.13835  1.0000
  H   H1454     1.0  0.27273  0.60656  0.43410  1.0000
  Fe  Fe127     1.0  0.34257  0.78023  0.10496  1.0000
  S   S253      1.0  0.36105  0.79179  0.07997  1.0000
  S   S254      1.0  0.31000  0.76240  0.14716  1.0000
  S   S255      1.0  0.31362  0.79361  0.11128  1.0000
  C   C1833     1.0  0.29308  0.59718  0.41274  1.0000
  H   H1455     1.0  0.22303  0.58743  0.05580  1.0000
  S   S256      1.0  0.36483  0.87205  0.07358  1.0000
  C   C1834     1.0  0.36608  0.99338  0.00341  1.0000
  C   C1835     1.0  0.26561  0.87027  0.15175  1.0000
  S   S257      1.0  0.36058  0.72980  0.35521  1.0000
  H   H1456     1.0  0.35482  0.58732  0.36002  1.0000
  S   S258      1.0  0.20574  0.78266  0.28706  1.0000
  Fe  Fe128     1.0  0.31442  0.64849  0.29022  1.0000
  S   S259      1.0  0.31095  0.63213  0.31806  1.0000
  S   S260      1.0  0.32271  0.67445  0.28509  1.0000
  Fe  Fe129     1.0  0.30138  0.62339  0.27600  1.0000
  S   S261      1.0  0.29735  0.60507  0.30273  1.0000
  S   S262      1.0  0.29344  0.61984  0.25199  1.0000
  Fe  Fe130     1.0  0.28533  0.62989  0.31345  1.0000
  S   S263      1.0  0.25837  0.63275  0.33190  1.0000
  Fe  Fe131     1.0  0.32355  0.60908  0.30468  1.0000
  S   S264      1.0  0.34254  0.58575  0.31745  1.0000
  S   S265      1.0  0.28770  0.64813  0.28660  1.0000
  S   S266      1.0  0.32877  0.62561  0.27693  1.0000
  Fe  Fe132     1.0  0.29376  0.67120  0.40533  1.0000
  S   S267      1.0  0.26888  0.67827  0.39488  1.0000
  S   S268      1.0  0.31969  0.66722  0.38578  1.0000
  Fe  Fe133     1.0  0.27428  0.66654  0.44382  1.0000
  S   S269      1.0  0.24755  0.67293  0.43666  1.0000
  S   S270      1.0  0.27602  0.66292  0.47235  1.0000
  Fe  Fe134     1.0  0.26105  0.65577  0.41671  1.0000
  S   S271      1.0  0.24796  0.63630  0.41207  1.0000
  Fe  Fe135     1.0  0.25782  0.69485  0.41549  1.0000
  S   S272      1.0  0.23870  0.72066  0.40833  1.0000
  S   S273      1.0  0.28680  0.64727  0.42583  1.0000
  S   S274      1.0  0.28359  0.68996  0.42399  1.0000
  C   C1836     1.0  0.22048  0.82349  0.43281  1.0000
  Fe  Fe136     1.0  0.22811  0.56810  0.24157  1.0000
  S   S275      1.0  0.23482  0.55352  0.21946  1.0000
  S   S276      1.0  0.24532  0.56429  0.26137  1.0000
  C   C1837     1.0  0.35214  0.92471  0.12522  1.0000
  Fe  Fe137     1.0  0.22774  0.58045  0.20238  1.0000
  S   S277      1.0  0.24602  0.58559  0.17565  1.0000
  S   S278      1.0  0.22279  0.59507  0.22410  1.0000
  Fe  Fe138     1.0  0.26365  0.68648  0.07945  1.0000
  S   S279      1.0  0.25083  0.68337  0.05867  1.0000
  S   S280      1.0  0.28870  0.69637  0.07703  1.0000
  Fe  Fe139     1.0  0.23577  0.67220  0.10994  1.0000
  S   S281      1.0  0.21950  0.66902  0.09259  1.0000
  S   S282      1.0  0.23032  0.66693  0.13964  1.0000
  Fe  Fe140     1.0  0.24576  0.65709  0.07657  1.0000
  S   S283      1.0  0.24758  0.62916  0.07281  1.0000
  Fe  Fe141     1.0  0.22529  0.69508  0.07595  1.0000
  H   H1457     1.0  0.32515  0.98195  0.06003  1.0000
  S   S284      1.0  0.26167  0.65893  0.09520  1.0000
  S   S285      1.0  0.23831  0.69974  0.09522  1.0000
  C   C1838     1.0  0.30677  0.56966  0.19889  1.0000
  H   H1458     1.0  0.37103  0.64731  0.25629  1.0000
  H   H1459     1.0  0.20916  0.92356  0.27503  1.0000
  S   S286      1.0  0.22142  0.55172  0.01629  1.0000
  C   C1839     1.0  0.23896  0.62251  0.05788  1.0000
  C   C1840     1.0  0.23931  0.63198  0.04034  1.0000
  C   C1841     1.0  0.23373  0.62545  0.02847  1.0000
  C   C1842     1.0  0.22741  0.60957  0.03402  1.0000
  C   C1843     1.0  0.22729  0.59996  0.05151  1.0000
  C   C1844     1.0  0.23311  0.60636  0.06331  1.0000
  H   H1460     1.0  0.24442  0.64404  0.03578  1.0000
  H   H1461     1.0  0.23442  0.63270  0.01484  1.0000
  H   H1462     1.0  0.23325  0.59873  0.07668  1.0000
  S   S287      1.0  0.22007  0.60228  0.01857  1.0000
  H   H1463     1.0  0.34264  0.93530  0.13088  1.0000
  H   H1464     1.0  0.37421  0.92984  0.13234  1.0000
  H   H1465     1.0  0.30881  0.85976  0.09939  1.0000
  C   C1845     1.0  0.24356  0.74078  0.20129  1.0000
  H   H1466     1.0  0.25908  0.81957  0.14112  1.0000
  C   C1846     1.0  0.24341  0.60823  0.16577  1.0000
  C   C1847     1.0  0.23628  0.62102  0.17619  1.0000
  C   C1848     1.0  0.23318  0.63912  0.16806  1.0000
  C   C1849     1.0  0.23673  0.64443  0.14951  1.0000
  C   C1850     1.0  0.24451  0.63164  0.13912  1.0000
  C   C1851     1.0  0.24800  0.61354  0.14726  1.0000
  H   H1467     1.0  0.23284  0.61703  0.19047  1.0000
  H   H1468     1.0  0.22714  0.64890  0.17618  1.0000
  H   H1469     1.0  0.24704  0.63554  0.12482  1.0000
  H   H1470     1.0  0.25342  0.60367  0.13914  1.0000
  C   C1852     1.0  0.29093  0.64470  0.48223  1.0000
  C   C1853     1.0  0.29734  0.62892  0.47593  1.0000
  C   C1854     1.0  0.27400  0.51913  0.16142  1.0000
  H   H1471     1.0  0.29256  0.62761  0.46505  1.0000
  C   C1855     1.0  0.39209  0.59662  0.29662  1.0000
  C   C1856     1.0  0.20085  0.60356  0.14791  1.0000
  H   H1472     1.0  0.37713  0.53923  0.43785  1.0000
  C   C1857     1.0  0.28052  0.60397  0.25463  1.0000
  C   C1858     1.0  0.27741  0.59131  0.27048  1.0000
  C   C1859     1.0  0.26670  0.57922  0.27232  1.0000
  C   C1860     1.0  0.25902  0.57956  0.25833  1.0000
  C   C1861     1.0  0.26241  0.59201  0.24235  1.0000
  C   C1862     1.0  0.27311  0.60412  0.24051  1.0000
  H   H1473     1.0  0.28319  0.59081  0.28139  1.0000
  H   H1474     1.0  0.26432  0.56957  0.28468  1.0000
  H   H1475     1.0  0.25688  0.59226  0.23136  1.0000
  H   H1476     1.0  0.27558  0.61366  0.22811  1.0000
  C   C1863     1.0  0.25766  0.63210  0.35425  1.0000
  C   C1864     1.0  0.24467  0.62447  0.36740  1.0000
  C   C1865     1.0  0.24236  0.62523  0.38517  1.0000
  C   C1866     1.0  0.25295  0.63375  0.38996  1.0000
  C   C1867     1.0  0.26658  0.64069  0.37696  1.0000
  C   C1868     1.0  0.26898  0.63982  0.35906  1.0000
  H   H1477     1.0  0.23644  0.61784  0.36388  1.0000
  H   H1478     1.0  0.23206  0.61954  0.39520  1.0000
  H   H1479     1.0  0.27514  0.64688  0.38064  1.0000
  H   H1480     1.0  0.27920  0.64558  0.34899  1.0000
  C   C1869     1.0  0.36540  0.58583  0.31381  1.0000
  C   C1870     1.0  0.26067  0.51457  0.23963  1.0000
  C   C1871     1.0  0.31447  0.88595  0.08855  1.0000
  C   C1872     1.0  0.37138  0.66649  0.30828  1.0000
  C   C1873     1.0  0.36765  0.65213  0.30405  1.0000
  C   C1874     1.0  0.35242  0.65439  0.29743  1.0000
  C   C1875     1.0  0.34073  0.67099  0.29520  1.0000
  C   C1876     1.0  0.34378  0.68497  0.30061  1.0000
  C   C1877     1.0  0.35919  0.68283  0.30693  1.0000
  H   H1481     1.0  0.25092  0.80368  0.99629  1.0000
  H   H1482     1.0  0.34993  0.64334  0.29379  1.0000
  H   H1483     1.0  0.33410  0.69738  0.30014  1.0000
  H   H1484     1.0  0.36157  0.69378  0.31080  1.0000
  C   C1878     1.0  0.34729  0.71386  0.36238  1.0000
  C   C1879     1.0  0.35250  0.69892  0.35481  1.0000
  C   C1880     1.0  0.34381  0.68476  0.36204  1.0000
  C   C1881     1.0  0.32933  0.68577  0.37645  1.0000
  C   C1882     1.0  0.32311  0.70128  0.38324  1.0000
  C   C1883     1.0  0.33226  0.71528  0.37635  1.0000
  H   H1485     1.0  0.36344  0.69802  0.34351  1.0000
  H   H1486     1.0  0.34841  0.67296  0.35646  1.0000
  H   H1487     1.0  0.31159  0.70227  0.39404  1.0000
  H   H1488     1.0  0.32807  0.72686  0.38219  1.0000
  C   C1884     1.0  0.28592  0.74152  0.10421  1.0000
  C   C1885     1.0  0.30202  0.72946  0.10003  1.0000
  C   C1886     1.0  0.30276  0.71565  0.09176  1.0000
  C   C1887     1.0  0.28735  0.71358  0.08788  1.0000
  C   C1888     1.0  0.27131  0.72561  0.09219  1.0000
  C   C1889     1.0  0.27063  0.73957  0.10012  1.0000
  H   H1489     1.0  0.31394  0.73086  0.10300  1.0000
  H   H1490     1.0  0.31529  0.70651  0.08840  1.0000
  H   H1491     1.0  0.25945  0.72441  0.08909  1.0000
  H   H1492     1.0  0.25813  0.74885  0.10316  1.0000
  C   C1890     1.0  0.36264  0.81394  0.07820  1.0000
  C   C1891     1.0  0.32433  0.96997  0.07034  1.0000
  H   H1493     1.0  0.26303  0.56902  0.13836  1.0000
  H   H1494     1.0  0.31698  0.88507  0.13655  1.0000
  C   C1892     1.0  0.35254  0.84143  0.08898  1.0000
  C   C1893     1.0  0.35150  0.82377  0.09056  1.0000
  C   C1894     1.0  0.28680  0.60115  0.42965  1.0000
  C   C1895     1.0  0.27769  0.53193  0.16821  1.0000
  H   H1495     1.0  0.34195  0.81778  0.10130  1.0000
  C   C1896     1.0  0.33959  0.84897  0.15113  1.0000
  C   C1897     1.0  0.34400  0.83811  0.13877  1.0000
  C   C1898     1.0  0.33420  0.82526  0.14080  1.0000
  C   C1899     1.0  0.31940  0.82369  0.15476  1.0000
  C   C1900     1.0  0.31467  0.83480  0.16698  1.0000
  C   C1901     1.0  0.32497  0.84718  0.16540  1.0000
  H   H1496     1.0  0.35515  0.83949  0.12763  1.0000
  H   H1497     1.0  0.33795  0.81677  0.13136  1.0000
  H   H1498     1.0  0.30295  0.83393  0.17757  1.0000
  H   H1499     1.0  0.32127  0.85578  0.17478  1.0000
  H   H1500     1.0  0.31109  0.57984  0.20227  1.0000
  C   C1902     1.0  0.31601  0.88563  0.12313  1.0000
  S   S288      1.0  0.19914  0.57956  0.20592  1.0000
  C   C1903     1.0  0.21282  0.80042  0.32726  1.0000
  C   C1904     1.0  0.37348  0.59819  0.30012  1.0000
  P   P62       1.0  0.31971  0.58471  0.38512  1.0000
  H   H1501     1.0  0.21642  0.79140  0.47069  1.0000
  C   C1905     1.0  0.33007  0.62829  0.43599  1.0000
  H   H1502     1.0  0.31804  0.70258  0.42162  1.0000
  H   H1503     1.0  0.37015  0.67628  0.26197  1.0000
  C   C1906     1.0  0.24461  0.74085  0.40633  1.0000
  C   C1907     1.0  0.23385  0.75663  0.39901  1.0000
  C   C1908     1.0  0.23772  0.77311  0.39742  1.0000
  C   C1909     1.0  0.25187  0.77403  0.40403  1.0000
  C   C1910     1.0  0.26257  0.75828  0.41166  1.0000
  C   C1911     1.0  0.25912  0.74164  0.41253  1.0000
  H   H1504     1.0  0.22213  0.75618  0.39504  1.0000
  H   H1505     1.0  0.22919  0.78511  0.39181  1.0000
  H   H1506     1.0  0.27350  0.75894  0.41686  1.0000
  H   H1507     1.0  0.26736  0.72951  0.41842  1.0000
  H   H1508     1.0  0.34475  0.65990  0.45707  1.0000
  C   C1912     1.0  0.20295  0.78797  0.30779  1.0000
  C   C1913     1.0  0.22382  0.75288  0.18046  1.0000
  H   H1509     1.0  0.22325  0.67102  0.01583  1.0000
  C   C1914     1.0  0.22743  0.62938  0.30149  1.0000
  H   H1510     1.0  0.37830  0.61224  0.23663  1.0000
  C   C1915     1.0  0.28960  0.92782  0.13502  1.0000
  H   H1511     1.0  0.33603  0.72260  0.42354  1.0000
  H   H1512     1.0  0.22237  0.89937  0.41979  1.0000
  H   H1513     1.0  0.22005  0.87676  0.40476  1.0000
  C   C1916     1.0  0.27650  0.89109  0.20713  1.0000
  C   C1917     1.0  0.27477  0.89684  0.22268  1.0000
  C   C1918     1.0  0.29009  0.89668  0.22825  1.0000
  C   C1919     1.0  0.30707  0.89074  0.21829  1.0000
  C   C1920     1.0  0.30869  0.88463  0.20299  1.0000
  C   C1921     1.0  0.29344  0.88475  0.19747  1.0000
  H   H1514     1.0  0.26170  0.90173  0.23019  1.0000
  H   H1515     1.0  0.28880  0.90149  0.24004  1.0000
  H   H1516     1.0  0.32169  0.87997  0.19523  1.0000
  H   H1517     1.0  0.29481  0.88034  0.18541  1.0000
  C   C1922     1.0  0.21590  0.87124  0.28823  1.0000
  C   C1923     1.0  0.23004  0.87995  0.28412  1.0000
  C   C1924     1.0  0.24285  0.87424  0.29471  1.0000
  C   C1925     1.0  0.24159  0.85970  0.30914  1.0000
  C   C1926     1.0  0.22830  0.85023  0.31223  1.0000
  C   C1927     1.0  0.21532  0.85614  0.30200  1.0000
  H   H1518     1.0  0.23058  0.89159  0.27342  1.0000
  H   H1519     1.0  0.25319  0.88155  0.29225  1.0000
  H   H1520     1.0  0.22769  0.83857  0.32288  1.0000
  C   C1928     1.0  0.25728  0.84530  0.22004  1.0000
  C   C1929     1.0  0.25752  0.85036  0.23540  1.0000
  C   C1930     1.0  0.24585  0.84519  0.25143  1.0000
  C   C1931     1.0  0.23392  0.83492  0.25210  1.0000
  H   H1521     1.0  0.26627  0.84976  0.20773  1.0000
  H   H1522     1.0  0.26641  0.85878  0.23472  1.0000
  H   H1523     1.0  0.24578  0.84947  0.26323  1.0000
  H   H1524     1.0  0.22469  0.83117  0.26449  1.0000
  C   C1932     1.0  0.22539  0.80856  0.44578  1.0000
  H   H1525     1.0  0.26184  0.51609  0.25231  1.0000
  H   H1526     1.0  0.31725  0.62549  0.44302  1.0000
  Fe  Fe142     1.0  0.36398  0.56682  0.45937  1.0000
  C   C1933     1.0  0.22026  0.80539  0.16084  1.0000
  C   C1934     1.0  0.33561  0.95382  0.06741  1.0000
  H   H1527     1.0  0.23904  0.80098  0.44391  1.0000
  C   C1935     1.0  0.28658  0.81301  0.00473  1.0000
  H   H1528     1.0  0.27888  0.58229  0.20449  1.0000
  C   C1936     1.0  0.33941  0.59996  0.24070  1.0000
  H   H1529     1.0  0.32067  0.91169  0.08127  1.0000
  H   H1530     1.0  0.23624  0.50507  0.25053  1.0000
  C   C1937     1.0  0.36963  0.99351  0.08876  1.0000
  C   C1938     1.0  0.24543  0.72369  0.19873  1.0000
  C   C1939     1.0  0.23635  0.72114  0.18725  1.0000
  H   H1531     1.0  0.21923  0.83356  0.06720  1.0000
  H   H1532     1.0  0.21935  0.57195  0.32044  1.0000
  Fe  Fe143     1.0  0.39391  0.91926  0.02826  1.0000
  C   C1940     1.0  0.26611  0.52432  0.14665  1.0000
  S   S289      1.0  0.19950  0.56504  0.24896  1.0000
  H   H1533     1.0  0.25392  0.71242  0.20559  1.0000
  H   H1534     1.0  0.23807  0.70796  0.18502  1.0000
  H   H1535     1.0  0.37018  0.51879  0.38391  1.0000
  C   C1941     1.0  0.21132  0.72450  0.25324  1.0000
  H   H1536     1.0  0.27265  0.92728  0.17911  1.0000
  H   H1537     1.0  0.21868  0.73331  0.16930  1.0000
  C   C1942     1.0  0.36766  0.65474  0.47782  1.0000
  C   C1943     1.0  0.23219  0.81687  0.15440  1.0000
  C   C1944     1.0  0.29874  0.65090  0.11116  1.0000
  C   C1945     1.0  0.29478  0.63415  0.11912  1.0000
  C   C1946     1.0  0.29053  0.62889  0.13766  1.0000
  C   C1947     1.0  0.29019  0.64039  0.14825  1.0000
  C   C1948     1.0  0.29366  0.65745  0.14031  1.0000
  C   C1949     1.0  0.29808  0.66255  0.12168  1.0000
  P   P63       1.0  0.29255  0.67316  0.15331  1.0000
  C   C1950     1.0  0.28542  0.66533  0.17701  1.0000
  C   C1951     1.0  0.31472  0.67753  0.14780  1.0000
  C   C1952     1.0  0.32870  0.66423  0.15378  1.0000
  C   C1953     1.0  0.34587  0.66751  0.14986  1.0000
  C   C1954     1.0  0.34918  0.68407  0.13991  1.0000
  C   C1955     1.0  0.33549  0.69711  0.13339  1.0000
  C   C1956     1.0  0.31840  0.69378  0.13705  1.0000
  C   C1957     1.0  0.29447  0.66733  0.18895  1.0000
  C   C1958     1.0  0.28882  0.66135  0.20727  1.0000
  C   C1959     1.0  0.27403  0.65348  0.21384  1.0000
  C   C1960     1.0  0.26452  0.65205  0.20212  1.0000
  C   C1961     1.0  0.26999  0.65827  0.18380  1.0000
  C   C1962     1.0  0.27593  0.69289  0.14775  1.0000
  C   C1963     1.0  0.26268  0.69239  0.13950  1.0000
  C   C1964     1.0  0.24969  0.70766  0.13546  1.0000
  C   C1965     1.0  0.24992  0.72353  0.13946  1.0000
  C   C1966     1.0  0.26299  0.72412  0.14777  1.0000
  C   C1967     1.0  0.27569  0.70874  0.15231  1.0000
  H   H1538     1.0  0.30170  0.65519  0.09677  1.0000
  H   H1539     1.0  0.29460  0.62543  0.11090  1.0000
  H   H1540     1.0  0.28707  0.61604  0.14379  1.0000
  H   H1541     1.0  0.28695  0.63592  0.16250  1.0000
  H   H1542     1.0  0.30062  0.67571  0.11521  1.0000
  H   H1543     1.0  0.32627  0.65137  0.16152  1.0000
  H   H1544     1.0  0.35663  0.65730  0.15455  1.0000
  H   H1545     1.0  0.36235  0.68687  0.13717  1.0000
  H   H1546     1.0  0.30820  0.70395  0.13139  1.0000
  H   H1547     1.0  0.30584  0.67357  0.18420  1.0000
  H   H1548     1.0  0.29609  0.66254  0.21642  1.0000
  H   H1549     1.0  0.27007  0.64840  0.22802  1.0000
  H   H1550     1.0  0.25301  0.64597  0.20719  1.0000
  H   H1551     1.0  0.26232  0.65734  0.17488  1.0000
  H   H1552     1.0  0.26227  0.68029  0.13609  1.0000
  H   H1553     1.0  0.23961  0.70717  0.12896  1.0000
  H   H1554     1.0  0.24020  0.73543  0.13576  1.0000
  H   H1555     1.0  0.26348  0.73654  0.15044  1.0000
  H   H1556     1.0  0.28562  0.70938  0.15893  1.0000
  C   C1968     1.0  0.22218  0.75464  0.36171  1.0000
  C   C1969     1.0  0.21595  0.73929  0.37124  1.0000
  C   C1970     1.0  0.22666  0.72254  0.36964  1.0000
  C   C1971     1.0  0.24362  0.72109  0.35850  1.0000
  C   C1972     1.0  0.24999  0.73648  0.34885  1.0000
  C   C1973     1.0  0.23926  0.75326  0.35087  1.0000
  P   P64       1.0  0.27209  0.73480  0.33477  1.0000
  C   C1974     1.0  0.28591  0.74408  0.34293  1.0000
  C   C1975     1.0  0.28260  0.71174  0.33462  1.0000
  C   C1976     1.0  0.29646  0.70294  0.34363  1.0000
  C   C1977     1.0  0.30567  0.68576  0.34182  1.0000
  C   C1978     1.0  0.30084  0.67702  0.33152  1.0000
  C   C1979     1.0  0.28660  0.68538  0.32310  1.0000
  C   C1980     1.0  0.27750  0.70271  0.32461  1.0000
  C   C1981     1.0  0.30353  0.74459  0.33360  1.0000
  C   C1982     1.0  0.31494  0.74992  0.34069  1.0000
  C   C1983     1.0  0.30883  0.75511  0.35698  1.0000
  C   C1984     1.0  0.29137  0.75467  0.36637  1.0000
  C   C1985     1.0  0.27997  0.74905  0.35950  1.0000
  C   C1986     1.0  0.27144  0.74552  0.31176  1.0000
  C   C1987     1.0  0.25596  0.75712  0.30689  1.0000
  C   C1988     1.0  0.25579  0.76497  0.28903  1.0000
  C   C1989     1.0  0.27093  0.76132  0.27582  1.0000
  C   C1990     1.0  0.28627  0.74955  0.28042  1.0000
  C   C1991     1.0  0.28646  0.74154  0.29826  1.0000
  H   H1557     1.0  0.21407  0.76763  0.36331  1.0000
  H   H1558     1.0  0.26292  0.51445  0.14172  1.0000
  H   H1559     1.0  0.22207  0.71065  0.37750  1.0000
  H   H1560     1.0  0.25185  0.70795  0.35796  1.0000
  H   H1561     1.0  0.24416  0.76532  0.34424  1.0000
  H   H1562     1.0  0.30045  0.70925  0.35190  1.0000
  H   H1563     1.0  0.31673  0.67928  0.34830  1.0000
  H   H1564     1.0  0.30829  0.66384  0.32996  1.0000
  H   H1565     1.0  0.28298  0.67848  0.31510  1.0000
  H   H1566     1.0  0.26671  0.70919  0.31774  1.0000
  H   H1567     1.0  0.30883  0.74000  0.32132  1.0000
  H   H1568     1.0  0.32878  0.74934  0.33391  1.0000
  H   H1569     1.0  0.31784  0.75889  0.36261  1.0000
  H   H1570     1.0  0.28681  0.75822  0.37926  1.0000
  H   H1571     1.0  0.26680  0.74810  0.36752  1.0000
  H   H1572     1.0  0.24383  0.76006  0.31660  1.0000
  H   H1573     1.0  0.24379  0.77385  0.28542  1.0000
  H   H1574     1.0  0.27061  0.76756  0.26207  1.0000
  H   H1575     1.0  0.29799  0.74653  0.27019  1.0000
  H   H1576     1.0  0.29822  0.73192  0.30149  1.0000
  C   C1992     1.0  0.32426  0.86387  0.28055  1.0000
  C   C1993     1.0  0.31055  0.87434  0.27210  1.0000
  C   C1994     1.0  0.29506  0.86820  0.27460  1.0000
  C   C1995     1.0  0.29340  0.85141  0.28523  1.0000
  C   C1996     1.0  0.30743  0.84046  0.29320  1.0000
  C   C1997     1.0  0.32263  0.84708  0.29127  1.0000
  P   P65       1.0  0.30591  0.81817  0.30585  1.0000
  C   C1998     1.0  0.29744  0.81818  0.32923  1.0000
  C   C1999     1.0  0.29086  0.81110  0.29723  1.0000
  C   C2000     1.0  0.29690  0.80484  0.28136  1.0000
  C   C2001     1.0  0.28474  0.80207  0.27316  1.0000
  C   C2002     1.0  0.26650  0.80564  0.28069  1.0000
  C   C2003     1.0  0.26044  0.81167  0.29657  1.0000
  C   C2004     1.0  0.27254  0.81429  0.30487  1.0000
  C   C2005     1.0  0.29086  0.80360  0.34087  1.0000
  C   C2006     1.0  0.28479  0.80336  0.35904  1.0000
  C   C2007     1.0  0.28496  0.81775  0.36571  1.0000
  C   C2008     1.0  0.29118  0.83244  0.35419  1.0000
  C   C2009     1.0  0.29746  0.83266  0.33603  1.0000
  C   C2010     1.0  0.32768  0.80339  0.30245  1.0000
  C   C2011     1.0  0.33275  0.78891  0.31599  1.0000
  C   C2012     1.0  0.34979  0.77791  0.31333  1.0000
  C   C2013     1.0  0.36195  0.78135  0.29719  1.0000
  C   C2014     1.0  0.35703  0.79575  0.28370  1.0000
  C   C2015     1.0  0.33996  0.80658  0.28623  1.0000
  H   H1577     1.0  0.33622  0.86875  0.27861  1.0000
  H   H1578     1.0  0.31194  0.88724  0.26357  1.0000
  H   H1579     1.0  0.28433  0.87643  0.26823  1.0000
  H   H1580     1.0  0.28115  0.84710  0.28712  1.0000
  H   H1581     1.0  0.33336  0.83918  0.29778  1.0000
  H   H1582     1.0  0.31088  0.80270  0.27496  1.0000
  H   H1583     1.0  0.28942  0.79768  0.26071  1.0000
  H   H1584     1.0  0.25701  0.80403  0.27410  1.0000
  H   H1585     1.0  0.24630  0.81494  0.30223  1.0000
  H   H1586     1.0  0.26744  0.81964  0.31679  1.0000
  H   H1587     1.0  0.29041  0.79242  0.33590  1.0000
  H   H1588     1.0  0.27957  0.79220  0.36800  1.0000
  H   H1589     1.0  0.27999  0.81762  0.37978  1.0000
  H   H1590     1.0  0.29092  0.84376  0.35932  1.0000
  H   H1591     1.0  0.30200  0.84427  0.32734  1.0000
  H   H1592     1.0  0.32379  0.78615  0.32873  1.0000
  H   H1593     1.0  0.35374  0.76688  0.32391  1.0000
  C   C2016     1.0  0.39809  0.73741  0.22569  1.0000
  H   H1594     1.0  0.36655  0.79877  0.27136  1.0000
  H   H1595     1.0  0.33654  0.81770  0.27564  1.0000
  H   H1596     1.0  0.31002  0.85962  0.13010  1.0000
  C   C2017     1.0  0.33465  0.74282  0.22620  1.0000
  C   C2018     1.0  0.31604  0.74657  0.23039  1.0000
  C   C2019     1.0  0.30665  0.76368  0.23237  1.0000
  C   C2020     1.0  0.31584  0.77712  0.22986  1.0000
  C   C2021     1.0  0.33454  0.77352  0.22527  1.0000
  C   C2022     1.0  0.34383  0.75612  0.22409  1.0000
  P   P66       1.0  0.34668  0.79122  0.21893  1.0000
  C   C2023     1.0  0.36452  0.78567  0.23079  1.0000
  C   C2024     1.0  0.35572  0.79540  0.19511  1.0000
  H   H1597     1.0  0.24830  0.78775  0.02765  1.0000
  C   C2025     1.0  0.31913  0.90049  0.10948  1.0000
  H   H1598     1.0  0.26923  0.78826  0.13771  1.0000
  C   C2026     1.0  0.36499  0.78623  0.16670  1.0000
  C   C2027     1.0  0.35739  0.78293  0.18492  1.0000
  C   C2028     1.0  0.37711  0.79643  0.22598  1.0000
  C   C2029     1.0  0.36232  0.69198  0.48069  1.0000
  H   H1599     1.0  0.33407  0.69531  0.48228  1.0000
  H   H1600     1.0  0.31455  0.88577  0.07504  1.0000
  C   C2030     1.0  0.36542  0.77131  0.24558  1.0000
  C   C2031     1.0  0.33181  0.81166  0.22378  1.0000
  C   C2032     1.0  0.33227  0.81826  0.23821  1.0000
  C   C2033     1.0  0.32079  0.83422  0.24164  1.0000
  C   C2034     1.0  0.30873  0.84359  0.23079  1.0000
  C   C2035     1.0  0.30828  0.83719  0.21633  1.0000
  C   C2036     1.0  0.31979  0.82129  0.21282  1.0000
  H   H1601     1.0  0.34202  0.72971  0.22422  1.0000
  H   H1602     1.0  0.30894  0.73628  0.23185  1.0000
  H   H1603     1.0  0.29224  0.76675  0.23509  1.0000
  H   H1604     1.0  0.30826  0.79040  0.23085  1.0000
  H   H1605     1.0  0.35822  0.75311  0.22081  1.0000
  P   P67       1.0  0.32385  0.91910  0.11481  1.0000
  H   H1606     1.0  0.20192  0.72296  0.21480  1.0000
  H   H1607     1.0  0.33406  0.55600  0.41366  1.0000
  H   H1608     1.0  0.36661  0.77643  0.15901  1.0000
  H   H1609     1.0  0.35301  0.77061  0.19077  1.0000
  H   H1610     1.0  0.37663  0.80788  0.21501  1.0000
  H   H1611     1.0  0.35199  0.57638  0.27941  1.0000
  S   S290      1.0  0.39411  0.91929  0.15993  1.0000
  H   H1612     1.0  0.22774  0.77414  0.43958  1.0000
  H   H1613     1.0  0.35565  0.76308  0.25009  1.0000
  H   H1614     1.0  0.34171  0.81133  0.24657  1.0000
  H   H1615     1.0  0.32151  0.83968  0.25237  1.0000
  H   H1616     1.0  0.30007  0.85608  0.23333  1.0000
  H   H1617     1.0  0.29938  0.84486  0.20755  1.0000
  H   H1618     1.0  0.31953  0.81661  0.20140  1.0000
  C   C2037     1.0  0.22130  0.68585  0.17669  1.0000
  H   H1619     1.0  0.38688  0.69144  0.42847  1.0000
  C   C2038     1.0  0.24625  0.50837  0.23865  1.0000
  C   C2039     1.0  0.37727  0.65696  0.24578  1.0000
  C   C2040     1.0  0.20441  0.71829  0.22810  1.0000
  C   C2041     1.0  0.21716  0.68217  0.19530  1.0000
  C   C2042     1.0  0.20161  0.59351  0.27895  1.0000
  C   C2043     1.0  0.36007  0.53096  0.38432  1.0000
  C   C2044     1.0  0.34340  0.67347  0.44952  1.0000
  Fe  Fe144     1.0  0.38506  0.85763  0.19532  1.0000
  C   C2045     1.0  0.30056  0.92091  0.16702  1.0000
  H   H1620     1.0  0.23314  0.67821  0.16960  1.0000
  H   H1621     1.0  0.38791  0.86341  0.13204  1.0000
  C   C2046     1.0  0.20155  0.69182  0.20445  1.0000
  C   C2047     1.0  0.22106  0.95412  0.32880  1.0000
  H   H1622     1.0  0.22595  0.67156  0.20238  1.0000
  H   H1623     1.0  0.23062  0.66937  0.23703  1.0000
  C   C2048     1.0  0.37002  0.92177  0.12597  1.0000
  S   S291      1.0  0.33809  0.56463  0.47890  1.0000
  H   H1624     1.0  0.32264  0.67120  0.43821  1.0000
  H   H1625     1.0  0.20456  0.84924  0.30512  1.0000
  C   C2049     1.0  0.29665  0.79138  0.06370  1.0000
  C   C2050     1.0  0.34410  0.69892  0.48664  1.0000
  Fe  Fe145     1.0  0.38627  0.71687  0.33908  1.0000
  H   H1626     1.0  0.23979  0.67296  0.36957  1.0000
  C   C2051     1.0  0.25910  0.79470  0.02139  1.0000
  H   H1627     1.0  0.39558  0.51851  0.41840  1.0000
  H   H1628     1.0  0.20299  0.74039  0.38017  1.0000
  H   H1629     1.0  0.20848  0.88508  0.33265  1.0000
  C   C2052     1.0  0.35529  0.98544  0.09819  1.0000
  C   C2053     1.0  0.38814  0.85044  0.11162  1.0000
  C   C2054     1.0  0.31361  0.78807  0.06728  1.0000
  H   H1630     1.0  0.34502  0.95322  0.05483  1.0000
  C   C2055     1.0  0.30962  0.61481  0.48397  1.0000
  S   S292      1.0  0.34724  0.72403  0.15625  1.0000
  H   H1631     1.0  0.38652  0.61190  0.47416  1.0000
  H   H1632     1.0  0.26889  0.55881  0.19772  1.0000
  P   P68       1.0  0.28752  0.52505  0.18761  1.0000
  Fe  Fe146     1.0  0.38558  0.55634  0.48776  1.0000
  C   C2056     1.0  0.29068  0.77785  0.06027  1.0000
  Fe  Fe147     1.0  0.35420  0.53962  0.49271  1.0000
  H   H1633     1.0  0.22974  0.91791  0.31045  1.0000
  C   C2057     1.0  0.29538  0.54287  0.19100  1.0000
  C   C2058     1.0  0.22544  0.73563  0.17824  1.0000
  C   C2059     1.0  0.27039  0.75134  0.04504  1.0000
  C   C2060     1.0  0.39752  0.83735  0.10195  1.0000
  C   C2061     1.0  0.27320  0.51946  0.22417  1.0000
  C   C2062     1.0  0.28865  0.57101  0.20027  1.0000
  C   C2063     1.0  0.27135  0.51830  0.20753  1.0000
  H   H1634     1.0  0.36778  0.63388  0.44338  1.0000
  C   C2064     1.0  0.23005  0.69831  0.30857  1.0000
  H   H1635     1.0  0.28515  0.93009  0.12278  1.0000
  C   C2065     1.0  0.37725  0.62248  0.19983  1.0000
  C   C2066     1.0  0.25258  0.59136  0.32025  1.0000
  H   H1636     1.0  0.37686  0.74126  0.15122  1.0000
  H   H1637     1.0  0.32624  0.59078  0.44270  1.0000
  C   C2067     1.0  0.36725  0.60560  0.24214  1.0000
  H   H1638     1.0  0.21725  0.65996  0.39383  1.0000
  H   H1639     1.0  0.24437  0.67168  0.27250  1.0000
  C   C2068     1.0  0.38264  0.90851  0.11834  1.0000
  H   H1640     1.0  0.30259  0.95616  0.11277  1.0000
  H   H1641     1.0  0.37606  0.65082  0.18939  1.0000
  C   C2069     1.0  0.24871  0.93382  0.33455  1.0000
  H   H1642     1.0  0.31832  0.64833  0.36005  1.0000
  C   C2070     1.0  0.28299  0.55765  0.19642  1.0000
  C   C2071     1.0  0.34664  0.91403  0.11726  1.0000
  C   C2072     1.0  0.32467  0.77118  0.06771  1.0000
  C   C2073     1.0  0.32933  0.60309  0.37095  1.0000
  C   C2074     1.0  0.31926  0.62050  0.37080  1.0000
  C   C2075     1.0  0.32613  0.63501  0.35979  1.0000
  C   C2076     1.0  0.34304  0.63234  0.34870  1.0000
  C   C2077     1.0  0.35321  0.61506  0.34878  1.0000
  C   C2078     1.0  0.34650  0.60047  0.36001  1.0000
  H   H1643     1.0  0.28365  0.59980  0.40436  1.0000
  C   C2079     1.0  0.37742  0.89833  0.10973  1.0000
  H   H1644     1.0  0.32857  0.60209  0.23420  1.0000
  C   C2080     1.0  0.33065  0.67990  0.43899  1.0000
  S   S293      1.0  0.21772  0.51445  0.06077  1.0000
  H   H1645     1.0  0.34408  0.84877  0.09881  1.0000
  H   H1646     1.0  0.21317  0.63313  0.10103  1.0000
  C   C2081     1.0  0.33533  0.56351  0.38514  1.0000
  H   H1647     1.0  0.29797  0.62299  0.19789  1.0000
  H   H1648     1.0  0.23446  0.87901  0.34609  1.0000
  Fe  Fe148     1.0  0.38671  0.88671  0.05747  1.0000
  C   C2082     1.0  0.25282  0.87587  0.16609  1.0000
  H   H1649     1.0  0.20151  0.73025  0.41258  1.0000
  C   C2083     1.0  0.22313  0.88953  0.34934  1.0000
  H   H1650     1.0  0.38226  0.74441  0.18212  1.0000
  C   C2084     1.0  0.23593  0.94948  0.33661  1.0000
  H   H1651     1.0  0.26284  0.93327  0.15078  1.0000
  C   C2085     1.0  0.23353  0.82994  0.23673  1.0000
  H   H1652     1.0  0.22739  0.79721  0.30088  1.0000
  H   H1653     1.0  0.21951  0.82652  0.09935  1.0000
  H   H1654     1.0  0.23759  0.95776  0.34450  1.0000
  C   C2086     1.0  0.33988  0.55241  0.40092  1.0000
  C   C2087     1.0  0.24130  0.80377  0.09755  1.0000
  H   H1655     1.0  0.20790  0.60358  0.10383  1.0000
  H   H1656     1.0  0.31471  0.60272  0.47895  1.0000
  C   C2088     1.0  0.35229  0.53629  0.40045  1.0000
  H   H1657     1.0  0.23518  0.55005  0.18084  1.0000
  H   H1658     1.0  0.34433  0.92614  0.07853  1.0000
  H   H1659     1.0  0.22502  0.57299  0.15609  1.0000
  C   C2089     1.0  0.35556  0.96824  0.09697  1.0000
  C   C2090     1.0  0.35098  0.70245  0.44124  1.0000
  C   C2091     1.0  0.31123  0.87129  0.10226  1.0000
  C   C2092     1.0  0.22322  0.89948  0.36122  1.0000
  C   C2093     1.0  0.39505  0.66492  0.21622  1.0000
  H   H1660     1.0  0.35818  0.70291  0.39712  1.0000
  C   C2094     1.0  0.24518  0.83516  0.22051  1.0000
  C   C2095     1.0  0.20872  0.91326  0.36514  1.0000
  H   H1661     1.0  0.20942  0.74334  0.22862  1.0000
  C   C2096     1.0  0.23590  0.59019  0.31858  1.0000
  H   H1662     1.0  0.32810  0.69627  0.22018  1.0000
  C   C2097     1.0  0.20842  0.67294  0.04235  1.0000
  C   C2098     1.0  0.32288  0.93887  0.09718  1.0000
  H   H1663     1.0  0.35573  0.89274  0.10272  1.0000
  C   C2099     1.0  0.20968  0.62493  0.11415  1.0000
  H   H1664     1.0  0.33811  0.70992  0.12559  1.0000
  H   H1665     1.0  0.20358  0.65431  0.01088  1.0000
  C   C2100     1.0  0.39517  0.85324  0.12460  1.0000
  C   C2101     1.0  0.31319  0.91864  0.15137  1.0000
  H   H1666     1.0  0.32696  0.91323  0.15218  1.0000
  H   H1667     1.0  0.22249  0.80622  0.32966  1.0000
  H   H1668     1.0  0.28098  0.81531  0.20632  1.0000
  C   C2102     1.0  0.23160  0.92687  0.31752  1.0000
  C   C2103     1.0  0.21104  0.76230  0.11996  1.0000
  C   C2104     1.0  0.35946  0.90089  0.10936  1.0000
  C   C2105     1.0  0.20019  0.55641  0.10968  1.0000
  H   H1669     1.0  0.30413  0.78942  0.19874  1.0000
  H   H1670     1.0  0.22392  0.82230  0.23759  1.0000
  H   H1671     1.0  0.31464  0.51723  0.15627  1.0000
  C   C2106     1.0  0.33475  0.63036  0.41756  1.0000
  C   C2107     1.0  0.28244  0.92626  0.16679  1.0000
  S   S294      1.0  0.20968  0.84866  0.35525  1.0000
  S   S295      1.0  0.38992  0.87022  0.16615  1.0000
  C   C2108     1.0  0.31133  0.59036  0.40675  1.0000
  C   C2109     1.0  0.34252  0.55759  0.36913  1.0000
  C   C2110     1.0  0.36757  0.97928  0.03399  1.0000
  H   H1672     1.0  0.23450  0.89648  0.36740  1.0000
  C   C2111     1.0  0.20295  0.59696  0.13270  1.0000
  H   H1673     1.0  0.22756  0.77293  0.12957  1.0000
  S   S296      1.0  0.34741  0.77672  0.13231  1.0000
  H   H1674     1.0  0.31585  0.62929  0.21534  1.0000
  C   C2112     1.0  0.34324  0.65141  0.23116  1.0000
  C   C2113     1.0  0.29866  0.59845  0.44063  1.0000
  H   H1675     1.0  0.29378  0.60141  0.45377  1.0000
  P   P69       1.0  0.36904  0.67705  0.46551  1.0000
  C   C2114     1.0  0.30787  0.92269  0.13511  1.0000
  C   C2115     1.0  0.32255  0.62389  0.20359  1.0000
  C   C2116     1.0  0.37406  0.69795  0.16749  1.0000
  H   H1676     1.0  0.39558  0.95973  0.06874  1.0000
  C   C2117     1.0  0.31237  0.62037  0.19371  1.0000
  H   H1677     1.0  0.26987  0.82565  0.16609  1.0000
  C   C2118     1.0  0.21686  0.75126  0.44314  1.0000
  C   C2119     1.0  0.31159  0.95518  0.10007  1.0000
  H   H1678     1.0  0.22997  0.74775  0.28547  1.0000
  H   H1679     1.0  0.34685  0.64123  0.24237  1.0000
  H   H1680     1.0  0.21514  0.67459  0.29406  1.0000
  C   C2120     1.0  0.38671  0.74233  0.19429  1.0000
  H   H1681     1.0  0.32875  0.73696  0.28925  1.0000
  C   C2121     1.0  0.32324  0.58894  0.41736  1.0000
  C   C2122     1.0  0.27741  0.80527  0.20199  1.0000
  C   C2123     1.0  0.29054  0.79044  0.19800  1.0000
  C   C2124     1.0  0.38098  0.72718  0.15644  1.0000
  C   C2125     1.0  0.30173  0.76077  0.06121  1.0000
  C   C2126     1.0  0.30143  0.58299  0.37696  1.0000
  H   H1682     1.0  0.29214  0.56414  0.40056  1.0000
  H   H1683     1.0  0.30767  0.60068  0.35130  1.0000
  H   H1684     1.0  0.33879  0.56565  0.35686  1.0000
  H   H1685     1.0  0.37682  0.58269  0.39237  1.0000
  C   C2127     1.0  0.21978  0.56099  0.16055  1.0000
  S   S297      1.0  0.38541  0.71519  0.31190  1.0000
  C   C2128     1.0  0.36461  0.84959  0.07494  1.0000
  C   C2129     1.0  0.22123  0.68707  0.35260  1.0000
  H   H1686     1.0  0.27238  0.54731  0.32804  1.0000
  C   C2130     1.0  0.28524  0.80394  0.02251  1.0000
  C   C2131     1.0  0.27424  0.81291  0.99528  1.0000
  C   C2132     1.0  0.29868  0.59240  0.36002  1.0000
  H   H1687     1.0  0.35933  0.73819  0.28937  1.0000
  H   H1688     1.0  0.23334  0.57572  0.10999  1.0000
  C   C2133     1.0  0.31689  0.59245  0.43444  1.0000
  C   C2134     1.0  0.28994  0.57179  0.38759  1.0000
  H   H1689     1.0  0.37847  0.95116  0.03906  1.0000
  C   C2135     1.0  0.21168  0.66814  0.02603  1.0000
  H   H1690     1.0  0.32396  0.72011  0.26950  1.0000
  C   C2136     1.0  0.39157  0.77817  0.24979  1.0000
  H   H1691     1.0  0.21581  0.85300  0.18356  1.0000
  H   H1692     1.0  0.33745  0.58498  0.41245  1.0000
  C   C2137     1.0  0.20887  0.56656  0.11506  1.0000
  H   H1693     1.0  0.23017  0.68440  0.31478  1.0000
  C   C2138     1.0  0.24419  0.76140  0.06664  1.0000
  C   C2139     1.0  0.24541  0.55790  0.32444  1.0000
  H   H1694     1.0  0.23649  0.98830  0.31873  1.0000
  C   C2140     1.0  0.34515  0.64713  0.21475  1.0000
  H   H1695     1.0  0.23133  0.69299  0.34256  1.0000
  H   H1696     1.0  0.21406  0.73374  0.25937  1.0000
  C   C2141     1.0  0.28410  0.59126  0.35420  1.0000
  C   C2142     1.0  0.27531  0.57077  0.38175  1.0000
  C   C2143     1.0  0.22615  0.56845  0.10574  1.0000
  S   S298      1.0  0.37221  0.58276  0.47367  1.0000
  H   H1697     1.0  0.21136  0.70351  0.27654  1.0000
  H   H1698     1.0  0.38686  0.71237  0.38435  1.0000
  H   H1699     1.0  0.24734  0.56305  0.08321  1.0000
  C   C2144     1.0  0.33263  0.68257  0.21872  1.0000
  H   H1700     1.0  0.30370  0.98323  0.08901  1.0000
  C   C2145     1.0  0.33995  0.73067  0.28027  1.0000
  C   C2146     1.0  0.33726  0.72138  0.26904  1.0000
  H   H1701     1.0  0.23146  0.76852  0.19429  1.0000
  P   P70       1.0  0.24477  0.82883  0.20050  1.0000
  C   C2147     1.0  0.26034  0.80787  0.19880  1.0000
  C   C2148     1.0  0.26486  0.83959  0.16635  1.0000
  C   C2149     1.0  0.22319  0.65915  0.23937  1.0000
  H   H1702     1.0  0.20156  0.54135  0.09053  1.0000
  H   H1703     1.0  0.26624  0.56245  0.39019  1.0000
  C   C2150     1.0  0.20178  0.50762  0.07977  1.0000
  C   C2151     1.0  0.23420  0.56114  0.09068  1.0000
  H   H1704     1.0  0.23140  0.54587  0.07342  1.0000
  H   H1705     1.0  0.32765  0.58188  0.26342  1.0000
  H   H1706     1.0  0.21932  0.76348  0.10667  1.0000
  C   C2152     1.0  0.20862  0.88717  0.40802  1.0000
  C   C2153     1.0  0.21567  0.79516  0.31107  1.0000
  C   C2154     1.0  0.21147  0.84092  0.19115  1.0000
  C   C2155     1.0  0.27229  0.58065  0.36511  1.0000
  S   S299      1.0  0.39837  0.68779  0.34737  1.0000
  H   H1707     1.0  0.28180  0.59890  0.34133  1.0000
  H   H1708     1.0  0.37531  0.85837  0.10917  1.0000
  H   H1709     1.0  0.25598  0.69236  0.29154  1.0000
  H   H1710     1.0  0.34413  0.99235  0.10672  1.0000
  H   H1711     1.0  0.26015  0.93026  0.34061  1.0000
  H   H1712     1.0  0.36390  0.61019  0.17896  1.0000
  C   C2156     1.0  0.27694  0.92961  0.15080  1.0000
  C   C2157     1.0  0.22251  0.82712  0.20086  1.0000
  C   C2158     1.0  0.28669  0.77789  0.19119  1.0000
  H   H1713     1.0  0.20335  0.68283  0.26328  1.0000
  H   H1714     1.0  0.29720  0.76689  0.18736  1.0000
  C   C2159     1.0  0.37497  0.69690  0.48662  1.0000
  H   H1715     1.0  0.28832  0.80461  0.06335  1.0000
  H   H1716     1.0  0.39838  0.60586  0.28573  1.0000
  C   C2160     1.0  0.22609  0.67590  0.36810  1.0000
  H   H1717     1.0  0.20707  0.94536  0.31424  1.0000
  H   H1718     1.0  0.35941  0.82164  0.19372  1.0000
  C   C2161     1.0  0.21971  0.53199  0.18022  1.0000
  H   H1719     1.0  0.34953  0.70567  0.24928  1.0000
  C   C2162     1.0  0.24666  0.73504  0.05592  1.0000
  H   H1720     1.0  0.26293  0.78193  0.09186  1.0000
  C   C2163     1.0  0.25237  0.84508  0.18107  1.0000
  H   H1721     1.0  0.28166  0.84764  0.14089  1.0000
  H   H1722     1.0  0.22406  0.74558  0.07473  1.0000
  C   C2164     1.0  0.20830  0.89296  0.34183  1.0000
  C   C2165     1.0  0.38437  0.96717  0.07676  1.0000
  C   C2166     1.0  0.25356  0.79715  0.06814  1.0000
  H   H1723     1.0  0.24154  0.80072  0.11155  1.0000
  H   H1724     1.0  0.26079  0.58017  0.36068  1.0000
  H   H1725     1.0  0.34578  0.60440  0.16154  1.0000
  C   C2167     1.0  0.22584  0.54784  0.17445  1.0000
  H   H1726     1.0  0.22392  0.52205  0.19134  1.0000
  C   C2168     1.0  0.35184  0.71293  0.25778  1.0000
  H   H1727     1.0  0.37914  0.71713  0.20532  1.0000
  C   C2169     1.0  0.23123  0.64133  0.24515  1.0000
  C   C2170     1.0  0.24627  0.86336  0.18073  1.0000
  C   C2171     1.0  0.24466  0.70276  0.29532  1.0000
  C   C2172     1.0  0.23704  0.74725  0.06654  1.0000
  C   C2173     1.0  0.25692  0.51183  0.20674  1.0000
  C   C2174     1.0  0.26974  0.78032  0.18801  1.0000
  C   C2175     1.0  0.25667  0.79535  0.19159  1.0000
  C   C2176     1.0  0.27154  0.85212  0.15184  1.0000
  H   H1728     1.0  0.39132  0.60133  0.42424  1.0000
  C   C2177     1.0  0.33931  0.60980  0.17333  1.0000
  C   C2178     1.0  0.21878  0.94244  0.31967  1.0000
  H   H1729     1.0  0.33134  0.68898  0.19104  1.0000
  C   C2179     1.0  0.38510  0.72683  0.20745  1.0000
  C   C2180     1.0  0.33438  0.67843  0.20234  1.0000
  H   H1730     1.0  0.36578  0.98023  0.04763  1.0000
  C   C2181     1.0  0.35722  0.73132  0.28039  1.0000
  C   C2182     1.0  0.31361  0.54170  0.18944  1.0000
  C   C2183     1.0  0.20153  0.54227  0.15816  1.0000
  H   H1731     1.0  0.22628  0.58953  0.28671  1.0000
  C   C2184     1.0  0.21587  0.81206  0.21121  1.0000
  H   H1732     1.0  0.26712  0.77110  0.18178  1.0000
  C   C2185     1.0  0.33690  0.66904  0.23316  1.0000
  C   C2186     1.0  0.35496  0.54146  0.36871  1.0000
  H   H1733     1.0  0.23644  0.77072  0.07488  1.0000
  C   C2187     1.0  0.36920  0.71389  0.25752  1.0000
  C   C2188     1.0  0.37494  0.82197  0.06421  1.0000
  H   H1734     1.0  0.28413  0.52442  0.22524  1.0000
  H   H1735     1.0  0.39653  0.90637  0.11883  1.0000
  H   H1736     1.0  0.33553  0.67221  0.24592  1.0000
  S   S300      1.0  0.20972  0.91832  0.20051  1.0000
  H   H1737     1.0  0.27863  0.57686  0.32465  1.0000
  C   C2189     1.0  0.20354  0.62058  0.14620  1.0000
  C   C2190     1.0  0.37654  0.67358  0.24887  1.0000
  Fe  Fe149     1.0  0.20786  0.57786  0.02465  1.0000
  H   H1738     1.0  0.22816  0.74188  0.44778  1.0000
  H   H1739     1.0  0.24841  0.88994  0.16622  1.0000
  P   P71       1.0  0.26930  0.78307  0.05406  1.0000
  C   C2191     1.0  0.22882  0.82228  0.07254  1.0000
  C   C2192     1.0  0.37008  0.67490  0.40188  1.0000
  H   H1740     1.0  0.27091  0.72730  0.03732  1.0000
  C   C2193     1.0  0.39816  0.72007  0.16013  1.0000
  C   C2194     1.0  0.37593  0.83976  0.06256  1.0000
  C   C2195     1.0  0.22202  0.62793  0.24794  1.0000
  H   H1741     1.0  0.32709  0.74428  0.06562  1.0000
  C   C2196     1.0  0.27155  0.79459  0.03097  1.0000
  C   C2197     1.0  0.35353  0.60887  0.23298  1.0000
  H   H1742     1.0  0.25580  0.54634  0.12705  1.0000
  C   C2198     1.0  0.36098  0.81155  0.18644  1.0000
  C   C2199     1.0  0.26338  0.73698  0.04532  1.0000
  C   C2200     1.0  0.22895  0.81831  0.09066  1.0000
  P   P72       1.0  0.21112  0.77208  0.16791  1.0000
  S   S301      1.0  0.36533  0.57769  0.43020  1.0000
  H   H1743     1.0  0.22825  0.61412  0.25234  1.0000
  H   H1744     1.0  0.25610  0.72408  0.27692  1.0000
  H   H1745     1.0  0.31826  0.79856  0.06975  1.0000
  C   C2201     1.0  0.34041  0.66075  0.20042  1.0000
  C   C2202     1.0  0.26214  0.55922  0.32559  1.0000
  H   H1746     1.0  0.36633  0.61292  0.34014  1.0000
  H   H1747     1.0  0.35445  0.63515  0.39408  1.0000
  H   H1748     1.0  0.24075  0.81505  0.04732  1.0000
  C   C2203     1.0  0.20991  0.90003  0.41648  1.0000
  H   H1749     1.0  0.25132  0.61485  0.28692  1.0000
  H   H1750     1.0  0.32349  0.53041  0.18547  1.0000
  H   H1751     1.0  0.33331  0.55401  0.19237  1.0000
  H   H1752     1.0  0.32547  0.62934  0.41037  1.0000
  C   C2204     1.0  0.26100  0.76353  0.05592  1.0000
  C   C2205     1.0  0.37182  0.72305  0.26899  1.0000
  C   C2206     1.0  0.39432  0.57127  0.32129  1.0000
  C   C2207     1.0  0.24108  0.81175  0.06129  1.0000
  H   H1753     1.0  0.37954  0.63932  0.34603  1.0000
  C   C2208     1.0  0.38119  0.54424  0.42378  1.0000
  H   H1754     1.0  0.38771  0.50721  0.45907  1.0000
  C   C2209     1.0  0.24474  0.72059  0.28710  1.0000
  C   C2210     1.0  0.26215  0.54229  0.13833  1.0000
  C   C2211     1.0  0.31229  0.97065  0.08666  1.0000
  C   C2212     1.0  0.37047  0.80219  0.15834  1.0000
  C   C2213     1.0  0.37464  0.96277  0.02917  1.0000
  C   C2214     1.0  0.27410  0.54989  0.15945  1.0000
  S   S302      1.0  0.39815  0.89035  0.02806  1.0000
  C   C2215     1.0  0.37686  0.96140  0.01160  1.0000
  C   C2216     1.0  0.23014  0.73393  0.29202  1.0000
  C   C2217     1.0  0.24980  0.81073  0.14604  1.0000
  S   S303      1.0  0.38038  0.91601  0.05713  1.0000
  H   H1755     1.0  0.34182  0.65776  0.18765  1.0000
  H   H1756     1.0  0.21246  0.70093  0.15273  1.0000
  H   H1757     1.0  0.22113  0.63153  0.33779  1.0000
  C   C2218     1.0  0.20261  0.70113  0.23781  1.0000
  H   H1758     1.0  0.21934  0.97232  0.29381  1.0000
  H   H1759     1.0  0.20444  0.74020  0.30889  1.0000
  C   C2219     1.0  0.26624  0.55504  0.14467  1.0000
  C   C2220     1.0  0.34124  0.62014  0.19859  1.0000
  C   C2221     1.0  0.35867  0.63305  0.43600  1.0000
  C   C2222     1.0  0.25552  0.79308  0.14414  1.0000
  C   C2223     1.0  0.31869  0.75751  0.06480  1.0000
  C   C2224     1.0  0.35142  0.63374  0.40828  1.0000
  C   C2225     1.0  0.37588  0.57254  0.32444  1.0000
  C   C2226     1.0  0.25349  0.79319  0.08636  1.0000
  S   S304      1.0  0.38523  0.94069  0.00556  1.0000
  C   C2227     1.0  0.36897  0.71605  0.16008  1.0000
  C   C2228     1.0  0.31926  0.55507  0.19337  1.0000
  C   C2229     1.0  0.36359  0.63509  0.41743  1.0000
  C   C2230     1.0  0.20288  0.83318  0.43491  1.0000
  H   H1760     1.0  0.31284  0.61056  0.17095  1.0000
  C   C2231     1.0  0.32073  0.61335  0.17857  1.0000
  H   H1761     1.0  0.27713  0.56007  0.16398  1.0000
  C   C2232     1.0  0.33505  0.93842  0.08082  1.0000
  P   P73       1.0  0.35421  0.62455  0.21170  1.0000
  C   C2233     1.0  0.34201  0.62957  0.44526  1.0000
  H   H1762     1.0  0.37338  0.65211  0.37243  1.0000
  H   H1763     1.0  0.33842  0.62773  0.45962  1.0000
  C   C2234     1.0  0.23227  0.57329  0.32115  1.0000
  C   C2235     1.0  0.26568  0.57592  0.32360  1.0000
  H   H1764     1.0  0.37621  0.80486  0.14418  1.0000
  H   H1765     1.0  0.37659  0.63922  0.30574  1.0000
  C   C2236     1.0  0.34955  0.61311  0.18330  1.0000
  C   C2237     1.0  0.24662  0.92259  0.32489  1.0000
  C   C2238     1.0  0.20297  0.74505  0.44101  1.0000
  H   H1766     1.0  0.37215  0.82751  0.16161  1.0000
  H   H1767     1.0  0.20874  0.92089  0.37446  1.0000
  C   C2239     1.0  0.36822  0.81493  0.16818  1.0000
  H   H1768     1.0  0.36481  0.68932  0.17042  1.0000
  H   H1769     1.0  0.24265  0.54494  0.32598  1.0000
  C   C2240     1.0  0.24350  0.62780  0.28882  1.0000
  H   H1770     1.0  0.24846  0.76792  0.14896  1.0000
  H   H1771     1.0  0.22786  0.83053  0.15606  1.0000
  H   H1772     1.0  0.36548  0.60861  0.29197  1.0000
  H   H1773     1.0  0.20420  0.64786  0.31186  1.0000
  H   H1774     1.0  0.23297  0.50253  0.22150  1.0000
  H   H1775     1.0  0.35729  0.67111  0.40689  1.0000
  C   C2241     1.0  0.38483  0.68613  0.23552  1.0000
  H   H1776     1.0  0.35618  0.52810  0.41258  1.0000
  H   H1777     1.0  0.34463  0.96186  0.10445  1.0000
  H   H1778     1.0  0.26218  0.64166  0.26893  1.0000
  H   H1779     1.0  0.35855  0.71142  0.44221  1.0000
  C   C2242     1.0  0.21702  0.64639  0.30280  1.0000
  C   C2243     1.0  0.20794  0.63126  0.12934  1.0000
  H   H1780     1.0  0.34826  0.64368  0.34017  1.0000
  H   H1781     1.0  0.22390  0.80148  0.21924  1.0000
  C   C2244     1.0  0.20725  0.98253  0.29472  1.0000
  P   P74       1.0  0.38566  0.63860  0.40601  1.0000
  H   H1782     1.0  0.20687  0.81040  0.16762  1.0000
  C   C2245     1.0  0.20052  0.65884  0.02319  1.0000
  Fe  Fe150     1.0  0.21054  0.84997  0.38261  1.0000
  H   H1783     1.0  0.23676  0.86799  0.19195  1.0000
  H   H1784     1.0  0.27112  0.87997  0.14071  1.0000
  C   C2246     1.0  0.31701  0.50623  0.16739  1.0000
  H   H1785     1.0  0.38335  0.59368  0.20763  1.0000
  C   C2247     1.0  0.38601  0.66198  0.40016  1.0000
  C   C2248     1.0  0.38670  0.69833  0.38915  1.0000
  C   C2249     1.0  0.20833  0.54906  0.09470  1.0000
  H   H1786     1.0  0.28309  0.75297  0.03626  1.0000
  C   C2250     1.0  0.37049  0.69299  0.39638  1.0000
  C   C2251     1.0  0.21562  0.72957  0.30544  1.0000
  C   C2252     1.0  0.22525  0.55153  0.08511  1.0000
  Fe  Fe151     1.0  0.20403  0.89446  0.24946  1.0000
  H   H1787     1.0  0.36978  0.56300  0.33503  1.0000
  C   C2253     1.0  0.20717  0.55849  0.15266  1.0000
  H   H1788     1.0  0.38363  0.81447  0.05456  1.0000
  P   P75       1.0  0.21881  0.60998  0.31427  1.0000
  C   C2254     1.0  0.23274  0.75532  0.19225  1.0000
  C   C2255     1.0  0.38333  0.63989  0.37149  1.0000
  C   C2256     1.0  0.38842  0.60548  0.20021  1.0000
  H   H1789     1.0  0.36088  0.53723  0.35623  1.0000
  H   H1790     1.0  0.38003  0.75641  0.26610  1.0000
  C   C2257     1.0  0.39119  0.55694  0.38711  1.0000
  H   H1791     1.0  0.20740  0.58500  0.26947  1.0000
  H   H1792     1.0  0.29735  0.74978  0.05955  1.0000
  C   C2258     1.0  0.20354  0.69072  0.35052  1.0000
  H   H1793     1.0  0.20227  0.95736  0.36887  1.0000
  P   P76       1.0  0.38778  0.70529  0.24124  1.0000
  C   C2259     1.0  0.37643  0.56245  0.41653  1.0000
  C   C2260     1.0  0.23951  0.65993  0.28043  1.0000
  C   C2261     1.0  0.37906  0.76750  0.25484  1.0000
  H   H1794     1.0  0.37738  0.59130  0.26570  1.0000
  C   C2262     1.0  0.38091  0.56869  0.39811  1.0000
  C   C2263     1.0  0.39091  0.72424  0.22323  1.0000
  S   S305      1.0  0.20902  0.82123  0.39346  1.0000
  C   C2264     1.0  0.21334  0.66859  0.38183  1.0000
  H   H1795     1.0  0.38523  0.84592  0.05165  1.0000
  H   H1796     1.0  0.25639  0.91035  0.32344  1.0000
  C   C2265     1.0  0.20226  0.78151  0.43217  1.0000
  H   H1797     1.0  0.38515  0.72387  0.26908  1.0000
  H   H1798     1.0  0.20220  0.79561  0.42854  1.0000
  C   C2266     1.0  0.37012  0.95909  0.08631  1.0000
  C   C2267     1.0  0.35257  0.58516  0.26633  1.0000
  Fe  Fe152     1.0  0.20638  0.53951  0.04304  1.0000
  C   C2268     1.0  0.24365  0.78159  0.15050  1.0000
  C   C2269     1.0  0.24960  0.64303  0.27848  1.0000
  C   C2270     1.0  0.20871  0.72990  0.23584  1.0000
  H   H1799     1.0  0.20260  0.73183  0.34655  1.0000
  H   H1800     1.0  0.38795  0.64238  0.45805  1.0000
  C   C2271     1.0  0.21567  0.76765  0.13309  1.0000
  H   H1801     1.0  0.29726  0.82010  0.99826  1.0000
  C   C2272     1.0  0.22583  0.78766  0.15874  1.0000
  C   C2273     1.0  0.38419  0.63752  0.18996  1.0000
  H   H1802     1.0  0.39491  0.67689  0.17654  1.0000
  C   C2274     1.0  0.22313  0.66159  0.29254  1.0000
  C   C2275     1.0  0.36681  0.59372  0.25865  1.0000
  H   H1803     1.0  0.21733  0.67973  0.04477  1.0000
  C   C2276     1.0  0.38648  0.65267  0.22942  1.0000
  H   H1804     1.0  0.25499  0.51081  0.19426  1.0000
  H   H1805     1.0  0.25055  0.74278  0.21024  1.0000
  H   H1806     1.0  0.24117  0.72401  0.05597  1.0000
  C   C2277     1.0  0.22834  0.99429  0.32973  1.0000
  H   H1807     1.0  0.38733  0.88853  0.10323  1.0000
  H   H1808     1.0  0.21003  0.64445  0.12810  1.0000
  H   H1809     1.0  0.21765  0.51832  0.01016  1.0000
  C   C2278     1.0  0.20772  0.52913  0.17195  1.0000
  H   H1810     1.0  0.37526  0.77299  0.29526  1.0000
  C   C2279     1.0  0.37865  0.64028  0.47068  1.0000
  C   C2280     1.0  0.39144  0.53249  0.41275  1.0000
  C   C2281     1.0  0.37776  0.62290  0.47975  1.0000
  H   H1811     1.0  0.33781  0.76868  0.07048  1.0000
  C   C2282     1.0  0.39710  0.53898  0.39451  1.0000
  S   S306      1.0  0.39158  0.66359  0.31471  1.0000
  C   C2283     1.0  0.38423  0.98446  0.07786  1.0000
  C   C2284     1.0  0.20578  0.66363  0.23638  1.0000
  C   C2285     1.0  0.20694  0.60796  0.11580  1.0000
  C   C2286     1.0  0.20979  0.69889  0.16710  1.0000
  C   C2287     1.0  0.39444  0.68150  0.21932  1.0000
  H   H1812     1.0  0.20350  0.73086  0.44476  1.0000
  H   H1813     1.0  0.38909  0.69192  0.48226  1.0000
  H   H1814     1.0  0.37062  0.94555  0.08566  1.0000
  S   S307      1.0  0.20493  0.71713  0.06405  1.0000
  H   H1815     1.0  0.21165  0.69901  0.40949  1.0000
  C   C2288     1.0  0.30576  0.50629  0.18429  1.0000
  H   H1816     1.0  0.39454  0.56181  0.37292  1.0000
  C   C2289     1.0  0.20485  0.63228  0.24476  1.0000
  C   C2290     1.0  0.39395  0.75532  0.19682  1.0000
  Fe  Fe153     1.0  0.20565  0.55346  0.22469  1.0000
  C   C2291     1.0  0.39690  0.68430  0.43612  1.0000
  C   C2292     1.0  0.21231  0.59606  0.28887  1.0000
  C   C2293     1.0  0.39208  0.63092  0.38550  1.0000
  C   C2294     1.0  0.38681  0.63270  0.35647  1.0000
  C   C2295     1.0  0.20017  0.62765  0.36089  1.0000
  C   C2296     1.0  0.39042  0.79275  0.23558  1.0000
  C   C2297     1.0  0.22151  0.50513  0.00733  1.0000
  H   H1817     1.0  0.27703  0.50514  0.16766  1.0000
  C   C2298     1.0  0.21190  0.98974  0.33867  1.0000
  H   H1818     1.0  0.20928  0.98915  0.26630  1.0000
  C   C2299     1.0  0.20177  0.99223  0.27900  1.0000
  H   H1819     1.0  0.39556  0.83341  0.17486  1.0000
  H   H1820     1.0  0.38737  0.63972  0.22709  1.0000
  C   C2300     1.0  0.21009  0.62494  0.34413  1.0000
  P   P77       1.0  0.20416  0.97403  0.33168  1.0000
  H   H1821     1.0  0.39532  0.76725  0.18656  1.0000
  H   H1822     1.0  0.20285  0.51689  0.17653  1.0000
  C   C2301     1.0  0.37242  0.97672  0.99874  1.0000
  H   H1823     1.0  0.39360  0.68729  0.27686  1.0000
  H   H1824     1.0  0.39260  0.76698  0.09114  1.0000
  H   H1825     1.0  0.39175  0.83501  0.09225  1.0000
  H   H1826     1.0  0.20244  0.62549  0.15792  1.0000
  C   C2302     1.0  0.39111  0.69089  0.17100  1.0000
  C   C2303     1.0  0.20500  0.60692  0.30134  1.0000
  H   H1827     1.0  0.39176  0.75205  0.12268  1.0000
  C   C2304     1.0  0.20601  0.61355  0.33588  1.0000
  C   C2305     1.0  0.39812  0.76328  0.11695  1.0000
  H   H1828     1.0  0.20358  0.63634  0.36721  1.0000
  Fe  Fe154     1.0  0.19929  0.93028  0.22471  1.0000
  P   P78       1.0  0.19879  0.57527  0.13494  1.0000
  C   C2306     1.0  0.19872  0.81065  0.21143  1.0000
  H   H1829     1.0  0.19967  0.90390  0.30374  1.0000
  H   H1830     1.0  0.19926  0.84469  0.42465  1.0000
  C   C2307     1.0  0.19914  0.92912  0.28543  1.0000
  C   C2308     1.0  0.19846  0.70339  0.41725  1.0000
  C   C2309     1.0  0.36360  0.99464  0.02107  1.0000
  H   H1831     1.0  0.32268  0.99418  0.02319  1.0000
  C   C2310     1.0  0.23714  0.51831  0.94392  1.0000
  H   H1832     1.0  0.27534  0.81991  0.98148  1.0000
  C   C2311     1.0  0.33866  0.71054  0.49833  1.0000
  H   H1833     1.0  0.36497  0.60624  0.50294  1.0000
  H   H1834     1.0  0.32974  0.50655  0.59341  1.0000
  H   H1835     1.0  0.29773  0.52618  0.58245  1.0000
  C   C2312     1.0  0.21561  0.50607  0.74551  1.0000
  S   S308      1.0  0.33041  0.59935  0.50926  1.0000
  H   H1836     1.0  0.29268  0.59047  0.53186  1.0000
  S   S309      1.0  0.36173  0.55308  0.50991  1.0000
  C   C2313     1.0  0.29809  0.56698  0.52136  1.0000
  C   C2314     1.0  0.31603  0.55191  0.59724  1.0000
  H   H1837     1.0  0.39462  0.52253  0.51354  1.0000
  C   C2315     1.0  0.35061  0.56560  0.54913  1.0000
  P   P79       1.0  0.32995  0.53969  0.56544  1.0000
  C   C2316     1.0  0.36489  0.57350  0.54710  1.0000
  C   C2317     1.0  0.30809  0.63195  0.50527  1.0000
  H   H1838     1.0  0.34190  0.57123  0.53983  1.0000
  H   H1839     1.0  0.29098  0.65808  0.50222  1.0000
  C   C2318     1.0  0.23596  0.51107  0.76033  1.0000
  C   C2319     1.0  0.31721  0.55006  0.54834  1.0000
  C   C2320     1.0  0.37661  0.56654  0.55869  1.0000
  H   H1840     1.0  0.35823  0.53189  0.58472  1.0000
  C   C2321     1.0  0.30635  0.54897  0.52311  1.0000
  C   C2322     1.0  0.30823  0.56798  0.54694  1.0000
  H   H1841     1.0  0.21500  0.54429  0.91184  1.0000
  C   C2323     1.0  0.31569  0.54047  0.53668  1.0000
  H   H1842     1.0  0.23614  0.54535  0.92912  1.0000
  C   C2324     1.0  0.28712  0.53521  0.60699  1.0000
  H   H1843     1.0  0.37778  0.49627  0.50440  1.0000
  H   H1844     1.0  0.36683  0.58502  0.53644  1.0000
  H   H1845     1.0  0.32687  0.55881  0.59357  1.0000
  H   H1846     1.0  0.38762  0.57274  0.55711  1.0000
  H   H1847     1.0  0.30590  0.54164  0.51369  1.0000
  H   H1848     1.0  0.32179  0.52650  0.53776  1.0000
  H   H1849     1.0  0.20389  0.51671  0.91713  1.0000
  C   C2325     1.0  0.23142  0.53326  0.93127  1.0000
  C   C2326     1.0  0.35177  0.51172  0.54994  1.0000
  C   C2327     1.0  0.29615  0.64604  0.49708  1.0000
  C   C2328     1.0  0.30355  0.55344  0.61317  1.0000
  C   C2329     1.0  0.28914  0.54504  0.61808  1.0000
  H   H1850     1.0  0.29134  0.57371  0.51052  1.0000
  H   H1851     1.0  0.37931  0.71229  0.50282  1.0000
  H   H1852     1.0  0.30899  0.57563  0.55591  1.0000
  H   H1853     1.0  0.34613  0.66243  0.49943  1.0000
  C   C2330     1.0  0.34801  0.55053  0.56271  1.0000
  C   C2331     1.0  0.33815  0.50330  0.58113  1.0000
  H   H1854     1.0  0.30496  0.56127  0.62167  1.0000
  H   H1855     1.0  0.35383  0.49709  0.61437  1.0000
  C   C2332     1.0  0.35996  0.54352  0.57420  1.0000
  C   C2333     1.0  0.20339  0.93771  0.58654  1.0000
  C   C2334     1.0  0.36947  0.70853  0.49832  1.0000
  C   C2335     1.0  0.31512  0.61643  0.49860  1.0000
  C   C2336     1.0  0.22645  0.50316  0.98968  1.0000
  H   H1856     1.0  0.37403  0.97573  0.98514  1.0000
  C   C2337     1.0  0.21325  0.51716  0.92454  1.0000
  C   C2338     1.0  0.22817  0.51527  0.74561  1.0000
  H   H1857     1.0  0.27944  0.54629  0.63040  1.0000
  H   H1858     1.0  0.35382  0.52162  0.53770  1.0000
  C   C2339     1.0  0.31424  0.54180  0.58618  1.0000
  C   C2340     1.0  0.34035  0.51653  0.56545  1.0000
  C   C2341     1.0  0.29880  0.57641  0.53344  1.0000
  C   C2342     1.0  0.23063  0.50278  0.94727  1.0000
  C   C2343     1.0  0.37413  0.55157  0.57226  1.0000
  C   C2344     1.0  0.29955  0.53368  0.59104  1.0000
  S   S310      1.0  0.34137  0.51608  0.50475  1.0000
  C   C2345     1.0  0.21951  0.53268  0.92156  1.0000
  H   H1859     1.0  0.31199  0.63318  0.51675  1.0000
  H   H1860     1.0  0.23179  0.52567  0.73428  1.0000
  C   C2346     1.0  0.35133  0.71535  0.50418  1.0000
  C   C2347     1.0  0.21872  0.50229  0.93738  1.0000
  Fe  Fe155     1.0  0.34759  0.57830  0.49439  1.0000
  H   H1861     1.0  0.20951  0.50930  0.73412  1.0000
  C   C2348     1.0  0.35520  0.65156  0.49390  1.0000
  H   H1862     1.0  0.38324  0.54617  0.58123  1.0000
  H   H1863     1.0  0.37815  0.50126  0.58785  1.0000
  H   H1864     1.0  0.32458  0.71582  0.50285  1.0000
  H   H1865     1.0  0.27582  0.52888  0.61069  1.0000
  H   H1866     1.0  0.24561  0.51828  0.76046  1.0000
  H   H1867     1.0  0.39462  0.58394  0.50106  1.0000
  C   C2349     1.0  0.35310  0.49599  0.49851  1.0000
  H   H1868     1.0  0.34459  0.63151  0.51528  1.0000
  C   C2350     1.0  0.39778  0.51439  0.52600  1.0000
  C   C2351     1.0  0.35431  0.63407  0.50296  1.0000
  H   H1869     1.0  0.21012  0.92380  0.58831  1.0000
  H   H1870     1.0  0.24656  0.51892  0.95116  1.0000
  H   H1871     1.0  0.20134  0.93985  0.55969  1.0000
  H   H1872     1.0  0.39235  0.53659  0.53832  1.0000
  H   H1873     1.0  0.20363  0.93964  0.61285  1.0000
  C   C2352     1.0  0.39659  0.52227  0.54000  1.0000
  H   H1874     1.0  0.34710  0.72437  0.51323  1.0000
  C   C2353     1.0  0.36570  0.61976  0.49596  1.0000
  H   H1875     1.0  0.22622  0.51504  0.97926  1.0000
  C   C2354     1.0  0.23129  0.49756  0.77488  1.0000
  H   H1876     1.0  0.21125  0.99493  0.55675  1.0000
  C   C2355     1.0  0.19976  0.94664  0.60036  1.0000
  H   H1877     1.0  0.42034  0.02452  0.06158  1.0000
  C   C2356     1.0  0.57726  0.43846  0.42764  1.0000
  C   C2357     1.0  0.58311  0.07027  0.10744  1.0000
  H   H1878     1.0  0.42961  0.28781  0.48044  1.0000
  Fe  Fe156     1.0  0.54563  0.16258  0.03980  1.0000
  S   S311      1.0  0.55544  0.18643  0.04032  1.0000
  S   S312      1.0  0.52101  0.16280  0.03040  1.0000
  Fe  Fe157     1.0  0.57615  0.13653  0.05469  1.0000
  S   S313      1.0  0.58969  0.15755  0.05529  1.0000
  C   C2358     1.0  0.48333  0.48185  0.46632  1.0000
  Fe  Fe158     1.0  0.56213  0.17145  0.06690  1.0000
  S   S314      1.0  0.55715  0.17939  0.09354  1.0000
  C   C2359     1.0  0.40237  0.04798  0.05151  1.0000
  H   H1879     1.0  0.53005  0.49429  0.28316  1.0000
  S   S315      1.0  0.54904  0.14943  0.06763  1.0000
  S   S316      1.0  0.57214  0.14835  0.02695  1.0000
  C   C2360     1.0  0.53407  0.99553  0.18714  1.0000
  H   H1880     1.0  0.55632  0.00893  0.13752  1.0000
  S   S317      1.0  0.56412  0.06857  0.14161  1.0000
  C   C2361     1.0  0.58367  0.47962  0.47524  1.0000
  C   C2362     1.0  0.59235  0.36424  0.31801  1.0000
  H   H1881     1.0  0.42846  0.36676  0.48978  1.0000
  H   H1882     1.0  0.58615  0.37799  0.45326  1.0000
  H   H1883     1.0  0.49340  0.13764  0.99768  1.0000
  H   H1884     1.0  0.40553  0.11946  0.03331  1.0000
  H   H1885     1.0  0.56944  0.41400  0.44182  1.0000
  H   H1886     1.0  0.57152  0.42030  0.34300  1.0000
  H   H1887     1.0  0.45608  0.18133  0.01855  1.0000
  C   C2363     1.0  0.57112  0.31977  0.48578  1.0000
  C   C2364     1.0  0.40392  0.11294  0.02379  1.0000
  C   C2365     1.0  0.56819  0.46134  0.31542  1.0000
  S   S318      1.0  0.57937  0.32490  0.43253  1.0000
  C   C2366     1.0  0.47237  0.36792  0.48903  1.0000
  S   S319      1.0  0.58044  0.40260  0.37929  1.0000
  C   C2367     1.0  0.57126  0.42569  0.31513  1.0000
  S   S320      1.0  0.58854  0.02311  0.12893  1.0000
  H   H1888     1.0  0.49669  0.07179  0.07479  1.0000
  C   C2368     1.0  0.52951  0.45592  0.26685  1.0000
  C   C2369     1.0  0.58188  0.32444  0.45376  1.0000
  C   C2370     1.0  0.58023  0.99992  0.03123  1.0000
  C   C2371     1.0  0.41883  0.35854  0.49246  1.0000
  C   C2372     1.0  0.44768  0.42825  0.43318  1.0000
  C   C2373     1.0  0.56903  0.31960  0.46894  1.0000
  H   H1889     1.0  0.44642  0.06381  0.21574  1.0000
  H   H1890     1.0  0.43321  0.44404  0.41301  1.0000
  C   C2374     1.0  0.56284  0.08941  0.00693  1.0000
  C   C2375     1.0  0.59238  0.24477  0.22594  1.0000
  C   C2376     1.0  0.47806  0.44101  0.46379  1.0000
  C   C2377     1.0  0.53488  0.05423  0.18204  1.0000
  C   C2378     1.0  0.50575  0.14796  0.01252  1.0000
  C   C2379     1.0  0.53007  0.03773  0.18989  1.0000
  H   H1891     1.0  0.55989  0.00043  0.01787  1.0000
  H   H1892     1.0  0.59609  0.07314  0.04940  1.0000
  H   H1893     1.0  0.57709  0.43981  0.37748  1.0000
  C   C2380     1.0  0.55461  0.46758  0.26706  1.0000
  C   C2381     1.0  0.59425  0.27869  0.10495  1.0000
  H   H1894     1.0  0.56002  0.26707  0.13861  1.0000
  C   C2382     1.0  0.46032  0.44741  0.40633  1.0000
  H   H1895     1.0  0.44388  0.31365  0.47805  1.0000
  C   C2383     1.0  0.53788  0.14026  0.00680  1.0000
  H   H1896     1.0  0.41106  0.05678  0.05032  1.0000
  H   H1897     1.0  0.41712  0.03328  0.01644  1.0000
  H   H1898     1.0  0.56694  0.47501  0.31594  1.0000
  C   C2384     1.0  0.46392  0.42349  0.43852  1.0000
  C   C2385     1.0  0.57879  0.09602  0.08347  1.0000
  C   C2386     1.0  0.56415  0.10425  0.09488  1.0000
  C   C2387     1.0  0.55915  0.09555  0.11266  1.0000
  C   C2388     1.0  0.56890  0.07870  0.11903  1.0000
  C   C2389     1.0  0.51295  0.44079  0.42290  1.0000
  C   C2390     1.0  0.43455  0.48039  0.44110  1.0000
  H   H1899     1.0  0.55701  0.11748  0.09026  1.0000
  H   H1900     1.0  0.54817  0.10211  0.12158  1.0000
  C   C2391     1.0  0.44586  0.44023  0.41708  1.0000
  C   C2392     1.0  0.50314  0.99963  0.18607  1.0000
  H   H1901     1.0  0.41452  0.27258  0.46786  1.0000
  C   C2393     1.0  0.57463  0.09878  0.00847  1.0000
  C   C2394     1.0  0.58042  0.23025  0.25592  1.0000
  H   H1902     1.0  0.49043  0.00818  0.18412  1.0000
  C   C2395     1.0  0.47877  0.19346  0.00639  1.0000
  H   H1903     1.0  0.57257  0.41183  0.31507  1.0000
  C   C2396     1.0  0.58612  0.21528  0.09135  1.0000
  H   H1904     1.0  0.56493  0.43788  0.48435  1.0000
  C   C2397     1.0  0.57807  0.20434  0.08620  1.0000
  C   C2398     1.0  0.56963  0.19171  0.09907  1.0000
  C   C2399     1.0  0.57007  0.18963  0.11702  1.0000
  C   C2400     1.0  0.57869  0.20015  0.12209  1.0000
  C   C2401     1.0  0.50376  0.03928  0.14932  1.0000
  C   C2402     1.0  0.58794  0.07884  0.08968  1.0000
  H   H1905     1.0  0.56341  0.18007  0.12712  1.0000
  H   H1906     1.0  0.55032  0.14109  0.00899  1.0000
  C   C2403     1.0  0.52136  0.44026  0.40508  1.0000
  C   C2404     1.0  0.52175  0.14908  0.01591  1.0000
  H   H1907     1.0  0.53496  0.36405  0.47127  1.0000
  C   C2405     1.0  0.40188  0.36619  0.48890  1.0000
  C   C2406     1.0  0.43361  0.04956  0.99646  1.0000
  C   C2407     1.0  0.45942  0.05746  0.20911  1.0000
  C   C2408     1.0  0.58630  0.32425  0.48748  1.0000
  C   C2409     1.0  0.53499  0.45763  0.24842  1.0000
  H   H1908     1.0  0.55308  0.28834  0.25445  1.0000
  H   H1909     1.0  0.52361  0.05281  0.10610  1.0000
  C   C2410     1.0  0.53619  0.04679  0.12830  1.0000
  H   H1910     1.0  0.58549  0.14930  0.09648  1.0000
  C   C2411     1.0  0.57793  0.27387  0.11348  1.0000
  C   C2412     1.0  0.58776  0.31471  0.20809  1.0000
  H   H1911     1.0  0.47677  0.30659  0.47098  1.0000
  C   C2413     1.0  0.56945  0.26747  0.27052  1.0000
  H   H1912     1.0  0.57902  0.27167  0.15629  1.0000
  C   C2414     1.0  0.50223  0.38826  0.44221  1.0000
  H   H1913     1.0  0.47219  0.35183  0.47140  1.0000
  C   C2415     1.0  0.57069  0.43044  0.33089  1.0000
  C   C2416     1.0  0.51749  0.00691  0.18560  1.0000
  C   C2417     1.0  0.55291  0.04916  0.20363  1.0000
  H   H1914     1.0  0.56986  0.27142  0.10584  1.0000
  C   C2418     1.0  0.56914  0.44825  0.33101  1.0000
  C   C2419     1.0  0.48447  0.03224  0.20847  1.0000
  C   C2420     1.0  0.55408  0.28050  0.26762  1.0000
  H   H1915     1.0  0.56831  0.27895  0.22370  1.0000
  C   C2421     1.0  0.40737  0.27837  0.47927  1.0000
  S   S321      1.0  0.59834  0.36750  0.41656  1.0000
  C   C2422     1.0  0.52577  0.46598  0.42026  1.0000
  C   C2423     1.0  0.47735  0.35235  0.48240  1.0000
  C   C2424     1.0  0.58825  0.13657  0.10555  1.0000
  C   C2425     1.0  0.54398  0.37188  0.47164  1.0000
  C   C2426     1.0  0.52976  0.36712  0.43440  1.0000
  C   C2427     1.0  0.58310  0.27387  0.14191  1.0000
  H   H1916     1.0  0.57770  0.20618  0.07239  1.0000
  H   H1917     1.0  0.48736  0.44875  0.40314  1.0000
  H   H1918     1.0  0.50924  0.45430  0.44412  1.0000
  C   C2428     1.0  0.58920  0.09807  0.17281  1.0000
  H   H1919     1.0  0.47815  0.19832  0.01799  1.0000
  H   H1920     1.0  0.52163  0.04931  0.06301  1.0000
  H   H1921     1.0  0.58090  0.35970  0.31754  1.0000
  C   C2429     1.0  0.42804  0.03363  0.00489  1.0000
  H   H1922     1.0  0.57877  0.06390  0.03344  1.0000
  C   C2430     1.0  0.52428  0.44759  0.48115  1.0000
  C   C2431     1.0  0.53976  0.28365  0.28187  1.0000
  C   C2432     1.0  0.56687  0.16495  0.17469  1.0000
  C   C2433     1.0  0.56498  0.14894  0.17218  1.0000
  C   C2434     1.0  0.57969  0.13772  0.16366  1.0000
  C   C2435     1.0  0.58283  0.13538  0.12389  1.0000
  P   P80       1.0  0.57756  0.11744  0.15935  1.0000
  S   S322      1.0  0.59625  0.22788  0.11508  1.0000
  C   C2436     1.0  0.55450  0.11569  0.16499  1.0000
  C   C2437     1.0  0.54628  0.11017  0.18287  1.0000
  C   C2438     1.0  0.52857  0.10827  0.18740  1.0000
  C   C2439     1.0  0.51897  0.11188  0.17412  1.0000
  C   C2440     1.0  0.52703  0.11750  0.15631  1.0000
  C   C2441     1.0  0.54471  0.11946  0.15174  1.0000
  H   H1923     1.0  0.58550  0.10186  0.99754  1.0000
  H   H1924     1.0  0.52960  0.27638  0.31012  1.0000
  H   H1925     1.0  0.52743  0.45376  0.24123  1.0000
  S   S323      1.0  0.43858  0.11403  0.00867  1.0000
  C   C2442     1.0  0.47861  0.43052  0.42780  1.0000
  H   H1926     1.0  0.46478  0.41469  0.45133  1.0000
  H   H1927     1.0  0.46836  0.07442  0.06624  1.0000
  P   P81       1.0  0.49907  0.42512  0.43580  1.0000
  C   C2443     1.0  0.39956  0.09604  0.99931  1.0000
  C   C2444     1.0  0.51781  0.03779  0.15743  1.0000
  H   H1928     1.0  0.57621  0.22985  0.27004  1.0000
  H   H1929     1.0  0.49139  0.48899  0.36656  1.0000
  C   C2445     1.0  0.48388  0.49206  0.37928  1.0000
  H   H1930     1.0  0.55554  0.17365  0.18124  1.0000
  H   H1931     1.0  0.55201  0.14555  0.17673  1.0000
  H   H1932     1.0  0.47137  0.45065  0.45397  1.0000
  H   H1933     1.0  0.55359  0.10725  0.19329  1.0000
  H   H1934     1.0  0.52233  0.10393  0.20121  1.0000
  H   H1935     1.0  0.50528  0.11036  0.17761  1.0000
  H   H1936     1.0  0.51963  0.12031  0.14598  1.0000
  H   H1937     1.0  0.55064  0.12378  0.13785  1.0000
  H   H1938     1.0  0.57957  0.07934  0.16458  1.0000
  H   H1939     1.0  0.55662  0.25324  0.31544  1.0000
  H   H1940     1.0  0.55286  0.37830  0.42118  1.0000
  H   H1941     1.0  0.59147  0.20894  0.03048  1.0000
  C   C2446     1.0  0.52951  0.39864  0.42746  1.0000
  C   C2447     1.0  0.53870  0.38110  0.42703  1.0000
  H   H1942     1.0  0.51585  0.12386  0.04845  1.0000
  H   H1943     1.0  0.45884  0.45680  0.39390  1.0000
  C   C2448     1.0  0.52636  0.47726  0.48184  1.0000
  C   C2449     1.0  0.57694  0.28768  0.22282  1.0000
  C   C2450     1.0  0.58438  0.42209  0.45622  1.0000
  H   H1944     1.0  0.50496  0.00161  0.06885  1.0000
  H   H1945     1.0  0.42214  0.45771  0.44955  1.0000
  H   H1946     1.0  0.50698  0.14626  0.06694  1.0000
  C   C2451     1.0  0.56101  0.37014  0.46069  1.0000
  H   H1947     1.0  0.55735  0.31603  0.46767  1.0000
  H   H1948     1.0  0.53061  0.46757  0.45783  1.0000
  H   H1949     1.0  0.53703  0.35349  0.43436  1.0000
  H   H1950     1.0  0.58757  0.23625  0.04157  1.0000
  H   H1951     1.0  0.50888  0.13724  0.09868  1.0000
  S   S324      1.0  0.45727  0.38611  0.47975  1.0000
  C   C2452     1.0  0.59624  0.14274  0.15767  1.0000
  H   H1952     1.0  0.49503  0.04571  0.12464  1.0000
  H   H1953     1.0  0.57114  0.43477  0.28731  1.0000
  H   H1954     1.0  0.52735  0.47598  0.42613  1.0000
  C   C2453     1.0  0.58795  0.49385  0.47898  1.0000
  H   H1955     1.0  0.59593  0.23056  0.20545  1.0000
  C   C2454     1.0  0.40758  0.02963  0.05787  1.0000
  H   H1956     1.0  0.56092  0.01761  0.09281  1.0000
  C   C2455     1.0  0.40334  0.48161  0.45483  1.0000
  H   H1957     1.0  0.54214  0.47494  0.39463  1.0000
  C   C2456     1.0  0.56001  0.46930  0.24852  1.0000
  C   C2457     1.0  0.47878  0.08051  0.05685  1.0000
  C   C2458     1.0  0.51148  0.13236  0.07283  1.0000
  C   C2459     1.0  0.58522  0.21593  0.23134  1.0000
  C   C2460     1.0  0.52200  0.04866  0.12037  1.0000
  H   H1958     1.0  0.42705  0.06155  0.00146  1.0000
  P   P82       1.0  0.51495  0.03074  0.18127  1.0000
  C   C2461     1.0  0.55587  0.26080  0.30208  1.0000
  H   H1959     1.0  0.49149  0.06545  0.17180  1.0000
  C   C2462     1.0  0.51157  0.37069  0.44213  1.0000
  C   C2463     1.0  0.52356  0.09657  0.08779  1.0000
  C   C2464     1.0  0.47591  0.09028  0.04010  1.0000
  C   C2465     1.0  0.47685  0.49100  0.48015  1.0000
  H   H1960     1.0  0.56512  0.36113  0.45164  1.0000
  H   H1961     1.0  0.51935  0.10539  0.11208  1.0000
  C   C2466     1.0  0.59065  0.03605  0.04007  1.0000
  C   C2467     1.0  0.58611  0.99560  0.00113  1.0000
  H   H1962     1.0  0.53845  0.45188  0.38129  1.0000
  H   H1963     1.0  0.44756  0.47262  0.43635  1.0000
  C   C2468     1.0  0.46768  0.04044  0.21699  1.0000
  H   H1964     1.0  0.56872  0.45195  0.34321  1.0000
  C   C2469     1.0  0.57680  0.30319  0.20945  1.0000
  H   H1965     1.0  0.43645  0.42276  0.44170  1.0000
  H   H1966     1.0  0.52815  0.08287  0.09395  1.0000
  C   C2470     1.0  0.58585  0.11880  0.13575  1.0000
  C   C2471     1.0  0.41589  0.28706  0.48646  1.0000
  C   C2472     1.0  0.58338  0.16985  0.16869  1.0000
  C   C2473     1.0  0.50586  0.04473  0.13085  1.0000
  C   C2474     1.0  0.55651  0.49490  0.28501  1.0000
  C   C2475     1.0  0.49214  0.42712  0.45882  1.0000
  C   C2476     1.0  0.51662  0.11963  0.06234  1.0000
  C   C2477     1.0  0.52280  0.10165  0.06970  1.0000
  H   H1967     1.0  0.58190  0.24746  0.29046  1.0000
  C   C2478     1.0  0.58938  0.43517  0.36862  1.0000
  C   C2479     1.0  0.53408  0.46538  0.40256  1.0000
  C   C2480     1.0  0.55801  0.10100  0.03827  1.0000
  H   H1968     1.0  0.45860  0.49188  0.37456  1.0000
  C   C2481     1.0  0.53822  0.99767  0.13031  1.0000
  H   H1969     1.0  0.53200  0.01501  0.21201  1.0000
  C   C2482     1.0  0.57971  0.21582  0.24953  1.0000
  C   C2483     1.0  0.57236  0.10431  0.02419  1.0000
  C   C2484     1.0  0.59449  0.10353  0.12890  1.0000
  H   H1970     1.0  0.49122  0.03611  0.15724  1.0000
  Fe  Fe159     1.0  0.58442  0.04300  0.14554  1.0000
  H   H1971     1.0  0.48064  0.47990  0.44100  1.0000
  C   C2485     1.0  0.51536  0.45369  0.43043  1.0000
  C   C2486     1.0  0.50585  0.13837  0.00005  1.0000
  H   H1972     1.0  0.57577  0.14738  0.12871  1.0000
  C   C2487     1.0  0.54641  0.05980  0.18876  1.0000
  H   H1973     1.0  0.55942  0.07344  0.07282  1.0000
  S   S325      1.0  0.59229  0.49160  0.32544  1.0000
  H   H1974     1.0  0.56208  0.05336  0.20865  1.0000
  C   C2488     1.0  0.55504  0.03039  0.08541  1.0000
  H   H1975     1.0  0.56450  0.08524  0.99466  1.0000
  H   H1976     1.0  0.48669  0.10654  0.01532  1.0000
  H   H1977     1.0  0.54884  0.04961  0.12023  1.0000
  H   H1978     1.0  0.53997  0.07798  0.01997  1.0000
  H   H1979     1.0  0.49216  0.32517  0.48541  1.0000
  P   P83       1.0  0.58337  0.40318  0.47490  1.0000
  H   H1980     1.0  0.55647  0.10549  0.05032  1.0000
  H   H1981     1.0  0.53707  0.40898  0.42230  1.0000
  C   C2489     1.0  0.52738  0.46453  0.47221  1.0000
  H   H1982     1.0  0.53000  0.06275  0.17053  1.0000
  C   C2490     1.0  0.56191  0.04535  0.08327  1.0000
  C   C2491     1.0  0.58830  0.05399  0.04020  1.0000
  C   C2492     1.0  0.47662  0.44264  0.41163  1.0000
  H   H1983     1.0  0.49320  0.15463  0.01952  1.0000
  H   H1984     1.0  0.59348  0.36507  0.49065  1.0000
  C   C2493     1.0  0.53898  0.06377  0.06730  1.0000
  H   H1985     1.0  0.58780  0.32665  0.19765  1.0000
  H   H1986     1.0  0.54558  0.03902  0.15254  1.0000
  P   P84       1.0  0.52891  0.08551  0.05587  1.0000
  C   C2494     1.0  0.48483  0.05823  0.18427  1.0000
  H   H1987     1.0  0.57876  0.19853  0.13595  1.0000
  H   H1988     1.0  0.46174  0.07968  0.18682  1.0000
  C   C2495     1.0  0.53611  0.02742  0.20523  1.0000
  H   H1989     1.0  0.57337  0.04414  0.08870  1.0000
  C   C2496     1.0  0.49491  0.07890  0.06156  1.0000
  C   C2497     1.0  0.54066  0.27383  0.29908  1.0000
  S   S326      1.0  0.58317  0.02307  0.17142  1.0000
  H   H1990     1.0  0.51066  0.40346  0.46856  1.0000
  C   C2498     1.0  0.57044  0.43873  0.29946  1.0000
  C   C2499     1.0  0.49295  0.04091  0.19184  1.0000
  H   H1991     1.0  0.51768  0.45076  0.27395  1.0000
  C   C2500     1.0  0.54766  0.03303  0.21194  1.0000
  C   C2501     1.0  0.51106  0.40247  0.43469  1.0000
  C   C2502     1.0  0.46639  0.18384  0.00673  1.0000
  C   C2503     1.0  0.47596  0.48761  0.45121  1.0000
  H   H1992     1.0  0.55054  0.07223  0.18216  1.0000
  H   H1993     1.0  0.50469  0.35983  0.44822  1.0000
  H   H1994     1.0  0.58177  0.11116  0.02552  1.0000
  S   S327      1.0  0.59153  0.22600  0.16765  1.0000
  C   C2504     1.0  0.48908  0.09863  0.02816  1.0000
  C   C2505     1.0  0.53192  0.45246  0.39500  1.0000
  C   C2506     1.0  0.46804  0.06639  0.19281  1.0000
  C   C2507     1.0  0.45095  0.30514  0.48815  1.0000
  H   H1995     1.0  0.48824  0.39059  0.44854  1.0000
  H   H1996     1.0  0.52799  0.29381  0.27955  1.0000
  C   C2508     1.0  0.42021  0.47188  0.44852  1.0000
  H   H1997     1.0  0.53228  0.01019  0.12266  1.0000
  C   C2509     1.0  0.54875  0.08560  0.02120  1.0000
  C   C2510     1.0  0.53885  0.38318  0.48362  1.0000
  H   H1998     1.0  0.57176  0.47442  0.24114  1.0000
  C   C2511     1.0  0.57290  0.37967  0.46170  1.0000
  H   H1999     1.0  0.58473  0.20476  0.22633  1.0000
  C   C2512     1.0  0.53261  0.04852  0.06887  1.0000
  C   C2513     1.0  0.55394  0.06196  0.07426  1.0000
  C   C2514     1.0  0.53797  0.13075  0.99429  1.0000
  H   H2000     1.0  0.46105  0.45291  0.48540  1.0000
  C   C2515     1.0  0.55022  0.46431  0.23927  1.0000
  H   H2001     1.0  0.55313  0.17575  0.99716  1.0000
  H   H2002     1.0  0.46337  0.09172  0.03641  1.0000
  H   H2003     1.0  0.53508  0.02033  0.07999  1.0000
  H   H2004     1.0  0.51479  0.10433  0.02364  1.0000
  H   H2005     1.0  0.58283  0.03250  0.03300  1.0000
  H   H2006     1.0  0.51977  0.43036  0.39897  1.0000
  C   C2516     1.0  0.51251  0.12726  0.09073  1.0000
  Fe  Fe160     1.0  0.58231  0.17098  0.02893  1.0000
  C   C2517     1.0  0.50517  0.09709  0.03286  1.0000
  C   C2518     1.0  0.54600  0.09175  0.03684  1.0000
  C   C2519     1.0  0.58644  0.21330  0.10930  1.0000
  C   C2520     1.0  0.53421  0.04105  0.14673  1.0000
  C   C2521     1.0  0.57241  0.27134  0.13197  1.0000
  C   C2522     1.0  0.50847  0.08674  0.04939  1.0000
  C   C2523     1.0  0.51846  0.10935  0.09823  1.0000
  C   C2524     1.0  0.56880  0.45671  0.29950  1.0000
  C   C2525     1.0  0.54044  0.03196  0.07817  1.0000
  P   P85       1.0  0.56732  0.47356  0.27927  1.0000
  H   H2007     1.0  0.49349  0.46982  0.46775  1.0000
  C   C2526     1.0  0.50011  0.41451  0.47200  1.0000
  C   C2527     1.0  0.57020  0.25759  0.28787  1.0000
  C   C2528     1.0  0.58833  0.28336  0.23475  1.0000
  C   C2529     1.0  0.48855  0.33727  0.49035  1.0000
  P   P86       1.0  0.58816  0.26342  0.25228  1.0000
  C   C2530     1.0  0.58665  0.24494  0.24411  1.0000
  H   H2008     1.0  0.48221  0.48608  0.49208  1.0000
  C   C2531     1.0  0.56673  0.48126  0.47234  1.0000
  H   H2009     1.0  0.46110  0.03363  0.22975  1.0000
  H   H2010     1.0  0.58481  0.18226  0.17065  1.0000
  S   S328      1.0  0.58698  0.10712  0.06189  1.0000
  H   H2011     1.0  0.59201  0.22545  0.08139  1.0000
  H   H2012     1.0  0.52495  0.43781  0.47373  1.0000
  C   C2532     1.0  0.41828  0.10857  0.01000  1.0000
  C   C2533     1.0  0.59448  0.44963  0.44119  1.0000
  C   C2534     1.0  0.49404  0.41579  0.48988  1.0000
  C   C2535     1.0  0.53929  0.46085  0.27615  1.0000
  C   C2536     1.0  0.57405  0.99874  0.01687  1.0000
  H   H2013     1.0  0.56363  0.47001  0.46960  1.0000
  H   H2014     1.0  0.53487  0.45945  0.29045  1.0000
  H   H2015     1.0  0.56834  0.30617  0.20002  1.0000
  H   H2016     1.0  0.55449  0.46561  0.22498  1.0000
  H   H2017     1.0  0.43120  0.00629  0.00440  1.0000
  C   C2537     1.0  0.55064  0.39281  0.48465  1.0000
  H   H2018     1.0  0.49084  0.01919  0.21489  1.0000
  C   C2538     1.0  0.58636  0.45131  0.42720  1.0000
  C   C2539     1.0  0.55187  0.99699  0.13869  1.0000
  C   C2540     1.0  0.43610  0.01831  0.99807  1.0000
  C   C2541     1.0  0.58943  0.47458  0.26586  1.0000
  H   H2019     1.0  0.55269  0.02480  0.22348  1.0000
  C   C2542     1.0  0.57628  0.42390  0.44205  1.0000
  C   C2543     1.0  0.59155  0.23042  0.21957  1.0000
  C   C2544     1.0  0.41611  0.10016  0.99768  1.0000
  C   C2545     1.0  0.56779  0.39108  0.47369  1.0000
  H   H2020     1.0  0.58778  0.46214  0.41565  1.0000
  H   H2021     1.0  0.57148  0.43941  0.41651  1.0000
  H   H2022     1.0  0.59101  0.05752  0.11226  1.0000
  H   H2023     1.0  0.58852  0.35620  0.34655  1.0000
  H   H2024     1.0  0.57490  0.20451  0.25867  1.0000
  H   H2025     1.0  0.52597  0.38381  0.49272  1.0000
  H   H2026     1.0  0.57069  0.00272  0.04321  1.0000
  H   H2027     1.0  0.54571  0.00081  0.18554  1.0000
  C   C2546     1.0  0.46542  0.49358  0.38382  1.0000
  C   C2547     1.0  0.46959  0.30119  0.48409  1.0000
  H   H2028     1.0  0.59348  0.46723  0.47473  1.0000
  C   C2548     1.0  0.59347  0.43512  0.45566  1.0000
  C   C2549     1.0  0.47211  0.44230  0.48161  1.0000
  C   C2550     1.0  0.58735  0.08103  0.17295  1.0000
  H   H2029     1.0  0.59837  0.31271  0.08944  1.0000
  C   C2551     1.0  0.59539  0.06599  0.18404  1.0000
  C   C2552     1.0  0.59408  0.41745  0.36682  1.0000
  C   C2553     1.0  0.59260  0.49025  0.25345  1.0000
  H   H2030     1.0  0.55457  0.49305  0.34061  1.0000
  S   S329      1.0  0.42980  0.43109  0.49162  1.0000
  H   H2031     1.0  0.50674  0.49467  0.38690  1.0000
  H   H2032     1.0  0.59625  0.34423  0.07443  1.0000
  H   H2033     1.0  0.55933  0.49154  0.43824  1.0000
  S   S330      1.0  0.59597  0.35034  0.38387  1.0000
  H   H2034     1.0  0.52965  0.49471  0.32689  1.0000
  Fe  Fe161     1.0  0.58955  0.00296  0.15434  1.0000
  H   H2035     1.0  0.59423  0.05283  0.18383  1.0000
  H   H2036     1.0  0.59673  0.09049  0.13745  1.0000
  C   C2554     1.0  0.59666  0.12129  0.09887  1.0000
  C   C2555     1.0  0.59807  0.05919  0.04922  1.0000
  H   H2037     1.0  0.59753  0.25571  0.21662  1.0000
  C   C2556     1.0  0.59664  0.36224  0.33436  1.0000
  H   H2038     1.0  0.59737  0.46042  0.36076  1.0000
  C   C2557     1.0  0.59805  0.15873  0.16022  1.0000
  C   C2558     1.0  0.59675  0.32931  0.45545  1.0000
  Fe  Fe162     1.0  0.59800  0.34095  0.41249  1.0000
  C   C2559     1.0  0.49251  0.49530  0.39076  1.0000
  Fe  Fe163     1.0  0.44650  0.03197  0.86743  1.0000
  S   S331      1.0  0.43907  0.06164  0.86417  1.0000
  S   S332      1.0  0.43367  0.01367  0.89123  1.0000
  Fe  Fe164     1.0  0.47328  0.03343  0.83312  1.0000
  S   S333      1.0  0.46846  0.06317  0.82677  1.0000
  S   S334      1.0  0.49200  0.01666  0.81446  1.0000
  Fe  Fe165     1.0  0.46838  0.06036  0.85545  1.0000
  S   S335      1.0  0.48110  0.07909  0.86214  1.0000
  Fe  Fe166     1.0  0.43938  0.06249  0.83577  1.0000
  S   S336      1.0  0.42033  0.08512  0.82177  1.0000
  S   S337      1.0  0.47597  0.03048  0.86104  1.0000
  S   S338      1.0  0.44418  0.03278  0.83983  1.0000
  Fe  Fe167     1.0  0.43722  0.20732  0.80290  1.0000
  S   S339      1.0  0.44532  0.17769  0.80589  1.0000
  S   S340      1.0  0.44926  0.22763  0.78069  1.0000
  C   C2560     1.0  0.44304  0.38076  0.73778  1.0000
  Fe  Fe168     1.0  0.44205  0.17680  0.83487  1.0000
  S   S341      1.0  0.46194  0.15720  0.84993  1.0000
  S   S342      1.0  0.43631  0.20647  0.83147  1.0000
  Fe  Fe169     1.0  0.49725  0.11697  0.96797  1.0000
  S   S343      1.0  0.47225  0.13767  0.97269  1.0000
  S   S344      1.0  0.52281  0.11689  0.97555  1.0000
  Fe  Fe170     1.0  0.47953  0.09694  0.95222  1.0000
  S   S345      1.0  0.45308  0.11611  0.95601  1.0000
  S   S346      1.0  0.48214  0.07199  0.94267  1.0000
  Fe  Fe171     1.0  0.46949  0.13704  0.94571  1.0000
  S   S347      1.0  0.46011  0.16321  0.92783  1.0000
  Fe  Fe172     1.0  0.45830  0.11485  0.98253  1.0000
  H   H2039     1.0  0.57457  0.39444  0.54017  1.0000
  S   S348      1.0  0.49578  0.11795  0.93988  1.0000
  S   S349      1.0  0.48351  0.09402  0.97975  1.0000
  H   H2040     1.0  0.41789  0.24434  0.61256  1.0000
  C   C2561     1.0  0.56466  0.25986  0.53766  1.0000
  S   S350      1.0  0.56759  0.03592  0.78612  1.0000
  Fe  Fe173     1.0  0.40221  0.42676  0.50343  1.0000
  Fe  Fe174     1.0  0.43061  0.43109  0.51950  1.0000
  H   H2041     1.0  0.41558  0.17551  0.89219  1.0000
  S   S351      1.0  0.43823  0.45635  0.51951  1.0000
  C   C2562     1.0  0.48109  0.17995  0.97682  1.0000
  C   C2563     1.0  0.57845  0.39834  0.51173  1.0000
  C   C2564     1.0  0.47899  0.29071  0.49706  1.0000
  H   H2042     1.0  0.40099  0.99745  0.96831  1.0000
  H   H2043     1.0  0.41672  0.24406  0.80938  1.0000
  S   S352      1.0  0.44148  0.40151  0.52691  1.0000
  Fe  Fe175     1.0  0.49791  0.48033  0.56738  1.0000
  S   S353      1.0  0.49266  0.45457  0.58495  1.0000
  C   C2565     1.0  0.41684  0.21339  0.75269  1.0000
  Fe  Fe176     1.0  0.51677  0.48760  0.59270  1.0000
  S   S354      1.0  0.51281  0.46225  0.61257  1.0000
  C   C2566     1.0  0.51609  0.17563  0.94495  1.0000
  Fe  Fe177     1.0  0.52056  0.45015  0.58846  1.0000
  S   S355      1.0  0.53905  0.42362  0.58698  1.0000
  Fe  Fe178     1.0  0.48508  0.46865  0.60744  1.0000
  S   S356      1.0  0.46004  0.46541  0.62896  1.0000
  S   S357      1.0  0.52659  0.47492  0.56889  1.0000
  H   H2044     1.0  0.54210  0.99572  0.97754  1.0000
  Fe  Fe179     1.0  0.46625  0.22999  0.68631  1.0000
  S   S358      1.0  0.48489  0.24834  0.67205  1.0000
  S   S359      1.0  0.47323  0.20500  0.70653  1.0000
  Fe  Fe180     1.0  0.43561  0.25355  0.66957  1.0000
  S   S360      1.0  0.45140  0.27414  0.65381  1.0000
  C   C2567     1.0  0.40407  0.12810  0.74564  1.0000
  Fe  Fe181     1.0  0.47365  0.25080  0.64846  1.0000
  S   S361      1.0  0.49051  0.25109  0.62087  1.0000
  Fe  Fe182     1.0  0.46122  0.27003  0.67860  1.0000
  S   S362      1.0  0.46378  0.29177  0.68986  1.0000
  S   S363      1.0  0.45693  0.23032  0.66211  1.0000
  S   S364      1.0  0.44348  0.25150  0.69494  1.0000
  Fe  Fe183     1.0  0.53161  0.35900  0.53714  1.0000
  S   S365      1.0  0.51315  0.34066  0.55246  1.0000
  H   H2045     1.0  0.45133  0.06262  0.97438  1.0000
  Fe  Fe184     1.0  0.56202  0.32879  0.52627  1.0000
  S   S366      1.0  0.54657  0.30766  0.54101  1.0000
  Fe  Fe185     1.0  0.52400  0.32670  0.52971  1.0000
  S   S367      1.0  0.50810  0.31851  0.51532  1.0000
  Fe  Fe186     1.0  0.53716  0.32337  0.56251  1.0000
  S   S368      1.0  0.53429  0.31198  0.59185  1.0000
  S   S369      1.0  0.54011  0.34662  0.51346  1.0000
  S   S370      1.0  0.55503  0.34273  0.54882  1.0000
  C   C2568     1.0  0.45079  0.24629  0.58984  1.0000
  C   C2569     1.0  0.49030  0.00864  0.94993  1.0000
  C   C2570     1.0  0.50156  0.26888  0.61305  1.0000
  C   C2571     1.0  0.50607  0.27571  0.59473  1.0000
  C   C2572     1.0  0.51578  0.28925  0.58811  1.0000
  C   C2573     1.0  0.52126  0.29578  0.59985  1.0000
  C   C2574     1.0  0.51661  0.28908  0.61819  1.0000
  C   C2575     1.0  0.50655  0.27582  0.62482  1.0000
  H   H2046     1.0  0.50199  0.27051  0.58572  1.0000
  H   H2047     1.0  0.51921  0.29444  0.57395  1.0000
  H   H2048     1.0  0.52106  0.29395  0.62723  1.0000
  H   H2049     1.0  0.50317  0.27057  0.63897  1.0000
  C   C2576     1.0  0.56994  0.27552  0.50666  1.0000
  C   C2577     1.0  0.43232  0.31360  0.68255  1.0000
  C   C2578     1.0  0.44332  0.30646  0.69489  1.0000
  C   C2579     1.0  0.43865  0.31212  0.71094  1.0000
  C   C2580     1.0  0.40088  0.27795  0.56130  1.0000
  H   H2050     1.0  0.41947  0.32910  0.72717  1.0000
  H   H2051     1.0  0.43590  0.30926  0.67012  1.0000
  H   H2052     1.0  0.44710  0.30655  0.72051  1.0000
  C   C2581     1.0  0.47910  0.36859  0.50321  1.0000
  S   S371      1.0  0.40689  0.16100  0.79988  1.0000
  C   C2582     1.0  0.56710  0.35133  0.60251  1.0000
  H   H2053     1.0  0.41052  0.11428  0.74951  1.0000
  C   C2583     1.0  0.56077  0.48733  0.63095  1.0000
  H   H2054     1.0  0.45474  0.00165  0.93878  1.0000
  C   C2584     1.0  0.40961  0.14264  0.90807  1.0000
  H   H2055     1.0  0.57251  0.16167  0.95905  1.0000
  H   H2056     1.0  0.56526  0.47429  0.63876  1.0000
  H   H2057     1.0  0.54490  0.47800  0.61873  1.0000
  C   C2585     1.0  0.53445  0.41397  0.57190  1.0000
  C   C2586     1.0  0.52350  0.42408  0.56009  1.0000
  C   C2587     1.0  0.51959  0.41614  0.54836  1.0000
  C   C2588     1.0  0.52699  0.39822  0.54802  1.0000
  C   C2589     1.0  0.52199  0.12966  0.99089  1.0000
  C   C2590     1.0  0.54184  0.39603  0.57160  1.0000
  H   H2058     1.0  0.51823  0.43806  0.55978  1.0000
  H   H2059     1.0  0.51069  0.42384  0.53966  1.0000
  H   H2060     1.0  0.56414  0.02778  0.85442  1.0000
  H   H2061     1.0  0.47510  0.43049  0.50852  1.0000
  C   C2591     1.0  0.44889  0.44888  0.62931  1.0000
  C   C2592     1.0  0.43204  0.44812  0.64054  1.0000
  C   C2593     1.0  0.42307  0.43494  0.64104  1.0000
  C   C2594     1.0  0.43090  0.42255  0.63021  1.0000
  C   C2595     1.0  0.44780  0.42313  0.61929  1.0000
  C   C2596     1.0  0.45673  0.43621  0.61883  1.0000
  H   H2062     1.0  0.42589  0.45787  0.64872  1.0000
  Fe  Fe187     1.0  0.40793  0.20459  0.83568  1.0000
  H   H2063     1.0  0.45408  0.41337  0.61113  1.0000
  H   H2064     1.0  0.46990  0.43609  0.61067  1.0000
  C   C2597     1.0  0.45325  0.46473  0.52598  1.0000
  C   C2598     1.0  0.45118  0.48323  0.52208  1.0000
  C   C2599     1.0  0.57615  0.41056  0.49573  1.0000
  C   C2600     1.0  0.47545  0.48068  0.53602  1.0000
  C   C2601     1.0  0.47773  0.46206  0.53999  1.0000
  C   C2602     1.0  0.46680  0.45405  0.53466  1.0000
  H   H2065     1.0  0.57318  0.19567  0.97810  1.0000
  C   C2603     1.0  0.55781  0.20563  0.95760  1.0000
  H   H2066     1.0  0.48794  0.45385  0.54701  1.0000
  H   H2067     1.0  0.46861  0.43973  0.53760  1.0000
  H   H2068     1.0  0.44089  0.49158  0.51520  1.0000
  C   C2604     1.0  0.44153  0.29873  0.50532  1.0000
  C   C2605     1.0  0.49062  0.35360  0.51091  1.0000
  C   C2606     1.0  0.49511  0.33783  0.50469  1.0000
  H   H2069     1.0  0.40465  0.48981  0.51699  1.0000
  H   H2070     1.0  0.51226  0.01844  0.93106  1.0000
  H   H2071     1.0  0.47546  0.38066  0.50822  1.0000
  H   H2072     1.0  0.49563  0.35415  0.52197  1.0000
  C   C2607     1.0  0.40236  0.08410  0.81338  1.0000
  C   C2608     1.0  0.45559  0.03477  0.97454  1.0000
  H   H2073     1.0  0.56297  0.03947  0.92217  1.0000
  C   C2609     1.0  0.40764  0.25698  0.80798  1.0000
  C   C2610     1.0  0.40689  0.49314  0.55793  1.0000
  C   C2611     1.0  0.40795  0.24869  0.62359  1.0000
  C   C2612     1.0  0.40152  0.40535  0.71262  1.0000
  C   C2613     1.0  0.52031  0.44318  0.49973  1.0000
  H   H2074     1.0  0.42713  0.24776  0.63855  1.0000
  C   C2614     1.0  0.41109  0.32890  0.60550  1.0000
  C   C2615     1.0  0.56251  0.43399  0.51240  1.0000
  S   S372      1.0  0.41348  0.17479  0.84135  1.0000
  C   C2616     1.0  0.52330  0.47234  0.50049  1.0000
  H   H2075     1.0  0.58631  0.25580  0.55082  1.0000
  C   C2617     1.0  0.41803  0.04067  0.93823  1.0000
  S   S373      1.0  0.41330  0.05058  0.95649  1.0000
  H   H2076     1.0  0.43348  0.26253  0.75329  1.0000
  C   C2618     1.0  0.58285  0.13366  0.95984  1.0000
  H   H2077     1.0  0.41910  0.33892  0.60035  1.0000
  C   C2619     1.0  0.49366  0.01473  0.91794  1.0000
  C   C2620     1.0  0.45762  0.22073  0.76033  1.0000
  C   C2621     1.0  0.45863  0.20325  0.75937  1.0000
  C   C2622     1.0  0.46439  0.19815  0.74295  1.0000
  C   C2623     1.0  0.46856  0.21070  0.72728  1.0000
  C   C2624     1.0  0.46808  0.22806  0.72824  1.0000
  C   C2625     1.0  0.46289  0.23298  0.74476  1.0000
  H   H2078     1.0  0.45470  0.19368  0.77119  1.0000
  H   H2079     1.0  0.46495  0.18466  0.74243  1.0000
  H   H2080     1.0  0.47175  0.23773  0.71624  1.0000
  H   H2081     1.0  0.46272  0.24638  0.74539  1.0000
  C   C2626     1.0  0.46127  0.15933  0.87146  1.0000
  C   C2627     1.0  0.47046  0.14521  0.88258  1.0000
  C   C2628     1.0  0.47003  0.14626  0.89993  1.0000
  C   C2629     1.0  0.46063  0.16164  0.90616  1.0000
  C   C2630     1.0  0.45170  0.17597  0.89495  1.0000
  C   C2631     1.0  0.45192  0.17478  0.87765  1.0000
  H   H2082     1.0  0.47750  0.13321  0.87791  1.0000
  H   H2083     1.0  0.47688  0.13513  0.90848  1.0000
  H   H2084     1.0  0.44444  0.18792  0.89973  1.0000
  H   H2085     1.0  0.44489  0.18578  0.86910  1.0000
  H   H2086     1.0  0.42619  0.35861  0.53930  1.0000
  C   C2632     1.0  0.51367  0.02059  0.80782  1.0000
  C   C2633     1.0  0.52451  0.01612  0.79201  1.0000
  C   C2634     1.0  0.54152  0.02000  0.78587  1.0000
  C   C2635     1.0  0.54803  0.02775  0.79583  1.0000
  C   C2636     1.0  0.53749  0.03149  0.81209  1.0000
  C   C2637     1.0  0.52018  0.02819  0.81795  1.0000
  C   C2638     1.0  0.44088  0.37062  0.75521  1.0000
  H   H2087     1.0  0.54947  0.01741  0.77316  1.0000
  C   C2639     1.0  0.45515  0.41759  0.70074  1.0000
  H   H2088     1.0  0.53992  0.21343  0.93976  1.0000
  C   C2640     1.0  0.48000  0.07758  0.88477  1.0000
  C   C2641     1.0  0.47644  0.06239  0.89757  1.0000
  C   C2642     1.0  0.47687  0.06096  0.91536  1.0000
  C   C2643     1.0  0.48063  0.07475  0.92049  1.0000
  C   C2644     1.0  0.48396  0.09006  0.90774  1.0000
  C   C2645     1.0  0.48375  0.09139  0.88990  1.0000
  H   H2089     1.0  0.47366  0.05164  0.89369  1.0000
  H   H2090     1.0  0.47414  0.04918  0.92523  1.0000
  H   H2091     1.0  0.48707  0.10069  0.91154  1.0000
  H   H2092     1.0  0.48690  0.10295  0.87994  1.0000
  C   C2646     1.0  0.54563  0.24292  0.61015  1.0000
  C   C2647     1.0  0.42702  0.99788  0.97096  1.0000
  H   H2093     1.0  0.57269  0.05007  0.86419  1.0000
  P   P87       1.0  0.41414  0.47968  0.57800  1.0000
  C   C2648     1.0  0.44047  0.27683  0.57548  1.0000
  H   H2094     1.0  0.44195  0.05075  0.92635  1.0000
  C   C2649     1.0  0.41453  0.15529  0.96090  1.0000
  H   H2095     1.0  0.43448  0.28617  0.56506  1.0000
  C   C2650     1.0  0.42082  0.27333  0.73089  1.0000
  C   C2651     1.0  0.50529  0.23356  0.91306  1.0000
  C   C2652     1.0  0.42738  0.02411  0.90928  1.0000
  C   C2653     1.0  0.41126  0.18750  0.69720  1.0000
  H   H2096     1.0  0.40925  0.32552  0.53945  1.0000
  H   H2097     1.0  0.51184  0.03166  0.83019  1.0000
  H   H2098     1.0  0.44940  0.03729  0.90011  1.0000
  C   C2654     1.0  0.45712  0.40058  0.69767  1.0000
  H   H2099     1.0  0.55275  0.25899  0.62374  1.0000
  H   H2100     1.0  0.53318  0.11477  0.89205  1.0000
  H   H2101     1.0  0.53976  0.23464  0.62232  1.0000
  P   P88       1.0  0.50673  0.36635  0.62541  1.0000
  C   C2655     1.0  0.49937  0.38743  0.63208  1.0000
  C   C2656     1.0  0.50999  0.40018  0.62580  1.0000
  C   C2657     1.0  0.50426  0.41632  0.63133  1.0000
  C   C2658     1.0  0.48759  0.42022  0.64254  1.0000
  C   C2659     1.0  0.47653  0.40796  0.64811  1.0000
  C   C2660     1.0  0.49321  0.36817  0.60993  1.0000
  C   C2661     1.0  0.47716  0.36221  0.61580  1.0000
  C   C2662     1.0  0.46643  0.36427  0.60383  1.0000
  C   C2663     1.0  0.47170  0.37223  0.58592  1.0000
  C   C2664     1.0  0.48746  0.37859  0.58008  1.0000
  C   C2665     1.0  0.49800  0.37683  0.59211  1.0000
  H   H2102     1.0  0.50868  0.32901  0.62792  1.0000
  H   H2103     1.0  0.52256  0.39793  0.61639  1.0000
  H   H2104     1.0  0.51271  0.42592  0.62652  1.0000
  H   H2105     1.0  0.48298  0.43299  0.64639  1.0000
  H   H2106     1.0  0.47288  0.35608  0.62961  1.0000
  H   H2107     1.0  0.45406  0.35961  0.60841  1.0000
  H   H2108     1.0  0.46352  0.37359  0.57660  1.0000
  H   H2109     1.0  0.49152  0.38493  0.56622  1.0000
  H   H2110     1.0  0.50987  0.38228  0.58753  1.0000
  C   C2666     1.0  0.45522  0.11135  0.80958  1.0000
  C   C2667     1.0  0.44879  0.11258  0.82735  1.0000
  C   C2668     1.0  0.45884  0.11795  0.83592  1.0000
  C   C2669     1.0  0.47531  0.12204  0.82682  1.0000
  C   C2670     1.0  0.48171  0.12126  0.80880  1.0000
  C   C2671     1.0  0.47157  0.11575  0.80026  1.0000
  P   P89       1.0  0.50356  0.12541  0.79741  1.0000
  C   C2672     1.0  0.50787  0.14321  0.80453  1.0000
  C   C2673     1.0  0.52021  0.10531  0.80229  1.0000
  C   C2674     1.0  0.53714  0.10285  0.79089  1.0000
  C   C2675     1.0  0.55007  0.08741  0.79473  1.0000
  C   C2676     1.0  0.54630  0.07438  0.81004  1.0000
  C   C2677     1.0  0.52952  0.07671  0.82146  1.0000
  C   C2678     1.0  0.51653  0.09208  0.81764  1.0000
  C   C2679     1.0  0.49374  0.15678  0.81006  1.0000
  C   C2680     1.0  0.49696  0.17057  0.81559  1.0000
  C   C2681     1.0  0.51434  0.17101  0.81553  1.0000
  C   C2682     1.0  0.52856  0.15770  0.80982  1.0000
  C   C2683     1.0  0.52537  0.14389  0.80426  1.0000
  C   C2684     1.0  0.50450  0.13243  0.77373  1.0000
  C   C2685     1.0  0.49965  0.15056  0.76584  1.0000
  C   C2686     1.0  0.50154  0.15601  0.74737  1.0000
  C   C2687     1.0  0.50810  0.14342  0.73669  1.0000
  C   C2688     1.0  0.51233  0.12532  0.74448  1.0000
  C   C2689     1.0  0.51038  0.11984  0.76294  1.0000
  H   H2111     1.0  0.44752  0.10671  0.80326  1.0000
  H   H2112     1.0  0.43613  0.10912  0.83452  1.0000
  H   H2113     1.0  0.45405  0.11864  0.84973  1.0000
  H   H2114     1.0  0.48303  0.12569  0.83399  1.0000
  H   H2115     1.0  0.47630  0.11465  0.78652  1.0000
  H   H2116     1.0  0.54038  0.11286  0.77903  1.0000
  H   H2117     1.0  0.56303  0.08538  0.78580  1.0000
  H   H2118     1.0  0.55638  0.06241  0.81289  1.0000
  H   H2119     1.0  0.52649  0.06654  0.83326  1.0000
  H   H2120     1.0  0.50366  0.09346  0.82674  1.0000
  H   H2121     1.0  0.48016  0.15668  0.81029  1.0000
  H   H2122     1.0  0.48584  0.18078  0.82014  1.0000
  H   H2123     1.0  0.51675  0.18169  0.81991  1.0000
  H   H2124     1.0  0.54205  0.15809  0.80971  1.0000
  H   H2125     1.0  0.53657  0.13377  0.79988  1.0000
  H   H2126     1.0  0.49462  0.16057  0.77384  1.0000
  H   H2127     1.0  0.49813  0.17007  0.74133  1.0000
  H   H2128     1.0  0.51001  0.14771  0.72236  1.0000
  H   H2129     1.0  0.51733  0.11553  0.73623  1.0000
  H   H2130     1.0  0.51375  0.10580  0.76874  1.0000
  C   C2690     1.0  0.42539  0.36430  0.73069  1.0000
  C   C2691     1.0  0.45557  0.25224  0.60243  1.0000
  C   C2692     1.0  0.45277  0.27049  0.60161  1.0000
  C   C2693     1.0  0.44528  0.28294  0.58804  1.0000
  P   P90       1.0  0.43961  0.30646  0.58800  1.0000
  C   C2694     1.0  0.41741  0.31204  0.60121  1.0000
  C   C2695     1.0  0.45442  0.31162  0.59847  1.0000
  C   C2696     1.0  0.45050  0.30954  0.61706  1.0000
  C   C2697     1.0  0.46185  0.31340  0.62540  1.0000
  C   C2698     1.0  0.47713  0.31938  0.61524  1.0000
  C   C2699     1.0  0.48097  0.32185  0.59676  1.0000
  C   C2700     1.0  0.46976  0.31787  0.58835  1.0000
  H   H2131     1.0  0.42851  0.27114  0.79399  1.0000
  C   C2701     1.0  0.50371  0.21429  0.94255  1.0000
  P   P91       1.0  0.46068  0.99848  0.97457  1.0000
  C   C2702     1.0  0.42094  0.44572  0.57112  1.0000
  C   C2703     1.0  0.59738  0.09196  0.84479  1.0000
  C   C2704     1.0  0.44224  0.31899  0.56524  1.0000
  C   C2705     1.0  0.43119  0.33568  0.56044  1.0000
  H   H2132     1.0  0.46120  0.24272  0.61306  1.0000
  H   H2133     1.0  0.45633  0.27474  0.61170  1.0000
  H   H2134     1.0  0.43880  0.30469  0.62519  1.0000
  H   H2135     1.0  0.45899  0.31145  0.63977  1.0000
  H   H2136     1.0  0.48610  0.32190  0.62171  1.0000
  H   H2137     1.0  0.49289  0.32651  0.58900  1.0000
  H   H2138     1.0  0.47324  0.31962  0.57403  1.0000
  H   H2139     1.0  0.54480  0.13606  0.94033  1.0000
  C   C2706     1.0  0.41413  0.14063  0.73523  1.0000
  H   H2140     1.0  0.52671  0.17450  0.98756  1.0000
  C   C2707     1.0  0.45018  0.01860  0.98303  1.0000
  C   C2708     1.0  0.42808  0.45823  0.57487  1.0000
  H   H2141     1.0  0.42760  0.23017  0.72846  1.0000
  H   H2142     1.0  0.42020  0.34129  0.57003  1.0000
  H   H2143     1.0  0.59426  0.28525  0.49684  1.0000
  H   H2144     1.0  0.46827  0.43870  0.69841  1.0000
  H   H2145     1.0  0.50303  0.14299  0.85211  1.0000
  C   C2709     1.0  0.41748  0.19043  0.73119  1.0000
  C   C2710     1.0  0.57457  0.08125  0.86946  1.0000
  H   H2146     1.0  0.53207  0.02785  0.85848  1.0000
  H   H2147     1.0  0.55051  0.12425  0.98715  1.0000
  H   H2148     1.0  0.51722  0.07236  0.88329  1.0000
  C   C2711     1.0  0.53409  0.14752  0.93803  1.0000
  C   C2712     1.0  0.42471  0.13482  0.87957  1.0000
  C   C2713     1.0  0.44186  0.37586  0.68789  1.0000
  C   C2714     1.0  0.53528  0.18325  0.97916  1.0000
  H   H2149     1.0  0.43264  0.08417  0.92839  1.0000
  C   C2715     1.0  0.52280  0.04953  0.87196  1.0000
  S   S374      1.0  0.40623  0.25729  0.67169  1.0000
  H   H2150     1.0  0.41538  0.34408  0.75210  1.0000
  C   C2716     1.0  0.46759  0.00459  0.93739  1.0000
  C   C2717     1.0  0.44871  0.42406  0.57208  1.0000
  C   C2718     1.0  0.53230  0.07575  0.91517  1.0000
  H   H2151     1.0  0.47712  0.27587  0.52404  1.0000
  C   C2719     1.0  0.41210  0.02155  0.92252  1.0000
  C   C2720     1.0  0.51272  0.13155  0.85712  1.0000
  C   C2721     1.0  0.44557  0.15343  0.69775  1.0000
  C   C2722     1.0  0.53591  0.03720  0.86348  1.0000
  C   C2723     1.0  0.52979  0.11543  0.87965  1.0000
  H   H2152     1.0  0.43655  0.33477  0.50224  1.0000
  H   H2153     1.0  0.51553  0.11832  0.83616  1.0000
  C   C2724     1.0  0.45475  0.34681  0.68051  1.0000
  C   C2725     1.0  0.48472  0.24392  0.93842  1.0000
  C   C2726     1.0  0.56772  0.42837  0.49627  1.0000
  S   S375      1.0  0.48912  0.49167  0.54131  1.0000
  H   H2154     1.0  0.45082  0.11755  0.87884  1.0000
  H   H2155     1.0  0.57620  0.21948  0.57476  1.0000
  H   H2156     1.0  0.53850  0.15992  0.95664  1.0000
  S   S376      1.0  0.52224  0.38881  0.53282  1.0000
  C   C2727     1.0  0.44883  0.35283  0.66463  1.0000
  P   P92       1.0  0.41867  0.17515  0.71748  1.0000
  H   H2157     1.0  0.40524  0.28275  0.71093  1.0000
  C   C2728     1.0  0.53811  0.38817  0.55968  1.0000
  H   H2158     1.0  0.52252  0.07207  0.91058  1.0000
  C   C2729     1.0  0.51980  0.11766  0.84807  1.0000
  H   H2159     1.0  0.40399  0.01310  0.92159  1.0000
  C   C2730     1.0  0.49367  0.18953  0.97638  1.0000
  C   C2731     1.0  0.45276  0.03860  0.79002  1.0000
  C   C2732     1.0  0.46269  0.05163  0.78120  1.0000
  C   C2733     1.0  0.45575  0.06672  0.76919  1.0000
  C   C2734     1.0  0.43897  0.06820  0.76580  1.0000
  P   P93       1.0  0.46870  0.08326  0.75669  1.0000
  C   C2735     1.0  0.45757  0.10535  0.76024  1.0000
  C   C2736     1.0  0.48963  0.07813  0.76359  1.0000
  C   C2737     1.0  0.48938  0.07760  0.78133  1.0000
  C   C2738     1.0  0.50521  0.07228  0.78750  1.0000
  C   C2739     1.0  0.52150  0.06805  0.77583  1.0000
  C   C2740     1.0  0.52197  0.06917  0.75796  1.0000
  C   C2741     1.0  0.50610  0.07423  0.75181  1.0000
  C   C2742     1.0  0.46640  0.11948  0.75224  1.0000
  C   C2743     1.0  0.45841  0.13657  0.75534  1.0000
  C   C2744     1.0  0.44150  0.13970  0.76635  1.0000
  C   C2745     1.0  0.43259  0.12574  0.77428  1.0000
  C   C2746     1.0  0.44058  0.10859  0.77135  1.0000
  C   C2747     1.0  0.47208  0.08213  0.73374  1.0000
  C   C2748     1.0  0.48022  0.06583  0.72861  1.0000
  C   C2749     1.0  0.48225  0.06442  0.71109  1.0000
  C   C2750     1.0  0.47590  0.07918  0.69863  1.0000
  C   C2751     1.0  0.46749  0.09538  0.70371  1.0000
  C   C2752     1.0  0.46556  0.09689  0.72120  1.0000
  H   H2160     1.0  0.56413  0.27933  0.59599  1.0000
  H   H2161     1.0  0.42927  0.34954  0.77388  1.0000
  H   H2162     1.0  0.45814  0.02714  0.79944  1.0000
  H   H2163     1.0  0.47578  0.04962  0.78383  1.0000
  H   H2164     1.0  0.43347  0.07952  0.75637  1.0000
  H   H2165     1.0  0.47680  0.08071  0.79051  1.0000
  H   H2166     1.0  0.50481  0.07107  0.80142  1.0000
  H   H2167     1.0  0.53377  0.06379  0.78066  1.0000
  H   H2168     1.0  0.53468  0.06572  0.74903  1.0000
  H   H2169     1.0  0.50681  0.07483  0.73797  1.0000
  H   H2170     1.0  0.47956  0.11722  0.74377  1.0000
  H   H2171     1.0  0.46541  0.14736  0.74949  1.0000
  H   H2172     1.0  0.43542  0.15285  0.76910  1.0000
  C   C2753     1.0  0.56157  0.19512  0.97380  1.0000
  H   H2173     1.0  0.43365  0.09794  0.77840  1.0000
  H   H2174     1.0  0.48489  0.05418  0.73824  1.0000
  H   H2175     1.0  0.48857  0.05179  0.70722  1.0000
  C   C2754     1.0  0.52339  0.14826  0.92651  1.0000
  H   H2176     1.0  0.46223  0.10668  0.69413  1.0000
  H   H2177     1.0  0.45869  0.10947  0.72488  1.0000
  C   C2755     1.0  0.47307  0.16059  0.70829  1.0000
  C   C2756     1.0  0.45535  0.16782  0.71529  1.0000
  C   C2757     1.0  0.44149  0.16442  0.70999  1.0000
  C   C2758     1.0  0.40705  0.29907  0.60886  1.0000
  C   C2759     1.0  0.59201  0.27070  0.52402  1.0000
  H   H2178     1.0  0.44223  0.42488  0.70643  1.0000
  C   C2760     1.0  0.57299  0.40397  0.52784  1.0000
  H   H2179     1.0  0.53917  0.22985  0.59335  1.0000
  H   H2180     1.0  0.53626  0.04036  0.91140  1.0000
  C   C2761     1.0  0.50525  0.17614  0.93350  1.0000
  H   H2181     1.0  0.42569  0.41929  0.56652  1.0000
  H   H2182     1.0  0.43500  0.15095  0.69324  1.0000
  H   H2183     1.0  0.52354  0.48141  0.50831  1.0000
  H   H2184     1.0  0.41175  0.28574  0.60642  1.0000
  C   C2762     1.0  0.40283  0.43635  0.68610  1.0000
  C   C2763     1.0  0.42127  0.26526  0.74864  1.0000
  H   H2185     1.0  0.55722  0.19457  0.53407  1.0000
  H   H2186     1.0  0.39983  0.13254  0.82722  1.0000
  H   H2187     1.0  0.50085  0.01959  0.90465  1.0000
  C   C2764     1.0  0.39999  0.20782  0.66593  1.0000
  H   H2188     1.0  0.48361  0.16422  0.71178  1.0000
  H   H2189     1.0  0.45255  0.17659  0.72432  1.0000
  C   C2765     1.0  0.53105  0.19411  0.96323  1.0000
  C   C2766     1.0  0.46234  0.49112  0.52682  1.0000
  C   C2767     1.0  0.46976  0.28395  0.51403  1.0000
  H   H2190     1.0  0.40796  0.30088  0.79164  1.0000
  C   C2768     1.0  0.58340  0.15045  0.96155  1.0000
  H   H2191     1.0  0.41000  0.05615  0.81348  1.0000
  C   C2769     1.0  0.55448  0.21789  0.54406  1.0000
  H   H2192     1.0  0.42399  0.01221  0.96933  1.0000
  C   C2770     1.0  0.40505  0.27681  0.72487  1.0000
  S   S377      1.0  0.58920  0.32415  0.50852  1.0000
  C   C2771     1.0  0.57468  0.99853  0.91207  1.0000
  C   C2772     1.0  0.54597  0.01435  0.90535  1.0000
  C   C2773     1.0  0.57846  0.19628  0.56498  1.0000
  C   C2774     1.0  0.41012  0.15850  0.94439  1.0000
  H   H2193     1.0  0.41190  0.47129  0.54483  1.0000
  H   H2194     1.0  0.44431  0.28291  0.53158  1.0000
  C   C2775     1.0  0.40106  0.30740  0.56380  1.0000
  H   H2195     1.0  0.48749  0.25933  0.91151  1.0000
  C   C2776     1.0  0.56122  0.20001  0.54305  1.0000
  C   C2777     1.0  0.54263  0.20512  0.95229  1.0000
  H   H2196     1.0  0.59841  0.16571  0.96804  1.0000
  H   H2197     1.0  0.39877  0.31694  0.57197  1.0000
  H   H2198     1.0  0.41847  0.16505  0.93268  1.0000
  C   C2778     1.0  0.41315  0.25058  0.63828  1.0000
  C   C2779     1.0  0.40995  0.14392  0.89011  1.0000
  C   C2780     1.0  0.52759  0.06237  0.87758  1.0000
  H   H2199     1.0  0.42841  0.13622  0.73132  1.0000
  Fe  Fe188     1.0  0.59173  0.02015  0.79701  1.0000
  H   H2200     1.0  0.41984  0.09135  0.87781  1.0000
  H   H2201     1.0  0.44224  0.08486  0.89600  1.0000
  C   C2781     1.0  0.55196  0.25160  0.57783  1.0000
  H   H2202     1.0  0.51710  0.45212  0.52377  1.0000
  C   C2782     1.0  0.54706  0.02875  0.91148  1.0000
  H   H2203     1.0  0.46585  0.03586  0.96251  1.0000
  H   H2204     1.0  0.47446  0.25420  0.94393  1.0000
  C   C2783     1.0  0.40468  0.08965  0.92840  1.0000
  C   C2784     1.0  0.53041  0.16108  0.94733  1.0000
  C   C2785     1.0  0.40718  0.03019  0.93683  1.0000
  C   C2786     1.0  0.40426  0.18496  0.89759  1.0000
  C   C2787     1.0  0.50007  0.01409  0.93278  1.0000
  C   C2788     1.0  0.40270  0.28899  0.79799  1.0000
  C   C2789     1.0  0.43598  0.04033  0.78675  1.0000
  C   C2790     1.0  0.55953  0.08611  0.90981  1.0000
  H   H2205     1.0  0.45670  0.41093  0.57096  1.0000
  C   C2791     1.0  0.42910  0.05510  0.77461  1.0000
  H   H2206     1.0  0.42861  0.21026  0.70953  1.0000
  H   H2207     1.0  0.50888  0.04951  0.87360  1.0000
  C   C2792     1.0  0.51986  0.45556  0.50936  1.0000
  C   C2793     1.0  0.42326  0.20654  0.72360  1.0000
  H   H2208     1.0  0.42409  0.12994  0.92930  1.0000
  C   C2794     1.0  0.55859  0.26582  0.57881  1.0000
  C   C2795     1.0  0.41157  0.18593  0.74978  1.0000
  C   C2796     1.0  0.43776  0.03511  0.91041  1.0000
  H   H2209     1.0  0.49597  0.33767  0.68961  1.0000
  H   H2210     1.0  0.40708  0.19368  0.77469  1.0000
  H   H2211     1.0  0.56494  0.09171  0.93252  1.0000
  C   C2797     1.0  0.49835  0.33595  0.67612  1.0000
  C   C2798     1.0  0.43984  0.37046  0.66008  1.0000
  C   C2799     1.0  0.43874  0.12271  0.90485  1.0000
  C   C2800     1.0  0.41657  0.20795  0.66848  1.0000
  H   H2212     1.0  0.57021  0.36304  0.62249  1.0000
  H   H2213     1.0  0.47034  0.31699  0.52484  1.0000
  H   H2214     1.0  0.53760  0.08341  0.95313  1.0000
  C   C2801     1.0  0.42277  0.21799  0.73431  1.0000
  S   S378      1.0  0.41973  0.40690  0.62879  1.0000
  H   H2215     1.0  0.45136  0.34690  0.51689  1.0000
  C   C2802     1.0  0.47710  0.14966  0.69612  1.0000
  H   H2216     1.0  0.47730  0.07801  0.68509  1.0000
  H   H2217     1.0  0.45152  0.46246  0.58064  1.0000
  C   C2803     1.0  0.46992  0.42541  0.69639  1.0000
  C   C2804     1.0  0.48680  0.41619  0.68928  1.0000
  C   C2805     1.0  0.48896  0.39905  0.68670  1.0000
  C   C2806     1.0  0.47420  0.39124  0.69092  1.0000
  H   H2218     1.0  0.51786  0.43006  0.50669  1.0000
  H   H2219     1.0  0.51686  0.07316  0.94210  1.0000
  H   H2220     1.0  0.46522  0.29972  0.55568  1.0000
  H   H2221     1.0  0.49664  0.30825  0.68427  1.0000
  H   H2222     1.0  0.43537  0.37504  0.64768  1.0000
  H   H2223     1.0  0.42949  0.39565  0.66770  1.0000
  C   C2807     1.0  0.45934  0.32215  0.53475  1.0000
  H   H2224     1.0  0.43058  0.42492  0.67789  1.0000
  S   S379      1.0  0.40810  0.20837  0.80677  1.0000
  H   H2225     1.0  0.46325  0.41135  0.65608  1.0000
  H   H2226     1.0  0.58128  0.34755  0.59728  1.0000
  H   H2227     1.0  0.57150  0.13190  0.95604  1.0000
  H   H2228     1.0  0.49819  0.42236  0.68572  1.0000
  H   H2229     1.0  0.50205  0.39195  0.68111  1.0000
  H   H2230     1.0  0.59296  0.48122  0.60213  1.0000
  C   C2808     1.0  0.57587  0.01306  0.91792  1.0000
  C   C2809     1.0  0.41554  0.09026  0.89203  1.0000
  H   H2231     1.0  0.47237  0.01054  0.90878  1.0000
  H   H2232     1.0  0.41715  0.22195  0.76101  1.0000
  H   H2233     1.0  0.57838  0.17534  0.55277  1.0000
  C   C2810     1.0  0.50160  0.27605  0.54837  1.0000
  C   C2811     1.0  0.49091  0.26361  0.55681  1.0000
  C   C2812     1.0  0.49845  0.24647  0.56504  1.0000
  C   C2813     1.0  0.51674  0.24168  0.56464  1.0000
  C   C2814     1.0  0.52764  0.25401  0.55591  1.0000
  C   C2815     1.0  0.51981  0.27137  0.54819  1.0000
  H   H2234     1.0  0.47357  0.38236  0.64708  1.0000
  H   H2235     1.0  0.42514  0.13622  0.86560  1.0000
  H   H2236     1.0  0.53433  0.01510  0.90050  1.0000
  C   C2816     1.0  0.49206  0.24682  0.92016  1.0000
  H   H2237     1.0  0.45102  0.34374  0.65597  1.0000
  C   C2817     1.0  0.57316  0.18919  0.55355  1.0000
  P   P94       1.0  0.51124  0.19328  0.95682  1.0000
  C   C2818     1.0  0.43446  0.34559  0.54297  1.0000
  C   C2819     1.0  0.47755  0.00976  0.92026  1.0000
  H   H2238     1.0  0.49581  0.28949  0.54229  1.0000
  H   H2239     1.0  0.47675  0.26736  0.55735  1.0000
  H   H2240     1.0  0.49006  0.23703  0.57215  1.0000
  H   H2241     1.0  0.52224  0.22849  0.57152  1.0000
  H   H2242     1.0  0.52764  0.28145  0.54220  1.0000
  C   C2820     1.0  0.42309  0.32496  0.71465  1.0000
  C   C2821     1.0  0.42397  0.13164  0.91546  1.0000
  C   C2822     1.0  0.55870  0.05007  0.86677  1.0000
  C   C2823     1.0  0.54519  0.24036  0.59367  1.0000
  H   H2243     1.0  0.54537  0.22617  0.53572  1.0000
  H   H2244     1.0  0.53794  0.37097  0.63491  1.0000
  H   H2245     1.0  0.56258  0.27557  0.56704  1.0000
  C   C2824     1.0  0.51114  0.21737  0.92420  1.0000
  H   H2246     1.0  0.55981  0.34001  0.58462  1.0000
  C   C2825     1.0  0.54923  0.48940  0.61959  1.0000
  C   C2826     1.0  0.50889  0.16250  0.92434  1.0000
  H   H2247     1.0  0.56937  0.10292  0.84708  1.0000
  H   H2248     1.0  0.57119  0.09047  0.90096  1.0000
  C   C2827     1.0  0.56085  0.36003  0.61671  1.0000
  C   C2828     1.0  0.58144  0.26147  0.53867  1.0000
  C   C2829     1.0  0.42319  0.35425  0.74812  1.0000
  C   C2830     1.0  0.46333  0.14605  0.69086  1.0000
  C   C2831     1.0  0.50504  0.33121  0.64136  1.0000
  C   C2832     1.0  0.55291  0.25666  0.61095  1.0000
  Fe  Fe189     1.0  0.41596  0.17861  0.81196  1.0000
  C   C2833     1.0  0.55928  0.26641  0.52131  1.0000
  C   C2834     1.0  0.45111  0.28796  0.51821  1.0000
  C   C2835     1.0  0.49052  0.22774  0.94960  1.0000
  C   C2836     1.0  0.57940  0.09306  0.85330  1.0000
  H   H2249     1.0  0.50288  0.30398  0.65354  1.0000
  H   H2250     1.0  0.46645  0.13802  0.68103  1.0000
  H   H2251     1.0  0.41627  0.48389  0.61298  1.0000
  H   H2252     1.0  0.41972  0.12809  0.78329  1.0000
  C   C2837     1.0  0.54780  0.08030  0.90338  1.0000
  S   S380      1.0  0.58973  0.00438  0.82493  1.0000
  H   H2253     1.0  0.54161  0.99753  0.84051  1.0000
  H   H2254     1.0  0.43531  0.19793  0.68541  1.0000
  C   C2838     1.0  0.45134  0.35821  0.69210  1.0000
  H   H2255     1.0  0.54374  0.37434  0.55968  1.0000
  H   H2256     1.0  0.48463  0.22580  0.96369  1.0000
  H   H2257     1.0  0.50170  0.20392  0.99128  1.0000
  H   H2258     1.0  0.45067  0.39102  0.73410  1.0000
  H   H2259     1.0  0.46943  0.43259  0.57798  1.0000
  H   H2260     1.0  0.54245  0.03749  0.81983  1.0000
  C   C2839     1.0  0.42280  0.08676  0.92043  1.0000
  H   H2261     1.0  0.40061  0.08932  0.94254  1.0000
  H   H2262     1.0  0.54683  0.26466  0.51981  1.0000
  H   H2263     1.0  0.43899  0.25400  0.56692  1.0000
  C   C2840     1.0  0.40606  0.26037  0.76034  1.0000
  H   H2264     1.0  0.40901  0.33303  0.67615  1.0000
  H   H2265     1.0  0.55617  0.44773  0.51279  1.0000
  C   C2841     1.0  0.54063  0.08228  0.93934  1.0000
  H   H2266     1.0  0.51187  0.14107  0.88012  1.0000
  C   C2842     1.0  0.42632  0.49200  0.58455  1.0000
  C   C2843     1.0  0.41262  0.33290  0.70196  1.0000
  C   C2844     1.0  0.56206  0.02820  0.91763  1.0000
  C   C2845     1.0  0.42822  0.08696  0.90225  1.0000
  C   C2846     1.0  0.51772  0.13044  0.87290  1.0000
  C   C2847     1.0  0.55598  0.08701  0.92771  1.0000
  C   C2848     1.0  0.55941  0.26807  0.59530  1.0000
  C   C2849     1.0  0.43917  0.12437  0.88693  1.0000
  C   C2850     1.0  0.55949  0.22500  0.55575  1.0000
  Fe  Fe190     1.0  0.43863  0.40157  0.49965  1.0000
  C   C2851     1.0  0.44733  0.05014  0.98125  1.0000
  C   C2852     1.0  0.41783  0.40750  0.70081  1.0000
  C   C2853     1.0  0.48237  0.39162  0.64289  1.0000
  C   C2854     1.0  0.44316  0.25859  0.57640  1.0000
  H   H2267     1.0  0.41599  0.05653  0.77223  1.0000
  C   C2855     1.0  0.52889  0.07654  0.93309  1.0000
  H   H2268     1.0  0.56661  0.21429  0.94925  1.0000
  C   C2856     1.0  0.50230  0.31695  0.65577  1.0000
  C   C2857     1.0  0.50335  0.34819  0.64426  1.0000
  P   P95       1.0  0.41747  0.30566  0.51098  1.0000
  C   C2858     1.0  0.45629  0.31231  0.55220  1.0000
  C   C2859     1.0  0.53029  0.36131  0.61584  1.0000
  H   H2269     1.0  0.52761  0.34870  0.59613  1.0000
  C   C2860     1.0  0.43126  0.42879  0.56957  1.0000
  C   C2861     1.0  0.44861  0.33892  0.53022  1.0000
  C   C2862     1.0  0.54253  0.36471  0.62357  1.0000
  C   C2863     1.0  0.53669  0.35226  0.60181  1.0000
  H   H2270     1.0  0.45263  0.23214  0.59079  1.0000
  H   H2271     1.0  0.45599  0.35311  0.70441  1.0000
  C   C2864     1.0  0.57175  0.21416  0.56601  1.0000
  C   C2865     1.0  0.53694  0.10137  0.87059  1.0000
  H   H2272     1.0  0.43282  0.27663  0.72171  1.0000
  H   H2273     1.0  0.49088  0.14443  0.69040  1.0000
  C   C2866     1.0  0.49888  0.31933  0.67314  1.0000
  C   C2867     1.0  0.50057  0.35036  0.66174  1.0000
  C   C2868     1.0  0.55502  0.34727  0.59523  1.0000
  H   H2274     1.0  0.50025  0.36306  0.66431  1.0000
  P   P96       1.0  0.55095  0.24812  0.55673  1.0000
  P   P97       1.0  0.55141  0.08122  0.87979  1.0000
  H   H2275     1.0  0.42614  0.15933  0.96179  1.0000
  H   H2276     1.0  0.44992  0.11454  0.91054  1.0000
  C   C2869     1.0  0.44564  0.45332  0.57743  1.0000
  C   C2870     1.0  0.58621  0.27781  0.50807  1.0000
  C   C2871     1.0  0.43536  0.37761  0.72537  1.0000
  C   C2872     1.0  0.56516  0.42180  0.52817  1.0000
  C   C2873     1.0  0.42339  0.34031  0.49952  1.0000
  H   H2277     1.0  0.55035  0.38818  0.58067  1.0000
  H   H2278     1.0  0.41914  0.36182  0.72136  1.0000
  C   C2874     1.0  0.43646  0.38203  0.67157  1.0000
  C   C2875     1.0  0.58797  0.06830  0.87689  1.0000
  H   H2279     1.0  0.47616  0.37804  0.68864  1.0000
  C   C2876     1.0  0.45588  0.43630  0.57602  1.0000
  H   H2280     1.0  0.52144  0.20725  0.91848  1.0000
  H   H2281     1.0  0.50018  0.16277  0.91590  1.0000
  H   H2282     1.0  0.51097  0.23579  0.89889  1.0000
  C   C2877     1.0  0.43097  0.35736  0.76037  1.0000
  P   P98       1.0  0.43800  0.39059  0.70283  1.0000
  H   H2283     1.0  0.58453  0.05859  0.88898  1.0000
  C   C2878     1.0  0.43343  0.04286  0.92516  1.0000
  H   H2284     1.0  0.49986  0.40582  0.50016  1.0000
  H   H2285     1.0  0.46172  0.33313  0.68399  1.0000
  H   H2286     1.0  0.49372  0.18688  0.93191  1.0000
  H   H2287     1.0  0.56085  0.42606  0.54074  1.0000
  H   H2288     1.0  0.53719  0.09205  0.84745  1.0000
  H   H2289     1.0  0.52602  0.13752  0.91967  1.0000
  C   C2879     1.0  0.55387  0.03732  0.86106  1.0000
  C   C2880     1.0  0.53197  0.10272  0.85464  1.0000
  C   C2881     1.0  0.54558  0.06285  0.87498  1.0000
  Fe  Fe191     1.0  0.41257  0.39906  0.53535  1.0000
  H   H2290     1.0  0.49514  0.00877  0.96131  1.0000
  C   C2882     1.0  0.42228  0.19772  0.68390  1.0000
  C   C2883     1.0  0.40580  0.15866  0.73048  1.0000
  H   H2291     1.0  0.48172  0.17449  0.96563  1.0000
  C   C2884     1.0  0.41714  0.32712  0.68594  1.0000
  C   C2885     1.0  0.41430  0.27229  0.79938  1.0000
  H   H2292     1.0  0.40493  0.03367  0.87864  1.0000
  C   C2886     1.0  0.41128  0.19738  0.76040  1.0000
  H   H2293     1.0  0.40922  0.39752  0.59965  1.0000
  C   C2887     1.0  0.40997  0.29980  0.53480  1.0000
  H   H2294     1.0  0.56111  0.31611  0.49747  1.0000
  H   H2295     1.0  0.42822  0.03031  0.79377  1.0000
  C   C2888     1.0  0.41830  0.42306  0.68741  1.0000
  H   H2296     1.0  0.40327  0.44833  0.67579  1.0000
  H   H2297     1.0  0.40922  0.45032  0.60884  1.0000
  H   H2298     1.0  0.40997  0.43459  0.64940  1.0000
  H   H2299     1.0  0.42496  0.21615  0.65856  1.0000
  C   C2889     1.0  0.59797  0.15273  0.96655  1.0000
  C   C2890     1.0  0.40047  0.06838  0.81023  1.0000
  H   H2300     1.0  0.41409  0.20739  0.87968  1.0000
  C   C2891     1.0  0.55032  0.18389  0.98455  1.0000
  H   H2301     1.0  0.58783  0.18794  0.57303  1.0000
  C   C2892     1.0  0.42441  0.49192  0.60257  1.0000
  H   H2302     1.0  0.44685  0.37307  0.76473  1.0000
  H   H2303     1.0  0.40955  0.27265  0.53512  1.0000
  C   C2893     1.0  0.40434  0.14642  0.97612  1.0000
  C   C2894     1.0  0.47391  0.00399  0.95237  1.0000
  C   C2895     1.0  0.40020  0.25583  0.65272  1.0000
  H   H2304     1.0  0.58757  0.01247  0.92270  1.0000
  H   H2305     1.0  0.50927  0.99907  0.85302  1.0000
  S   S381      1.0  0.48834  0.49522  0.58948  1.0000
  H   H2306     1.0  0.42717  0.09673  0.98700  1.0000
  H   H2307     1.0  0.40670  0.25357  0.77394  1.0000
  C   C2896     1.0  0.59676  0.11908  0.96335  1.0000
  C   C2897     1.0  0.40708  0.31217  0.54537  1.0000
  C   C2898     1.0  0.40758  0.48541  0.54390  1.0000
  H   H2308     1.0  0.40134  0.05830  0.89336  1.0000
  S   S382      1.0  0.41077  0.39719  0.50858  1.0000
  H   H2309     1.0  0.59592  0.10617  0.96217  1.0000
  C   C2899     1.0  0.41115  0.32944  0.50281  1.0000
  C   C2900     1.0  0.40674  0.29444  0.50135  1.0000
  H   H2310     1.0  0.39895  0.42941  0.59973  1.0000
  H   H2311     1.0  0.40745  0.17347  0.75631  1.0000
  H   H2312     1.0  0.45803  0.16950  0.99227  1.0000
  H   H2313     1.0  0.58419  0.38440  0.51191  1.0000
  H   H2314     1.0  0.40796  0.14367  0.98888  1.0000
  C   C2901     1.0  0.40715  0.28254  0.54294  1.0000
  H   H2315     1.0  0.39911  0.15246  0.88411  1.0000
  H   H2316     1.0  0.51948  0.01031  0.78413  1.0000
  C   C2902     1.0  0.55976  0.99913  0.90562  1.0000
  H   H2317     1.0  0.40730  0.44897  0.56955  1.0000
  C   C2903     1.0  0.40360  0.20311  0.89061  1.0000
  S   S383      1.0  0.40201  0.42870  0.53083  1.0000
  H   H2318     1.0  0.40046  0.39341  0.72281  1.0000
  S   S384      1.0  0.40031  0.38058  0.56002  1.0000
  C   C2904     1.0  0.46753  0.17713  0.99194  1.0000
  C   C2905     1.0  0.49227  0.19643  0.99124  1.0000
  H   H2319     1.0  0.39971  0.10439  0.84895  1.0000
  C   C2906     1.0  0.59834  0.49315  0.59757  1.0000
  C   C2907     1.0  0.48005  0.42968  0.49466  1.0000
  H   H2320     1.0  0.56546  0.28112  0.49426  1.0000
  H   H2321     1.0  0.49345  0.28803  0.49404  1.0000
  H   H2322     1.0  0.54642  0.40114  0.49434  1.0000
  H   H2323     1.0  0.50391  0.56263  0.46420  1.0000
  S   S385      1.0  0.40360  0.83355  0.20759  1.0000
  C   C2908     1.0  0.46416  0.50144  0.41155  1.0000
  C   C2909     1.0  0.55392  0.49725  0.47303  1.0000
  C   C2910     1.0  0.46918  0.98155  0.00786  1.0000
  C   C2911     1.0  0.55498  0.95823  0.00797  1.0000
  Fe  Fe192     1.0  0.51018  0.95822  0.11732  1.0000
  S   S386      1.0  0.51821  0.93114  0.13387  1.0000
  H   H2324     1.0  0.53394  0.98205  0.00928  1.0000
  Fe  Fe193     1.0  0.49698  0.94318  0.09301  1.0000
  S   S387      1.0  0.50485  0.91494  0.10732  1.0000
  S   S388      1.0  0.48522  0.94800  0.06900  1.0000
  Fe  Fe194     1.0  0.49255  0.92616  0.13179  1.0000
  S   S389      1.0  0.47638  0.91080  0.15567  1.0000
  Fe  Fe195     1.0  0.52970  0.92254  0.10796  1.0000
  S   S390      1.0  0.55838  0.90794  0.10447  1.0000
  S   S391      1.0  0.48323  0.95415  0.11748  1.0000
  S   S392      1.0  0.52309  0.94989  0.09139  1.0000
  Fe  Fe196     1.0  0.44267  0.74951  0.16736  1.0000
  S   S393      1.0  0.43565  0.72764  0.19053  1.0000
  S   S394      1.0  0.42604  0.77656  0.16011  1.0000
  Fe  Fe197     1.0  0.47478  0.72594  0.14930  1.0000
  S   S395      1.0  0.47088  0.70166  0.17096  1.0000
  S   S396      1.0  0.49405  0.72742  0.12278  1.0000
  Fe  Fe198     1.0  0.44179  0.71109  0.17026  1.0000
  S   S397      1.0  0.42430  0.69219  0.17269  1.0000
  Fe  Fe199     1.0  0.46506  0.72021  0.18957  1.0000
  S   S398      1.0  0.47518  0.71115  0.21508  1.0000
  S   S399      1.0  0.44623  0.73359  0.14708  1.0000
  S   S400      1.0  0.47157  0.74372  0.16788  1.0000
  Fe  Fe200     1.0  0.56432  0.83423  0.06228  1.0000
  S   S401      1.0  0.54303  0.83064  0.08690  1.0000
  H   H2325     1.0  0.54983  0.57689  0.48915  1.0000
  Fe  Fe201     1.0  0.54670  0.81994  0.04159  1.0000
  S   S402      1.0  0.52367  0.81508  0.06449  1.0000
  Fe  Fe202     1.0  0.52452  0.84166  0.06823  1.0000
  S   S403      1.0  0.50057  0.86276  0.07466  1.0000
  Fe  Fe203     1.0  0.54441  0.80433  0.08109  1.0000
  S   S404      1.0  0.54529  0.78099  0.10447  1.0000
  S   S405      1.0  0.54568  0.84756  0.04394  1.0000
  S   S406      1.0  0.56762  0.80690  0.05785  1.0000
  Fe  Fe204     1.0  0.42396  0.88816  0.03550  1.0000
  S   S407      1.0  0.41296  0.88211  0.06504  1.0000
  S   S408      1.0  0.45046  0.87360  0.02253  1.0000
  C   C2912     1.0  0.41294  0.61854  0.18110  1.0000
  Fe  Fe205     1.0  0.40782  0.91167  0.06199  1.0000
  S   S409      1.0  0.41256  0.92406  0.08206  1.0000
  C   C2913     1.0  0.41357  0.98494  0.04698  1.0000
  S   S410      1.0  0.42075  0.91736  0.03308  1.0000
  H   H2326     1.0  0.53010  0.57404  0.31044  1.0000
  Fe  Fe206     1.0  0.41261  0.72130  0.30383  1.0000
  S   S411      1.0  0.42660  0.69269  0.30922  1.0000
  S   S412      1.0  0.41714  0.74101  0.27771  1.0000
  Fe  Fe207     1.0  0.42453  0.69617  0.33679  1.0000
  S   S413      1.0  0.44882  0.68130  0.34834  1.0000
  C   C2914     1.0  0.57809  0.97015  0.10233  1.0000
  S   S414      1.0  0.41244  0.72559  0.33060  1.0000
  Fe  Fe208     1.0  0.49267  0.60474  0.43978  1.0000
  S   S415      1.0  0.46681  0.62470  0.43970  1.0000
  S   S416      1.0  0.49981  0.58140  0.42612  1.0000
  Fe  Fe209     1.0  0.50439  0.62208  0.46390  1.0000
  S   S417      1.0  0.47944  0.64353  0.46496  1.0000
  C   C2915     1.0  0.41486  0.63680  0.28313  1.0000
  Fe  Fe210     1.0  0.46542  0.62150  0.46867  1.0000
  C   C2916     1.0  0.57141  0.94207  0.03920  1.0000
  Fe  Fe211     1.0  0.48320  0.64475  0.43569  1.0000
  S   S418      1.0  0.47927  0.67120  0.41614  1.0000
  S   S419      1.0  0.48998  0.59990  0.46935  1.0000
  S   S420      1.0  0.50953  0.62499  0.43408  1.0000
  Fe  Fe212     1.0  0.43895  0.56433  0.32500  1.0000
  S   S421      1.0  0.44326  0.53463  0.33408  1.0000
  S   S422      1.0  0.42600  0.58037  0.30201  1.0000
  Fe  Fe213     1.0  0.45395  0.56836  0.35499  1.0000
  S   S423      1.0  0.45894  0.53909  0.36680  1.0000
  S   S424      1.0  0.45850  0.59014  0.36542  1.0000
  Fe  Fe214     1.0  0.46939  0.53624  0.33841  1.0000
  Fe  Fe215     1.0  0.58377  0.50841  0.34592  1.0000
  Fe  Fe216     1.0  0.43241  0.54002  0.36150  1.0000
  S   S425      1.0  0.41287  0.52488  0.38155  1.0000
  S   S426      1.0  0.46625  0.56558  0.32676  1.0000
  S   S427      1.0  0.42635  0.56960  0.35211  1.0000
  C   C2917     1.0  0.40967  0.60919  0.36804  1.0000
  H   H2327     1.0  0.52561  0.94291  0.24424  1.0000
  C   C2918     1.0  0.48435  0.64974  0.23068  1.0000
  H   H2328     1.0  0.44119  0.50009  0.40276  1.0000
  C   C2919     1.0  0.43251  0.60016  0.48964  1.0000
  C   C2920     1.0  0.49834  0.73395  0.01201  1.0000
  H   H2329     1.0  0.41054  0.64758  0.42256  1.0000
  C   C2921     1.0  0.39884  0.77153  0.09907  1.0000
  H   H2330     1.0  0.46263  0.53906  0.43734  1.0000
  C   C2922     1.0  0.40259  0.68556  0.38725  1.0000
  H   H2331     1.0  0.43696  0.64017  0.18734  1.0000
  C   C2923     1.0  0.50629  0.58226  0.25181  1.0000
  C   C2924     1.0  0.49965  0.95830  0.99392  1.0000
  C   C2925     1.0  0.52991  0.51787  0.29100  1.0000
  C   C2926     1.0  0.40565  0.66650  0.46342  1.0000
  H   H2332     1.0  0.46295  0.91867  0.02505  1.0000
  C   C2927     1.0  0.54636  0.50303  0.41627  1.0000
  H   H2333     1.0  0.39987  0.80127  0.23208  1.0000
  C   C2928     1.0  0.48836  0.65837  0.26076  1.0000
  C   C2929     1.0  0.48786  0.58339  0.40972  1.0000
  C   C2930     1.0  0.47677  0.59953  0.40376  1.0000
  C   C2931     1.0  0.46765  0.60115  0.39050  1.0000
  C   C2932     1.0  0.46955  0.58671  0.38284  1.0000
  C   C2933     1.0  0.48053  0.57040  0.38883  1.0000
  C   C2934     1.0  0.48968  0.56877  0.40224  1.0000
  H   H2334     1.0  0.47539  0.61096  0.40911  1.0000
  H   H2335     1.0  0.45897  0.61371  0.38622  1.0000
  H   H2336     1.0  0.48208  0.55916  0.38303  1.0000
  H   H2337     1.0  0.49834  0.55627  0.40664  1.0000
  C   C2935     1.0  0.45230  0.67993  0.36961  1.0000
  C   C2936     1.0  0.45708  0.69406  0.37307  1.0000
  C   C2937     1.0  0.46463  0.69139  0.38783  1.0000
  C   C2938     1.0  0.46753  0.67457  0.39921  1.0000
  C   C2939     1.0  0.46181  0.66068  0.39634  1.0000
  C   C2940     1.0  0.45434  0.66334  0.38153  1.0000
  H   H2338     1.0  0.45602  0.70677  0.36374  1.0000
  H   H2339     1.0  0.46895  0.70222  0.38997  1.0000
  H   H2340     1.0  0.46402  0.64764  0.40490  1.0000
  H   H2341     1.0  0.45098  0.65225  0.37885  1.0000
  C   C2941     1.0  0.56423  0.57955  0.40207  1.0000
  C   C2942     1.0  0.48763  0.86738  0.05892  1.0000
  C   C2943     1.0  0.49365  0.85916  0.04436  1.0000
  C   C2944     1.0  0.48266  0.86194  0.03243  1.0000
  C   C2945     1.0  0.46544  0.87243  0.03546  1.0000
  C   C2946     1.0  0.45982  0.88127  0.04955  1.0000
  C   C2947     1.0  0.47095  0.87886  0.06121  1.0000
  H   H2342     1.0  0.50661  0.85038  0.04253  1.0000
  H   H2343     1.0  0.48733  0.85549  0.02127  1.0000
  H   H2344     1.0  0.44681  0.88983  0.05168  1.0000
  H   H2345     1.0  0.46644  0.88549  0.07228  1.0000
  C   C2948     1.0  0.46019  0.72055  0.23249  1.0000
  C   C2949     1.0  0.46115  0.71249  0.25024  1.0000
  C   C2950     1.0  0.44797  0.71863  0.26424  1.0000
  C   C2951     1.0  0.43420  0.73329  0.26054  1.0000
  C   C2952     1.0  0.43393  0.74200  0.24283  1.0000
  C   C2953     1.0  0.44670  0.73549  0.22884  1.0000
  H   H2346     1.0  0.47161  0.70103  0.25317  1.0000
  H   H2347     1.0  0.44848  0.71207  0.27787  1.0000
  H   H2348     1.0  0.42364  0.75360  0.23982  1.0000
  H   H2349     1.0  0.44615  0.74212  0.21522  1.0000
  C   C2954     1.0  0.50711  0.74329  0.11836  1.0000
  C   C2955     1.0  0.50873  0.75545  0.10197  1.0000
  C   C2956     1.0  0.51997  0.76751  0.09776  1.0000
  C   C2957     1.0  0.53001  0.76710  0.10978  1.0000
  C   C2958     1.0  0.52821  0.75508  0.12628  1.0000
  C   C2959     1.0  0.51660  0.74336  0.13067  1.0000
  H   H2350     1.0  0.50113  0.75563  0.09261  1.0000
  H   H2351     1.0  0.52122  0.77680  0.08506  1.0000
  H   H2352     1.0  0.53591  0.75475  0.13566  1.0000
  H   H2353     1.0  0.51543  0.73398  0.14334  1.0000
  H   H2354     1.0  0.41001  0.58340  0.44557  1.0000
  Fe  Fe217     1.0  0.39919  0.68685  0.31951  1.0000
  C   C2960     1.0  0.40223  0.66744  0.39238  1.0000
  C   C2961     1.0  0.48268  0.50011  0.40677  1.0000
  C   C2962     1.0  0.55344  0.56922  0.37328  1.0000
  H   H2355     1.0  0.57116  0.95568  0.08700  1.0000
  H   H2356     1.0  0.53031  0.51622  0.39680  1.0000
  H   H2357     1.0  0.56108  0.86866  0.00063  1.0000
  H   H2358     1.0  0.54505  0.59344  0.31832  1.0000
  C   C2963     1.0  0.58561  0.54852  0.38838  1.0000
  C   C2964     1.0  0.45558  0.49828  0.39986  1.0000
  C   C2965     1.0  0.41029  0.80863  0.16795  1.0000
  C   C2966     1.0  0.42150  0.79232  0.17307  1.0000
  C   C2967     1.0  0.42828  0.78893  0.18834  1.0000
  C   C2968     1.0  0.45257  0.54434  0.42947  1.0000
  C   C2969     1.0  0.40083  0.49979  0.45401  1.0000
  H   H2359     1.0  0.43712  0.77634  0.19223  1.0000
  C   C2970     1.0  0.56557  0.89088  0.09256  1.0000
  C   C2971     1.0  0.58325  0.88139  0.09117  1.0000
  H   H2360     1.0  0.56593  0.52829  0.29757  1.0000
  C   C2972     1.0  0.57838  0.86356  0.07345  1.0000
  C   C2973     1.0  0.56064  0.87302  0.07484  1.0000
  C   C2974     1.0  0.55425  0.88679  0.08430  1.0000
  H   H2361     1.0  0.49462  0.91466  0.02578  1.0000
  H   H2362     1.0  0.42859  0.79938  0.21047  1.0000
  H   H2363     1.0  0.55184  0.86979  0.06856  1.0000
  H   H2364     1.0  0.54058  0.89410  0.08532  1.0000
  C   C2975     1.0  0.45373  0.91285  0.15616  1.0000
  C   C2976     1.0  0.44401  0.90159  0.16963  1.0000
  C   C2977     1.0  0.42578  0.90324  0.17064  1.0000
  C   C2978     1.0  0.41715  0.91629  0.15833  1.0000
  C   C2979     1.0  0.42686  0.92759  0.14490  1.0000
  C   C2980     1.0  0.44516  0.92576  0.14369  1.0000
  H   H2365     1.0  0.45056  0.89159  0.17932  1.0000
  H   H2366     1.0  0.41826  0.89474  0.18119  1.0000
  H   H2367     1.0  0.45256  0.93443  0.13322  1.0000
  C   C2981     1.0  0.46609  0.93906  0.07385  1.0000
  C   C2982     1.0  0.46323  0.93119  0.06148  1.0000
  C   C2983     1.0  0.44720  0.92558  0.06441  1.0000
  C   C2984     1.0  0.43370  0.92854  0.07931  1.0000
  C   C2985     1.0  0.43676  0.93603  0.09187  1.0000
  C   C2986     1.0  0.45306  0.94091  0.08935  1.0000
  H   H2368     1.0  0.47336  0.92948  0.04960  1.0000
  H   H2369     1.0  0.44501  0.91957  0.05486  1.0000
  H   H2370     1.0  0.42641  0.93822  0.10350  1.0000
  H   H2371     1.0  0.45528  0.94667  0.09911  1.0000
  C   C2987     1.0  0.40642  0.68763  0.26778  1.0000
  C   C2988     1.0  0.52299  0.57995  0.36913  1.0000
  C   C2989     1.0  0.55814  0.52094  0.29423  1.0000
  C   C2990     1.0  0.53972  0.51269  0.35601  1.0000
  C   C2991     1.0  0.52322  0.52406  0.36054  1.0000
  C   C2992     1.0  0.50930  0.52545  0.35234  1.0000
  H   H2372     1.0  0.57875  0.52092  0.48237  1.0000
  C   C2993     1.0  0.53472  0.84841  0.00278  1.0000
  C   C2994     1.0  0.58559  0.53132  0.43824  1.0000
  H   H2373     1.0  0.52128  0.53225  0.36995  1.0000
  H   H2374     1.0  0.49683  0.53472  0.35542  1.0000
  H   H2375     1.0  0.41955  0.97467  0.12532  1.0000
  C   C2995     1.0  0.57535  0.50982  0.47963  1.0000
  C   C2996     1.0  0.44471  0.58542  0.48411  1.0000
  H   H2376     1.0  0.54024  0.56890  0.41248  1.0000
  H   H2377     1.0  0.45649  0.96701  0.16126  1.0000
  H   H2378     1.0  0.52882  0.84908  0.01646  1.0000
  C   C2997     1.0  0.40500  0.82130  0.17848  1.0000
  C   C2998     1.0  0.55351  0.96548  0.15027  1.0000
  C   C2999     1.0  0.54003  0.96610  0.14168  1.0000
  H   H2379     1.0  0.46156  0.98814  0.08088  1.0000
  C   C3000     1.0  0.54501  0.97487  0.00092  1.0000
  H   H2380     1.0  0.48960  0.66192  0.27240  1.0000
  H   H2381     1.0  0.55936  0.95301  0.15808  1.0000
  H   H2382     1.0  0.53565  0.95412  0.14280  1.0000
  H   H2383     1.0  0.56751  0.75698  0.06608  1.0000
  C   C3001     1.0  0.54603  0.74403  0.06945  1.0000
  H   H2384     1.0  0.56728  0.89601  0.14082  1.0000
  H   H2385     1.0  0.50171  0.94679  0.02125  1.0000
  C   C3002     1.0  0.44160  0.63703  0.19960  1.0000
  H   H2386     1.0  0.49787  0.67096  0.21565  1.0000
  H   H2387     1.0  0.40278  0.66139  0.20380  1.0000
  C   C3003     1.0  0.54832  0.57692  0.41434  1.0000
  S   S428      1.0  0.41369  0.55044  0.49159  1.0000
  C   C3004     1.0  0.51667  0.53481  0.46812  1.0000
  C   C3005     1.0  0.50342  0.54945  0.47241  1.0000
  H   H2388     1.0  0.54269  0.89359  0.02012  1.0000
  C   C3006     1.0  0.57240  0.93050  0.05577  1.0000
  H   H2389     1.0  0.58583  0.64440  0.40463  1.0000
  S   S429      1.0  0.55744  0.51200  0.36543  1.0000
  C   C3007     1.0  0.41517  0.50836  0.44672  1.0000
  H   H2390     1.0  0.40656  0.79267  0.07787  1.0000
  C   C3008     1.0  0.49301  0.78508  0.03836  1.0000
  H   H2391     1.0  0.52722  0.53697  0.45645  1.0000
  C   C3009     1.0  0.49585  0.59946  0.24814  1.0000
  H   H2392     1.0  0.58722  0.98626  0.11423  1.0000
  C   C3010     1.0  0.49107  0.91466  0.01361  1.0000
  P   P99       1.0  0.57144  0.57014  0.38244  1.0000
  C   C3011     1.0  0.49676  0.66038  0.34771  1.0000
  C   C3012     1.0  0.42800  0.97023  0.04736  1.0000
  C   C3013     1.0  0.47970  0.57085  0.26717  1.0000
  C   C3014     1.0  0.49823  0.56798  0.26144  1.0000
  C   C3015     1.0  0.47726  0.60247  0.25417  1.0000
  C   C3016     1.0  0.46923  0.58796  0.26338  1.0000
  P   P100      1.0  0.46371  0.62471  0.25034  1.0000
  C   C3017     1.0  0.44592  0.62659  0.26979  1.0000
  C   C3018     1.0  0.42873  0.63635  0.26812  1.0000
  C   C3019     1.0  0.40619  0.60354  0.19094  1.0000
  S   S430      1.0  0.43954  0.61957  0.48838  1.0000
  C   C3020     1.0  0.43512  0.61819  0.30177  1.0000
  C   C3021     1.0  0.44906  0.61774  0.28680  1.0000
  C   C3022     1.0  0.45454  0.62931  0.23080  1.0000
  C   C3023     1.0  0.45431  0.61546  0.22321  1.0000
  C   C3024     1.0  0.44159  0.98179  0.10443  1.0000
  C   C3025     1.0  0.58594  0.94997  0.02964  1.0000
  H   H2393     1.0  0.44369  0.52250  0.46386  1.0000
  C   C3026     1.0  0.44779  0.64699  0.22285  1.0000
  H   H2394     1.0  0.47338  0.55985  0.27477  1.0000
  H   H2395     1.0  0.50633  0.55471  0.26450  1.0000
  H   H2396     1.0  0.45487  0.58989  0.26805  1.0000
  H   H2397     1.0  0.42583  0.64357  0.25535  1.0000
  C   C3027     1.0  0.48920  0.54703  0.48688  1.0000
  C   C3028     1.0  0.51503  0.51661  0.42341  1.0000
  C   C3029     1.0  0.53601  0.97711  0.19005  1.0000
  H   H2398     1.0  0.46214  0.61004  0.28855  1.0000
  H   H2399     1.0  0.45924  0.60171  0.22917  1.0000
  H   H2400     1.0  0.50125  0.72475  0.06372  1.0000
  C   C3030     1.0  0.56989  0.59262  0.47844  1.0000
  H   H2401     1.0  0.40724  0.64710  0.17289  1.0000
  C   C3031     1.0  0.43530  0.85646  0.18754  1.0000
  C   C3032     1.0  0.44434  0.84715  0.20112  1.0000
  C   C3033     1.0  0.46220  0.83854  0.19691  1.0000
  C   C3034     1.0  0.47102  0.83934  0.17911  1.0000
  C   C3035     1.0  0.46196  0.84861  0.16539  1.0000
  C   C3036     1.0  0.44393  0.85698  0.16975  1.0000
  P   P101      1.0  0.47328  0.84786  0.14268  1.0000
  C   C3037     1.0  0.49243  0.85787  0.13638  1.0000
  C   C3038     1.0  0.47918  0.82443  0.14234  1.0000
  C   C3039     1.0  0.49709  0.81542  0.13857  1.0000
  C   C3040     1.0  0.50138  0.79701  0.13988  1.0000
  C   C3041     1.0  0.48790  0.78739  0.14527  1.0000
  C   C3042     1.0  0.47006  0.79621  0.14914  1.0000
  C   C3043     1.0  0.46569  0.81465  0.14770  1.0000
  C   C3044     1.0  0.50433  0.85664  0.12002  1.0000
  C   C3045     1.0  0.51925  0.86430  0.11495  1.0000
  C   C3046     1.0  0.52221  0.87354  0.12603  1.0000
  C   C3047     1.0  0.50996  0.87554  0.14196  1.0000
  C   C3048     1.0  0.49510  0.86775  0.14715  1.0000
  C   C3049     1.0  0.45920  0.86049  0.12731  1.0000
  C   C3050     1.0  0.45186  0.87862  0.12710  1.0000
  C   C3051     1.0  0.44057  0.88847  0.11558  1.0000
  C   C3052     1.0  0.43707  0.88047  0.10374  1.0000
  C   C3053     1.0  0.44492  0.86266  0.10333  1.0000
  C   C3054     1.0  0.45592  0.85264  0.11511  1.0000
  H   H2402     1.0  0.42133  0.86276  0.19083  1.0000
  H   H2403     1.0  0.43725  0.84621  0.21487  1.0000
  H   H2404     1.0  0.46909  0.83095  0.20744  1.0000
  H   H2405     1.0  0.48478  0.83235  0.17598  1.0000
  H   H2406     1.0  0.43627  0.86363  0.15965  1.0000
  H   H2407     1.0  0.50788  0.82234  0.13497  1.0000
  H   H2408     1.0  0.51522  0.79018  0.13684  1.0000
  H   H2409     1.0  0.49130  0.77311  0.14637  1.0000
  H   H2410     1.0  0.45961  0.78871  0.15337  1.0000
  H   H2411     1.0  0.45179  0.82121  0.15114  1.0000
  H   H2412     1.0  0.50206  0.84973  0.11118  1.0000
  H   H2413     1.0  0.52828  0.86338  0.10223  1.0000
  H   H2414     1.0  0.53359  0.87980  0.12192  1.0000
  H   H2415     1.0  0.51153  0.88374  0.14994  1.0000
  H   H2416     1.0  0.48550  0.86999  0.15924  1.0000
  H   H2417     1.0  0.45466  0.88511  0.13601  1.0000
  H   H2418     1.0  0.43460  0.90235  0.11577  1.0000
  H   H2419     1.0  0.42847  0.88815  0.09470  1.0000
  H   H2420     1.0  0.44248  0.85669  0.09382  1.0000
  H   H2421     1.0  0.46194  0.83890  0.11454  1.0000
  C   C3055     1.0  0.41055  0.63355  0.42699  1.0000
  C   C3056     1.0  0.41491  0.68299  0.42765  1.0000
  C   C3057     1.0  0.54591  0.91783  0.02485  1.0000
  C   C3058     1.0  0.40515  0.76989  0.12744  1.0000
  C   C3059     1.0  0.42097  0.60522  0.44569  1.0000
  H   H2422     1.0  0.47331  0.81285  0.00504  1.0000
  C   C3060     1.0  0.54245  0.58498  0.42903  1.0000
  H   H2423     1.0  0.44118  0.99494  0.06037  1.0000
  H   H2424     1.0  0.40224  0.56078  0.32949  1.0000
  H   H2425     1.0  0.41510  0.68970  0.38097  1.0000
  C   C3061     1.0  0.49955  0.62863  0.35915  1.0000
  C   C3062     1.0  0.52572  0.89950  0.04464  1.0000
  H   H2426     1.0  0.53742  0.99413  0.06786  1.0000
  H   H2427     1.0  0.40216  0.69033  0.20935  1.0000
  C   C3063     1.0  0.55556  0.75753  0.06180  1.0000
  H   H2428     1.0  0.53366  0.58955  0.38560  1.0000
  H   H2429     1.0  0.54893  0.96844  0.19099  1.0000
  C   C3064     1.0  0.53338  0.77327  0.04425  1.0000
  C   C3065     1.0  0.58470  0.59703  0.48114  1.0000
  H   H2430     1.0  0.50983  0.58806  0.37246  1.0000
  C   C3066     1.0  0.47320  0.91692  0.01321  1.0000
  C   C3067     1.0  0.50754  0.75029  0.02835  1.0000
  C   C3068     1.0  0.53816  0.50161  0.28596  1.0000
  C   C3069     1.0  0.54068  0.92966  0.03646  1.0000
  C   C3070     1.0  0.52272  0.58693  0.31313  1.0000
  H   H2431     1.0  0.45858  0.58589  0.47907  1.0000
  H   H2432     1.0  0.42917  0.59729  0.45499  1.0000
  C   C3071     1.0  0.40321  0.70186  0.16746  1.0000
  C   C3072     1.0  0.53113  0.59787  0.31756  1.0000
  C   C3073     1.0  0.55957  0.98088  0.14873  1.0000
  C   C3074     1.0  0.42090  0.82979  0.11838  1.0000
  C   C3075     1.0  0.41427  0.82741  0.10475  1.0000
  H   H2433     1.0  0.39910  0.98115  0.10527  1.0000
  P   P102      1.0  0.42630  0.81046  0.09227  1.0000
  C   C3076     1.0  0.44907  0.80585  0.09465  1.0000
  C   C3077     1.0  0.41516  0.79204  0.10168  1.0000
  C   C3078     1.0  0.41334  0.78441  0.11984  1.0000
  H   H2434     1.0  0.45049  0.97889  0.11340  1.0000
  C   C3079     1.0  0.44774  0.98721  0.08611  1.0000
  H   H2435     1.0  0.47446  0.63780  0.27597  1.0000
  C   C3080     1.0  0.58992  0.63114  0.43104  1.0000
  C   C3081     1.0  0.45622  0.79057  0.10623  1.0000
  C   C3082     1.0  0.47330  0.78832  0.10900  1.0000
  C   C3083     1.0  0.48326  0.80141  0.10057  1.0000
  C   C3084     1.0  0.47622  0.81669  0.08910  1.0000
  C   C3085     1.0  0.45924  0.81886  0.08605  1.0000
  C   C3086     1.0  0.42760  0.81754  0.06859  1.0000
  C   C3087     1.0  0.42253  0.83552  0.06066  1.0000
  C   C3088     1.0  0.42414  0.84081  0.04224  1.0000
  C   C3089     1.0  0.43076  0.82821  0.03160  1.0000
  C   C3090     1.0  0.43609  0.81027  0.03938  1.0000
  C   C3091     1.0  0.43484  0.80499  0.05776  1.0000
  H   H2436     1.0  0.43391  0.65748  0.46207  1.0000
  H   H2437     1.0  0.58680  0.50414  0.39582  1.0000
  C   C3092     1.0  0.50053  0.66195  0.36325  1.0000
  H   H2438     1.0  0.43328  0.82164  0.12168  1.0000
  C   C3093     1.0  0.54937  0.77199  0.04901  1.0000
  H   H2439     1.0  0.41821  0.78990  0.12807  1.0000
  H   H2440     1.0  0.53410  0.75552  0.01749  1.0000
  C   C3094     1.0  0.51525  0.51149  0.44150  1.0000
  H   H2441     1.0  0.57738  0.93679  0.00159  1.0000
  H   H2442     1.0  0.59636  0.77376  0.03691  1.0000
  H   H2443     1.0  0.44866  0.78052  0.11353  1.0000
  H   H2444     1.0  0.47861  0.77655  0.11811  1.0000
  H   H2445     1.0  0.49631  0.79986  0.10316  1.0000
  H   H2446     1.0  0.48377  0.82705  0.08285  1.0000
  H   H2447     1.0  0.45385  0.83098  0.07738  1.0000
  H   H2448     1.0  0.41746  0.84547  0.06863  1.0000
  H   H2449     1.0  0.42031  0.85474  0.03620  1.0000
  H   H2450     1.0  0.43193  0.83245  0.01734  1.0000
  C   C3095     1.0  0.44463  0.53306  0.42474  1.0000
  H   H2451     1.0  0.43926  0.79109  0.06359  1.0000
  H   H2452     1.0  0.52350  0.95578  0.19208  1.0000
  C   C3096     1.0  0.50467  0.59244  0.31255  1.0000
  H   H2453     1.0  0.50295  0.51483  0.45101  1.0000
  C   C3097     1.0  0.49429  0.95701  0.01230  1.0000
  H   H2454     1.0  0.56121  0.92460  0.06366  1.0000
  H   H2455     1.0  0.51561  0.56838  0.35153  1.0000
  C   C3098     1.0  0.56642  0.50472  0.28917  1.0000
  C   C3099     1.0  0.56885  0.59728  0.42019  1.0000
  C   C3100     1.0  0.50125  0.51522  0.49259  1.0000
  H   H2456     1.0  0.55678  0.78241  0.04298  1.0000
  H   H2457     1.0  0.58216  0.50217  0.25245  1.0000
  H   H2458     1.0  0.58733  0.59108  0.39647  1.0000
  C   C3101     1.0  0.42357  0.66510  0.45487  1.0000
  C   C3102     1.0  0.49463  0.74265  0.02603  1.0000
  H   H2459     1.0  0.51995  0.88787  0.04789  1.0000
  H   H2460     1.0  0.55582  0.91990  0.01271  1.0000
  C   C3103     1.0  0.53129  0.50284  0.44712  1.0000
  H   H2461     1.0  0.56992  0.55032  0.35728  1.0000
  P   P103      1.0  0.50258  0.76189  0.04620  1.0000
  H   H2462     1.0  0.48944  0.50315  0.41520  1.0000
  H   H2463     1.0  0.50010  0.67498  0.36521  1.0000
  C   C3104     1.0  0.48978  0.73323  0.07035  1.0000
  H   H2464     1.0  0.53333  0.53979  0.29964  1.0000
  H   H2465     1.0  0.52065  0.58001  0.24731  1.0000
  H   H2466     1.0  0.44837  0.55869  0.48064  1.0000
  H   H2467     1.0  0.41460  0.65773  0.38999  1.0000
  H   H2468     1.0  0.43418  0.96516  0.05873  1.0000
  C   C3105     1.0  0.50381  0.64691  0.37672  1.0000
  C   C3106     1.0  0.53654  0.58040  0.37689  1.0000
  H   H2469     1.0  0.42865  0.95820  0.00963  1.0000
  C   C3107     1.0  0.54332  0.55846  0.35284  1.0000
  C   C3108     1.0  0.41253  0.98320  0.09967  1.0000
  P   P104      1.0  0.55073  0.94880  0.03163  1.0000
  C   C3109     1.0  0.53846  0.90282  0.02896  1.0000
  H   H2470     1.0  0.50283  0.52409  0.41914  1.0000
  H   H2471     1.0  0.49833  0.61584  0.35802  1.0000
  H   H2472     1.0  0.59195  0.88443  0.09768  1.0000
  H   H2473     1.0  0.50111  0.67883  0.24226  1.0000
  H   H2474     1.0  0.44134  0.80047  0.03115  1.0000
  C   C3110     1.0  0.42093  0.62332  0.43925  1.0000
  C   C3111     1.0  0.39992  0.61724  0.35478  1.0000
  C   C3112     1.0  0.53010  0.74517  0.06462  1.0000
  C   C3113     1.0  0.40257  0.58304  0.30713  1.0000
  C   C3114     1.0  0.42409  0.97955  0.11117  1.0000
  H   H2475     1.0  0.40165  0.64438  0.28176  1.0000
  C   C3115     1.0  0.58684  0.98328  0.10188  1.0000
  C   C3116     1.0  0.41841  0.98913  0.08126  1.0000
  H   H2476     1.0  0.48710  0.78130  0.01485  1.0000
  C   C3117     1.0  0.46029  0.94357  0.18204  1.0000
  C   C3118     1.0  0.46598  0.95724  0.16830  1.0000
  C   C3119     1.0  0.48397  0.95809  0.16346  1.0000
  C   C3120     1.0  0.49634  0.94497  0.17198  1.0000
  C   C3121     1.0  0.49090  0.93070  0.18526  1.0000
  C   C3122     1.0  0.47263  0.93051  0.19069  1.0000
  P   P105      1.0  0.50716  0.91358  0.19593  1.0000
  C   C3123     1.0  0.49801  0.89413  0.20789  1.0000
  C   C3124     1.0  0.52667  0.90749  0.17900  1.0000
  C   C3125     1.0  0.52939  0.89205  0.17253  1.0000
  C   C3126     1.0  0.54406  0.88789  0.15892  1.0000
  C   C3127     1.0  0.55620  0.89902  0.15170  1.0000
  C   C3128     1.0  0.55383  0.91423  0.15822  1.0000
  C   C3129     1.0  0.53917  0.91845  0.17182  1.0000
  C   C3130     1.0  0.50034  0.88567  0.22523  1.0000
  C   C3131     1.0  0.49301  0.87079  0.23439  1.0000
  C   C3132     1.0  0.48333  0.86425  0.22634  1.0000
  C   C3133     1.0  0.48106  0.87251  0.20907  1.0000
  C   C3134     1.0  0.48845  0.88729  0.19989  1.0000
  C   C3135     1.0  0.51298  0.92269  0.21138  1.0000
  C   C3136     1.0  0.50028  0.93534  0.22006  1.0000
  C   C3137     1.0  0.50485  0.94262  0.23185  1.0000
  C   C3138     1.0  0.52206  0.93722  0.23515  1.0000
  C   C3139     1.0  0.53466  0.92439  0.22681  1.0000
  C   C3140     1.0  0.53012  0.91703  0.21507  1.0000
  H   H2477     1.0  0.44638  0.94272  0.18559  1.0000
  C   C3141     1.0  0.55847  0.51160  0.47646  1.0000
  H   H2478     1.0  0.48844  0.96866  0.15275  1.0000
  H   H2479     1.0  0.51017  0.94588  0.16783  1.0000
  H   H2480     1.0  0.46781  0.92008  0.20123  1.0000
  H   H2481     1.0  0.52014  0.88326  0.17768  1.0000
  H   H2482     1.0  0.54585  0.87619  0.15369  1.0000
  C   C3142     1.0  0.43890  0.57008  0.48491  1.0000
  H   H2483     1.0  0.56318  0.92294  0.15241  1.0000
  H   H2484     1.0  0.53750  0.93044  0.17646  1.0000
  H   H2485     1.0  0.50777  0.89048  0.23174  1.0000
  H   H2486     1.0  0.47757  0.85280  0.23346  1.0000
  H   H2487     1.0  0.47352  0.86758  0.20275  1.0000
  H   H2488     1.0  0.48666  0.89341  0.18651  1.0000
  H   H2489     1.0  0.48688  0.93964  0.21769  1.0000
  C   C3143     1.0  0.44153  0.65082  0.20725  1.0000
  H   H2490     1.0  0.54797  0.92011  0.22946  1.0000
  H   H2491     1.0  0.53999  0.90695  0.20888  1.0000
  C   C3144     1.0  0.44022  0.64814  0.31970  1.0000
  C   C3145     1.0  0.43068  0.64439  0.33719  1.0000
  C   C3146     1.0  0.43960  0.63862  0.35117  1.0000
  C   C3147     1.0  0.45800  0.63718  0.34767  1.0000
  C   C3148     1.0  0.46749  0.64203  0.33021  1.0000
  C   C3149     1.0  0.45856  0.64702  0.31615  1.0000
  P   P106      1.0  0.49104  0.64134  0.32576  1.0000
  C   C3150     1.0  0.49501  0.60894  0.31628  1.0000
  C   C3151     1.0  0.49636  0.65975  0.30768  1.0000
  C   C3152     1.0  0.48388  0.67600  0.30561  1.0000
  C   C3153     1.0  0.48777  0.69027  0.29165  1.0000
  C   C3154     1.0  0.50425  0.68853  0.27970  1.0000
  C   C3155     1.0  0.51687  0.67251  0.28175  1.0000
  C   C3156     1.0  0.51296  0.65815  0.29567  1.0000
  H   H2492     1.0  0.43323  0.65226  0.30899  1.0000
  H   H2493     1.0  0.41637  0.64614  0.33984  1.0000
  H   H2494     1.0  0.43228  0.63550  0.36475  1.0000
  H   H2495     1.0  0.46462  0.63278  0.35866  1.0000
  H   H2496     1.0  0.46563  0.65045  0.30254  1.0000
  H   H2497     1.0  0.48095  0.61270  0.31613  1.0000
  H   H2498     1.0  0.47109  0.67773  0.31483  1.0000
  H   H2499     1.0  0.47797  0.70271  0.29016  1.0000
  H   H2500     1.0  0.50720  0.69963  0.26887  1.0000
  H   H2501     1.0  0.52965  0.67120  0.27249  1.0000
  H   H2502     1.0  0.52288  0.64588  0.29694  1.0000
  C   C3157     1.0  0.42500  0.96619  0.01950  1.0000
  H   H2503     1.0  0.47478  0.96740  0.03357  1.0000
  H   H2504     1.0  0.44480  0.94969  0.03380  1.0000
  P   P107      1.0  0.59479  0.61459  0.46569  1.0000
  C   C3158     1.0  0.53205  0.98782  0.06070  1.0000
  H   H2505     1.0  0.40714  0.62751  0.31147  1.0000
  H   H2506     1.0  0.44208  0.67245  0.43051  1.0000
  C   C3159     1.0  0.59114  0.51621  0.39459  1.0000
  P   P108      1.0  0.53169  0.49868  0.47043  1.0000
  C   C3160     1.0  0.44782  0.61934  0.20766  1.0000
  C   C3161     1.0  0.58188  0.62711  0.44920  1.0000
  C   C3162     1.0  0.42818  0.67343  0.43703  1.0000
  C   C3163     1.0  0.57785  0.96602  0.08652  1.0000
  S   S431      1.0  0.59369  0.53186  0.32694  1.0000
  H   H2507     1.0  0.58538  0.95939  0.01713  1.0000
  H   H2508     1.0  0.56413  0.59956  0.46703  1.0000
  H   H2509     1.0  0.55816  0.49940  0.40634  1.0000
  C   C3164     1.0  0.57893  0.60249  0.36153  1.0000
  H   H2510     1.0  0.51564  0.52270  0.29230  1.0000
  C   C3165     1.0  0.56130  0.64753  0.42427  1.0000
  C   C3166     1.0  0.55338  0.64411  0.44237  1.0000
  C   C3167     1.0  0.56371  0.63426  0.45478  1.0000
  C   C3168     1.0  0.53230  0.98223  0.13168  1.0000
  H   H2511     1.0  0.48835  0.72801  0.01034  1.0000
  H   H2512     1.0  0.54772  0.60192  0.44301  1.0000
  C   C3169     1.0  0.59495  0.79477  0.01351  1.0000
  C   C3170     1.0  0.45520  0.51150  0.46406  1.0000
  C   C3171     1.0  0.43208  0.49874  0.43997  1.0000
  C   C3172     1.0  0.54201  0.50212  0.34387  1.0000
  C   C3173     1.0  0.40761  0.69635  0.24990  1.0000
  C   C3174     1.0  0.40708  0.78602  0.09148  1.0000
  C   C3175     1.0  0.53055  0.51236  0.41081  1.0000
  H   H2513     1.0  0.55327  0.65536  0.41470  1.0000
  H   H2514     1.0  0.53925  0.64926  0.44690  1.0000
  H   H2515     1.0  0.55753  0.63225  0.46880  1.0000
  C   C3176     1.0  0.42340  0.80193  0.19865  1.0000
  H   H2516     1.0  0.40287  0.61175  0.34305  1.0000
  C   C3177     1.0  0.55257  0.59534  0.43184  1.0000
  C   C3178     1.0  0.57473  0.58935  0.40542  1.0000
  C   C3179     1.0  0.41142  0.81800  0.19388  1.0000
  C   C3180     1.0  0.52058  0.91103  0.05634  1.0000
  C   C3181     1.0  0.57961  0.64125  0.41862  1.0000
  H   H2517     1.0  0.42876  0.62948  0.44398  1.0000
  H   H2518     1.0  0.44786  0.60863  0.20175  1.0000
  H   H2519     1.0  0.42020  0.93773  0.13538  1.0000
  H   H2520     1.0  0.40391  0.98481  0.00804  1.0000
  C   C3182     1.0  0.41094  0.98101  0.01879  1.0000
  H   H2521     1.0  0.40527  0.81127  0.15601  1.0000
  C   C3183     1.0  0.50341  0.62012  0.32056  1.0000
  S   S432      1.0  0.57649  0.97951  0.15984  1.0000
  H   H2522     1.0  0.40543  0.76288  0.21435  1.0000
  H   H2523     1.0  0.41867  0.68933  0.41376  1.0000
  C   C3184     1.0  0.42186  0.67887  0.27407  1.0000
  C   C3185     1.0  0.43855  0.67857  0.26264  1.0000
  C   C3186     1.0  0.43980  0.68670  0.24467  1.0000
  C   C3187     1.0  0.42439  0.69566  0.23829  1.0000
  H   H2524     1.0  0.56604  0.53329  0.39060  1.0000
  H   H2525     1.0  0.42668  0.61703  0.17379  1.0000
  H   H2526     1.0  0.40203  0.77532  0.25708  1.0000
  C   C3188     1.0  0.41799  0.62751  0.29989  1.0000
  C   C3189     1.0  0.58412  0.58385  0.36441  1.0000
  H   H2527     1.0  0.41338  0.60914  0.39338  1.0000
  C   C3190     1.0  0.46286  0.50592  0.47896  1.0000
  H   H2528     1.0  0.43682  0.66456  0.20098  1.0000
  H   H2529     1.0  0.41472  0.59038  0.19132  1.0000
  H   H2530     1.0  0.49504  0.95246  0.23843  1.0000
  H   H2531     1.0  0.48308  0.64659  0.21880  1.0000
  H   H2532     1.0  0.58010  0.52400  0.43219  1.0000
  C   C3191     1.0  0.59492  0.98855  0.06956  1.0000
  H   H2533     1.0  0.52986  0.58339  0.43813  1.0000
  C   C3192     1.0  0.49487  0.66784  0.24382  1.0000
  H   H2534     1.0  0.56760  0.60881  0.37041  1.0000
  C   C3193     1.0  0.50327  0.63024  0.37469  1.0000
  H   H2535     1.0  0.42079  0.67217  0.28781  1.0000
  H   H2536     1.0  0.45044  0.67217  0.26776  1.0000
  H   H2537     1.0  0.45275  0.68629  0.23571  1.0000
  H   H2538     1.0  0.42560  0.70182  0.22429  1.0000
  H   H2539     1.0  0.49248  0.98614  0.05353  1.0000
  C   C3194     1.0  0.49645  0.64364  0.34546  1.0000
  C   C3195     1.0  0.47698  0.64074  0.24772  1.0000
  H   H2540     1.0  0.52884  0.78471  0.03438  1.0000
  H   H2541     1.0  0.51216  0.96336  0.03747  1.0000
  C   C3196     1.0  0.51375  0.99200  0.06130  1.0000
  C   C3197     1.0  0.50672  0.98330  0.05269  1.0000
  C   C3198     1.0  0.53629  0.96580  0.04318  1.0000
  C   C3199     1.0  0.46202  0.50267  0.44984  1.0000
  C   C3200     1.0  0.58966  0.86783  0.08157  1.0000
  H   H2542     1.0  0.47887  0.55835  0.49020  1.0000
  H   H2543     1.0  0.45370  0.57149  0.42755  1.0000
  H   H2544     1.0  0.41300  0.52243  0.44636  1.0000
  H   H2545     1.0  0.42715  0.53203  0.40885  1.0000
  C   C3201     1.0  0.59531  0.63101  0.47711  1.0000
  C   C3202     1.0  0.57520  0.54684  0.44359  1.0000
  H   H2546     1.0  0.49346  0.67233  0.33785  1.0000
  C   C3203     1.0  0.52167  0.96997  0.19059  1.0000
  H   H2547     1.0  0.54600  0.54996  0.34349  1.0000
  H   H2548     1.0  0.43248  0.58434  0.40759  1.0000
  H   H2549     1.0  0.52813  0.62259  0.32502  1.0000
  H   H2550     1.0  0.40422  0.76388  0.14148  1.0000
  C   C3204     1.0  0.58818  0.61311  0.34694  1.0000
  H   H2551     1.0  0.45467  0.91699  0.99838  1.0000
  C   C3205     1.0  0.52788  0.50304  0.33615  1.0000
  H   H2552     1.0  0.58055  0.49972  0.28874  1.0000
  C   C3206     1.0  0.47960  0.64476  0.26273  1.0000
  C   C3207     1.0  0.47847  0.80856  0.01708  1.0000
  H   H2553     1.0  0.58567  0.84526  0.01047  1.0000
  H   H2554     1.0  0.49804  0.58381  0.30948  1.0000
  C   C3208     1.0  0.52406  0.74942  0.01623  1.0000
  C   C3209     1.0  0.41024  0.59739  0.44030  1.0000
  H   H2555     1.0  0.49480  0.86434  0.24777  1.0000
  C   C3210     1.0  0.58768  0.92691  0.06263  1.0000
  H   H2556     1.0  0.55733  0.97164  0.05165  1.0000
  H   H2557     1.0  0.51334  0.65419  0.47888  1.0000
  H   H2558     1.0  0.57451  0.56884  0.45459  1.0000
  H   H2559     1.0  0.41908  0.56463  0.39835  1.0000
  C   C3211     1.0  0.52629  0.56887  0.35727  1.0000
  S   S433      1.0  0.58674  0.84635  0.06171  1.0000
  P   P109      1.0  0.45104  0.50913  0.43139  1.0000
  H   H2560     1.0  0.48164  0.74350  0.03497  1.0000
  C   C3212     1.0  0.52151  0.61436  0.32134  1.0000
  C   C3213     1.0  0.52340  0.76002  0.05227  1.0000
  H   H2561     1.0  0.56156  0.55133  0.44197  1.0000
  C   C3214     1.0  0.52054  0.64845  0.48949  1.0000
  S   S434      1.0  0.52524  0.61575  0.48077  1.0000
  H   H2562     1.0  0.42053  0.59790  0.36652  1.0000
  H   H2563     1.0  0.41664  0.84477  0.13848  1.0000
  H   H2564     1.0  0.58416  0.62749  0.34478  1.0000
  C   C3215     1.0  0.51160  0.51494  0.34013  1.0000
  C   C3216     1.0  0.41143  0.84280  0.12812  1.0000
  C   C3217     1.0  0.49302  0.66340  0.22879  1.0000
  C   C3218     1.0  0.54330  0.97485  0.05162  1.0000
  C   C3219     1.0  0.55684  0.55859  0.36083  1.0000
  S   S435      1.0  0.49431  0.51648  0.32976  1.0000
  H   H2565     1.0  0.58820  0.91818  0.07558  1.0000
  C   C3220     1.0  0.57953  0.53280  0.39136  1.0000
  C   C3221     1.0  0.53987  0.52749  0.29520  1.0000
  C   C3222     1.0  0.51577  0.51749  0.47820  1.0000
  H   H2566     1.0  0.43744  0.61088  0.31480  1.0000
  C   C3223     1.0  0.48632  0.79066  0.02273  1.0000
  C   C3224     1.0  0.47909  0.96863  0.01925  1.0000
  H   H2567     1.0  0.50515  0.61869  0.38542  1.0000
  H   H2568     1.0  0.49423  0.97568  0.18861  1.0000
  C   C3225     1.0  0.50524  0.98121  0.18859  1.0000
  C   C3226     1.0  0.51793  0.97027  0.04367  1.0000
  C   C3227     1.0  0.52823  0.92585  0.05244  1.0000
  H   H2569     1.0  0.44763  0.65788  0.22855  1.0000
  H   H2570     1.0  0.57677  0.60515  0.42248  1.0000
  C   C3228     1.0  0.48369  0.81552  0.04260  1.0000
  C   C3229     1.0  0.47698  0.82093  0.02711  1.0000
  C   C3230     1.0  0.49164  0.79767  0.04825  1.0000
  C   C3231     1.0  0.48697  0.75185  0.06474  1.0000
  S   S436      1.0  0.51512  0.98364  0.12090  1.0000
  C   C3232     1.0  0.47798  0.72535  0.08483  1.0000
  C   C3233     1.0  0.46301  0.73595  0.09354  1.0000
  C   C3234     1.0  0.45978  0.75443  0.08774  1.0000
  C   C3235     1.0  0.47180  0.76240  0.07356  1.0000
  H   H2571     1.0  0.48268  0.82520  0.05023  1.0000
  H   H2572     1.0  0.47045  0.83471  0.02296  1.0000
  H   H2573     1.0  0.49663  0.79366  0.06041  1.0000
  S   S437      1.0  0.54944  0.81334  0.01515  1.0000
  H   H2574     1.0  0.52430  0.93428  0.06197  1.0000
  H   H2575     1.0  0.48064  0.71104  0.08961  1.0000
  H   H2576     1.0  0.45407  0.72985  0.10501  1.0000
  H   H2577     1.0  0.44807  0.76252  0.09451  1.0000
  H   H2578     1.0  0.46923  0.77675  0.06975  1.0000
  H   H2579     1.0  0.52283  0.73475  0.07119  1.0000
  C   C3236     1.0  0.44772  0.56280  0.42376  1.0000
  C   C3237     1.0  0.43566  0.57009  0.41256  1.0000
  C   C3238     1.0  0.42819  0.55897  0.40730  1.0000
  C   C3239     1.0  0.43270  0.54053  0.41333  1.0000
  H   H2580     1.0  0.50597  0.64834  0.38904  1.0000
  H   H2581     1.0  0.55059  0.73301  0.07970  1.0000
  H   H2582     1.0  0.50232  0.61037  0.24079  1.0000
  H   H2583     1.0  0.51071  0.90836  0.06857  1.0000
  C   C3240     1.0  0.43387  0.96115  0.03344  1.0000
  H   H2584     1.0  0.54905  0.52414  0.47686  1.0000
  C   C3241     1.0  0.59524  0.99245  0.08558  1.0000
  C   C3242     1.0  0.46856  0.91586  0.99793  1.0000
  C   C3243     1.0  0.40564  0.61580  0.38340  1.0000
  C   C3244     1.0  0.58640  0.97504  0.07022  1.0000
  C   C3245     1.0  0.58247  0.55657  0.45086  1.0000
  H   H2585     1.0  0.45731  0.99007  0.01372  1.0000
  H   H2586     1.0  0.40740  0.72866  0.15746  1.0000
  H   H2587     1.0  0.45743  0.51282  0.48984  1.0000
  C   C3246     1.0  0.39973  0.60758  0.42816  1.0000
  H   H2588     1.0  0.57167  0.96301  0.11496  1.0000
  H   H2589     1.0  0.40254  0.73573  0.23780  1.0000
  C   C3247     1.0  0.56184  0.57947  0.49090  1.0000
  C   C3248     1.0  0.54486  0.83232  0.99845  1.0000
  C   C3249     1.0  0.39961  0.75288  0.21252  1.0000
  H   H2590     1.0  0.58648  0.97125  0.05823  1.0000
  C   C3250     1.0  0.58817  0.85378  0.99735  1.0000
  C   C3251     1.0  0.50432  0.91192  0.99849  1.0000
  C   C3252     1.0  0.54685  0.49843  0.43436  1.0000
  C   C3253     1.0  0.40004  0.62569  0.42114  1.0000
  H   H2591     1.0  0.40239  0.65979  0.47726  1.0000
  C   C3254     1.0  0.52771  0.74072  0.00222  1.0000
  H   H2592     1.0  0.51821  0.90985  0.99887  1.0000
  H   H2593     1.0  0.58436  0.79092  0.01032  1.0000
  C   C3255     1.0  0.56921  0.94944  0.99653  1.0000
  C   C3256     1.0  0.43620  0.99090  0.07455  1.0000
  P   P110      1.0  0.40329  0.99431  0.06643  1.0000
  C   C3257     1.0  0.51489  0.73295  0.00014  1.0000
  C   C3258     1.0  0.40195  0.63549  0.18061  1.0000
  C   C3259     1.0  0.40530  0.99044  0.03240  1.0000
  C   C3260     1.0  0.42078  0.56966  0.49073  1.0000
  C   C3261     1.0  0.59798  0.57604  0.35194  1.0000
  C   C3262     1.0  0.59303  0.65918  0.49291  1.0000
  C   C3263     1.0  0.57977  0.80362  0.72463  1.0000
  S   S438      1.0  0.56690  0.90662  0.91702  1.0000
  C   C3264     1.0  0.57726  0.72945  0.60913  1.0000
  C   C3265     1.0  0.54700  0.58381  0.57230  1.0000
  C   C3266     1.0  0.55496  0.52139  0.54794  1.0000
  C   C3267     1.0  0.57126  0.70658  0.59794  1.0000
  C   C3268     1.0  0.49291  0.84677  0.96745  1.0000
  Fe  Fe218     1.0  0.56570  0.90082  0.89171  1.0000
  C   C3269     1.0  0.58703  0.77522  0.77645  1.0000
  S   S439      1.0  0.55233  0.92371  0.87304  1.0000
  Fe  Fe219     1.0  0.55848  0.88084  0.92998  1.0000
  C   C3270     1.0  0.49035  0.87207  0.97987  1.0000
  S   S440      1.0  0.53726  0.88247  0.95495  1.0000
  C   C3271     1.0  0.42684  0.57491  0.53555  1.0000
  C   C3272     1.0  0.47463  0.54761  0.60392  1.0000
  H   H2594     1.0  0.46957  0.90436  0.84236  1.0000
  S   S441      1.0  0.55466  0.87640  0.90489  1.0000
  C   C3273     1.0  0.41756  0.97108  0.97230  1.0000
  H   H2595     1.0  0.53731  0.59548  0.59547  1.0000
  S   S442      1.0  0.56716  0.57819  0.66898  1.0000
  C   C3274     1.0  0.49682  0.90702  0.83176  1.0000
  C   C3275     1.0  0.55909  0.57292  0.59886  1.0000
  H   H2596     1.0  0.43686  0.94661  0.97682  1.0000
  C   C3276     1.0  0.49537  0.85373  0.98064  1.0000
  H   H2597     1.0  0.50579  0.89548  0.93468  1.0000
  Fe  Fe220     1.0  0.56056  0.67765  0.57363  1.0000
  S   S443      1.0  0.53590  0.67035  0.57155  1.0000
  C   C3277     1.0  0.51610  0.52185  0.53125  1.0000
  Fe  Fe221     1.0  0.58400  0.64447  0.56218  1.0000
  S   S444      1.0  0.56181  0.63319  0.56023  1.0000
  H   H2598     1.0  0.48320  0.85272  0.94340  1.0000
  Fe  Fe222     1.0  0.55146  0.66116  0.54638  1.0000
  S   S445      1.0  0.53849  0.66754  0.52241  1.0000
  Fe  Fe223     1.0  0.54752  0.64293  0.58530  1.0000
  S   S446      1.0  0.52914  0.62956  0.60848  1.0000
  S   S447      1.0  0.57499  0.67185  0.54662  1.0000
  S   S448      1.0  0.57088  0.65083  0.58892  1.0000
  H   H2599     1.0  0.56507  0.53010  0.62284  1.0000
  C   C3278     1.0  0.53360  0.65259  0.51223  1.0000
  H   H2600     1.0  0.57651  0.92983  0.76417  1.0000
  C   C3279     1.0  0.56729  0.95090  0.85053  1.0000
  C   C3280     1.0  0.53959  0.63409  0.51679  1.0000
  C   C3281     1.0  0.59083  0.65395  0.66283  1.0000
  H   H2601     1.0  0.58012  0.50620  0.58047  1.0000
  H   H2602     1.0  0.54696  0.62843  0.52726  1.0000
  H   H2603     1.0  0.47423  0.88516  0.94192  1.0000
  H   H2604     1.0  0.52282  0.95591  0.85435  1.0000
  H   H2605     1.0  0.46027  0.96107  0.97739  1.0000
  H   H2606     1.0  0.54479  0.53389  0.60277  1.0000
  C   C3282     1.0  0.58160  0.69350  0.60909  1.0000
  C   C3283     1.0  0.48814  0.52993  0.49692  1.0000
  H   H2607     1.0  0.57935  0.74175  0.77650  1.0000
  H   H2608     1.0  0.45547  0.93273  0.93871  1.0000
  H   H2609     1.0  0.49806  0.99202  0.88567  1.0000
  C   C3284     1.0  0.48186  0.91244  0.98287  1.0000
  C   C3285     1.0  0.55676  0.59223  0.65194  1.0000
  C   C3286     1.0  0.56626  0.59506  0.63423  1.0000
  C   C3287     1.0  0.55800  0.60692  0.62082  1.0000
  C   C3288     1.0  0.54008  0.61546  0.62506  1.0000
  C   C3289     1.0  0.53059  0.61254  0.64273  1.0000
  C   C3290     1.0  0.53900  0.60120  0.65619  1.0000
  H   H2610     1.0  0.58007  0.58838  0.63092  1.0000
  H   H2611     1.0  0.56539  0.60914  0.60718  1.0000
  H   H2612     1.0  0.51673  0.61913  0.64601  1.0000
  H   H2613     1.0  0.53168  0.59912  0.66985  1.0000
  C   C3291     1.0  0.53972  0.86298  0.97149  1.0000
  H   H2614     1.0  0.56051  0.50803  0.52641  1.0000
  H   H2615     1.0  0.56255  0.93714  0.81906  1.0000
  C   C3292     1.0  0.54941  0.84678  0.96709  1.0000
  H   H2616     1.0  0.56223  0.56045  0.51583  1.0000
  C   C3293     1.0  0.47454  0.59847  0.52010  1.0000
  H   H2617     1.0  0.47229  0.62404  0.50208  1.0000
  C   C3294     1.0  0.47643  0.55841  0.56709  1.0000
  C   C3295     1.0  0.54683  0.58504  0.58946  1.0000
  H   H2618     1.0  0.55323  0.93503  0.79053  1.0000
  C   C3296     1.0  0.44746  0.96922  0.97533  1.0000
  P   P111      1.0  0.55770  0.97974  0.89950  1.0000
  H   H2619     1.0  0.51385  0.94497  0.89937  1.0000
  H   H2620     1.0  0.57613  0.80897  0.85352  1.0000
  C   C3297     1.0  0.45754  0.56275  0.53868  1.0000
  C   C3298     1.0  0.51843  0.96829  0.82791  1.0000
  H   H2621     1.0  0.55363  0.53379  0.56904  1.0000
  C   C3299     1.0  0.43352  0.50193  0.60741  1.0000
  H   H2622     1.0  0.57119  0.82056  0.88052  1.0000
  C   C3300     1.0  0.59074  0.98105  0.87644  1.0000
  H   H2623     1.0  0.46457  0.90316  0.81343  1.0000
  C   C3301     1.0  0.56948  0.93259  0.85735  1.0000
  H   H2624     1.0  0.57453  0.64696  0.51471  1.0000
  C   C3302     1.0  0.58710  0.91979  0.80924  1.0000
  C   C3303     1.0  0.52219  0.54709  0.50754  1.0000
  H   H2625     1.0  0.55497  0.84612  0.95329  1.0000
  P   P112      1.0  0.57840  0.77863  0.75682  1.0000
  C   C3304     1.0  0.52632  0.93642  0.83893  1.0000
  C   C3305     1.0  0.52666  0.93345  0.82228  1.0000
  C   C3306     1.0  0.55942  0.57042  0.56456  1.0000
  H   H2626     1.0  0.58715  0.79640  0.97698  1.0000
  C   C3307     1.0  0.40125  0.51173  0.55586  1.0000
  C   C3308     1.0  0.57488  0.90256  0.76771  1.0000
  C   C3309     1.0  0.56650  0.88883  0.77825  1.0000
  C   C3310     1.0  0.55347  0.89155  0.79355  1.0000
  C   C3311     1.0  0.54836  0.90823  0.79823  1.0000
  C   C3312     1.0  0.55661  0.92208  0.78733  1.0000
  P   P113      1.0  0.53173  0.91112  0.81836  1.0000
  C   C3313     1.0  0.51073  0.90811  0.81662  1.0000
  C   C3314     1.0  0.54004  0.89402  0.83608  1.0000
  C   C3315     1.0  0.53459  0.87768  0.84153  1.0000
  C   C3316     1.0  0.54153  0.86420  0.85475  1.0000
  C   C3317     1.0  0.55406  0.86686  0.86250  1.0000
  C   C3318     1.0  0.55989  0.88284  0.85682  1.0000
  C   C3319     1.0  0.55301  0.89633  0.84362  1.0000
  C   C3320     1.0  0.49118  0.90578  0.79913  1.0000
  C   C3321     1.0  0.50776  0.90766  0.80023  1.0000
  H   H2627     1.0  0.48874  0.63601  0.51680  1.0000
  H   H2628     1.0  0.58325  0.67960  0.60913  1.0000
  H   H2629     1.0  0.57040  0.87592  0.77473  1.0000
  H   H2630     1.0  0.54748  0.88059  0.80181  1.0000
  H   H2631     1.0  0.52510  0.87522  0.83554  1.0000
  H   H2632     1.0  0.53729  0.85163  0.85899  1.0000
  H   H2633     1.0  0.55931  0.85655  0.87290  1.0000
  H   H2634     1.0  0.56968  0.88483  0.86278  1.0000
  H   H2635     1.0  0.55762  0.90864  0.83963  1.0000
  H   H2636     1.0  0.48892  0.90548  0.78646  1.0000
  H   H2637     1.0  0.51809  0.90896  0.78824  1.0000
  H   H2638     1.0  0.52881  0.92549  0.84999  1.0000
  H   H2639     1.0  0.42321  0.94215  0.94043  1.0000
  C   C3322     1.0  0.41448  0.59950  0.49600  1.0000
  H   H2640     1.0  0.51410  0.97681  0.80125  1.0000
  H   H2641     1.0  0.41557  0.58609  0.53491  1.0000
  C   C3323     1.0  0.55443  0.78612  0.76198  1.0000
  H   H2642     1.0  0.56210  0.61958  0.68188  1.0000
  C   C3324     1.0  0.40857  0.58437  0.49629  1.0000
  C   C3325     1.0  0.54892  0.96482  0.91958  1.0000
  C   C3326     1.0  0.56076  0.51874  0.62194  1.0000
  C   C3327     1.0  0.54690  0.80424  0.76172  1.0000
  H   H2643     1.0  0.58541  0.98678  0.91269  1.0000
  H   H2644     1.0  0.58006  0.97211  0.83420  1.0000
  H   H2645     1.0  0.41395  0.55741  0.52958  1.0000
  S   S449      1.0  0.52953  0.50930  0.59423  1.0000
  C   C3328     1.0  0.54611  0.96877  0.93638  1.0000
  C   C3329     1.0  0.53895  0.95748  0.95184  1.0000
  C   C3330     1.0  0.53435  0.94224  0.95070  1.0000
  C   C3331     1.0  0.53660  0.93847  0.93410  1.0000
  C   C3332     1.0  0.54372  0.94975  0.91855  1.0000
  H   H2646     1.0  0.51775  0.72621  0.98927  1.0000
  H   H2647     1.0  0.54952  0.98048  0.93768  1.0000
  H   H2648     1.0  0.57233  0.96485  0.80177  1.0000
  H   H2649     1.0  0.52085  0.94619  0.79626  1.0000
  H   H2650     1.0  0.49997  0.61733  0.54336  1.0000
  C   C3333     1.0  0.58229  0.82320  0.86962  1.0000
  C   C3334     1.0  0.56399  0.97401  0.97169  1.0000
  H   H2651     1.0  0.59569  0.81735  0.99161  1.0000
  H   H2652     1.0  0.56583  0.88836  0.97057  1.0000
  H   H2653     1.0  0.55536  0.81374  0.75856  1.0000
  C   C3335     1.0  0.54312  0.77411  0.76626  1.0000
  H   H2654     1.0  0.57683  0.94243  0.89786  1.0000
  C   C3336     1.0  0.52460  0.78017  0.77017  1.0000
  S   S450      1.0  0.58206  0.49847  0.64584  1.0000
  C   C3337     1.0  0.48027  0.90515  0.83062  1.0000
  H   H2655     1.0  0.43244  0.50136  0.62136  1.0000
  Fe  Fe224     1.0  0.58354  0.86232  0.90117  1.0000
  H   H2656     1.0  0.53714  0.96046  0.96472  1.0000
  C   C3338     1.0  0.54958  0.98274  0.98286  1.0000
  H   H2657     1.0  0.53307  0.92655  0.93337  1.0000
  H   H2658     1.0  0.54529  0.94661  0.90575  1.0000
  C   C3339     1.0  0.58111  0.95202  0.80062  1.0000
  C   C3340     1.0  0.52169  0.94813  0.80888  1.0000
  C   C3341     1.0  0.54924  0.52083  0.61057  1.0000
  H   H2659     1.0  0.57993  0.61397  0.65257  1.0000
  C   C3342     1.0  0.55173  0.83140  0.98058  1.0000
  C   C3343     1.0  0.56695  0.63840  0.63778  1.0000
  C   C3344     1.0  0.57002  0.62617  0.65336  1.0000
  C   C3345     1.0  0.55981  0.62929  0.66984  1.0000
  C   C3346     1.0  0.54625  0.64455  0.67068  1.0000
  C   C3347     1.0  0.54263  0.65655  0.65497  1.0000
  C   C3348     1.0  0.55350  0.65372  0.63852  1.0000
  P   P114      1.0  0.52440  0.67557  0.65613  1.0000
  C   C3349     1.0  0.51703  0.68344  0.63537  1.0000
  C   C3350     1.0  0.50526  0.66886  0.67202  1.0000
  C   C3351     1.0  0.50273  0.65145  0.67500  1.0000
  C   C3352     1.0  0.48761  0.64642  0.68691  1.0000
  C   C3353     1.0  0.47477  0.65877  0.69570  1.0000
  C   C3354     1.0  0.47698  0.67623  0.69246  1.0000
  C   C3355     1.0  0.49210  0.68132  0.68054  1.0000
  C   C3356     1.0  0.51263  0.70171  0.62787  1.0000
  C   C3357     1.0  0.50678  0.70743  0.61185  1.0000
  C   C3358     1.0  0.50469  0.69501  0.60358  1.0000
  C   C3359     1.0  0.50831  0.67689  0.61138  1.0000
  C   C3360     1.0  0.51451  0.67110  0.62716  1.0000
  C   C3361     1.0  0.53232  0.69156  0.66251  1.0000
  C   C3362     1.0  0.54219  0.70315  0.64963  1.0000
  C   C3363     1.0  0.54885  0.71504  0.65477  1.0000
  C   C3364     1.0  0.54639  0.71497  0.67276  1.0000
  C   C3365     1.0  0.53708  0.70309  0.68568  1.0000
  C   C3366     1.0  0.53015  0.69135  0.68061  1.0000
  H   H2660     1.0  0.57460  0.63561  0.62507  1.0000
  H   H2661     1.0  0.53012  0.55261  0.49495  1.0000
  H   H2662     1.0  0.51933  0.50776  0.53713  1.0000
  H   H2663     1.0  0.53829  0.64673  0.68354  1.0000
  H   H2664     1.0  0.55134  0.66301  0.62621  1.0000
  H   H2665     1.0  0.51230  0.64178  0.66799  1.0000
  H   H2666     1.0  0.48579  0.63295  0.68917  1.0000
  H   H2667     1.0  0.46302  0.65485  0.70486  1.0000
  H   H2668     1.0  0.46688  0.68588  0.69905  1.0000
  H   H2669     1.0  0.49344  0.69499  0.67784  1.0000
  H   H2670     1.0  0.51368  0.71158  0.63425  1.0000
  H   H2671     1.0  0.50398  0.72148  0.60576  1.0000
  H   H2672     1.0  0.50037  0.69940  0.59106  1.0000
  H   H2673     1.0  0.50664  0.66720  0.60506  1.0000
  H   H2674     1.0  0.51745  0.65694  0.63284  1.0000
  H   H2675     1.0  0.54501  0.70286  0.63564  1.0000
  H   H2676     1.0  0.55621  0.72416  0.64483  1.0000
  H   H2677     1.0  0.55196  0.72395  0.67662  1.0000
  H   H2678     1.0  0.53546  0.70283  0.69965  1.0000
  H   H2679     1.0  0.52341  0.68191  0.69083  1.0000
  H   H2680     1.0  0.57879  0.79095  0.81423  1.0000
  H   H2681     1.0  0.58669  0.99540  0.87473  1.0000
  C   C3367     1.0  0.49680  0.55104  0.53220  1.0000
  C   C3368     1.0  0.50738  0.55812  0.51599  1.0000
  C   C3369     1.0  0.58750  0.74124  0.55334  1.0000
  H   H2682     1.0  0.58965  0.76768  0.55278  1.0000
  C   C3370     1.0  0.42294  0.91091  0.97898  1.0000
  H   H2683     1.0  0.59271  0.57907  0.54985  1.0000
  S   S451      1.0  0.56021  0.70216  0.58340  1.0000
  C   C3371     1.0  0.44477  0.51185  0.59439  1.0000
  H   H2684     1.0  0.50421  0.57210  0.50975  1.0000
  C   C3372     1.0  0.41642  0.92427  0.96553  1.0000
  C   C3373     1.0  0.40331  0.49598  0.52795  1.0000
  S   S452      1.0  0.59577  0.72491  0.63454  1.0000
  H   H2685     1.0  0.57597  0.62257  0.50082  1.0000
  H   H2686     1.0  0.59535  0.59978  0.67493  1.0000
  C   C3374     1.0  0.47724  0.61585  0.51366  1.0000
  C   C3375     1.0  0.49211  0.55211  0.57375  1.0000
  C   C3376     1.0  0.45983  0.55942  0.57910  1.0000
  C   C3377     1.0  0.48973  0.97114  0.98247  1.0000
  C   C3378     1.0  0.59488  0.81263  0.95109  1.0000
  H   H2687     1.0  0.53760  0.59339  0.56499  1.0000
  H   H2688     1.0  0.45671  0.51837  0.56654  1.0000
  C   C3379     1.0  0.51219  0.99137  0.88028  1.0000
  H   H2689     1.0  0.58247  0.90793  0.81669  1.0000
  H   H2690     1.0  0.56903  0.79881  0.72290  1.0000
  C   C3380     1.0  0.56672  0.50194  0.63210  1.0000
  C   C3381     1.0  0.59477  0.94690  0.93410  1.0000
  C   C3382     1.0  0.52407  0.98660  0.89168  1.0000
  C   C3383     1.0  0.57168  0.55969  0.59107  1.0000
  P   P115      1.0  0.47766  0.56511  0.54337  1.0000
  H   H2691     1.0  0.55895  0.57388  0.61217  1.0000
  H   H2692     1.0  0.59714  0.68850  0.62923  1.0000
  C   C3384     1.0  0.58734  0.71668  0.62046  1.0000
  H   H2693     1.0  0.44283  0.58942  0.54129  1.0000
  H   H2694     1.0  0.47691  0.94516  0.94980  1.0000
  H   H2695     1.0  0.52912  0.93324  0.96261  1.0000
  C   C3385     1.0  0.57185  0.55824  0.57394  1.0000
  H   H2696     1.0  0.56791  0.98022  0.95778  1.0000
  H   H2697     1.0  0.58166  0.95466  0.93829  1.0000
  C   C3386     1.0  0.44128  0.90546  0.97815  1.0000
  C   C3387     1.0  0.57909  0.53321  0.55031  1.0000
  H   H2698     1.0  0.51021  0.90795  0.97182  1.0000
  C   C3388     1.0  0.56550  0.51555  0.53268  1.0000
  H   H2699     1.0  0.52269  0.82424  0.76538  1.0000
  C   C3389     1.0  0.58524  0.81640  0.85439  1.0000
  H   H2700     1.0  0.51126  0.94903  0.98863  1.0000
  C   C3390     1.0  0.58512  0.95141  0.88938  1.0000
  H   H2701     1.0  0.55449  0.95949  0.85399  1.0000
  H   H2702     1.0  0.59330  0.71303  0.73461  1.0000
  C   C3391     1.0  0.48055  0.58784  0.53538  1.0000
  H   H2703     1.0  0.44615  0.55479  0.60666  1.0000
  C   C3392     1.0  0.58826  0.86054  0.81832  1.0000
  H   H2704     1.0  0.54846  0.76010  0.76657  1.0000
  H   H2705     1.0  0.52076  0.91204  0.90639  1.0000
  C   C3393     1.0  0.54347  0.50616  0.60927  1.0000
  H   H2706     1.0  0.58864  0.71349  0.55567  1.0000
  S   S453      1.0  0.58702  0.54891  0.63348  1.0000
  H   H2707     1.0  0.49704  0.83259  0.96799  1.0000
  C   C3394     1.0  0.59207  0.74124  0.72627  1.0000
  C   C3395     1.0  0.58628  0.72568  0.75701  1.0000
  C   C3396     1.0  0.50131  0.53281  0.53977  1.0000
  C   C3397     1.0  0.53667  0.99454  0.85481  1.0000
  H   H2708     1.0  0.45220  0.51915  0.59826  1.0000
  C   C3398     1.0  0.51778  0.96547  0.81164  1.0000
  H   H2709     1.0  0.44755  0.56436  0.57438  1.0000
  H   H2710     1.0  0.57509  0.74562  0.54878  1.0000
  H   H2711     1.0  0.49380  0.97152  0.96832  1.0000
  C   C3399     1.0  0.57948  0.96990  0.88788  1.0000
  C   C3400     1.0  0.42829  0.93193  0.95098  1.0000
  C   C3401     1.0  0.53653  0.62293  0.50738  1.0000
  C   C3402     1.0  0.58951  0.69855  0.62046  1.0000
  H   H2712     1.0  0.49225  0.87703  0.99038  1.0000
  C   C3403     1.0  0.43803  0.50162  0.57157  1.0000
  H   H2713     1.0  0.46054  0.50542  0.52358  1.0000
  C   C3404     1.0  0.49271  0.61206  0.53703  1.0000
  H   H2714     1.0  0.58543  0.71338  0.76683  1.0000
  C   C3405     1.0  0.51724  0.79821  0.76984  1.0000
  C   C3406     1.0  0.41398  0.98956  0.97023  1.0000
  H   H2715     1.0  0.51543  0.98176  0.82993  1.0000
  H   H2716     1.0  0.50289  0.80287  0.77285  1.0000
  H   H2717     1.0  0.51596  0.77083  0.77342  1.0000
  H   H2718     1.0  0.50330  0.54176  0.59716  1.0000
  C   C3407     1.0  0.48518  0.85813  0.95358  1.0000
  H   H2719     1.0  0.47401  0.54330  0.61812  1.0000
  H   H2720     1.0  0.49225  0.96154  0.92137  1.0000
  H   H2721     1.0  0.55900  0.81882  0.97722  1.0000
  C   C3408     1.0  0.48976  0.59475  0.54374  1.0000
  C   C3409     1.0  0.52839  0.81024  0.76563  1.0000
  C   C3410     1.0  0.49974  0.91092  0.98315  1.0000
  C   C3411     1.0  0.54239  0.98576  0.88472  1.0000
  H   H2722     1.0  0.56535  0.79402  0.78892  1.0000
  H   H2723     1.0  0.58487  0.92656  0.92895  1.0000
  H   H2724     1.0  0.46785  0.59341  0.51302  1.0000
  C   C3412     1.0  0.47745  0.90449  0.81432  1.0000
  H   H2725     1.0  0.41371  0.90492  0.99020  1.0000
  C   C3413     1.0  0.48639  0.62262  0.52204  1.0000
  C   C3414     1.0  0.44248  0.57684  0.53884  1.0000
  H   H2726     1.0  0.58011  0.85585  0.83112  1.0000
  C   C3415     1.0  0.58611  0.81755  0.71170  1.0000
  C   C3416     1.0  0.49117  0.54674  0.59209  1.0000
  H   H2727     1.0  0.49484  0.58681  0.55532  1.0000
  H   H2728     1.0  0.49878  0.90774  0.84444  1.0000
  C   C3417     1.0  0.57353  0.95723  0.97849  1.0000
  C   C3418     1.0  0.56171  0.53018  0.55671  1.0000
  C   C3419     1.0  0.58977  0.65268  0.69836  1.0000
  C   C3420     1.0  0.57857  0.66650  0.68909  1.0000
  C   C3421     1.0  0.58182  0.95802  0.83952  1.0000
  C   C3422     1.0  0.52256  0.95377  0.84160  1.0000
  C   C3423     1.0  0.54855  0.99005  0.86618  1.0000
  C   C3424     1.0  0.45897  0.55403  0.59744  1.0000
  C   C3425     1.0  0.44666  0.92663  0.95019  1.0000
  C   C3426     1.0  0.45329  0.91377  0.96413  1.0000
  H   H2729     1.0  0.44609  0.89498  0.98866  1.0000
  P   P116      1.0  0.47687  0.90744  0.96418  1.0000
  C   C3427     1.0  0.48305  0.88364  0.96569  1.0000
  C   C3428     1.0  0.48949  0.91911  0.94405  1.0000
  C   C3429     1.0  0.50225  0.90988  0.93183  1.0000
  C   C3430     1.0  0.51088  0.91923  0.91576  1.0000
  C   C3431     1.0  0.50707  0.93783  0.91185  1.0000
  C   C3432     1.0  0.49499  0.94712  0.92427  1.0000
  C   C3433     1.0  0.48638  0.93780  0.94039  1.0000
  C   C3434     1.0  0.58555  0.78319  0.80416  1.0000
  H   H2730     1.0  0.58533  0.90025  0.75612  1.0000
  H   H2731     1.0  0.50510  0.55125  0.56485  1.0000
  C   C3435     1.0  0.57561  0.93636  0.81035  1.0000
  C   C3436     1.0  0.48016  0.87649  0.95276  1.0000
  C   C3437     1.0  0.56873  0.57035  0.50597  1.0000
  C   C3438     1.0  0.47440  0.98297  0.98932  1.0000
  C   C3439     1.0  0.59514  0.72309  0.55724  1.0000
  C   C3440     1.0  0.42592  0.55879  0.53254  1.0000
  H   H2732     1.0  0.40728  0.96456  0.97228  1.0000
  H   H2733     1.0  0.40507  0.61084  0.50043  1.0000
  H   H2734     1.0  0.55951  0.56978  0.55119  1.0000
  H   H2735     1.0  0.56970  0.67684  0.69564  1.0000
  C   C3441     1.0  0.58374  0.57434  0.50851  1.0000
  C   C3442     1.0  0.43432  0.96095  0.97473  1.0000
  H   H2736     1.0  0.56125  0.73469  0.58985  1.0000
  C   C3443     1.0  0.56918  0.72447  0.59825  1.0000
  H   H2737     1.0  0.57536  0.74342  0.60897  1.0000
  C   C3444     1.0  0.44062  0.54456  0.53285  1.0000
  H   H2738     1.0  0.58895  0.56740  0.52026  1.0000
  C   C3445     1.0  0.58394  0.75777  0.74971  1.0000
  H   H2739     1.0  0.40214  0.92868  0.96648  1.0000
  H   H2740     1.0  0.53771  0.52028  0.50857  1.0000
  H   H2741     1.0  0.59100  0.51390  0.51440  1.0000
  H   H2742     1.0  0.49948  0.50225  0.50034  1.0000
  H   H2743     1.0  0.58417  0.84149  0.80604  1.0000
  H   H2744     1.0  0.49333  0.52694  0.55219  1.0000
  C   C3446     1.0  0.45636  0.54647  0.53600  1.0000
  C   C3447     1.0  0.44722  0.51149  0.57650  1.0000
  C   C3448     1.0  0.59073  0.72544  0.73891  1.0000
  C   C3449     1.0  0.56992  0.91919  0.77225  1.0000
  H   H2745     1.0  0.46750  0.53520  0.53636  1.0000
  C   C3450     1.0  0.57800  0.78490  0.78975  1.0000
  C   C3451     1.0  0.58270  0.51876  0.52600  1.0000
  H   H2746     1.0  0.58138  0.99480  0.98992  1.0000
  H   H2747     1.0  0.58718  0.90719  0.85613  1.0000
  P   P117      1.0  0.58863  0.54168  0.56354  1.0000
  C   C3452     1.0  0.59364  0.87611  0.96365  1.0000
  C   C3453     1.0  0.53206  0.86371  0.98932  1.0000
  H   H2748     1.0  0.43981  0.53212  0.53042  1.0000
  H   H2749     1.0  0.54166  0.60873  0.51071  1.0000
  H   H2750     1.0  0.47694  0.52799  0.50789  1.0000
  H   H2751     1.0  0.59727  0.57044  0.69517  1.0000
  H   H2752     1.0  0.57046  0.67781  0.66411  1.0000
  C   C3454     1.0  0.57683  0.87826  0.97499  1.0000
  H   H2753     1.0  0.58131  0.55071  0.59842  1.0000
  H   H2754     1.0  0.56254  0.98966  0.86037  1.0000
  C   C3455     1.0  0.52648  0.52895  0.51514  1.0000
  H   H2755     1.0  0.50138  0.84496  0.99141  1.0000
  Fe  Fe225     1.0  0.58774  0.55608  0.65838  1.0000
  H   H2756     1.0  0.54180  0.51847  0.55354  1.0000
  C   C3456     1.0  0.58953  0.52747  0.53483  1.0000
  H   H2757     1.0  0.58455  0.95038  0.96980  1.0000
  C   C3457     1.0  0.59566  0.75361  0.55569  1.0000
  Fe  Fe226     1.0  0.59412  0.52057  0.64768  1.0000
  C   C3458     1.0  0.58734  0.79590  0.73963  1.0000
  C   C3459     1.0  0.59659  0.93098  0.92869  1.0000
  H   H2758     1.0  0.59028  0.76921  0.72142  1.0000
  C   C3460     1.0  0.59832  0.95117  0.79021  1.0000
  H   H2759     1.0  0.59834  0.78599  0.88628  1.0000
  H   H2760     1.0  0.51894  0.98356  0.90591  1.0000
  S   S454      1.0  0.58646  0.86461  0.92776  1.0000
  C   C3461     1.0  0.44374  0.98773  0.97389  1.0000
  C   C3462     1.0  0.58580  0.92136  0.85230  1.0000
  Fe  Fe227     1.0  0.59454  0.89050  0.91305  1.0000
  C   C3463     1.0  0.57906  0.66708  0.67136  1.0000
  C   C3464     1.0  0.58292  0.74176  0.76242  1.0000
  H   H2761     1.0  0.58944  0.65225  0.71212  1.0000
  H   H2762     1.0  0.40077  0.51809  0.56637  1.0000
  C   C3465     1.0  0.59061  0.85238  0.80420  1.0000
  C   C3466     1.0  0.58877  0.75732  0.73159  1.0000
  C   C3467     1.0  0.59100  0.50749  0.58532  1.0000
  H   H2763     1.0  0.59199  0.67007  0.49905  1.0000
  C   C3468     1.0  0.52394  0.65962  0.49862  1.0000
  S   S455      1.0  0.59228  0.52777  0.67360  1.0000
  H   H2764     1.0  0.59617  0.87936  0.82767  1.0000
  H   H2765     1.0  0.58312  0.82318  0.95259  1.0000
  H   H2766     1.0  0.51922  0.67388  0.49497  1.0000
  C   C3469     1.0  0.58319  0.64611  0.50178  1.0000
  S   S456      1.0  0.59445  0.88650  0.88639  1.0000
  H   H2767     1.0  0.58044  0.82325  0.70001  1.0000
  C   C3470     1.0  0.59174  0.58759  0.49615  1.0000
  H   H2768     1.0  0.59051  0.65468  0.64928  1.0000
  H   H2769     1.0  0.44024  0.50126  0.55769  1.0000
  H   H2770     1.0  0.59573  0.88474  0.95055  1.0000
  C   C3471     1.0  0.59726  0.79762  0.96478  1.0000
  H   H2771     1.0  0.59596  0.74108  0.71226  1.0000
  C   C3472     1.0  0.51849  0.99531  0.86185  1.0000
  C   C3473     1.0  0.59728  0.87397  0.81626  1.0000
  C   C3474     1.0  0.59416  0.83241  0.87132  1.0000
  S   S457      1.0  0.59270  0.83587  0.89268  1.0000
  C   C3475     1.0  0.59735  0.52332  0.58000  1.0000
  H   H2772     1.0  0.52435  0.87613  0.99279  1.0000
  C   C3476     1.0  0.57413  0.86714  0.99186  1.0000
  C   C3477     1.0  0.52704  0.63004  0.49363  1.0000
  H   H2773     1.0  0.54050  0.74007  0.99294  1.0000
  C   C3478     1.0  0.58421  0.63214  0.49390  1.0000
  H   H2774     1.0  0.64956  0.34108  0.07882  1.0000
  Fe  Fe228     1.0  0.64233  0.21052  0.15194  1.0000
  S   S458      1.0  0.62361  0.19502  0.15011  1.0000
  S   S459      1.0  0.67187  0.20211  0.14742  1.0000
  H   H2775     1.0  0.76124  0.48356  0.12944  1.0000
  C   C3479     1.0  0.60303  0.02307  0.04888  1.0000
  C   C3480     1.0  0.63974  0.31687  0.08968  1.0000
  S   S460      1.0  0.63002  0.21304  0.17989  1.0000
  S   S461      1.0  0.70452  0.07361  0.03020  1.0000
  S   S462      1.0  0.68858  0.11711  0.02386  1.0000
  H   H2776     1.0  0.71985  0.47639  0.18809  1.0000
  Fe  Fe229     1.0  0.67801  0.09217  0.03439  1.0000
  S   S463      1.0  0.65939  0.09028  0.06097  1.0000
  Fe  Fe230     1.0  0.76444  0.18117  0.08701  1.0000
  S   S464      1.0  0.74219  0.18341  0.07382  1.0000
  S   S465      1.0  0.76935  0.16312  0.11304  1.0000
  Fe  Fe231     1.0  0.77995  0.21056  0.05943  1.0000
  S   S466      1.0  0.75972  0.21490  0.04286  1.0000
  Fe  Fe232     1.0  0.74000  0.21288  0.06880  1.0000
  S   S467      1.0  0.71294  0.23112  0.07063  1.0000
  Fe  Fe233     1.0  0.76312  0.18495  0.04858  1.0000
  S   S468      1.0  0.76098  0.17266  0.02672  1.0000
  S   S469      1.0  0.75982  0.21055  0.08499  1.0000
  Fe  Fe234     1.0  0.72645  0.08445  0.21012  1.0000
  S   S470      1.0  0.72624  0.07165  0.18836  1.0000
  S   S471      1.0  0.75058  0.07605  0.22314  1.0000
  Fe  Fe235     1.0  0.68890  0.10631  0.20926  1.0000
  S   S472      1.0  0.68558  0.09594  0.18715  1.0000
  S   S473      1.0  0.66783  0.12373  0.22592  1.0000
  Fe  Fe236     1.0  0.69803  0.06923  0.20154  1.0000
  S   S474      1.0  0.69009  0.04316  0.20400  1.0000
  Fe  Fe237     1.0  0.71385  0.09893  0.17523  1.0000
  S   S475      1.0  0.72225  0.10544  0.14548  1.0000
  S   S476      1.0  0.69938  0.07923  0.22485  1.0000
  S   S477      1.0  0.71603  0.11218  0.19587  1.0000
  Fe  Fe238     1.0  0.61288  0.02136  0.16606  1.0000
  S   S478      1.0  0.62540  0.02076  0.18885  1.0000
  Fe  Fe239     1.0  0.61756  0.02100  0.12688  1.0000
  S   S479      1.0  0.63591  0.01795  0.10027  1.0000
  H   H2777     1.0  0.77608  0.46056  0.49149  1.0000
  S   S480      1.0  0.77149  0.12124  0.32910  1.0000
  Fe  Fe240     1.0  0.78061  0.16276  0.42165  1.0000
  S   S481      1.0  0.75697  0.18494  0.41725  1.0000
  S   S482      1.0  0.77961  0.13845  0.44387  1.0000
  C   C3481     1.0  0.62649  0.15458  0.00770  1.0000
  S   S483      1.0  0.78212  0.20052  0.37889  1.0000
  C   C3482     1.0  0.62605  0.26320  0.27817  1.0000
  Fe  Fe241     1.0  0.77696  0.20247  0.40736  1.0000
  S   S484      1.0  0.76927  0.22922  0.41466  1.0000
  Fe  Fe242     1.0  0.76419  0.18110  0.38922  1.0000
  S   S485      1.0  0.74364  0.18010  0.37535  1.0000
  C   C3483     1.0  0.62075  0.11101  0.00852  1.0000
  S   S486      1.0  0.78597  0.15746  0.39445  1.0000
  Fe  Fe243     1.0  0.68383  0.30784  0.24778  1.0000
  S   S487      1.0  0.66106  0.32988  0.25592  1.0000
  S   S488      1.0  0.71224  0.30741  0.24822  1.0000
  H   H2778     1.0  0.71164  0.47630  0.24229  1.0000
  H   H2779     1.0  0.71220  0.43552  0.26933  1.0000
  S   S489      1.0  0.67662  0.30950  0.22198  1.0000
  H   H2780     1.0  0.70021  0.34481  0.26472  1.0000
  S   S490      1.0  0.64808  0.36366  0.42086  1.0000
  Fe  Fe244     1.0  0.67107  0.44940  0.41865  1.0000
  S   S491      1.0  0.69272  0.44818  0.39392  1.0000
  S   S492      1.0  0.64398  0.44359  0.42236  1.0000
  Fe  Fe245     1.0  0.69199  0.46330  0.43682  1.0000
  S   S493      1.0  0.71575  0.46251  0.41408  1.0000
  Fe  Fe246     1.0  0.69926  0.07505  0.00344  1.0000
  Fe  Fe247     1.0  0.69572  0.47427  0.39684  1.0000
  S   S494      1.0  0.78586  0.18067  0.06218  1.0000
  Fe  Fe248     1.0  0.71099  0.43629  0.41306  1.0000
  S   S495      1.0  0.73463  0.41376  0.40761  1.0000
  H   H2781     1.0  0.64140  0.46244  0.45181  1.0000
  S   S496      1.0  0.68909  0.43571  0.43777  1.0000
  Fe  Fe249     1.0  0.77289  0.31158  0.34404  1.0000
  S   S497      1.0  0.74467  0.31086  0.35851  1.0000
  H   H2782     1.0  0.71281  0.29305  0.48972  1.0000
  Fe  Fe250     1.0  0.76174  0.34411  0.31628  1.0000
  S   S498      1.0  0.73270  0.34598  0.32895  1.0000
  S   S499      1.0  0.77028  0.36337  0.29076  1.0000
  Fe  Fe251     1.0  0.74114  0.34046  0.35474  1.0000
  S   S500      1.0  0.72170  0.35556  0.37475  1.0000
  Fe  Fe252     1.0  0.73908  0.31659  0.33126  1.0000
  S   S501      1.0  0.72083  0.30255  0.32591  1.0000
  S   S502      1.0  0.76991  0.34090  0.34202  1.0000
  S   S503      1.0  0.76754  0.31492  0.31700  1.0000
  Fe  Fe253     1.0  0.68500  0.46094  0.22740  1.0000
  S   S504      1.0  0.68975  0.45701  0.19961  1.0000
  H   H2783     1.0  0.73693  0.25366  0.07540  1.0000
  Fe  Fe254     1.0  0.69617  0.42158  0.24205  1.0000
  S   S505      1.0  0.70189  0.41413  0.21575  1.0000
  S   S506      1.0  0.69821  0.40019  0.26644  1.0000
  Fe  Fe255     1.0  0.71468  0.43777  0.20555  1.0000
  S   S507      1.0  0.74036  0.43633  0.18511  1.0000
  Fe  Fe256     1.0  0.67650  0.43383  0.21229  1.0000
  S   S508      1.0  0.65610  0.42994  0.19994  1.0000
  S   S509      1.0  0.71118  0.44347  0.23234  1.0000
  S   S510      1.0  0.66949  0.43949  0.23960  1.0000
  H   H2784     1.0  0.74232  0.03171  0.29907  1.0000
  C   C3484     1.0  0.68572  0.30320  0.48595  1.0000
  H   H2785     1.0  0.65706  0.47423  0.26643  1.0000
  C   C3485     1.0  0.75170  0.37264  0.28098  1.0000
  C   C3486     1.0  0.75006  0.38948  0.26957  1.0000
  C   C3487     1.0  0.73392  0.39783  0.26406  1.0000
  C   C3488     1.0  0.71948  0.38932  0.27020  1.0000
  C   C3489     1.0  0.72161  0.37208  0.28065  1.0000
  C   C3490     1.0  0.73783  0.36361  0.28562  1.0000
  H   H2786     1.0  0.76100  0.39626  0.26553  1.0000
  H   H2787     1.0  0.73242  0.41104  0.25570  1.0000
  H   H2788     1.0  0.71062  0.36529  0.28511  1.0000
  H   H2789     1.0  0.73951  0.35006  0.29315  1.0000
  C   C3491     1.0  0.66358  0.26119  0.13543  1.0000
  H   H2790     1.0  0.73723  0.01854  0.37041  1.0000
  C   C3492     1.0  0.77980  0.20342  0.30074  1.0000
  C   C3493     1.0  0.73116  0.39784  0.39803  1.0000
  C   C3494     1.0  0.71420  0.39833  0.39592  1.0000
  C   C3495     1.0  0.71160  0.38543  0.38850  1.0000
  C   C3496     1.0  0.72598  0.37211  0.38281  1.0000
  C   C3497     1.0  0.74303  0.37171  0.38470  1.0000
  C   C3498     1.0  0.74557  0.38448  0.39242  1.0000
  H   H2791     1.0  0.70298  0.40844  0.40028  1.0000
  H   H2792     1.0  0.69835  0.38577  0.38716  1.0000
  H   H2793     1.0  0.75412  0.36136  0.38055  1.0000
  H   H2794     1.0  0.75871  0.38398  0.39410  1.0000
  C   C3499     1.0  0.64697  0.38604  0.42048  1.0000
  C   C3500     1.0  0.63100  0.39868  0.41993  1.0000
  C   C3501     1.0  0.63014  0.41629  0.42063  1.0000
  C   C3502     1.0  0.64526  0.42140  0.42166  1.0000
  C   C3503     1.0  0.66130  0.40882  0.42190  1.0000
  C   C3504     1.0  0.66211  0.39116  0.42142  1.0000
  C   C3505     1.0  0.65408  0.17126  0.25126  1.0000
  Fe  Fe257     1.0  0.59862  0.37638  0.38744  1.0000
  H   H2795     1.0  0.67309  0.41264  0.42249  1.0000
  H   H2796     1.0  0.67450  0.38150  0.42165  1.0000
  C   C3506     1.0  0.61875  0.19924  0.03313  1.0000
  C   C3507     1.0  0.64675  0.37393  0.20832  1.0000
  C   C3508     1.0  0.65899  0.37642  0.21665  1.0000
  C   C3509     1.0  0.66235  0.39354  0.21389  1.0000
  C   C3510     1.0  0.65321  0.40812  0.20313  1.0000
  C   C3511     1.0  0.64126  0.40547  0.19465  1.0000
  C   C3512     1.0  0.63813  0.38845  0.19714  1.0000
  H   H2797     1.0  0.66576  0.36522  0.22524  1.0000
  H   H2798     1.0  0.67186  0.39549  0.22017  1.0000
  H   H2799     1.0  0.63428  0.41664  0.18620  1.0000
  C   C3513     1.0  0.61302  0.38408  0.24163  1.0000
  C   C3514     1.0  0.71466  0.30699  0.26957  1.0000
  C   C3515     1.0  0.73029  0.31004  0.27199  1.0000
  C   C3516     1.0  0.73224  0.30930  0.28920  1.0000
  C   C3517     1.0  0.71860  0.30534  0.30395  1.0000
  C   C3518     1.0  0.70300  0.30257  0.30136  1.0000
  C   C3519     1.0  0.70101  0.30335  0.28428  1.0000
  H   H2800     1.0  0.74088  0.31291  0.26060  1.0000
  H   H2801     1.0  0.74433  0.31150  0.29108  1.0000
  H   H2802     1.0  0.69222  0.30019  0.31262  1.0000
  H   H2803     1.0  0.68887  0.30118  0.28251  1.0000
  C   C3520     1.0  0.77735  0.24595  0.39735  1.0000
  H   H2804     1.0  0.61409  0.08613  0.20452  1.0000
  H   H2805     1.0  0.65386  0.00208  0.20601  1.0000
  H   H2806     1.0  0.66737  0.05170  0.00726  1.0000
  C   C3521     1.0  0.77423  0.27727  0.38281  1.0000
  C   C3522     1.0  0.76824  0.26367  0.39659  1.0000
  H   H2807     1.0  0.71328  0.03572  0.35427  1.0000
  H   H2808     1.0  0.61287  0.18227  0.24172  1.0000
  H   H2809     1.0  0.76712  0.29091  0.38243  1.0000
  H   H2810     1.0  0.75617  0.26682  0.40630  1.0000
  S   S511      1.0  0.66948  0.28576  0.26288  1.0000
  C   C3523     1.0  0.67528  0.34727  0.28392  1.0000
  S   S512      1.0  0.60143  0.17871  0.20029  1.0000
  H   H2811     1.0  0.73848  0.47815  0.48287  1.0000
  H   H2812     1.0  0.61731  0.42229  0.26037  1.0000
  C   C3524     1.0  0.76404  0.13893  0.34032  1.0000
  C   C3525     1.0  0.77580  0.14828  0.34200  1.0000
  C   C3526     1.0  0.76972  0.16077  0.35301  1.0000
  C   C3527     1.0  0.75171  0.16459  0.36150  1.0000
  C   C3528     1.0  0.73986  0.15580  0.35910  1.0000
  C   C3529     1.0  0.74605  0.14282  0.34878  1.0000
  C   C3530     1.0  0.64230  0.00014  0.03374  1.0000
  H   H2813     1.0  0.77894  0.16743  0.35493  1.0000
  H   H2814     1.0  0.72595  0.15868  0.36567  1.0000
  H   H2815     1.0  0.73692  0.13560  0.34755  1.0000
  H   H2816     1.0  0.74364  0.44235  0.37368  1.0000
  C   C3531     1.0  0.77211  0.44242  0.21389  1.0000
  C   C3532     1.0  0.75710  0.44320  0.20758  1.0000
  C   C3533     1.0  0.75889  0.43520  0.19347  1.0000
  C   C3534     1.0  0.77575  0.42653  0.18561  1.0000
  H   H2817     1.0  0.77074  0.44905  0.22443  1.0000
  H   H2818     1.0  0.74428  0.45052  0.21321  1.0000
  H   H2819     1.0  0.77715  0.42026  0.17476  1.0000
  C   C3535     1.0  0.76009  0.09056  0.22941  1.0000
  C   C3536     1.0  0.77408  0.08339  0.23856  1.0000
  C   C3537     1.0  0.78197  0.09454  0.24367  1.0000
  C   C3538     1.0  0.77607  0.11306  0.23946  1.0000
  C   C3539     1.0  0.76227  0.12017  0.23008  1.0000
  C   C3540     1.0  0.75419  0.10901  0.22527  1.0000
  H   H2820     1.0  0.77891  0.06914  0.24159  1.0000
  C   C3541     1.0  0.63377  0.08006  0.00790  1.0000
  H   H2821     1.0  0.75772  0.13445  0.22660  1.0000
  H   H2822     1.0  0.74338  0.11469  0.21835  1.0000
  C   C3542     1.0  0.67263  0.03796  0.19765  1.0000
  C   C3543     1.0  0.66131  0.05028  0.18710  1.0000
  C   C3544     1.0  0.64731  0.04509  0.18323  1.0000
  C   C3545     1.0  0.64451  0.02760  0.19002  1.0000
  C   C3546     1.0  0.65601  0.01547  0.20034  1.0000
  C   C3547     1.0  0.67003  0.02049  0.20387  1.0000
  H   H2823     1.0  0.66317  0.06380  0.18226  1.0000
  H   H2824     1.0  0.63829  0.05478  0.17567  1.0000
  H   H2825     1.0  0.67860  0.01085  0.21203  1.0000
  H   H2826     1.0  0.76922  0.25064  0.06836  1.0000
  C   C3548     1.0  0.75625  0.14712  0.12192  1.0000
  C   C3549     1.0  0.75314  0.13994  0.14024  1.0000
  C   C3550     1.0  0.74274  0.12704  0.14763  1.0000
  C   C3551     1.0  0.73571  0.12113  0.13663  1.0000
  C   C3552     1.0  0.73931  0.12790  0.11825  1.0000
  C   C3553     1.0  0.74916  0.14124  0.11094  1.0000
  H   H2827     1.0  0.75843  0.14464  0.14876  1.0000
  H   H2828     1.0  0.74017  0.12167  0.16177  1.0000
  H   H2829     1.0  0.73438  0.12293  0.10967  1.0000
  H   H2830     1.0  0.75146  0.14678  0.09679  1.0000
  C   C3554     1.0  0.65216  0.07030  0.07014  1.0000
  C   C3555     1.0  0.65930  0.05525  0.06265  1.0000
  C   C3556     1.0  0.65414  0.03904  0.07172  1.0000
  C   C3557     1.0  0.64165  0.03817  0.08799  1.0000
  C   C3558     1.0  0.63375  0.05359  0.09454  1.0000
  C   C3559     1.0  0.63909  0.06951  0.08574  1.0000
  H   H2831     1.0  0.66913  0.05596  0.05027  1.0000
  H   H2832     1.0  0.66005  0.02720  0.06635  1.0000
  H   H2833     1.0  0.62348  0.05334  0.10638  1.0000
  H   H2834     1.0  0.63325  0.08126  0.09115  1.0000
  H   H2835     1.0  0.61247  0.32484  0.35309  1.0000
  C   C3560     1.0  0.74842  0.12353  0.04393  1.0000
  C   C3561     1.0  0.75347  0.13924  0.04368  1.0000
  C   C3562     1.0  0.75181  0.15384  0.02938  1.0000
  C   C3563     1.0  0.78815  0.43091  0.27617  1.0000
  H   H2836     1.0  0.75038  0.11213  0.05471  1.0000
  H   H2837     1.0  0.75937  0.13981  0.05414  1.0000
  C   C3564     1.0  0.62199  0.35799  0.48414  1.0000
  H   H2838     1.0  0.63916  0.06937  0.00084  1.0000
  C   C3565     1.0  0.75960  0.48945  0.17303  1.0000
  C   C3566     1.0  0.71715  0.48203  0.24986  1.0000
  C   C3567     1.0  0.61170  0.36760  0.33496  1.0000
  C   C3568     1.0  0.77360  0.09422  0.43884  1.0000
  H   H2839     1.0  0.61884  0.15027  0.02088  1.0000
  C   C3569     1.0  0.61045  0.04641  0.05796  1.0000
  H   H2840     1.0  0.76660  0.09362  0.27789  1.0000
  C   C3570     1.0  0.77501  0.09029  0.45660  1.0000
  C   C3571     1.0  0.63479  0.13357  0.06680  1.0000
  H   H2841     1.0  0.65611  0.28896  0.07200  1.0000
  H   H2842     1.0  0.70030  0.26684  0.47622  1.0000
  H   H2843     1.0  0.65201  0.30945  0.09383  1.0000
  C   C3572     1.0  0.64951  0.13781  0.21745  1.0000
  C   C3573     1.0  0.63270  0.13945  0.22892  1.0000
  C   C3574     1.0  0.61795  0.15157  0.22327  1.0000
  C   C3575     1.0  0.62001  0.16266  0.20633  1.0000
  C   C3576     1.0  0.63683  0.16107  0.19474  1.0000
  C   C3577     1.0  0.65156  0.14845  0.20022  1.0000
  H   H2844     1.0  0.63110  0.13136  0.24228  1.0000
  H   H2845     1.0  0.74287  0.16396  0.00469  1.0000
  H   H2846     1.0  0.63856  0.16966  0.18164  1.0000
  H   H2847     1.0  0.66457  0.14747  0.19142  1.0000
  C   C3578     1.0  0.68270  0.21182  0.12647  1.0000
  C   C3579     1.0  0.70120  0.20922  0.12278  1.0000
  C   C3580     1.0  0.71041  0.21521  0.10557  1.0000
  C   C3581     1.0  0.70111  0.22465  0.09225  1.0000
  C   C3582     1.0  0.68250  0.22806  0.09614  1.0000
  C   C3583     1.0  0.67327  0.22143  0.11326  1.0000
  H   H2848     1.0  0.70844  0.20201  0.13310  1.0000
  H   H2849     1.0  0.72473  0.21240  0.10258  1.0000
  H   H2850     1.0  0.67533  0.23527  0.08581  1.0000
  H   H2851     1.0  0.65895  0.22347  0.11614  1.0000
  H   H2852     1.0  0.73284  0.14600  0.19488  1.0000
  H   H2853     1.0  0.61563  0.12452  0.00235  1.0000
  C   C3584     1.0  0.61447  0.23002  0.04548  1.0000
  H   H2854     1.0  0.77718  0.09681  0.12891  1.0000
  C   C3585     1.0  0.77810  0.09490  0.14259  1.0000
  P   P118      1.0  0.77903  0.06723  0.48944  1.0000
  H   H2855     1.0  0.62175  0.35857  0.06906  1.0000
  P   P119      1.0  0.60649  0.99982  0.04848  1.0000
  C   C3586     1.0  0.65905  0.03467  0.99541  1.0000
  C   C3587     1.0  0.62274  0.32212  0.34157  1.0000
  C   C3588     1.0  0.65946  0.26673  0.06039  1.0000
  H   H2856     1.0  0.76840  0.49282  0.41929  1.0000
  H   H2857     1.0  0.62283  0.25112  0.10031  1.0000
  H   H2858     1.0  0.77919  0.36506  0.11175  1.0000
  C   C3589     1.0  0.63310  0.20235  0.03798  1.0000
  C   C3590     1.0  0.67282  0.30419  0.45457  1.0000
  C   C3591     1.0  0.70452  0.48445  0.33489  1.0000
  H   H2859     1.0  0.68874  0.34514  0.38540  1.0000
  S   S513      1.0  0.61076  0.26393  0.17751  1.0000
  H   H2860     1.0  0.65961  0.31200  0.30026  1.0000
  C   C3592     1.0  0.68251  0.17309  0.01238  1.0000
  H   H2861     1.0  0.62238  0.34430  0.49128  1.0000
  H   H2862     1.0  0.65752  0.20682  0.21635  1.0000
  C   C3593     1.0  0.60531  0.28085  0.11489  1.0000
  H   H2863     1.0  0.69657  0.21960  0.03850  1.0000
  C   C3594     1.0  0.79276  0.24187  0.38443  1.0000
  P   P120      1.0  0.75305  0.22594  0.32011  1.0000
  H   H2864     1.0  0.61335  0.29838  0.40797  1.0000
  H   H2865     1.0  0.72630  0.24311  0.46810  1.0000
  C   C3595     1.0  0.77684  0.09676  0.37387  1.0000
  C   C3596     1.0  0.75859  0.10401  0.37832  1.0000
  C   C3597     1.0  0.75241  0.11718  0.38833  1.0000
  C   C3598     1.0  0.76446  0.12303  0.39402  1.0000
  C   C3599     1.0  0.78271  0.11579  0.38960  1.0000
  C   C3600     1.0  0.74885  0.47957  0.43855  1.0000
  H   H2866     1.0  0.66551  0.24889  0.41718  1.0000
  C   C3601     1.0  0.62203  0.24314  0.25627  1.0000
  C   C3602     1.0  0.65765  0.19307  0.00040  1.0000
  H   H2867     1.0  0.66097  0.40746  0.27296  1.0000
  H   H2868     1.0  0.60698  0.07487  0.99392  1.0000
  H   H2869     1.0  0.73157  0.22098  0.12574  1.0000
  H   H2870     1.0  0.74500  0.47501  0.42882  1.0000
  H   H2871     1.0  0.74426  0.46974  0.23974  1.0000
  H   H2872     1.0  0.77865  0.19742  0.16080  1.0000
  C   C3603     1.0  0.77161  0.28874  0.13243  1.0000
  H   H2873     1.0  0.78066  0.04515  0.46495  1.0000
  C   C3604     1.0  0.70561  0.21177  0.34700  1.0000
  H   H2874     1.0  0.74929  0.09980  0.37351  1.0000
  H   H2875     1.0  0.73833  0.12319  0.39132  1.0000
  H   H2876     1.0  0.75967  0.13343  0.40157  1.0000
  C   C3605     1.0  0.78790  0.46608  0.48788  1.0000
  C   C3606     1.0  0.74550  0.32304  0.20207  1.0000
  C   C3607     1.0  0.75939  0.31111  0.19370  1.0000
  C   C3608     1.0  0.77235  0.31753  0.17949  1.0000
  C   C3609     1.0  0.77127  0.33587  0.17345  1.0000
  C   C3610     1.0  0.75694  0.34797  0.18132  1.0000
  C   C3611     1.0  0.74439  0.34139  0.19606  1.0000
  P   P121      1.0  0.75575  0.37166  0.17404  1.0000
  C   C3612     1.0  0.76337  0.37790  0.19037  1.0000
  C   C3613     1.0  0.76924  0.37681  0.15190  1.0000
  C   C3614     1.0  0.78066  0.38871  0.14766  1.0000
  C   C3615     1.0  0.63778  0.36366  0.47513  1.0000
  C   C3616     1.0  0.60477  0.38778  0.47473  1.0000
  H   H2877     1.0  0.71288  0.41280  0.29691  1.0000
  C   C3617     1.0  0.65148  0.42961  0.28558  1.0000
  C   C3618     1.0  0.75102  0.38551  0.20396  1.0000
  C   C3619     1.0  0.75689  0.39043  0.21653  1.0000
  C   C3620     1.0  0.77511  0.38770  0.21572  1.0000
  H   H2878     1.0  0.66025  0.39135  0.25154  1.0000
  C   C3621     1.0  0.78166  0.37456  0.19005  1.0000
  C   C3622     1.0  0.73344  0.38422  0.17259  1.0000
  C   C3623     1.0  0.71948  0.37589  0.17416  1.0000
  C   C3624     1.0  0.70209  0.38597  0.17436  1.0000
  C   C3625     1.0  0.69864  0.40443  0.17248  1.0000
  C   C3626     1.0  0.71259  0.41286  0.17010  1.0000
  C   C3627     1.0  0.72993  0.40281  0.17003  1.0000
  H   H2879     1.0  0.73556  0.31809  0.21327  1.0000
  H   H2880     1.0  0.76019  0.29691  0.19836  1.0000
  H   H2881     1.0  0.60734  0.41309  0.30442  1.0000
  H   H2882     1.0  0.73374  0.35043  0.20295  1.0000
  H   H2883     1.0  0.78119  0.39564  0.15734  1.0000
  H   H2884     1.0  0.63313  0.17443  0.07312  1.0000
  H   H2885     1.0  0.75933  0.35991  0.14146  1.0000
  H   H2886     1.0  0.73684  0.38785  0.20482  1.0000
  H   H2887     1.0  0.74726  0.39672  0.22667  1.0000
  C   C3628     1.0  0.68653  0.18336  0.06981  1.0000
  C   C3629     1.0  0.79428  0.38454  0.31045  1.0000
  H   H2888     1.0  0.66990  0.00075  0.02207  1.0000
  H   H2889     1.0  0.72182  0.36169  0.17535  1.0000
  H   H2890     1.0  0.69120  0.37949  0.17621  1.0000
  H   H2891     1.0  0.68512  0.41220  0.17295  1.0000
  H   H2892     1.0  0.70994  0.42716  0.16873  1.0000
  H   H2893     1.0  0.74059  0.40949  0.16837  1.0000
  H   H2894     1.0  0.77958  0.39209  0.22512  1.0000
  H   H2895     1.0  0.63601  0.23387  0.07704  1.0000
  C   C3630     1.0  0.73042  0.48281  0.18749  1.0000
  C   C3631     1.0  0.63195  0.31339  0.31284  1.0000
  S   S514      1.0  0.67180  0.09202  0.00877  1.0000
  C   C3632     1.0  0.78935  0.09683  0.05829  1.0000
  H   H2896     1.0  0.63610  0.47581  0.23444  1.0000
  Fe  Fe258     1.0  0.60691  0.22174  0.14036  1.0000
  C   C3633     1.0  0.68958  0.47683  0.34094  1.0000
  H   H2897     1.0  0.62075  0.40688  0.45855  1.0000
  H   H2898     1.0  0.64938  0.38572  0.45891  1.0000
  H   H2899     1.0  0.63070  0.44812  0.25622  1.0000
  H   H2900     1.0  0.65051  0.35436  0.47500  1.0000
  C   C3634     1.0  0.66896  0.19073  0.04735  1.0000
  C   C3635     1.0  0.75399  0.11563  0.29052  1.0000
  C   C3636     1.0  0.74253  0.12129  0.30549  1.0000
  C   C3637     1.0  0.76288  0.05139  0.11632  1.0000
  H   H2901     1.0  0.76063  0.12495  0.27996  1.0000
  H   H2902     1.0  0.74047  0.13494  0.30665  1.0000
  H   H2903     1.0  0.76113  0.10396  0.49217  1.0000
  C   C3638     1.0  0.75056  0.24074  0.36612  1.0000
  C   C3639     1.0  0.75151  0.25864  0.36028  1.0000
  C   C3640     1.0  0.75331  0.26658  0.34223  1.0000
  H   H2904     1.0  0.74959  0.23451  0.38007  1.0000
  H   H2905     1.0  0.75074  0.26642  0.36972  1.0000
  H   H2906     1.0  0.75394  0.28050  0.33775  1.0000
  C   C3641     1.0  0.79133  0.38303  0.11789  1.0000
  H   H2907     1.0  0.69045  0.17477  0.08169  1.0000
  C   C3642     1.0  0.76250  0.03875  0.33262  1.0000
  C   C3643     1.0  0.72882  0.49229  0.20036  1.0000
  C   C3644     1.0  0.74102  0.12242  0.03027  1.0000
  C   C3645     1.0  0.61584  0.41154  0.25551  1.0000
  C   C3646     1.0  0.77499  0.10556  0.08638  1.0000
  C   C3647     1.0  0.64076  0.47826  0.48746  1.0000
  H   H2908     1.0  0.64878  0.13214  0.01016  1.0000
  H   H2909     1.0  0.62627  0.20578  0.21918  1.0000
  H   H2910     1.0  0.60019  0.11277  0.18493  1.0000
  H   H2911     1.0  0.75214  0.25064  0.44423  1.0000
  H   H2912     1.0  0.76463  0.45822  0.11585  1.0000
  C   C3648     1.0  0.70311  0.42516  0.29715  1.0000
  H   H2913     1.0  0.63054  0.12121  0.07354  1.0000
  Fe  Fe259     1.0  0.60969  0.20014  0.17721  1.0000
  C   C3649     1.0  0.60992  0.41147  0.35531  1.0000
  C   C3650     1.0  0.75744  0.09781  0.28943  1.0000
  C   C3651     1.0  0.76189  0.43248  0.26566  1.0000
  C   C3652     1.0  0.75295  0.42716  0.28317  1.0000
  C   C3653     1.0  0.76153  0.42373  0.29721  1.0000
  Fe  Fe260     1.0  0.71508  0.09874  0.01816  1.0000
  C   C3654     1.0  0.63082  0.21777  0.04432  1.0000
  C   C3655     1.0  0.65173  0.19679  0.22668  1.0000
  H   H2914     1.0  0.63596  0.24711  0.43675  1.0000
  C   C3656     1.0  0.63843  0.33481  0.08115  1.0000
  H   H2915     1.0  0.75530  0.43470  0.25479  1.0000
  H   H2916     1.0  0.73950  0.42527  0.28586  1.0000
  H   H2917     1.0  0.75439  0.41942  0.31063  1.0000
  C   C3657     1.0  0.65457  0.28716  0.44902  1.0000
  H   H2918     1.0  0.71717  0.26624  0.27747  1.0000
  S   S515      1.0  0.63558  0.30980  0.24537  1.0000
  C   C3658     1.0  0.63755  0.23876  0.26289  1.0000
  C   C3659     1.0  0.64038  0.24591  0.07593  1.0000
  C   C3660     1.0  0.78662  0.48452  0.48197  1.0000
  C   C3661     1.0  0.63085  0.14763  0.07548  1.0000
  C   C3662     1.0  0.64428  0.13538  0.04919  1.0000
  H   H2919     1.0  0.62308  0.14643  0.08898  1.0000
  C   C3663     1.0  0.67932  0.12991  0.07701  1.0000
  C   C3664     1.0  0.69718  0.13014  0.06911  1.0000
  C   C3665     1.0  0.70784  0.13392  0.07826  1.0000
  C   C3666     1.0  0.70062  0.13773  0.09516  1.0000
  C   C3667     1.0  0.68248  0.13844  0.10289  1.0000
  C   C3668     1.0  0.67195  0.13411  0.09378  1.0000
  P   P122      1.0  0.67208  0.14647  0.12329  1.0000
  C   C3669     1.0  0.66118  0.13017  0.13988  1.0000
  C   C3670     1.0  0.68743  0.15236  0.13284  1.0000
  C   C3671     1.0  0.68730  0.14647  0.15116  1.0000
  C   C3672     1.0  0.69888  0.15117  0.15859  1.0000
  C   C3673     1.0  0.71102  0.16141  0.14780  1.0000
  C   C3674     1.0  0.71159  0.16698  0.12959  1.0000
  C   C3675     1.0  0.69960  0.16290  0.12223  1.0000
  C   C3676     1.0  0.64781  0.13553  0.15414  1.0000
  C   C3677     1.0  0.64034  0.12286  0.16790  1.0000
  C   C3678     1.0  0.64606  0.10480  0.16743  1.0000
  C   C3679     1.0  0.65926  0.09941  0.15324  1.0000
  C   C3680     1.0  0.66686  0.11202  0.13952  1.0000
  C   C3681     1.0  0.65527  0.16575  0.11678  1.0000
  C   C3682     1.0  0.63867  0.16353  0.11581  1.0000
  C   C3683     1.0  0.62668  0.17791  0.10811  1.0000
  C   C3684     1.0  0.63135  0.19443  0.10097  1.0000
  C   C3685     1.0  0.64746  0.19690  0.10250  1.0000
  C   C3686     1.0  0.65926  0.18273  0.11061  1.0000
  H   H2920     1.0  0.67123  0.12652  0.07001  1.0000
  H   H2921     1.0  0.70292  0.12698  0.05606  1.0000
  H   H2922     1.0  0.72179  0.13377  0.07232  1.0000
  H   H2923     1.0  0.70930  0.14026  0.10193  1.0000
  H   H2924     1.0  0.65799  0.13422  0.09949  1.0000
  H   H2925     1.0  0.67844  0.13815  0.15989  1.0000
  H   H2926     1.0  0.69857  0.14663  0.17269  1.0000
  H   H2927     1.0  0.72027  0.16473  0.15346  1.0000
  H   H2928     1.0  0.72136  0.17450  0.12111  1.0000
  H   H2929     1.0  0.70012  0.16790  0.10818  1.0000
  H   H2930     1.0  0.64376  0.14942  0.15500  1.0000
  H   H2931     1.0  0.63053  0.12705  0.17919  1.0000
  H   H2932     1.0  0.64067  0.09492  0.17831  1.0000
  H   H2933     1.0  0.66390  0.08537  0.15313  1.0000
  H   H2934     1.0  0.67745  0.10757  0.12894  1.0000
  H   H2935     1.0  0.63512  0.15065  0.12060  1.0000
  H   H2936     1.0  0.62012  0.18726  0.02850  1.0000
  S   S516      1.0  0.62719  0.23690  0.13992  1.0000
  H   H2937     1.0  0.65091  0.20979  0.09728  1.0000
  H   H2938     1.0  0.67156  0.18516  0.11159  1.0000
  C   C3687     1.0  0.63668  0.16338  0.06655  1.0000
  H   H2939     1.0  0.76959  0.17727  0.14762  1.0000
  C   C3688     1.0  0.79048  0.06067  0.29699  1.0000
  H   H2940     1.0  0.72062  0.05482  0.32450  1.0000
  S   S517      1.0  0.78853  0.29565  0.08613  1.0000
  H   H2941     1.0  0.72433  0.02805  0.28007  1.0000
  S   S518      1.0  0.61338  0.04289  0.14146  1.0000
  C   C3689     1.0  0.62276  0.34466  0.07565  1.0000
  H   H2942     1.0  0.65099  0.28144  0.36617  1.0000
  C   C3690     1.0  0.60967  0.31863  0.08721  1.0000
  C   C3691     1.0  0.78675  0.10412  0.16506  1.0000
  C   C3692     1.0  0.73701  0.04317  0.28967  1.0000
  S   S519      1.0  0.67781  0.48893  0.23184  1.0000
  C   C3693     1.0  0.72702  0.03658  0.34824  1.0000
  C   C3694     1.0  0.66764  0.05989  0.12141  1.0000
  C   C3695     1.0  0.69369  0.04163  0.08639  1.0000
  C   C3696     1.0  0.70490  0.04113  0.06965  1.0000
  C   C3697     1.0  0.65277  0.06092  0.13560  1.0000
  C   C3698     1.0  0.63962  0.07659  0.13579  1.0000
  C   C3699     1.0  0.64124  0.09136  0.12175  1.0000
  C   C3700     1.0  0.65566  0.09024  0.10727  1.0000
  C   C3701     1.0  0.66874  0.07455  0.10703  1.0000
  H   H2943     1.0  0.67949  0.04337  0.08787  1.0000
  H   H2944     1.0  0.69932  0.04212  0.05840  1.0000
  H   H2945     1.0  0.65139  0.04964  0.14659  1.0000
  H   H2946     1.0  0.62826  0.07726  0.14689  1.0000
  H   H2947     1.0  0.63124  0.10359  0.12195  1.0000
  H   H2948     1.0  0.65653  0.10136  0.09596  1.0000
  H   H2949     1.0  0.67964  0.07399  0.09556  1.0000
  C   C3702     1.0  0.62305  0.47544  0.24310  1.0000
  H   H2950     1.0  0.66163  0.16143  0.26027  1.0000
  Fe  Fe261     1.0  0.65270  0.32976  0.23135  1.0000
  C   C3703     1.0  0.68601  0.21711  0.24053  1.0000
  C   C3704     1.0  0.72386  0.07219  0.26454  1.0000
  Fe  Fe262     1.0  0.61355  0.23863  0.16808  1.0000
  C   C3705     1.0  0.67505  0.37795  0.31081  1.0000
  C   C3706     1.0  0.67488  0.36244  0.32408  1.0000
  C   C3707     1.0  0.67966  0.36144  0.33991  1.0000
  C   C3708     1.0  0.68503  0.37574  0.34234  1.0000
  C   C3709     1.0  0.68459  0.39159  0.32926  1.0000
  C   C3710     1.0  0.67945  0.39258  0.31353  1.0000
  P   P123      1.0  0.69035  0.41050  0.33283  1.0000
  C   C3711     1.0  0.67452  0.41862  0.35146  1.0000
  C   C3712     1.0  0.71297  0.40362  0.33603  1.0000
  C   C3713     1.0  0.71840  0.41018  0.34785  1.0000
  C   C3714     1.0  0.73602  0.40491  0.34990  1.0000
  C   C3715     1.0  0.74836  0.39285  0.34044  1.0000
  C   C3716     1.0  0.74315  0.38643  0.32850  1.0000
  C   C3717     1.0  0.72555  0.39172  0.32631  1.0000
  C   C3718     1.0  0.67541  0.43438  0.35546  1.0000
  C   C3719     1.0  0.66229  0.44176  0.36864  1.0000
  C   C3720     1.0  0.64815  0.43348  0.37788  1.0000
  C   C3721     1.0  0.64735  0.41756  0.37437  1.0000
  C   C3722     1.0  0.66038  0.41019  0.36117  1.0000
  C   C3723     1.0  0.69044  0.42784  0.31276  1.0000
  C   C3724     1.0  0.67716  0.44350  0.31213  1.0000
  H   H2951     1.0  0.67194  0.37882  0.29827  1.0000
  H   H2952     1.0  0.67105  0.35118  0.32219  1.0000
  H   H2953     1.0  0.67902  0.34955  0.35028  1.0000
  H   H2954     1.0  0.68907  0.37463  0.35458  1.0000
  H   H2955     1.0  0.67896  0.40448  0.30315  1.0000
  H   H2956     1.0  0.70908  0.41879  0.35607  1.0000
  H   H2957     1.0  0.73978  0.40948  0.35959  1.0000
  H   H2958     1.0  0.76181  0.38821  0.34263  1.0000
  H   H2959     1.0  0.75265  0.37707  0.32118  1.0000
  H   H2960     1.0  0.72175  0.38626  0.31721  1.0000
  H   H2961     1.0  0.68589  0.44128  0.34786  1.0000
  H   H2962     1.0  0.66274  0.45409  0.37149  1.0000
  H   H2963     1.0  0.63767  0.43956  0.38760  1.0000
  C   C3725     1.0  0.71315  0.15963  0.24899  1.0000
  H   H2964     1.0  0.65884  0.39832  0.35830  1.0000
  H   H2965     1.0  0.66690  0.44568  0.32369  1.0000
  C   C3726     1.0  0.69912  0.24268  0.39342  1.0000
  H   H2966     1.0  0.70888  0.37305  0.42851  1.0000
  H   H2967     1.0  0.60634  0.33347  0.44368  1.0000
  H   H2968     1.0  0.78653  0.43831  0.24858  1.0000
  H   H2969     1.0  0.73033  0.46765  0.46061  1.0000
  C   C3727     1.0  0.74046  0.05996  0.28807  1.0000
  C   C3728     1.0  0.63962  0.24887  0.27370  1.0000
  H   H2970     1.0  0.76659  0.08130  0.04524  1.0000
  C   C3729     1.0  0.79837  0.13157  0.45346  1.0000
  C   C3730     1.0  0.74370  0.08176  0.08791  1.0000
  C   C3731     1.0  0.61303  0.02844  0.05774  1.0000
  H   H2971     1.0  0.63056  0.16025  0.26235  1.0000
  H   H2972     1.0  0.67021  0.27060  0.04956  1.0000
  S   S520      1.0  0.62773  0.33208  0.40649  1.0000
  H   H2973     1.0  0.60106  0.49248  0.48133  1.0000
  C   C3732     1.0  0.77011  0.08219  0.15578  1.0000
  C   C3733     1.0  0.78021  0.33484  0.21927  1.0000
  C   C3734     1.0  0.76488  0.33856  0.23230  1.0000
  C   C3735     1.0  0.76612  0.34298  0.24757  1.0000
  C   C3736     1.0  0.60245  0.21150  0.03429  1.0000
  H   H2974     1.0  0.70128  0.35546  0.41138  1.0000
  S   S521      1.0  0.73682  0.10169  0.03009  1.0000
  H   H2975     1.0  0.73297  0.13665  0.00576  1.0000
  C   C3737     1.0  0.77446  0.08058  0.43061  1.0000
  H   H2976     1.0  0.71417  0.20315  0.21535  1.0000
  C   C3738     1.0  0.67952  0.27458  0.36487  1.0000
  C   C3739     1.0  0.69767  0.18828  0.18143  1.0000
  C   C3740     1.0  0.63733  0.29246  0.13169  1.0000
  H   H2977     1.0  0.61912  0.29303  0.18640  1.0000
  C   C3741     1.0  0.70639  0.09210  0.09667  1.0000
  S   S522      1.0  0.78597  0.12801  0.24463  1.0000
  C   C3742     1.0  0.67661  0.45629  0.29629  1.0000
  C   C3743     1.0  0.70153  0.35025  0.42532  1.0000
  H   H2978     1.0  0.78643  0.43026  0.12343  1.0000
  H   H2979     1.0  0.75199  0.33808  0.23062  1.0000
  H   H2980     1.0  0.75420  0.34588  0.25768  1.0000
  H   H2981     1.0  0.77331  0.08371  0.41685  1.0000
  C   C3744     1.0  0.72320  0.03956  0.06739  1.0000
  H   H2982     1.0  0.73179  0.03958  0.05429  1.0000
  P   P124      1.0  0.68593  0.04073  0.12270  1.0000
  H   H2983     1.0  0.76447  0.27781  0.08015  1.0000
  H   H2984     1.0  0.64443  0.20145  0.00205  1.0000
  C   C3745     1.0  0.70069  0.04007  0.10115  1.0000
  C   C3746     1.0  0.68997  0.20865  0.04539  1.0000
  S   S523      1.0  0.63178  0.45457  0.33697  1.0000
  H   H2985     1.0  0.70687  0.08559  0.07205  1.0000
  H   H2986     1.0  0.72684  0.25410  0.42023  1.0000
  H   H2987     1.0  0.60565  0.42926  0.23318  1.0000
  C   C3747     1.0  0.77909  0.09100  0.17815  1.0000
  C   C3748     1.0  0.67749  0.48011  0.33005  1.0000
  H   H2988     1.0  0.67291  0.02245  0.15929  1.0000
  H   H2989     1.0  0.62245  0.20541  0.09435  1.0000
  H   H2990     1.0  0.66596  0.46808  0.29593  1.0000
  H   H2991     1.0  0.77404  0.06184  0.02405  1.0000
  C   C3749     1.0  0.63639  0.17064  0.25261  1.0000
  C   C3750     1.0  0.78042  0.25446  0.07033  1.0000
  C   C3751     1.0  0.77779  0.26990  0.07692  1.0000
  H   H2992     1.0  0.78769  0.40524  0.35074  1.0000
  C   C3752     1.0  0.62001  0.45983  0.25540  1.0000
  C   C3753     1.0  0.71865  0.25561  0.17279  1.0000
  C   C3754     1.0  0.71890  0.25091  0.41295  1.0000
  C   C3755     1.0  0.67174  0.01504  0.15030  1.0000
  H   H2993     1.0  0.60011  0.27873  0.27528  1.0000
  C   C3756     1.0  0.69461  0.19774  0.06104  1.0000
  H   H2994     1.0  0.73152  0.08215  0.32921  1.0000
  C   C3757     1.0  0.62006  0.38004  0.25681  1.0000
  C   C3758     1.0  0.67672  0.02093  0.13176  1.0000
  H   H2995     1.0  0.70072  0.30023  0.36132  1.0000
  C   C3759     1.0  0.72614  0.25684  0.46117  1.0000
  C   C3760     1.0  0.65424  0.26545  0.12182  1.0000
  C   C3761     1.0  0.77453  0.06023  0.06703  1.0000
  C   C3762     1.0  0.73554  0.47829  0.24848  1.0000
  C   C3763     1.0  0.74656  0.14746  0.19153  1.0000
  C   C3764     1.0  0.72688  0.04101  0.27890  1.0000
  H   H2996     1.0  0.69097  0.07111  0.13354  1.0000
  H   H2997     1.0  0.79187  0.12039  0.39421  1.0000
  C   C3765     1.0  0.75396  0.25672  0.32998  1.0000
  H   H2998     1.0  0.78116  0.08659  0.36615  1.0000
  H   H2999     1.0  0.76659  0.10339  0.09955  1.0000
  C   C3766     1.0  0.78912  0.10286  0.37918  1.0000
  C   C3767     1.0  0.70262  0.43799  0.28133  1.0000
  H   H3000     1.0  0.63712  0.49438  0.43807  1.0000
  C   C3768     1.0  0.77095  0.47146  0.13280  1.0000
  H   H3001     1.0  0.79249  0.08788  0.04940  1.0000
  H   H3002     1.0  0.70138  0.33197  0.47549  1.0000
  C   C3769     1.0  0.61974  0.17055  0.99676  1.0000
  H   H3003     1.0  0.76295  0.07430  0.15231  1.0000
  C   C3770     1.0  0.76022  0.13431  0.18471  1.0000
  C   C3771     1.0  0.67439  0.01124  0.12059  1.0000
  C   C3772     1.0  0.71655  0.09312  0.10788  1.0000
  C   C3773     1.0  0.75092  0.23086  0.35396  1.0000
  C   C3774     1.0  0.73510  0.08806  0.10355  1.0000
  H   H3004     1.0  0.62287  0.01883  0.06450  1.0000
  H   H3005     1.0  0.60214  0.00236  0.08569  1.0000
  C   C3775     1.0  0.61871  0.31687  0.32790  1.0000
  H   H3006     1.0  0.79033  0.46962  0.18799  1.0000
  H   H3007     1.0  0.63404  0.37914  0.32003  1.0000
  C   C3776     1.0  0.62734  0.09740  0.99890  1.0000
  C   C3777     1.0  0.69834  0.05900  0.14049  1.0000
  C   C3778     1.0  0.69823  0.04234  0.13790  1.0000
  C   C3779     1.0  0.73033  0.03816  0.08198  1.0000
  C   C3780     1.0  0.71915  0.03837  0.09882  1.0000
  C   C3781     1.0  0.60937  0.49065  0.24216  1.0000
  H   H3008     1.0  0.67742  0.01558  0.10631  1.0000
  C   C3782     1.0  0.74051  0.02690  0.35733  1.0000
  H   H3009     1.0  0.75672  0.12286  0.18290  1.0000
  H   H3010     1.0  0.71002  0.09810  0.11985  1.0000
  H   H3011     1.0  0.61081  0.16256  0.15563  1.0000
  P   P125      1.0  0.62718  0.28546  0.10395  1.0000
  H   H3012     1.0  0.61269  0.24182  0.05052  1.0000
  C   C3783     1.0  0.74411  0.15282  0.01588  1.0000
  H   H3013     1.0  0.75502  0.26341  0.31614  1.0000
  C   C3784     1.0  0.60323  0.45934  0.26663  1.0000
  C   C3785     1.0  0.65979  0.27257  0.14715  1.0000
  C   C3786     1.0  0.61805  0.37736  0.30278  1.0000
  C   C3787     1.0  0.66509  0.99952  0.15749  1.0000
  C   C3788     1.0  0.64688  0.16498  0.04908  1.0000
  C   C3789     1.0  0.72029  0.05553  0.26636  1.0000
  H   H3014     1.0  0.64690  0.12468  0.04231  1.0000
  C   C3790     1.0  0.72570  0.29214  0.44296  1.0000
  C   C3791     1.0  0.77209  0.06725  0.04952  1.0000
  H   H3015     1.0  0.60770  0.13434  0.15092  1.0000
  H   H3016     1.0  0.77779  0.05233  0.43367  1.0000
  C   C3792     1.0  0.77945  0.43446  0.26218  1.0000
  H   H3017     1.0  0.70755  0.07295  0.15470  1.0000
  H   H3018     1.0  0.74450  0.03708  0.08017  1.0000
  H   H3019     1.0  0.72498  0.03739  0.10986  1.0000
  C   C3793     1.0  0.72920  0.25792  0.08752  1.0000
  C   C3794     1.0  0.77748  0.41718  0.34880  1.0000
  C   C3795     1.0  0.69741  0.33367  0.43358  1.0000
  H   H3020     1.0  0.69434  0.32621  0.42574  1.0000
  H   H3021     1.0  0.70876  0.36125  0.46056  1.0000
  H   H3022     1.0  0.62487  0.36621  0.26273  1.0000
  C   C3796     1.0  0.62149  0.42294  0.34618  1.0000
  H   H3023     1.0  0.63759  0.01298  0.02571  1.0000
  C   C3797     1.0  0.60492  0.06786  0.19546  1.0000
  Fe  Fe263     1.0  0.62800  0.35963  0.40799  1.0000
  C   C3798     1.0  0.66769  0.99574  0.12784  1.0000
  H   H3024     1.0  0.74013  0.17189  0.20055  1.0000
  C   C3799     1.0  0.70786  0.06011  0.15234  1.0000
  C   C3800     1.0  0.70847  0.02691  0.14665  1.0000
  H   H3025     1.0  0.70892  0.01394  0.14454  1.0000
  C   C3801     1.0  0.69646  0.32318  0.37210  1.0000
  C   C3802     1.0  0.60556  0.36991  0.48381  1.0000
  C   C3803     1.0  0.79186  0.39154  0.13081  1.0000
  C   C3804     1.0  0.71172  0.26770  0.08814  1.0000
  H   H3026     1.0  0.75006  0.24551  0.10190  1.0000
  C   C3805     1.0  0.75281  0.23872  0.33574  1.0000
  H   H3027     1.0  0.74973  0.21708  0.35879  1.0000
  C   C3806     1.0  0.68932  0.45351  0.28085  1.0000
  C   C3807     1.0  0.74951  0.26531  0.13631  1.0000
  H   H3028     1.0  0.60832  0.29217  0.24203  1.0000
  H   H3029     1.0  0.66794  0.33091  0.41065  1.0000
  C   C3808     1.0  0.75064  0.16215  0.19460  1.0000
  C   C3809     1.0  0.78141  0.47008  0.14489  1.0000
  C   C3810     1.0  0.74902  0.04853  0.32339  1.0000
  C   C3811     1.0  0.76328  0.19127  0.14577  1.0000
  C   C3812     1.0  0.73651  0.25318  0.10261  1.0000
  H   H3030     1.0  0.74590  0.18924  0.13029  1.0000
  H   H3031     1.0  0.77368  0.24856  0.12439  1.0000
  C   C3813     1.0  0.61966  0.41768  0.29890  1.0000
  H   H3032     1.0  0.74814  0.19248  0.31498  1.0000
  C   C3814     1.0  0.77807  0.13593  0.18059  1.0000
  C   C3815     1.0  0.76834  0.20263  0.15317  1.0000
  C   C3816     1.0  0.75001  0.19801  0.13590  1.0000
  H   H3033     1.0  0.71741  0.20059  0.16160  1.0000
  H   H3034     1.0  0.72355  0.17671  0.32666  1.0000
  H   H3035     1.0  0.78662  0.02952  0.03315  1.0000
  C   C3817     1.0  0.77634  0.05622  0.03742  1.0000
  C   C3818     1.0  0.65637  0.27474  0.40110  1.0000
  H   H3036     1.0  0.76389  0.22932  0.15677  1.0000
  H   H3037     1.0  0.74261  0.08888  0.11261  1.0000
  H   H3038     1.0  0.70561  0.32945  0.36104  1.0000
  C   C3819     1.0  0.73846  0.13734  0.01646  1.0000
  C   C3820     1.0  0.76013  0.22074  0.15065  1.0000
  P   P126      1.0  0.75420  0.06245  0.30148  1.0000
  C   C3821     1.0  0.64007  0.32375  0.34029  1.0000
  C   C3822     1.0  0.71783  0.02805  0.15860  1.0000
  C   C3823     1.0  0.71745  0.04462  0.16150  1.0000
  C   C3824     1.0  0.72621  0.25793  0.11856  1.0000
  C   C3825     1.0  0.70888  0.26837  0.11890  1.0000
  C   C3826     1.0  0.77790  0.09376  0.07514  1.0000
  C   C3827     1.0  0.76786  0.26077  0.12916  1.0000
  H   H3039     1.0  0.71552  0.21617  0.39800  1.0000
  H   H3040     1.0  0.77233  0.20843  0.29030  1.0000
  C   C3828     1.0  0.76831  0.16400  0.19035  1.0000
  H   H3041     1.0  0.78966  0.14544  0.33530  1.0000
  C   C3829     1.0  0.74720  0.22765  0.14022  1.0000
  C   C3830     1.0  0.77888  0.27233  0.12753  1.0000
  C   C3831     1.0  0.78267  0.34366  0.24983  1.0000
  H   H3042     1.0  0.70307  0.27740  0.40828  1.0000
  C   C3832     1.0  0.64342  0.14438  0.00169  1.0000
  C   C3833     1.0  0.62281  0.27262  0.42363  1.0000
  H   H3043     1.0  0.78667  0.06750  0.30791  1.0000
  C   C3834     1.0  0.68707  0.22842  0.25068  1.0000
  H   H3044     1.0  0.62910  0.48816  0.28519  1.0000
  H   H3045     1.0  0.73717  0.08722  0.27313  1.0000
  H   H3046     1.0  0.68851  0.46305  0.26841  1.0000
  H   H3047     1.0  0.62101  0.23552  0.24741  1.0000
  H   H3048     1.0  0.74660  0.47370  0.16430  1.0000
  C   C3835     1.0  0.63753  0.25869  0.42611  1.0000
  H   H3049     1.0  0.77789  0.24205  0.28970  1.0000
  C   C3836     1.0  0.62135  0.43298  0.30306  1.0000
  H   H3050     1.0  0.78179  0.34046  0.16278  1.0000
  C   C3837     1.0  0.74200  0.21608  0.13318  1.0000
  H   H3051     1.0  0.79297  0.26898  0.12159  1.0000
  C   C3838     1.0  0.73631  0.19818  0.32372  1.0000
  C   C3839     1.0  0.72228  0.18920  0.33027  1.0000
  C   C3840     1.0  0.73779  0.09129  0.31823  1.0000
  H   H3052     1.0  0.72596  0.11349  0.33113  1.0000
  C   C3841     1.0  0.73406  0.07437  0.27520  1.0000
  P   P127      1.0  0.79058  0.42006  0.31202  1.0000
  C   C3842     1.0  0.74572  0.48134  0.17391  1.0000
  H   H3053     1.0  0.72503  0.01607  0.16597  1.0000
  H   H3054     1.0  0.61784  0.42599  0.41998  1.0000
  H   H3055     1.0  0.68717  0.24232  0.24469  1.0000
  C   C3843     1.0  0.66543  0.27469  0.34138  1.0000
  H   H3056     1.0  0.72428  0.04537  0.17117  1.0000
  C   C3844     1.0  0.64083  0.28094  0.12005  1.0000
  P   P128      1.0  0.73522  0.25049  0.13837  1.0000
  C   C3845     1.0  0.69507  0.49296  0.46082  1.0000
  H   H3057     1.0  0.77188  0.10795  0.43150  1.0000
  C   C3846     1.0  0.71855  0.12781  0.25143  1.0000
  C   C3847     1.0  0.71959  0.22082  0.34044  1.0000
  C   C3848     1.0  0.76832  0.36882  0.13862  1.0000
  H   H3058     1.0  0.65774  0.15188  0.02675  1.0000
  S   S524      1.0  0.64117  0.35320  0.21181  1.0000
  C   C3849     1.0  0.70697  0.19594  0.34197  1.0000
  H   H3059     1.0  0.66686  0.32070  0.32465  1.0000
  C   C3850     1.0  0.75326  0.29363  0.13898  1.0000
  C   C3851     1.0  0.74221  0.28203  0.14077  1.0000
  Fe  Fe264     1.0  0.66003  0.28949  0.23766  1.0000
  C   C3852     1.0  0.73509  0.21408  0.32877  1.0000
  H   H3060     1.0  0.72125  0.24413  0.30520  1.0000
  C   C3853     1.0  0.73044  0.26053  0.28003  1.0000
  C   C3854     1.0  0.79538  0.19027  0.29837  1.0000
  H   H3061     1.0  0.59950  0.07259  0.08107  1.0000
  C   C3855     1.0  0.63714  0.38135  0.46607  1.0000
  C   C3856     1.0  0.76220  0.25930  0.27123  1.0000
  H   H3062     1.0  0.72793  0.21021  0.18330  1.0000
  H   H3063     1.0  0.64941  0.35296  0.30062  1.0000
  H   H3064     1.0  0.65191  0.24591  0.27825  1.0000
  C   C3857     1.0  0.71097  0.28805  0.45643  1.0000
  C   C3858     1.0  0.74511  0.48163  0.46908  1.0000
  H   H3065     1.0  0.74760  0.30659  0.14226  1.0000
  C   C3859     1.0  0.68707  0.33200  0.38585  1.0000
  C   C3860     1.0  0.73283  0.24801  0.29573  1.0000
  H   H3066     1.0  0.66785  0.16851  0.07002  1.0000
  C   C3861     1.0  0.64002  0.47200  0.45976  1.0000
  C   C3862     1.0  0.63386  0.40823  0.28797  1.0000
  H   H3067     1.0  0.67416  0.21336  0.02604  1.0000
  C   C3863     1.0  0.77945  0.37180  0.12174  1.0000
  H   H3068     1.0  0.61324  0.39802  0.35333  1.0000
  S   S525      1.0  0.68856  0.47314  0.46193  1.0000
  H   H3069     1.0  0.72797  0.28622  0.14540  1.0000
  H   H3070     1.0  0.77350  0.26386  0.26183  1.0000
  H   H3071     1.0  0.70844  0.26843  0.35820  1.0000
  H   H3072     1.0  0.61389  0.17623  0.10732  1.0000
  H   H3073     1.0  0.71056  0.26484  0.32810  1.0000
  C   C3864     1.0  0.62476  0.28753  0.40987  1.0000
  H   H3074     1.0  0.72992  0.26080  0.17259  1.0000
  C   C3865     1.0  0.74999  0.24090  0.29920  1.0000
  C   C3866     1.0  0.77375  0.20967  0.31663  1.0000
  H   H3075     1.0  0.74311  0.27602  0.25575  1.0000
  C   C3867     1.0  0.68025  0.49126  0.31318  1.0000
  C   C3868     1.0  0.74072  0.26106  0.44778  1.0000
  H   H3076     1.0  0.71836  0.23293  0.34466  1.0000
  C   C3869     1.0  0.63784  0.27189  0.08754  1.0000
  C   C3870     1.0  0.71472  0.08603  0.08102  1.0000
  C   C3871     1.0  0.78750  0.37971  0.20253  1.0000
  C   C3872     1.0  0.69723  0.32686  0.45175  1.0000
  H   H3077     1.0  0.61045  0.44006  0.31174  1.0000
  H   H3078     1.0  0.65147  0.23703  0.21880  1.0000
  C   C3873     1.0  0.71757  0.24996  0.15802  1.0000
  H   H3079     1.0  0.66153  0.33259  0.45139  1.0000
  C   C3874     1.0  0.60841  0.33657  0.07867  1.0000
  C   C3875     1.0  0.60832  0.25753  0.26070  1.0000
  C   C3876     1.0  0.64991  0.48739  0.26134  1.0000
  H   H3080     1.0  0.78653  0.29517  0.25761  1.0000
  C   C3877     1.0  0.67529  0.32397  0.40009  1.0000
  C   C3878     1.0  0.76464  0.24685  0.28696  1.0000
  H   H3081     1.0  0.75857  0.03432  0.14239  1.0000
  C   C3879     1.0  0.77087  0.08006  0.17351  1.0000
  C   C3880     1.0  0.78314  0.12020  0.08080  1.0000
  H   H3082     1.0  0.69630  0.18873  0.34735  1.0000
  C   C3881     1.0  0.65046  0.15091  0.04040  1.0000
  S   S526      1.0  0.67228  0.47685  0.41950  1.0000
  C   C3882     1.0  0.71139  0.27029  0.46562  1.0000
  H   H3083     1.0  0.71724  0.17087  0.25056  1.0000
  H   H3084     1.0  0.67962  0.33511  0.29304  1.0000
  C   C3883     1.0  0.78277  0.04782  0.27664  1.0000
  H   H3085     1.0  0.70570  0.25914  0.19948  1.0000
  H   H3086     1.0  0.69383  0.21694  0.35620  1.0000
  C   C3884     1.0  0.73444  0.10913  0.31934  1.0000
  S   S527      1.0  0.62852  0.37077  0.37909  1.0000
  H   H3087     1.0  0.62701  0.08742  0.04944  1.0000
  H   H3088     1.0  0.61602  0.11801  0.03385  1.0000
  S   S528      1.0  0.65986  0.26531  0.22796  1.0000
  C   C3885     1.0  0.70514  0.25441  0.18817  1.0000
  H   H3089     1.0  0.75059  0.05043  0.11370  1.0000
  C   C3886     1.0  0.76172  0.44208  0.32987  1.0000
  H   H3090     1.0  0.72644  0.11459  0.25507  1.0000
  S   S529      1.0  0.79625  0.29014  0.35169  1.0000
  H   H3091     1.0  0.64825  0.22795  0.25905  1.0000
  H   H3092     1.0  0.68310  0.14906  0.23246  1.0000
  C   C3887     1.0  0.60669  0.08476  0.19559  1.0000
  H   H3093     1.0  0.74753  0.05885  0.48330  1.0000
  H   H3094     1.0  0.75989  0.44981  0.31684  1.0000
  C   C3888     1.0  0.64599  0.26559  0.21389  1.0000
  H   H3095     1.0  0.78327  0.34687  0.26190  1.0000
  C   C3889     1.0  0.71141  0.19756  0.17562  1.0000
  H   H3096     1.0  0.77929  0.33150  0.20737  1.0000
  C   C3890     1.0  0.75823  0.02800  0.34952  1.0000
  C   C3891     1.0  0.69813  0.16211  0.24190  1.0000
  C   C3892     1.0  0.63274  0.25592  0.08904  1.0000
  H   H3097     1.0  0.77919  0.20679  0.34246  1.0000
  C   C3893     1.0  0.78894  0.43359  0.20614  1.0000
  H   H3098     1.0  0.68868  0.16589  0.02353  1.0000
  H   H3099     1.0  0.77901  0.08955  0.19206  1.0000
  C   C3894     1.0  0.64679  0.28826  0.14518  1.0000
  H   H3100     1.0  0.79139  0.36824  0.18001  1.0000
  H   H3101     1.0  0.60007  0.12208  0.08465  1.0000
  C   C3895     1.0  0.64463  0.24928  0.21154  1.0000
  C   C3896     1.0  0.69757  0.26749  0.33682  1.0000
  H   H3102     1.0  0.69310  0.18408  0.17197  1.0000
  P   P129      1.0  0.67806  0.27693  0.38716  1.0000
  H   H3103     1.0  0.67919  0.17695  0.20362  1.0000
  C   C3897     1.0  0.71722  0.20303  0.18787  1.0000
  H   H3104     1.0  0.68725  0.46872  0.35426  1.0000
  C   C3898     1.0  0.62238  0.37510  0.31927  1.0000
  H   H3105     1.0  0.67880  0.23512  0.17547  1.0000
  H   H3106     1.0  0.78336  0.30836  0.17312  1.0000
  H   H3107     1.0  0.66664  0.26917  0.15798  1.0000
  C   C3899     1.0  0.65812  0.35754  0.28821  1.0000
  H   H3108     1.0  0.68316  0.26851  0.31721  1.0000
  P   P130      1.0  0.69179  0.30535  0.46211  1.0000
  H   H3109     1.0  0.70603  0.27088  0.07651  1.0000
  H   H3110     1.0  0.63897  0.06307  0.03279  1.0000
  H   H3111     1.0  0.70088  0.27273  0.13086  1.0000
  C   C3900     1.0  0.64976  0.41440  0.28130  1.0000
  C   C3901     1.0  0.62075  0.39338  0.46587  1.0000
  C   C3902     1.0  0.70322  0.24237  0.15915  1.0000
  H   H3112     1.0  0.77631  0.03929  0.32688  1.0000
  C   C3903     1.0  0.63367  0.07642  0.02604  1.0000
  C   C3904     1.0  0.70163  0.27311  0.10376  1.0000
  C   C3905     1.0  0.68690  0.35277  0.26798  1.0000
  C   C3906     1.0  0.69629  0.26983  0.35386  1.0000
  H   H3113     1.0  0.66582  0.47423  0.33477  1.0000
  H   H3114     1.0  0.66006  0.24325  0.05171  1.0000
  C   C3907     1.0  0.79231  0.27541  0.07898  1.0000
  C   C3908     1.0  0.77924  0.42553  0.29384  1.0000
  H   H3115     1.0  0.79279  0.08881  0.25061  1.0000
  H   H3116     1.0  0.65348  0.27728  0.33628  1.0000
  H   H3117     1.0  0.78400  0.38917  0.30277  1.0000
  C   C3909     1.0  0.69079  0.24713  0.18905  1.0000
  C   C3910     1.0  0.68963  0.18448  0.19944  1.0000
  C   C3911     1.0  0.66427  0.37898  0.26061  1.0000
  C   C3912     1.0  0.62719  0.09011  0.03538  1.0000
  C   C3913     1.0  0.68215  0.26970  0.33065  1.0000
  H   H3118     1.0  0.70075  0.11894  0.24129  1.0000
  C   C3914     1.0  0.74056  0.27873  0.43885  1.0000
  C   C3915     1.0  0.70919  0.19924  0.20598  1.0000
  H   H3119     1.0  0.62685  0.30436  0.13074  1.0000
  Fe  Fe265     1.0  0.62597  0.34376  0.37799  1.0000
  P   P131      1.0  0.76777  0.07447  0.08299  1.0000
  C   C3916     1.0  0.73327  0.08087  0.07666  1.0000
  H   H3120     1.0  0.73487  0.14057  0.25927  1.0000
  C   C3917     1.0  0.65271  0.37380  0.27683  1.0000
  H   H3121     1.0  0.78014  0.29793  0.13046  1.0000
  C   C3918     1.0  0.69404  0.14736  0.23878  1.0000
  H   H3122     1.0  0.63867  0.45065  0.29985  1.0000
  H   H3123     1.0  0.75196  0.28209  0.42864  1.0000
  C   C3919     1.0  0.76739  0.04218  0.13260  1.0000
  C   C3920     1.0  0.67270  0.30725  0.40052  1.0000
  C   C3921     1.0  0.69508  0.19023  0.21183  1.0000
  C   C3922     1.0  0.67728  0.20510  0.03847  1.0000
  C   C3923     1.0  0.70411  0.13026  0.24368  1.0000
  H   H3124     1.0  0.79374  0.37191  0.25109  1.0000
  C   C3924     1.0  0.70138  0.33686  0.46148  1.0000
  H   H3125     1.0  0.60502  0.15273  0.23225  1.0000
  H   H3126     1.0  0.70249  0.23726  0.14817  1.0000
  C   C3925     1.0  0.68131  0.36853  0.25623  1.0000
  H   H3127     1.0  0.69032  0.37286  0.24390  1.0000
  H   H3128     1.0  0.68491  0.22256  0.22683  1.0000
  C   C3926     1.0  0.60030  0.22689  0.04047  1.0000
  C   C3927     1.0  0.67370  0.17986  0.06308  1.0000
  H   H3129     1.0  0.68706  0.19927  0.29056  1.0000
  Fe  Fe266     1.0  0.79477  0.12241  0.30569  1.0000
  H   H3130     1.0  0.72596  0.30565  0.43563  1.0000
  C   C3928     1.0  0.68985  0.24101  0.17462  1.0000
  C   C3929     1.0  0.65992  0.31975  0.45075  1.0000
  H   H3131     1.0  0.68048  0.24616  0.20098  1.0000
  H   H3132     1.0  0.67344  0.24883  0.13708  1.0000
  H   H3133     1.0  0.62873  0.38660  0.19063  1.0000
  C   C3930     1.0  0.69361  0.30660  0.37228  1.0000
  C   C3931     1.0  0.65427  0.25973  0.41492  1.0000
  H   H3134     1.0  0.76763  0.41544  0.37708  1.0000
  C   C3932     1.0  0.78196  0.15108  0.18314  1.0000
  C   C3933     1.0  0.77762  0.07259  0.46626  1.0000
  H   H3135     1.0  0.66359  0.30129  0.41174  1.0000
  C   C3934     1.0  0.72322  0.14249  0.25389  1.0000
  H   H3136     1.0  0.68832  0.23084  0.27646  1.0000
  C   C3935     1.0  0.68153  0.29858  0.38642  1.0000
  P   P132      1.0  0.68523  0.18415  0.23515  1.0000
  C   C3936     1.0  0.79340  0.45400  0.14947  1.0000
  C   C3937     1.0  0.66201  0.18407  0.23797  1.0000
  C   C3938     1.0  0.76618  0.42295  0.36384  1.0000
  C   C3939     1.0  0.62126  0.39377  0.26401  1.0000
  C   C3940     1.0  0.70570  0.36015  0.43501  1.0000
  P   P133      1.0  0.65355  0.18569  0.03749  1.0000
  H   H3137     1.0  0.78108  0.12916  0.08954  1.0000
  H   H3138     1.0  0.63391  0.41817  0.33752  1.0000
  C   C3941     1.0  0.64459  0.31901  0.44609  1.0000
  H   H3139     1.0  0.63505  0.33126  0.44288  1.0000
  C   C3942     1.0  0.70547  0.26409  0.40604  1.0000
  C   C3943     1.0  0.63728  0.43894  0.29641  1.0000
  C   C3944     1.0  0.68627  0.19903  0.24813  1.0000
  C   C3945     1.0  0.65148  0.27706  0.07323  1.0000
  H   H3140     1.0  0.68813  0.28080  0.10417  1.0000
  H   H3141     1.0  0.63627  0.41121  0.38147  1.0000
  C   C3946     1.0  0.69554  0.26009  0.39611  1.0000
  C   C3947     1.0  0.66409  0.27717  0.35839  1.0000
  C   C3948     1.0  0.68610  0.19280  0.26638  1.0000
  H   H3142     1.0  0.79560  0.15271  0.17989  1.0000
  C   C3949     1.0  0.77869  0.05891  0.45780  1.0000
  C   C3950     1.0  0.71254  0.22952  0.40039  1.0000
  C   C3951     1.0  0.68695  0.20420  0.27654  1.0000
  C   C3952     1.0  0.63690  0.28139  0.20463  1.0000
  H   H3143     1.0  0.63332  0.23599  0.19866  1.0000
  H   H3144     1.0  0.68539  0.17911  0.27274  1.0000
  C   C3953     1.0  0.68764  0.22196  0.26864  1.0000
  H   H3145     1.0  0.64146  0.22027  0.04861  1.0000
  C   C3954     1.0  0.62088  0.10739  0.02658  1.0000
  C   C3955     1.0  0.63443  0.24867  0.19999  1.0000
  C   C3956     1.0  0.67011  0.28786  0.45353  1.0000
  C   C3957     1.0  0.72237  0.23364  0.41022  1.0000
  H   H3146     1.0  0.69163  0.23931  0.38581  1.0000
  H   H3147     1.0  0.61927  0.39486  0.41914  1.0000
  H   H3148     1.0  0.60613  0.09296  0.10538  1.0000
  C   C3958     1.0  0.61703  0.44054  0.34823  1.0000
  H   H3149     1.0  0.62779  0.27130  0.28626  1.0000
  C   C3959     1.0  0.65337  0.31980  0.32548  1.0000
  H   H3150     1.0  0.67978  0.27565  0.45630  1.0000
  H   H3151     1.0  0.73294  0.22353  0.41543  1.0000
  H   H3152     1.0  0.64364  0.29687  0.15451  1.0000
  C   C3960     1.0  0.64145  0.28858  0.39865  1.0000
  C   C3961     1.0  0.74511  0.26612  0.26777  1.0000
  H   H3153     1.0  0.62973  0.30226  0.44182  1.0000
  C   C3962     1.0  0.62514  0.26440  0.19082  1.0000
  C   C3963     1.0  0.66536  0.18404  0.01509  1.0000
  H   H3154     1.0  0.66396  0.43401  0.28057  1.0000
  H   H3155     1.0  0.65715  0.25637  0.11307  1.0000
  C   C3964     1.0  0.65376  0.25128  0.06161  1.0000
  S   S530      1.0  0.62662  0.30670  0.29593  1.0000
  Fe  Fe267     1.0  0.64616  0.30796  0.26930  1.0000
  H   H3156     1.0  0.61815  0.05046  0.06484  1.0000
  C   C3965     1.0  0.77403  0.06196  0.10371  1.0000
  C   C3966     1.0  0.70560  0.35347  0.45309  1.0000
  C   C3967     1.0  0.74057  0.47542  0.45650  1.0000
  C   C3968     1.0  0.74940  0.08547  0.30324  1.0000
  H   H3157     1.0  0.71921  0.08327  0.25439  1.0000
  H   H3158     1.0  0.63794  0.29407  0.20626  1.0000
  C   C3969     1.0  0.64175  0.30273  0.44540  1.0000
  C   C3970     1.0  0.62640  0.18306  0.24102  1.0000
  H   H3159     1.0  0.61536  0.36566  0.34755  1.0000
  P   P134      1.0  0.63142  0.38834  0.28292  1.0000
  C   C3971     1.0  0.63400  0.19625  0.22822  1.0000
  H   H3160     1.0  0.73911  0.07623  0.06448  1.0000
  C   C3972     1.0  0.59997  0.10485  0.11055  1.0000
  H   H3161     1.0  0.70471  0.20025  0.06620  1.0000
  H   H3162     1.0  0.60297  0.40485  0.22100  1.0000
  H   H3163     1.0  0.65245  0.27458  0.44828  1.0000
  H   H3164     1.0  0.76467  0.07026  0.18383  1.0000
  H   H3165     1.0  0.77147  0.17532  0.19288  1.0000
  H   H3166     1.0  0.64279  0.30034  0.38812  1.0000
  C   C3973     1.0  0.59924  0.29509  0.23329  1.0000
  H   H3167     1.0  0.76869  0.02048  0.35656  1.0000
  C   C3974     1.0  0.78353  0.20247  0.33005  1.0000
  C   C3975     1.0  0.64930  0.31484  0.31169  1.0000
  C   C3976     1.0  0.62637  0.28078  0.19327  1.0000
  Fe  Fe268     1.0  0.61766  0.48275  0.33517  1.0000
  S   S531      1.0  0.64592  0.33025  0.35697  1.0000
  C   C3977     1.0  0.77536  0.42672  0.33164  1.0000
  P   P135      1.0  0.77888  0.48870  0.15478  1.0000
  C   C3978     1.0  0.75259  0.43815  0.36194  1.0000
  C   C3979     1.0  0.78936  0.27323  0.36964  1.0000
  C   C3980     1.0  0.67130  0.04338  0.99761  1.0000
  C   C3981     1.0  0.62536  0.30863  0.09282  1.0000
  S   S532      1.0  0.79462  0.14463  0.28164  1.0000
  H   H3168     1.0  0.78805  0.14873  0.14229  1.0000
  C   C3982     1.0  0.77748  0.05635  0.29105  1.0000
  H   H3169     1.0  0.61109  0.05614  0.20410  1.0000
  C   C3983     1.0  0.79078  0.42571  0.19194  1.0000
  C   C3984     1.0  0.64174  0.46603  0.47744  1.0000
  H   H3170     1.0  0.60984  0.27195  0.43234  1.0000
  H   H3171     1.0  0.61094  0.33230  0.47342  1.0000
  H   H3172     1.0  0.73978  0.45942  0.34357  1.0000
  H   H3173     1.0  0.71273  0.05381  0.25776  1.0000
  C   C3985     1.0  0.78642  0.10584  0.14718  1.0000
  H   H3174     1.0  0.64445  0.45187  0.48317  1.0000
  P   P136      1.0  0.79590  0.11910  0.17166  1.0000
  C   C3986     1.0  0.77280  0.45713  0.12508  1.0000
  C   C3987     1.0  0.78505  0.44131  0.12942  1.0000
  C   C3988     1.0  0.75036  0.44769  0.34497  1.0000
  H   H3175     1.0  0.77307  0.04459  0.27152  1.0000
  H   H3176     1.0  0.69210  0.09659  0.09984  1.0000
  C   C3989     1.0  0.73124  0.04735  0.33135  1.0000
  C   C3990     1.0  0.61040  0.26743  0.27184  1.0000
  H   H3177     1.0  0.71360  0.48218  0.34355  1.0000
  H   H3178     1.0  0.59930  0.37333  0.28979  1.0000
  H   H3179     1.0  0.71680  0.49350  0.21072  1.0000
  C   C3991     1.0  0.69161  0.17086  0.99527  1.0000
  H   H3180     1.0  0.68374  0.49297  0.48855  1.0000
  C   C3992     1.0  0.75803  0.49210  0.46378  1.0000
  H   H3181     1.0  0.60233  0.45908  0.44040  1.0000
  H   H3182     1.0  0.60758  0.28002  0.14156  1.0000
  C   C3993     1.0  0.59888  0.09983  0.18431  1.0000
  C   C3994     1.0  0.60914  0.41554  0.24011  1.0000
  C   C3995     1.0  0.60296  0.37184  0.30225  1.0000
  H   H3183     1.0  0.60528  0.31564  0.32893  1.0000
  H   H3184     1.0  0.79418  0.45361  0.31818  1.0000
  H   H3185     1.0  0.60759  0.31952  0.21888  1.0000
  H   H3186     1.0  0.67085  0.49361  0.30484  1.0000
  H   H3187     1.0  0.61244  0.37342  0.23596  1.0000
  C   C3996     1.0  0.78170  0.04194  0.07208  1.0000
  C   C3997     1.0  0.79532  0.43972  0.14164  1.0000
  C   C3998     1.0  0.60766  0.40181  0.23322  1.0000
  C   C3999     1.0  0.76196  0.48967  0.43320  1.0000
  C   C4000     1.0  0.59920  0.32883  0.47228  1.0000
  C   C4001     1.0  0.78334  0.03805  0.04258  1.0000
  H   H3188     1.0  0.60111  0.44707  0.27585  1.0000
  C   C4002     1.0  0.79387  0.12350  0.06379  1.0000
  H   H3189     1.0  0.79527  0.15661  0.46043  1.0000
  C   C4003     1.0  0.59944  0.27865  0.13343  1.0000
  C   C4004     1.0  0.79699  0.11180  0.05256  1.0000
  S   S533      1.0  0.61912  0.99916  0.15134  1.0000
  H   H3190     1.0  0.75685  0.48226  0.25768  1.0000
  C   C4005     1.0  0.74260  0.48544  0.25850  1.0000
  H   H3191     1.0  0.66672  0.48815  0.37898  1.0000
  H   H3192     1.0  0.77421  0.10120  0.46251  1.0000
  H   H3193     1.0  0.64556  0.03673  0.00316  1.0000
  H   H3194     1.0  0.65738  0.31357  0.48705  1.0000
  C   C4006     1.0  0.79445  0.05351  0.12373  1.0000
  H   H3195     1.0  0.78384  0.03606  0.08541  1.0000
  C   C4007     1.0  0.78315  0.04326  0.13632  1.0000
  C   C4008     1.0  0.77700  0.06292  0.44009  1.0000
  C   C4009     1.0  0.63749  0.49019  0.45204  1.0000
  C   C4010     1.0  0.79762  0.24440  0.06556  1.0000
  C   C4011     1.0  0.60084  0.44678  0.35921  1.0000
  C   C4012     1.0  0.79678  0.33559  0.22144  1.0000
  H   H3196     1.0  0.78828  0.30817  0.03981  1.0000
  H   H3197     1.0  0.79193  0.11599  0.13679  1.0000
  C   C4013     1.0  0.78609  0.03093  0.05988  1.0000
  H   H3198     1.0  0.78657  0.03622  0.14900  1.0000
  C   C4014     1.0  0.78996  0.06278  0.10745  1.0000
  H   H3199     1.0  0.79158  0.01683  0.06385  1.0000
  C   C4015     1.0  0.70574  0.49301  0.26110  1.0000
  Fe  Fe269     1.0  0.68544  0.11499  0.99758  1.0000
  C   C4016     1.0  0.59890  0.31070  0.22006  1.0000
  C   C4017     1.0  0.63408  0.49529  0.27194  1.0000
  H   H3200     1.0  0.59850  0.28014  0.09067  1.0000
  H   H3201     1.0  0.79704  0.40120  0.25175  1.0000
  C   C4018     1.0  0.79823  0.33994  0.23683  1.0000
  H   H3202     1.0  0.79747  0.35719  0.30921  1.0000
  H   H3203     1.0  0.79712  0.26397  0.33223  1.0000
  C   C4019     1.0  0.59859  0.99777  0.03002  1.0000
  S   S534      1.0  0.59912  0.18414  0.00409  1.0000
  H   H3204     1.0  0.60016  0.43380  0.46620  1.0000
  H   H3205     1.0  0.69148  0.49529  0.26229  1.0000
  H   H3206     1.0  0.69733  0.45321  0.63953  1.0000
  H   H3207     1.0  0.77955  0.03571  0.51928  1.0000
  C   C4020     1.0  0.72415  0.49376  0.53337  1.0000
  C   C4021     1.0  0.65354  0.15020  0.98482  1.0000
  H   H3208     1.0  0.68582  0.01237  0.96388  1.0000
  C   C4022     1.0  0.73641  0.06544  0.53173  1.0000
  C   C4023     1.0  0.67285  0.47934  0.82216  1.0000
  C   C4024     1.0  0.68878  0.04106  0.98756  1.0000
  C   C4025     1.0  0.61451  0.07162  0.98134  1.0000
  H   H3209     1.0  0.62448  0.07786  0.84549  1.0000
  H   H3210     1.0  0.64941  0.31100  0.51942  1.0000
  Fe  Fe270     1.0  0.63217  0.01230  0.78881  1.0000
  S   S535      1.0  0.65632  0.01845  0.76757  1.0000
  H   H3211     1.0  0.61716  0.48364  0.61467  1.0000
  C   C4026     1.0  0.67096  0.12258  0.94262  1.0000
  C   C4027     1.0  0.69426  0.29545  0.51451  1.0000
  C   C4028     1.0  0.74209  0.48571  0.53309  1.0000
  C   C4029     1.0  0.62253  0.02233  0.86227  1.0000
  C   C4030     1.0  0.63854  0.02745  0.85290  1.0000
  C   C4031     1.0  0.65178  0.02612  0.86204  1.0000
  C   C4032     1.0  0.64918  0.01928  0.88046  1.0000
  C   C4033     1.0  0.63333  0.01375  0.88967  1.0000
  C   C4034     1.0  0.61994  0.01555  0.88064  1.0000
  H   H3212     1.0  0.64046  0.03294  0.83873  1.0000
  H   H3213     1.0  0.66399  0.03044  0.85488  1.0000
  C   C4035     1.0  0.66325  0.30699  0.51292  1.0000
  C   C4036     1.0  0.72789  0.99891  0.89616  1.0000
  C   C4037     1.0  0.66463  0.48717  0.65302  1.0000
  H   H3214     1.0  0.66411  0.99783  0.84128  1.0000
  C   C4038     1.0  0.66540  0.09192  0.96839  1.0000
  H   H3215     1.0  0.70021  0.47915  0.82096  1.0000
  H   H3216     1.0  0.60523  0.04731  0.98680  1.0000
  H   H3217     1.0  0.62447  0.18834  0.97119  1.0000
  C   C4039     1.0  0.66413  0.02334  0.98331  1.0000
  C   C4040     1.0  0.67287  0.47015  0.64994  1.0000
  C   C4041     1.0  0.79516  0.11115  0.50532  1.0000
  C   C4042     1.0  0.61129  0.12115  0.96879  1.0000
  H   H3218     1.0  0.69537  0.00853  0.86248  1.0000
  S   S536      1.0  0.64857  0.01156  0.98201  1.0000
  H   H3219     1.0  0.60459  0.27261  0.52507  1.0000
  C   C4043     1.0  0.72385  0.06130  0.52514  1.0000
  C   C4044     1.0  0.63443  0.06208  0.94941  1.0000
  H   H3220     1.0  0.70449  0.29054  0.52227  1.0000
  C   C4045     1.0  0.69384  0.02981  0.97538  1.0000
  C   C4046     1.0  0.70232  0.00440  0.85009  1.0000
  H   H3221     1.0  0.70734  0.02782  0.96759  1.0000
  C   C4047     1.0  0.68297  0.99930  0.79758  1.0000
  C   C4048     1.0  0.72799  0.05894  0.50767  1.0000
  H   H3222     1.0  0.67317  0.13462  0.93289  1.0000
  Fe  Fe271     1.0  0.65976  0.00083  0.91951  1.0000
  C   C4049     1.0  0.61199  0.49451  0.60465  1.0000
  C   C4050     1.0  0.61342  0.05600  0.97736  1.0000
  C   C4051     1.0  0.61193  0.13821  0.96998  1.0000
  H   H3223     1.0  0.71091  0.05993  0.53357  1.0000
  C   C4052     1.0  0.67644  0.30051  0.52293  1.0000
  C   C4053     1.0  0.61059  0.07901  0.85228  1.0000
  H   H3224     1.0  0.66526  0.45979  0.65417  1.0000
  C   C4054     1.0  0.62966  0.17604  0.97970  1.0000
  C   C4055     1.0  0.65358  0.12043  0.95087  1.0000
  H   H3225     1.0  0.65072  0.48992  0.65977  1.0000
  H   H3226     1.0  0.76855  0.48108  0.51711  1.0000
  S   S537      1.0  0.66575  0.01759  0.89188  1.0000
  H   H3227     1.0  0.69897  0.11137  0.94129  1.0000
  H   H3228     1.0  0.64273  0.47353  0.50098  1.0000
  C   C4056     1.0  0.71125  0.01202  0.81797  1.0000
  H   H3229     1.0  0.71118  0.02178  0.80554  1.0000
  C   C4057     1.0  0.68273  0.09407  0.96007  1.0000
  H   H3230     1.0  0.62311  0.14029  0.97386  1.0000
  H   H3231     1.0  0.69402  0.08387  0.96373  1.0000
  H   H3232     1.0  0.77012  0.12758  0.49998  1.0000
  H   H3233     1.0  0.66361  0.07984  0.97819  1.0000
  C   C4058     1.0  0.65065  0.10524  0.96417  1.0000
  C   C4059     1.0  0.68834  0.48615  0.81585  1.0000
  H   H3234     1.0  0.69573  0.03078  0.83423  1.0000
  C   C4060     1.0  0.65755  0.48838  0.81558  1.0000
  S   S538      1.0  0.71293  0.09826  0.99067  1.0000
  S   S539      1.0  0.67529  0.13868  0.97749  1.0000
  C   C4061     1.0  0.67255  0.00232  0.75700  1.0000
  C   C4062     1.0  0.69091  0.46648  0.64169  1.0000
  C   C4063     1.0  0.64644  0.16580  0.97369  1.0000
  H   H3235     1.0  0.64441  0.08580  0.94395  1.0000
  C   C4064     1.0  0.75736  0.06494  0.50326  1.0000
  H   H3236     1.0  0.71411  0.99890  0.73032  1.0000
  H   H3237     1.0  0.71469  0.47681  0.63023  1.0000
  H   H3238     1.0  0.69065  0.17758  0.96755  1.0000
  C   C4065     1.0  0.67450  0.00532  0.81325  1.0000
  P   P137      1.0  0.62838  0.10197  0.97518  1.0000
  S   S540      1.0  0.63460  0.00766  0.93960  1.0000
  H   H3239     1.0  0.64263  0.13071  0.94681  1.0000
  Fe  Fe272     1.0  0.61087  0.01740  0.82592  1.0000
  H   H3240     1.0  0.73358  0.01059  0.89266  1.0000
  H   H3241     1.0  0.71824  0.05573  0.50256  1.0000
  C   C4066     1.0  0.70251  0.01707  0.83409  1.0000
  C   C4067     1.0  0.63560  0.07769  0.95336  1.0000
  C   C4068     1.0  0.68161  0.02106  0.97321  1.0000
  C   C4069     1.0  0.79182  0.03366  0.50944  1.0000
  H   H3242     1.0  0.69045  0.02029  0.74550  1.0000
  H   H3243     1.0  0.72628  0.00064  0.86947  1.0000
  H   H3244     1.0  0.71436  0.49292  0.54582  1.0000
  H   H3245     1.0  0.67053  0.01947  0.81293  1.0000
  C   C4070     1.0  0.62594  0.08239  0.96955  1.0000
  S   S541      1.0  0.61122  0.03489  0.79872  1.0000
  C   C4071     1.0  0.75310  0.06724  0.52087  1.0000
  C   C4072     1.0  0.62344  0.05120  0.96144  1.0000
  H   H3246     1.0  0.74622  0.47853  0.54540  1.0000
  H   H3247     1.0  0.63127  0.00826  0.90380  1.0000
  H   H3248     1.0  0.67283  0.29950  0.53720  1.0000
  H   H3249     1.0  0.62304  0.03880  0.95863  1.0000
  H   H3250     1.0  0.60756  0.01162  0.88790  1.0000
  H   H3251     1.0  0.66081  0.19768  0.97200  1.0000
  H   H3252     1.0  0.76230  0.48890  0.65266  1.0000
  S   S542      1.0  0.61262  0.99896  0.78488  1.0000
  H   H3253     1.0  0.67270  0.46707  0.83215  1.0000
  C   C4073     1.0  0.66695  0.19102  0.98327  1.0000
  C   C4074     1.0  0.68552  0.10948  0.94733  1.0000
  H   H3254     1.0  0.70457  0.16193  0.99332  1.0000
  C   C4075     1.0  0.68380  0.17976  0.98073  1.0000
  H   H3255     1.0  0.68573  0.00879  0.78516  1.0000
  H   H3256     1.0  0.65418  0.17025  0.96059  1.0000
  C   C4076     1.0  0.60589  0.06724  0.86835  1.0000
  H   H3257     1.0  0.73322  0.06726  0.54528  1.0000
  C   C4077     1.0  0.68848  0.00707  0.74680  1.0000
  Fe  Fe273     1.0  0.65224  0.99717  0.95962  1.0000
  H   H3258     1.0  0.74927  0.49400  0.68328  1.0000
  H   H3259     1.0  0.61612  0.05692  0.87392  1.0000
  H   H3260     1.0  0.64239  0.05815  0.93720  1.0000
  S   S543      1.0  0.60478  0.02610  0.85181  1.0000
  C   C4078     1.0  0.77391  0.10116  0.49577  1.0000
  C   C4079     1.0  0.70066  0.47989  0.63639  1.0000
  H   H3261     1.0  0.64553  0.48311  0.82048  1.0000
  H   H3262     1.0  0.60106  0.10090  0.83219  1.0000
  C   C4080     1.0  0.77883  0.11451  0.50045  1.0000
  S   S544      1.0  0.70488  0.05136  0.99022  1.0000
  H   H3263     1.0  0.76272  0.07035  0.52624  1.0000
  C   C4081     1.0  0.75469  0.48710  0.51699  1.0000
  C   C4082     1.0  0.74831  0.49503  0.65629  1.0000
  C   C4083     1.0  0.69891  0.29681  0.49608  1.0000
  H   H3264     1.0  0.79375  0.45486  0.97708  1.0000
  C   C4084     1.0  0.78554  0.08447  0.49542  1.0000
  C   C4085     1.0  0.74467  0.06073  0.49676  1.0000
  H   H3265     1.0  0.79827  0.45494  0.94510  1.0000
  S   S545      1.0  0.63361  0.99628  0.81640  1.0000
  C   C4086     1.0  0.66785  0.30839  0.49450  1.0000
  C   C4087     1.0  0.79497  0.04643  0.49358  1.0000
  H   H3266     1.0  0.68113  0.87613  0.02748  1.0000
  C   C4088     1.0  0.60726  0.58665  0.33743  1.0000
  H   H3267     1.0  0.71910  0.61902  0.48307  1.0000
  C   C4089     1.0  0.63193  0.60484  0.46111  1.0000
  C   C4090     1.0  0.77229  0.52911  0.48533  1.0000
  Fe  Fe274     1.0  0.61901  0.51965  0.33668  1.0000
  S   S546      1.0  0.63395  0.53786  0.34065  1.0000
  H   H3268     1.0  0.69397  0.53346  0.31372  1.0000
  H   H3269     1.0  0.68664  0.52760  0.25161  1.0000
  C   C4091     1.0  0.70796  0.53195  0.28668  1.0000
  C   C4092     1.0  0.78391  0.52428  0.10685  1.0000
  S   S547      1.0  0.71555  0.54188  0.45955  1.0000
  H   H3270     1.0  0.73330  0.70072  0.02723  1.0000
  H   H3271     1.0  0.68120  0.97131  0.04024  1.0000
  S   S548      1.0  0.70958  0.58326  0.47817  1.0000
  C   C4093     1.0  0.67708  0.52599  0.28002  1.0000
  C   C4094     1.0  0.65833  0.95722  0.01018  1.0000
  C   C4095     1.0  0.63235  0.84285  0.00715  1.0000
  C   C4096     1.0  0.60434  0.99360  0.99976  1.0000
  H   H3272     1.0  0.73153  0.71279  0.99572  1.0000
  H   H3273     1.0  0.60827  0.55924  0.38705  1.0000
  C   C4097     1.0  0.68179  0.52508  0.35379  1.0000
  H   H3274     1.0  0.76404  0.57307  0.46533  1.0000
  C   C4098     1.0  0.70564  0.62640  0.48714  1.0000
  C   C4099     1.0  0.64699  0.51363  0.23766  1.0000
  C   C4100     1.0  0.63093  0.52122  0.24796  1.0000
  C   C4101     1.0  0.62468  0.51234  0.26529  1.0000
  C   C4102     1.0  0.64429  0.54469  0.27124  1.0000
  H   H3275     1.0  0.65209  0.52094  0.22455  1.0000
  H   H3276     1.0  0.62368  0.53432  0.24272  1.0000
  C   C4103     1.0  0.76608  0.52220  0.47431  1.0000
  C   C4104     1.0  0.70691  0.52343  0.46029  1.0000
  H   H3277     1.0  0.65990  0.95404  0.06195  1.0000
  H   H3278     1.0  0.75265  0.56110  0.44597  1.0000
  C   C4105     1.0  0.76496  0.55886  0.46758  1.0000
  H   H3279     1.0  0.69332  0.53096  0.35045  1.0000
  C   C4106     1.0  0.61472  0.81512  0.00737  1.0000
  C   C4107     1.0  0.64895  0.59649  0.45328  1.0000
  P   P138      1.0  0.69819  0.51440  0.28585  1.0000
  C   C4108     1.0  0.66690  0.53412  0.34648  1.0000
  C   C4109     1.0  0.65219  0.52633  0.35033  1.0000
  C   C4110     1.0  0.61498  0.79033  0.03298  1.0000
  H   H3280     1.0  0.70686  0.55784  0.31476  1.0000
  H   H3281     1.0  0.70722  0.85328  0.01809  1.0000
  H   H3282     1.0  0.66690  0.54700  0.33754  1.0000
  H   H3283     1.0  0.62379  0.89761  0.02401  1.0000
  C   C4111     1.0  0.64598  0.85346  0.03066  1.0000
  C   C4112     1.0  0.63062  0.55183  0.49085  1.0000
  H   H3284     1.0  0.64286  0.93741  0.02354  1.0000
  C   C4113     1.0  0.60304  0.52513  0.44082  1.0000
  H   H3285     1.0  0.74144  0.50746  0.20983  1.0000
  C   C4114     1.0  0.77605  0.50875  0.13767  1.0000
  H   H3286     1.0  0.60955  0.61339  0.32360  1.0000
  C   C4115     1.0  0.76194  0.53977  0.12818  1.0000
  H   H3287     1.0  0.66054  0.59739  0.45735  1.0000
  H   H3288     1.0  0.61846  0.86164  0.04340  1.0000
  H   H3289     1.0  0.65018  0.56455  0.49336  1.0000
  C   C4116     1.0  0.63608  0.58503  0.43572  1.0000
  H   H3290     1.0  0.66934  0.50783  0.43827  1.0000
  H   H3291     1.0  0.61323  0.64401  0.45496  1.0000
  H   H3292     1.0  0.66551  0.98862  0.11911  1.0000
  H   H3293     1.0  0.72254  0.53511  0.25928  1.0000
  C   C4117     1.0  0.62081  0.85095  0.02078  1.0000
  C   C4118     1.0  0.76672  0.49570  0.44579  1.0000
  C   C4119     1.0  0.62760  0.85609  0.03252  1.0000
  H   H3294     1.0  0.66618  0.64152  0.47391  1.0000
  H   H3295     1.0  0.62471  0.99341  0.01247  1.0000
  H   H3296     1.0  0.68066  0.53662  0.38431  1.0000
  C   C4120     1.0  0.66498  0.51837  0.42756  1.0000
  C   C4121     1.0  0.64705  0.89597  0.06135  1.0000
  H   H3297     1.0  0.63791  0.50555  0.48777  1.0000
  C   C4122     1.0  0.76781  0.72205  0.01388  1.0000
  C   C4123     1.0  0.71047  0.51692  0.44475  1.0000
  H   H3298     1.0  0.64086  0.50359  0.36490  1.0000
  C   C4124     1.0  0.63057  0.89715  0.03420  1.0000
  H   H3299     1.0  0.71817  0.52341  0.43254  1.0000
  H   H3300     1.0  0.76852  0.50521  0.18572  1.0000
  C   C4125     1.0  0.65976  0.55135  0.47141  1.0000
  C   C4126     1.0  0.60172  0.78508  0.02851  1.0000
  C   C4127     1.0  0.62647  0.54224  0.48080  1.0000
  C   C4128     1.0  0.63641  0.50264  0.46199  1.0000
  H   H3301     1.0  0.64983  0.96706  0.01754  1.0000
  C   C4129     1.0  0.66242  0.53138  0.29326  1.0000
  H   H3302     1.0  0.61385  0.93196  0.05842  1.0000
  H   H3303     1.0  0.72763  0.57095  0.28820  1.0000
  C   C4130     1.0  0.67540  0.53090  0.26220  1.0000
  H   H3304     1.0  0.65027  0.55568  0.38851  1.0000
  H   H3305     1.0  0.65115  0.85739  0.03989  1.0000
  C   C4131     1.0  0.71047  0.55272  0.30272  1.0000
  H   H3306     1.0  0.66429  0.58015  0.43458  1.0000
  H   H3307     1.0  0.60328  0.86040  0.08072  1.0000
  C   C4132     1.0  0.60135  0.80978  0.00299  1.0000
  C   C4133     1.0  0.65762  0.84531  0.01722  1.0000
  C   C4134     1.0  0.65902  0.54010  0.25789  1.0000
  C   C4135     1.0  0.75862  0.55212  0.45666  1.0000
  H   H3308     1.0  0.60650  0.85270  0.02290  1.0000
  H   H3309     1.0  0.70770  0.49666  0.43303  1.0000
  H   H3310     1.0  0.79164  0.52425  0.09340  1.0000
  H   H3311     1.0  0.62750  0.96605  0.06561  1.0000
  H   H3312     1.0  0.75258  0.55175  0.13124  1.0000
  C   C4136     1.0  0.68627  0.87651  0.01345  1.0000
  C   C4137     1.0  0.63013  0.89209  0.06558  1.0000
  C   C4138     1.0  0.62155  0.80523  0.02241  1.0000
  C   C4139     1.0  0.72214  0.56010  0.28776  1.0000
  C   C4140     1.0  0.60125  0.94620  0.03644  1.0000
  H   H3313     1.0  0.63177  0.80910  0.02618  1.0000
  H   H3314     1.0  0.66102  0.99526  0.17179  1.0000
  C   C4141     1.0  0.66063  0.99320  0.03163  1.0000
  H   H3315     1.0  0.61808  0.58038  0.32802  1.0000
  C   C4142     1.0  0.61902  0.59341  0.44349  1.0000
  C   C4143     1.0  0.70327  0.53880  0.30214  1.0000
  C   C4144     1.0  0.65218  0.50966  0.36193  1.0000
  C   C4145     1.0  0.70451  0.50180  0.44498  1.0000
  C   C4146     1.0  0.72651  0.55365  0.27217  1.0000
  H   H3316     1.0  0.67280  0.55462  0.46794  1.0000
  H   H3317     1.0  0.62332  0.88865  0.07937  1.0000
  H   H3318     1.0  0.63143  0.55125  0.26797  1.0000
  H   H3319     1.0  0.67189  0.84293  0.01595  1.0000
  C   C4147     1.0  0.66680  0.50095  0.36989  1.0000
  C   C4148     1.0  0.77185  0.54736  0.48188  1.0000
  H   H3320     1.0  0.63467  0.54418  0.29927  1.0000
  H   H3321     1.0  0.61791  0.50231  0.39695  1.0000
  H   H3322     1.0  0.68995  0.51262  0.40899  1.0000
  H   H3323     1.0  0.65339  0.89555  0.07190  1.0000
  H   H3324     1.0  0.62862  0.52981  0.39240  1.0000
  H   H3325     1.0  0.66576  0.53800  0.45007  1.0000
  H   H3326     1.0  0.69706  0.62523  0.46424  1.0000
  P   P139      1.0  0.65900  0.90671  0.00686  1.0000
  C   C4149     1.0  0.77190  0.53974  0.11084  1.0000
  H   H3327     1.0  0.75610  0.52469  0.15486  1.0000
  S   S549      1.0  0.60834  0.49755  0.35723  1.0000
  C   C4150     1.0  0.60402  0.65825  0.47613  1.0000
  Fe  Fe275     1.0  0.60494  0.51379  0.30758  1.0000
  P   P140      1.0  0.63304  0.52618  0.45184  1.0000
  C   C4151     1.0  0.64255  0.54274  0.41607  1.0000
  C   C4152     1.0  0.70726  0.49567  0.31810  1.0000
  H   H3328     1.0  0.60860  0.89018  0.05522  1.0000
  C   C4153     1.0  0.70105  0.86342  0.00818  1.0000
  C   C4154     1.0  0.67146  0.53464  0.39708  1.0000
  C   C4155     1.0  0.65577  0.90040  0.04353  1.0000
  H   H3329     1.0  0.73532  0.55958  0.26049  1.0000
  H   H3330     1.0  0.61994  0.78303  0.04484  1.0000
  C   C4156     1.0  0.71935  0.53970  0.27157  1.0000
  H   H3331     1.0  0.60414  0.62685  0.42645  1.0000
  C   C4157     1.0  0.61032  0.53442  0.44875  1.0000
  H   H3332     1.0  0.61222  0.95257  0.02905  1.0000
  H   H3333     1.0  0.66881  0.90357  0.04042  1.0000
  C   C4158     1.0  0.69113  0.49970  0.47627  1.0000
  C   C4159     1.0  0.62187  0.89283  0.05199  1.0000
  C   C4160     1.0  0.65087  0.83973  0.00571  1.0000
  H   H3334     1.0  0.75649  0.70651  0.03895  1.0000
  C   C4161     1.0  0.64607  0.54056  0.28888  1.0000
  H   H3335     1.0  0.62938  0.55126  0.41774  1.0000
  C   C4162     1.0  0.69693  0.51494  0.47600  1.0000
  H   H3336     1.0  0.60551  0.55875  0.45816  1.0000
  C   C4163     1.0  0.63870  0.53779  0.46547  1.0000
  H   H3337     1.0  0.60752  0.59197  0.43973  1.0000
  C   C4164     1.0  0.74266  0.70862  0.01852  1.0000
  H   H3338     1.0  0.63066  0.61199  0.47128  1.0000
  C   C4165     1.0  0.64771  0.90076  0.02982  1.0000
  C   C4166     1.0  0.69329  0.62998  0.47649  1.0000
  H   H3339     1.0  0.65763  0.54337  0.24420  1.0000
  H   H3340     1.0  0.61372  0.53838  0.48496  1.0000
  S   S550      1.0  0.65932  0.60271  0.49266  1.0000
  C   C4167     1.0  0.67674  0.52112  0.41105  1.0000
  C   C4168     1.0  0.65435  0.54540  0.39953  1.0000
  H   H3341     1.0  0.66347  0.52835  0.30706  1.0000
  C   C4169     1.0  0.67592  0.63929  0.48188  1.0000
  C   C4170     1.0  0.65561  0.54195  0.46120  1.0000
  C   C4171     1.0  0.74268  0.50018  0.19978  1.0000
  H   H3342     1.0  0.61154  0.66847  0.46920  1.0000
  C   C4172     1.0  0.64781  0.52918  0.43021  1.0000
  C   C4173     1.0  0.65441  0.94042  0.01348  1.0000
  C   C4174     1.0  0.63013  0.99055  0.04602  1.0000
  C   C4175     1.0  0.76399  0.52435  0.14156  1.0000
  P   P141      1.0  0.76518  0.49891  0.48005  1.0000
  H   H3343     1.0  0.79539  0.49697  0.11685  1.0000
  Fe  Fe276     1.0  0.71089  0.55389  0.48354  1.0000
  C   C4176     1.0  0.60210  0.93472  0.05298  1.0000
  C   C4177     1.0  0.60505  0.64429  0.46818  1.0000
  S   S551      1.0  0.63106  0.50354  0.31578  1.0000
  C   C4178     1.0  0.65659  0.49678  0.24433  1.0000
  C   C4179     1.0  0.63807  0.49649  0.47982  1.0000
  H   H3344     1.0  0.73688  0.50174  0.27760  1.0000
  S   S552      1.0  0.60538  0.52313  0.27838  1.0000
  C   C4180     1.0  0.63657  0.97375  0.05605  1.0000
  C   C4181     1.0  0.60321  0.54732  0.38946  1.0000
  H   H3345     1.0  0.63777  0.57721  0.42601  1.0000
  C   C4182     1.0  0.75800  0.49881  0.18615  1.0000
  H   H3346     1.0  0.77030  0.55169  0.10048  1.0000
  C   C4183     1.0  0.68172  0.50857  0.36560  1.0000
  C   C4184     1.0  0.65105  0.58672  0.44049  1.0000
  H   H3347     1.0  0.72713  0.51252  0.48941  1.0000
  C   C4185     1.0  0.61056  0.99468  0.01411  1.0000
  C   C4186     1.0  0.64711  0.55670  0.48592  1.0000
  C   C4187     1.0  0.75572  0.71189  0.02513  1.0000
  C   C4188     1.0  0.65495  0.96686  0.05399  1.0000
  H   H3348     1.0  0.65787  0.97786  0.15185  1.0000
  C   C4189     1.0  0.74173  0.71544  0.00066  1.0000
  C   C4190     1.0  0.73124  0.49655  0.26968  1.0000
  S   S553      1.0  0.70054  0.49769  0.37462  1.0000
  C   C4191     1.0  0.61687  0.60374  0.45592  1.0000
  C   C4192     1.0  0.66327  0.98975  0.14626  1.0000
  H   H3349     1.0  0.77619  0.55278  0.49065  1.0000
  H   H3350     1.0  0.75348  0.52916  0.45177  1.0000
  C   C4193     1.0  0.66697  0.97660  0.04182  1.0000
  C   C4194     1.0  0.60875  0.51516  0.39514  1.0000
  C   C4195     1.0  0.67835  0.88978  0.00062  1.0000
  H   H3351     1.0  0.77619  0.60645  0.48690  1.0000
  H   H3352     1.0  0.69390  0.51996  0.48799  1.0000
  H   H3353     1.0  0.61187  0.50284  0.23283  1.0000
  C   C4196     1.0  0.75918  0.53387  0.45998  1.0000
  H   H3354     1.0  0.71885  0.50158  0.31373  1.0000
  H   H3355     1.0  0.77794  0.72457  0.01901  1.0000
  C   C4197     1.0  0.78598  0.50883  0.12018  1.0000
  P   P142      1.0  0.62325  0.83429  0.99355  1.0000
  H   H3356     1.0  0.77711  0.50325  0.44150  1.0000
  C   C4198     1.0  0.69482  0.49961  0.30736  1.0000
  C   C4199     1.0  0.71274  0.50072  0.27077  1.0000
  C   C4200     1.0  0.60005  0.55059  0.45314  1.0000
  C   C4201     1.0  0.67301  0.96155  0.99703  1.0000
  C   C4202     1.0  0.66507  0.92783  0.00349  1.0000
  H   H3357     1.0  0.61077  0.51316  0.43641  1.0000
  C   C4203     1.0  0.61476  0.53070  0.39264  1.0000
  C   C4204     1.0  0.60243  0.60519  0.33496  1.0000
  H   H3358     1.0  0.67577  0.97475  0.99417  1.0000
  H   H3359     1.0  0.66019  0.83267  0.99602  1.0000
  C   C4205     1.0  0.76693  0.72888  0.99599  1.0000
  H   H3360     1.0  0.60156  0.56173  0.35325  1.0000
  H   H3361     1.0  0.64712  0.71320  0.52227  1.0000
  S   S554      1.0  0.68505  0.55474  0.50335  1.0000
  C   C4206     1.0  0.71966  0.98160  0.83382  1.0000
  C   C4207     1.0  0.64605  0.79293  0.88007  1.0000
  Fe  Fe277     1.0  0.78596  0.67628  0.91070  1.0000
  S   S555      1.0  0.77321  0.69236  0.88812  1.0000
  S   S556      1.0  0.77499  0.65282  0.92795  1.0000
  H   H3362     1.0  0.61797  0.82162  0.73043  1.0000
  H   H3363     1.0  0.77642  0.73672  0.98751  1.0000
  Fe  Fe278     1.0  0.77486  0.71581  0.89721  1.0000
  S   S557      1.0  0.74966  0.73673  0.89703  1.0000
  C   C4208     1.0  0.70062  0.63211  0.50317  1.0000
  C   C4209     1.0  0.78733  0.70715  0.78699  1.0000
  Fe  Fe279     1.0  0.71883  0.89777  0.74865  1.0000
  S   S558      1.0  0.72732  0.88565  0.72481  1.0000
  S   S559      1.0  0.71065  0.87905  0.77415  1.0000
  Fe  Fe280     1.0  0.71880  0.93503  0.72732  1.0000
  S   S560      1.0  0.72655  0.92622  0.70124  1.0000
  S   S561      1.0  0.71736  0.96357  0.72783  1.0000
  Fe  Fe281     1.0  0.70717  0.90826  0.71394  1.0000
  S   S562      1.0  0.69032  0.90230  0.69864  1.0000
  Fe  Fe282     1.0  0.74621  0.90412  0.71399  1.0000
  S   S563      1.0  0.77220  0.89382  0.69640  1.0000
  S   S564      1.0  0.69722  0.91955  0.73856  1.0000
  S   S565      1.0  0.74003  0.91388  0.73928  1.0000
  Fe  Fe283     1.0  0.73041  0.83223  0.89353  1.0000
  S   S566      1.0  0.70162  0.83170  0.90538  1.0000
  S   S567      1.0  0.75289  0.81213  0.90414  1.0000
  Fe  Fe284     1.0  0.72194  0.86416  0.86484  1.0000
  S   S568      1.0  0.69238  0.86637  0.87400  1.0000
  S   S569      1.0  0.73453  0.88292  0.84152  1.0000
  Fe  Fe285     1.0  0.69765  0.86136  0.90131  1.0000
  S   S570      1.0  0.67825  0.87579  0.92199  1.0000
  Fe  Fe286     1.0  0.69896  0.83675  0.87700  1.0000
  S   S571      1.0  0.68077  0.82378  0.86975  1.0000
  S   S572      1.0  0.72679  0.86144  0.89185  1.0000
  S   S573      1.0  0.72812  0.83492  0.86555  1.0000
  C   C4210     1.0  0.73785  0.54906  0.64214  1.0000
  C   C4211     1.0  0.71281  0.50801  0.59822  1.0000
  C   C4212     1.0  0.60039  0.92842  0.84182  1.0000
  Fe  Fe287     1.0  0.63276  0.97927  0.94287  1.0000
  S   S574      1.0  0.65677  0.97335  0.92152  1.0000
  S   S575      1.0  0.60725  0.97175  0.94288  1.0000
  Fe  Fe288     1.0  0.67194  0.96506  0.94315  1.0000
  S   S576      1.0  0.69361  0.94003  0.94374  1.0000
  C   C4213     1.0  0.66017  0.68545  0.52565  1.0000
  H   H3364     1.0  0.65802  0.90893  0.82999  1.0000
  S   S577      1.0  0.64769  0.96923  0.96504  1.0000
  H   H3365     1.0  0.69958  0.55277  0.58572  1.0000
  Fe  Fe289     1.0  0.66740  0.80429  0.78703  1.0000
  S   S578      1.0  0.64501  0.82807  0.79045  1.0000
  S   S579      1.0  0.69261  0.80082  0.79655  1.0000
  C   C4214     1.0  0.63813  0.54838  0.53455  1.0000
  S   S580      1.0  0.67756  0.99221  0.93917  1.0000
  S   S581      1.0  0.66735  0.80596  0.75839  1.0000
  C   C4215     1.0  0.64199  0.54728  0.74257  1.0000
  S   S582      1.0  0.61692  0.90025  0.91711  1.0000
  Fe  Fe290     1.0  0.68246  0.59799  0.72407  1.0000
  S   S583      1.0  0.68269  0.59107  0.69869  1.0000
  S   S584      1.0  0.65714  0.60746  0.74293  1.0000
  Fe  Fe291     1.0  0.72258  0.58360  0.72159  1.0000
  S   S585      1.0  0.72625  0.57537  0.69580  1.0000
  S   S586      1.0  0.74517  0.57546  0.73641  1.0000
  Fe  Fe292     1.0  0.70783  0.60155  0.68865  1.0000
  S   S587      1.0  0.70959  0.61846  0.66128  1.0000
  Fe  Fe293     1.0  0.70086  0.56549  0.70780  1.0000
  S   S588      1.0  0.69923  0.53831  0.70584  1.0000
  S   S589      1.0  0.70608  0.61090  0.71334  1.0000
  S   S590      1.0  0.69871  0.57135  0.73424  1.0000
  Fe  Fe294     1.0  0.62133  0.52870  0.66389  1.0000
  S   S591      1.0  0.63977  0.51538  0.68306  1.0000
  Fe  Fe295     1.0  0.61633  0.54792  0.62670  1.0000
  H   H3366     1.0  0.61979  0.59347  0.64706  1.0000
  S   S592      1.0  0.61653  0.55752  0.65053  1.0000
  Fe  Fe296     1.0  0.62292  0.73486  0.68191  1.0000
  Fe  Fe297     1.0  0.64758  0.70433  0.66599  1.0000
  S   S593      1.0  0.62594  0.69077  0.66719  1.0000
  S   S594      1.0  0.67681  0.69358  0.65823  1.0000
  Fe  Fe298     1.0  0.61501  0.69773  0.69398  1.0000
  C   C4216     1.0  0.62054  0.91274  0.97070  1.0000
  S   S595      1.0  0.63397  0.73142  0.65359  1.0000
  S   S596      1.0  0.63815  0.70849  0.69389  1.0000
  Fe  Fe299     1.0  0.76756  0.65966  0.54843  1.0000
  S   S597      1.0  0.77207  0.64535  0.52589  1.0000
  Fe  Fe300     1.0  0.73994  0.68191  0.57244  1.0000
  S   S598      1.0  0.75946  0.68483  0.58651  1.0000
  S   S599      1.0  0.71027  0.69280  0.57741  1.0000
  Fe  Fe301     1.0  0.77728  0.68969  0.55955  1.0000
  Fe  Fe302     1.0  0.77110  0.65595  0.58640  1.0000
  S   S600      1.0  0.78026  0.63718  0.61049  1.0000
  S   S601      1.0  0.75673  0.68927  0.54520  1.0000
  S   S602      1.0  0.74977  0.65247  0.57496  1.0000
  S   S603      1.0  0.69835  0.58030  0.52149  1.0000
  H   H3367     1.0  0.62115  0.55549  0.50251  1.0000
  Fe  Fe303     1.0  0.70119  0.55109  0.52348  1.0000
  S   S604      1.0  0.69663  0.53120  0.54932  1.0000
  C   C4217     1.0  0.64697  0.58010  0.80552  1.0000
  C   C4218     1.0  0.76363  0.62980  0.51981  1.0000
  H   H3368     1.0  0.64395  0.94934  0.89180  1.0000
  C   C4219     1.0  0.74222  0.61152  0.52278  1.0000
  C   C4220     1.0  0.74783  0.62381  0.52896  1.0000
  H   H3369     1.0  0.73014  0.60690  0.52987  1.0000
  H   H3370     1.0  0.73988  0.62875  0.54059  1.0000
  H   H3371     1.0  0.67444  0.98954  0.86749  1.0000
  C   C4221     1.0  0.64026  0.61077  0.54241  1.0000
  C   C4222     1.0  0.65102  0.60475  0.52741  1.0000
  C   C4223     1.0  0.64595  0.61113  0.51111  1.0000
  C   C4224     1.0  0.61918  0.62989  0.52502  1.0000
  C   C4225     1.0  0.60193  0.85769  0.78798  1.0000
  H   H3372     1.0  0.66298  0.59482  0.52867  1.0000
  C   C4226     1.0  0.68554  0.69308  0.63582  1.0000
  C   C4227     1.0  0.70390  0.68718  0.63030  1.0000
  C   C4228     1.0  0.71149  0.68717  0.61237  1.0000
  C   C4229     1.0  0.70073  0.69276  0.59991  1.0000
  C   C4230     1.0  0.68228  0.69848  0.60546  1.0000
  C   C4231     1.0  0.67466  0.69878  0.62343  1.0000
  H   H3373     1.0  0.71228  0.68267  0.63992  1.0000
  H   H3374     1.0  0.72567  0.68289  0.60821  1.0000
  H   H3375     1.0  0.67389  0.70277  0.59590  1.0000
  H   H3376     1.0  0.66045  0.70345  0.62768  1.0000
  C   C4232     1.0  0.64508  0.55316  0.58548  1.0000
  C   C4233     1.0  0.70779  0.66320  0.51724  1.0000
  C   C4234     1.0  0.73849  0.68850  0.87360  1.0000
  C   C4235     1.0  0.67652  0.53927  0.56310  1.0000
  C   C4236     1.0  0.67078  0.52924  0.58008  1.0000
  C   C4237     1.0  0.65501  0.53621  0.59131  1.0000
  C   C4238     1.0  0.75243  0.60521  0.50747  1.0000
  H   H3377     1.0  0.67851  0.51617  0.58454  1.0000
  H   H3378     1.0  0.65070  0.52864  0.60451  1.0000
  C   C4239     1.0  0.72975  0.62433  0.64935  1.0000
  C   C4240     1.0  0.72907  0.63952  0.63569  1.0000
  C   C4241     1.0  0.74470  0.64354  0.62411  1.0000
  C   C4242     1.0  0.76116  0.63262  0.62632  1.0000
  C   C4243     1.0  0.71630  0.61134  0.59887  1.0000
  C   C4244     1.0  0.60701  0.55168  0.54997  1.0000
  H   H3379     1.0  0.71637  0.64799  0.63375  1.0000
  H   H3380     1.0  0.74398  0.65494  0.61319  1.0000
  H   H3381     1.0  0.74876  0.65936  0.65584  1.0000
  H   H3382     1.0  0.63505  0.80146  0.97935  1.0000
  C   C4245     1.0  0.68161  0.53365  0.69961  1.0000
  C   C4246     1.0  0.67153  0.54593  0.68786  1.0000
  C   C4247     1.0  0.65856  0.54073  0.68238  1.0000
  C   C4248     1.0  0.65567  0.52331  0.68879  1.0000
  C   C4249     1.0  0.66582  0.51124  0.70046  1.0000
  C   C4250     1.0  0.67871  0.51633  0.70574  1.0000
  H   H3383     1.0  0.67395  0.55925  0.68279  1.0000
  H   H3384     1.0  0.65084  0.55013  0.67326  1.0000
  C   C4251     1.0  0.65124  0.54751  0.75504  1.0000
  H   H3385     1.0  0.61802  0.59209  0.53191  1.0000
  C   C4252     1.0  0.64220  0.62680  0.73489  1.0000
  C   C4253     1.0  0.62563  0.63165  0.74600  1.0000
  C   C4254     1.0  0.61376  0.64751  0.74061  1.0000
  C   C4255     1.0  0.61846  0.65881  0.72417  1.0000
  C   C4256     1.0  0.63476  0.65372  0.71270  1.0000
  C   C4257     1.0  0.64662  0.63763  0.71803  1.0000
  H   H3386     1.0  0.62206  0.62323  0.75894  1.0000
  C   C4258     1.0  0.62240  0.92772  0.97530  1.0000
  H   H3387     1.0  0.63828  0.66226  0.69984  1.0000
  H   H3388     1.0  0.65929  0.63374  0.70930  1.0000
  C   C4259     1.0  0.72313  0.75887  0.97884  1.0000
  C   C4260     1.0  0.78156  0.81096  0.80866  1.0000
  C   C4261     1.0  0.71102  0.98657  0.85012  1.0000
  H   H3389     1.0  0.62898  0.88438  0.97339  1.0000
  H   H3390     1.0  0.64547  0.65280  0.61843  1.0000
  C   C4262     1.0  0.75501  0.92056  0.86150  1.0000
  C   C4263     1.0  0.60986  0.95256  0.93446  1.0000
  C   C4264     1.0  0.69970  0.97777  0.73957  1.0000
  H   H3391     1.0  0.61328  0.67097  0.76641  1.0000
  C   C4265     1.0  0.61357  0.92083  0.92316  1.0000
  C   C4266     1.0  0.62855  0.92675  0.92312  1.0000
  C   C4267     1.0  0.62674  0.94233  0.92900  1.0000
  H   H3392     1.0  0.73465  0.73493  0.93801  1.0000
  H   H3393     1.0  0.74202  0.67965  0.93869  1.0000
  H   H3394     1.0  0.64167  0.91911  0.91860  1.0000
  H   H3395     1.0  0.63850  0.94619  0.92948  1.0000
  C   C4268     1.0  0.68455  0.81842  0.84882  1.0000
  C   C4269     1.0  0.70174  0.81383  0.83866  1.0000
  C   C4270     1.0  0.70415  0.80815  0.82278  1.0000
  C   C4271     1.0  0.68940  0.80757  0.81671  1.0000
  C   C4272     1.0  0.67225  0.81237  0.82678  1.0000
  C   C4273     1.0  0.66987  0.81762  0.84281  1.0000
  H   H3396     1.0  0.71313  0.81422  0.84330  1.0000
  H   H3397     1.0  0.71744  0.80415  0.81519  1.0000
  H   H3398     1.0  0.66079  0.81182  0.82237  1.0000
  H   H3399     1.0  0.65653  0.82118  0.85053  1.0000
  C   C4274     1.0  0.68283  0.89395  0.92725  1.0000
  C   C4275     1.0  0.66902  0.90473  0.93717  1.0000
  C   C4276     1.0  0.67201  0.91951  0.94137  1.0000
  C   C4277     1.0  0.68916  0.92290  0.93668  1.0000
  C   C4278     1.0  0.70314  0.91182  0.92721  1.0000
  C   C4279     1.0  0.69991  0.89761  0.92215  1.0000
  H   H3400     1.0  0.65590  0.90170  0.94152  1.0000
  H   H3401     1.0  0.66120  0.92783  0.94888  1.0000
  H   H3402     1.0  0.71646  0.91433  0.92363  1.0000
  H   H3403     1.0  0.71070  0.88928  0.91466  1.0000
  C   C4280     1.0  0.67561  0.97481  0.82960  1.0000
  C   C4281     1.0  0.65263  0.51539  0.74645  1.0000
  C   C4282     1.0  0.61005  0.61898  0.60822  1.0000
  H   H3404     1.0  0.74860  0.81545  0.68671  1.0000
  C   C4283     1.0  0.75288  0.68125  0.63382  1.0000
  H   H3405     1.0  0.74074  0.57095  0.54280  1.0000
  C   C4284     1.0  0.71943  0.50806  0.64840  1.0000
  C   C4285     1.0  0.72469  0.66638  0.53668  1.0000
  H   H3406     1.0  0.65719  0.65178  0.50194  1.0000
  H   H3407     1.0  0.70231  0.73102  0.61286  1.0000
  H   H3408     1.0  0.78099  0.91003  0.72084  1.0000
  C   C4286     1.0  0.71736  0.88057  0.79260  1.0000
  C   C4287     1.0  0.72892  0.89161  0.79097  1.0000
  C   C4288     1.0  0.73406  0.89252  0.80609  1.0000
  C   C4289     1.0  0.72759  0.88244  0.82275  1.0000
  C   C4290     1.0  0.71597  0.87151  0.82432  1.0000
  C   C4291     1.0  0.71090  0.87053  0.80925  1.0000
  H   H3409     1.0  0.73388  0.89940  0.77812  1.0000
  H   H3410     1.0  0.74312  0.90090  0.80486  1.0000
  H   H3411     1.0  0.71100  0.86359  0.83710  1.0000
  H   H3412     1.0  0.70196  0.86198  0.81052  1.0000
  C   C4292     1.0  0.71299  0.96891  0.90529  1.0000
  C   C4293     1.0  0.73730  0.51683  0.57476  1.0000
  C   C4294     1.0  0.67670  0.88686  0.71027  1.0000
  C   C4295     1.0  0.68063  0.87376  0.72525  1.0000
  C   C4296     1.0  0.66855  0.86268  0.73497  1.0000
  C   C4297     1.0  0.65249  0.86490  0.72980  1.0000
  C   C4298     1.0  0.64889  0.87771  0.71463  1.0000
  C   C4299     1.0  0.66101  0.88848  0.70481  1.0000
  H   H3413     1.0  0.69272  0.87244  0.72959  1.0000
  H   H3414     1.0  0.67137  0.85287  0.74675  1.0000
  H   H3415     1.0  0.63655  0.87946  0.71055  1.0000
  H   H3416     1.0  0.65788  0.89854  0.69330  1.0000
  Fe  Fe304     1.0  0.68447  0.58372  0.49924  1.0000
  C   C4300     1.0  0.73135  0.50474  0.50151  1.0000
  P   P143      1.0  0.67698  0.64932  0.52928  1.0000
  C   C4301     1.0  0.75192  0.75774  0.89740  1.0000
  C   C4302     1.0  0.76649  0.75990  0.90255  1.0000
  C   C4303     1.0  0.76713  0.77681  0.90410  1.0000
  C   C4304     1.0  0.75331  0.79144  0.90035  1.0000
  C   C4305     1.0  0.73929  0.78933  0.89434  1.0000
  C   C4306     1.0  0.73853  0.77249  0.89298  1.0000
  H   H3417     1.0  0.77694  0.74850  0.90584  1.0000
  H   H3418     1.0  0.77814  0.77854  0.90843  1.0000
  H   H3419     1.0  0.72879  0.80061  0.89107  1.0000
  H   H3420     1.0  0.72756  0.77091  0.88844  1.0000
  C   C4307     1.0  0.78530  0.64261  0.94601  1.0000
  H   H3421     1.0  0.65549  0.94276  0.83828  1.0000
  H   H3422     1.0  0.77703  0.52048  0.49686  1.0000
  P   P144      1.0  0.71087  0.97022  0.87089  1.0000
  C   C4308     1.0  0.77600  0.61355  0.74280  1.0000
  C   C4309     1.0  0.76105  0.62027  0.73496  1.0000
  C   C4310     1.0  0.75126  0.60880  0.73328  1.0000
  C   C4311     1.0  0.75634  0.59045  0.73940  1.0000
  C   C4312     1.0  0.77091  0.58374  0.74777  1.0000
  C   C4313     1.0  0.70792  0.86341  0.99011  1.0000
  H   H3423     1.0  0.74004  0.61413  0.72688  1.0000
  H   H3424     1.0  0.77487  0.56954  0.75263  1.0000
  H   H3425     1.0  0.69644  0.52078  0.74675  1.0000
  C   C4314     1.0  0.72340  0.99338  0.88308  1.0000
  H   H3426     1.0  0.76652  0.76728  0.95216  1.0000
  H   H3427     1.0  0.71831  0.50388  0.57158  1.0000
  Fe  Fe305     1.0  0.61252  0.98456  0.81322  1.0000
  C   C4315     1.0  0.77710  0.63086  0.96024  1.0000
  H   H3428     1.0  0.62599  0.62867  0.49722  1.0000
  H   H3429     1.0  0.72723  0.52270  0.73164  1.0000
  H   H3430     1.0  0.78589  0.72129  0.61138  1.0000
  C   C4316     1.0  0.61147  0.74782  0.56196  1.0000
  H   H3431     1.0  0.71183  0.93839  0.85880  1.0000
  C   C4317     1.0  0.68350  0.96871  0.81376  1.0000
  H   H3432     1.0  0.61310  0.91960  0.83861  1.0000
  H   H3433     1.0  0.74448  0.51791  0.56102  1.0000
  H   H3434     1.0  0.73029  0.71143  0.92629  1.0000
  C   C4318     1.0  0.69542  0.65649  0.53210  1.0000
  C   C4319     1.0  0.71392  0.73359  0.60264  1.0000
  H   H3435     1.0  0.76077  0.86625  0.68218  1.0000
  C   C4320     1.0  0.71098  0.78673  0.96049  1.0000
  H   H3436     1.0  0.65099  0.65641  0.58584  1.0000
  H   H3437     1.0  0.70530  0.87661  0.96323  1.0000
  H   H3438     1.0  0.61611  0.70308  0.56708  1.0000
  C   C4321     1.0  0.79634  0.64544  0.83103  1.0000
  H   H3439     1.0  0.69792  0.51536  0.67006  1.0000
  C   C4322     1.0  0.67740  0.93989  0.80066  1.0000
  C   C4323     1.0  0.75539  0.69869  0.96471  1.0000
  C   C4324     1.0  0.73554  0.75392  0.96383  1.0000
  H   H3440     1.0  0.67983  0.90722  0.77970  1.0000
  C   C4325     1.0  0.61104  0.52459  0.58724  1.0000
  P   P145      1.0  0.75293  0.73392  0.96606  1.0000
  S   S605      1.0  0.60369  0.67925  0.71852  1.0000
  H   H3441     1.0  0.65340  0.50303  0.74281  1.0000
  C   C4326     1.0  0.72303  0.78176  0.94546  1.0000
  C   C4327     1.0  0.64424  0.56318  0.81486  1.0000
  P   P146      1.0  0.61965  0.62435  0.66083  1.0000
  C   C4328     1.0  0.78484  0.61883  0.89876  1.0000
  H   H3442     1.0  0.64593  0.98008  0.87532  1.0000
  H   H3443     1.0  0.63586  0.56154  0.82811  1.0000
  C   C4329     1.0  0.68028  0.59978  0.56220  1.0000
  C   C4330     1.0  0.68380  0.94904  0.98718  1.0000
  H   H3444     1.0  0.68837  0.58661  0.56173  1.0000
  H   H3445     1.0  0.62509  0.94999  0.86000  1.0000
  C   C4331     1.0  0.68377  0.97281  0.74983  1.0000
  P   P147      1.0  0.78065  0.82997  0.67950  1.0000
  C   C4332     1.0  0.74234  0.52393  0.58635  1.0000
  C   C4333     1.0  0.72820  0.95081  0.86718  1.0000
  C   C4334     1.0  0.64270  0.53124  0.73826  1.0000
  P   P148      1.0  0.72960  0.73414  0.62976  1.0000
  C   C4335     1.0  0.68940  0.96394  0.87866  1.0000
  H   H3446     1.0  0.74838  0.58586  0.56182  1.0000
  H   H3447     1.0  0.75585  0.97776  0.57428  1.0000
  C   C4336     1.0  0.72481  0.93730  0.86125  1.0000
  H   H3448     1.0  0.69335  0.97673  0.78536  1.0000
  H   H3449     1.0  0.73536  0.91172  0.85421  1.0000
  H   H3450     1.0  0.70055  0.54503  0.78732  1.0000
  C   C4337     1.0  0.66944  0.81633  0.94859  1.0000
  C   C4338     1.0  0.74388  0.93919  0.80393  1.0000
  C   C4339     1.0  0.71203  0.66052  0.55150  1.0000
  H   H3451     1.0  0.64575  0.51110  0.79775  1.0000
  C   C4340     1.0  0.75818  0.75032  0.83404  1.0000
  C   C4341     1.0  0.75406  0.69744  0.84314  1.0000
  C   C4342     1.0  0.64381  0.66598  0.60996  1.0000
  C   C4343     1.0  0.74921  0.76813  0.82931  1.0000
  C   C4344     1.0  0.75113  0.78118  0.83689  1.0000
  C   C4345     1.0  0.76193  0.77658  0.84927  1.0000
  C   C4346     1.0  0.77101  0.75898  0.85390  1.0000
  C   C4347     1.0  0.76900  0.74586  0.84649  1.0000
  H   H3452     1.0  0.76225  0.69361  0.83100  1.0000
  H   H3453     1.0  0.75295  0.67031  0.85641  1.0000
  H   H3454     1.0  0.74029  0.77199  0.82022  1.0000
  H   H3455     1.0  0.74389  0.79481  0.83354  1.0000
  H   H3456     1.0  0.76292  0.78655  0.85564  1.0000
  H   H3457     1.0  0.61769  0.75761  0.56355  1.0000
  C   C4348     1.0  0.61386  0.63723  0.62609  1.0000
  C   C4349     1.0  0.63828  0.68096  0.61746  1.0000
  C   C4350     1.0  0.64713  0.66802  0.59154  1.0000
  C   C4351     1.0  0.64566  0.68500  0.58051  1.0000
  C   C4352     1.0  0.64083  0.70014  0.58792  1.0000
  C   C4353     1.0  0.63662  0.69797  0.60653  1.0000
  P   P149      1.0  0.63983  0.72211  0.57369  1.0000
  C   C4354     1.0  0.65811  0.72205  0.55445  1.0000
  C   C4355     1.0  0.67414  0.70932  0.55506  1.0000
  C   C4356     1.0  0.68843  0.70977  0.54036  1.0000
  C   C4357     1.0  0.68689  0.72290  0.52492  1.0000
  C   C4358     1.0  0.67106  0.73571  0.52422  1.0000
  C   C4359     1.0  0.65675  0.73537  0.53895  1.0000
  C   C4360     1.0  0.65838  0.74015  0.58558  1.0000
  H   H3458     1.0  0.63530  0.67948  0.63176  1.0000
  H   H3459     1.0  0.64845  0.68633  0.56623  1.0000
  H   H3460     1.0  0.67587  0.69922  0.56696  1.0000
  H   H3461     1.0  0.70087  0.70014  0.54115  1.0000
  C   C4361     1.0  0.60118  0.80246  0.74156  1.0000
  H   H3462     1.0  0.66996  0.74605  0.51232  1.0000
  H   H3463     1.0  0.64473  0.74558  0.53824  1.0000
  H   H3464     1.0  0.74211  0.95322  0.64867  1.0000
  H   H3465     1.0  0.67032  0.73428  0.57703  1.0000
  C   C4362     1.0  0.63385  0.90028  0.77526  1.0000
  C   C4363     1.0  0.65213  0.89257  0.77281  1.0000
  C   C4364     1.0  0.66336  0.89668  0.75624  1.0000
  C   C4365     1.0  0.65641  0.90839  0.74206  1.0000
  S   S606      1.0  0.62616  0.56314  0.59932  1.0000
  C   C4366     1.0  0.66627  0.55595  0.55720  1.0000
  C   C4367     1.0  0.75278  0.68538  0.95796  1.0000
  C   C4368     1.0  0.69178  0.64410  0.59867  1.0000
  H   H3466     1.0  0.65793  0.88376  0.78367  1.0000
  H   H3467     1.0  0.67752  0.89089  0.75451  1.0000
  H   H3468     1.0  0.66520  0.91220  0.72942  1.0000
  H   H3469     1.0  0.68251  0.65685  0.59851  1.0000
  C   C4369     1.0  0.73508  0.76535  0.94709  1.0000
  H   H3470     1.0  0.63641  0.91791  0.81070  1.0000
  C   C4370     1.0  0.69924  0.61330  0.59591  1.0000
  C   C4371     1.0  0.76858  0.67516  0.69753  1.0000
  C   C4372     1.0  0.68373  0.61406  0.54806  1.0000
  C   C4373     1.0  0.60260  0.64033  0.67187  1.0000
  C   C4374     1.0  0.61264  0.78422  0.96269  1.0000
  P   P150      1.0  0.78788  0.66072  0.68688  1.0000
  H   H3471     1.0  0.63581  0.53101  0.72838  1.0000
  H   H3472     1.0  0.78678  0.93663  0.68623  1.0000
  C   C4375     1.0  0.79269  0.91191  0.63031  1.0000
  H   H3473     1.0  0.60291  0.96333  0.78330  1.0000
  H   H3474     1.0  0.79216  0.58987  0.75556  1.0000
  C   C4376     1.0  0.76951  0.82391  0.79937  1.0000
  C   C4377     1.0  0.66189  0.51554  0.75892  1.0000
  C   C4378     1.0  0.77357  0.62338  0.50465  1.0000
  H   H3475     1.0  0.74487  0.53588  0.74394  1.0000
  C   C4379     1.0  0.75854  0.83812  0.82467  1.0000
  C   C4380     1.0  0.75825  0.83772  0.80739  1.0000
  C   C4381     1.0  0.67083  0.64499  0.49794  1.0000
  H   H3476     1.0  0.77019  0.82529  0.84750  1.0000
  C   C4382     1.0  0.66116  0.53159  0.76345  1.0000
  H   H3477     1.0  0.60749  0.79655  0.75276  1.0000
  H   H3478     1.0  0.76542  0.80860  0.71343  1.0000
  C   C4383     1.0  0.74924  0.83088  0.77026  1.0000
  C   C4384     1.0  0.74851  0.83567  0.75217  1.0000
  C   C4385     1.0  0.73215  0.83996  0.74710  1.0000
  C   C4386     1.0  0.71640  0.83952  0.76008  1.0000
  C   C4387     1.0  0.71704  0.83471  0.77808  1.0000
  C   C4388     1.0  0.73339  0.83027  0.78320  1.0000
  H   H3479     1.0  0.78969  0.52147  0.90362  1.0000
  H   H3480     1.0  0.68649  0.50670  0.71466  1.0000
  Fe  Fe306     1.0  0.72357  0.57754  0.50077  1.0000
  H   H3481     1.0  0.67952  0.89966  0.97241  1.0000
  H   H3482     1.0  0.76010  0.86320  0.76363  1.0000
  C   C4389     1.0  0.64182  0.89409  0.98823  1.0000
  C   C4390     1.0  0.78442  0.87266  0.75320  1.0000
  H   H3483     1.0  0.72637  0.96800  0.83335  1.0000
  C   C4391     1.0  0.65774  0.50420  0.80267  1.0000
  H   H3484     1.0  0.74947  0.84841  0.80022  1.0000
  H   H3485     1.0  0.76802  0.78830  0.79534  1.0000
  C   C4392     1.0  0.63603  0.56686  0.52979  1.0000
  H   H3486     1.0  0.63276  0.92363  0.73282  1.0000
  H   H3487     1.0  0.76060  0.83620  0.74204  1.0000
  H   H3488     1.0  0.73157  0.84396  0.73316  1.0000
  H   H3489     1.0  0.70363  0.84321  0.75628  1.0000
  H   H3490     1.0  0.70476  0.83479  0.78809  1.0000
  H   H3491     1.0  0.73348  0.82656  0.79722  1.0000
  C   C4393     1.0  0.74932  0.49642  0.50103  1.0000
  H   H3492     1.0  0.71237  0.65347  0.60372  1.0000
  C   C4394     1.0  0.79320  0.83886  0.68929  1.0000
  H   H3493     1.0  0.62901  0.51121  0.60479  1.0000
  P   P151      1.0  0.70525  0.51414  0.63258  1.0000
  H   H3494     1.0  0.78080  0.64136  0.85783  1.0000
  C   C4395     1.0  0.78169  0.81136  0.82601  1.0000
  H   H3495     1.0  0.61451  0.77263  0.97336  1.0000
  C   C4396     1.0  0.73144  0.53455  0.75095  1.0000
  C   C4397     1.0  0.60038  0.81826  0.84078  1.0000
  H   H3496     1.0  0.60703  0.61763  0.59629  1.0000
  C   C4398     1.0  0.77717  0.94041  0.67785  1.0000
  H   H3497     1.0  0.73367  0.62462  0.60478  1.0000
  C   C4399     1.0  0.72997  0.70302  0.65641  1.0000
  C   C4400     1.0  0.74445  0.82931  0.68759  1.0000
  C   C4401     1.0  0.75130  0.85781  0.68501  1.0000
  C   C4402     1.0  0.75940  0.77131  0.62113  1.0000
  C   C4403     1.0  0.73942  0.72122  0.94409  1.0000
  H   H3498     1.0  0.67286  0.75258  0.59619  1.0000
  C   C4404     1.0  0.73686  0.70786  0.93737  1.0000
  C   C4405     1.0  0.75846  0.96771  0.58600  1.0000
  C   C4406     1.0  0.77631  0.79990  0.70639  1.0000
  H   H3499     1.0  0.66769  0.51358  0.65061  1.0000
  H   H3500     1.0  0.79537  0.77338  0.93422  1.0000
  H   H3501     1.0  0.66985  0.50316  0.76481  1.0000
  H   H3502     1.0  0.76310  0.69480  0.97491  1.0000
  H   H3503     1.0  0.67321  0.68826  0.52349  1.0000
  C   C4407     1.0  0.78201  0.59576  0.59945  1.0000
  C   C4408     1.0  0.74872  0.88290  0.63785  1.0000
  C   C4409     1.0  0.72623  0.83684  0.69185  1.0000
  C   C4410     1.0  0.69215  0.72230  0.70574  1.0000
  C   C4411     1.0  0.68757  0.73217  0.71895  1.0000
  C   C4412     1.0  0.68349  0.72374  0.73685  1.0000
  C   C4413     1.0  0.68372  0.70550  0.74160  1.0000
  C   C4414     1.0  0.68840  0.69542  0.72845  1.0000
  C   C4415     1.0  0.69257  0.70401  0.71043  1.0000
  P   P152      1.0  0.68612  0.67246  0.73464  1.0000
  C   C4416     1.0  0.70127  0.65785  0.74830  1.0000
  C   C4417     1.0  0.66317  0.67223  0.74573  1.0000
  C   C4418     1.0  0.65840  0.65677  0.75735  1.0000
  C   C4419     1.0  0.64048  0.65643  0.76498  1.0000
  C   C4420     1.0  0.62719  0.67144  0.76096  1.0000
  C   C4421     1.0  0.63181  0.68681  0.74932  1.0000
  C   C4422     1.0  0.64968  0.68724  0.74172  1.0000
  C   C4423     1.0  0.70450  0.63934  0.74992  1.0000
  C   C4424     1.0  0.71656  0.62783  0.75994  1.0000
  C   C4425     1.0  0.72574  0.63468  0.76822  1.0000
  C   C4426     1.0  0.72260  0.65305  0.76674  1.0000
  C   C4427     1.0  0.71039  0.66462  0.75685  1.0000
  C   C4428     1.0  0.69061  0.66412  0.71473  1.0000
  C   C4429     1.0  0.70824  0.65744  0.70650  1.0000
  C   C4430     1.0  0.71173  0.65227  0.69030  1.0000
  C   C4431     1.0  0.69776  0.65400  0.68219  1.0000
  C   C4432     1.0  0.68023  0.65991  0.69067  1.0000
  C   C4433     1.0  0.67662  0.66520  0.70674  1.0000
  H   H3504     1.0  0.69477  0.72896  0.69184  1.0000
  H   H3505     1.0  0.67956  0.69941  0.75549  1.0000
  H   H3506     1.0  0.69548  0.69687  0.69989  1.0000
  H   H3507     1.0  0.66834  0.64479  0.76023  1.0000
  H   H3508     1.0  0.63687  0.64431  0.77353  1.0000
  H   H3509     1.0  0.79402  0.81408  0.74372  1.0000
  H   H3510     1.0  0.62153  0.69827  0.74577  1.0000
  H   H3511     1.0  0.65284  0.69915  0.73229  1.0000
  H   H3512     1.0  0.69783  0.63374  0.74328  1.0000
  H   H3513     1.0  0.71911  0.61357  0.76097  1.0000
  H   H3514     1.0  0.73545  0.62574  0.77559  1.0000
  H   H3515     1.0  0.72979  0.65829  0.77318  1.0000
  H   H3516     1.0  0.70838  0.67876  0.75576  1.0000
  H   H3517     1.0  0.71925  0.65643  0.71245  1.0000
  H   H3518     1.0  0.72521  0.64711  0.68384  1.0000
  H   H3519     1.0  0.70041  0.65110  0.66916  1.0000
  H   H3520     1.0  0.66946  0.66108  0.68436  1.0000
  H   H3521     1.0  0.66293  0.67041  0.71262  1.0000
  C   C4434     1.0  0.73813  0.92222  0.85852  1.0000
  C   C4435     1.0  0.69741  0.65560  0.54924  1.0000
  H   H3522     1.0  0.75713  0.63434  0.72982  1.0000
  C   C4436     1.0  0.68388  0.93195  0.83570  1.0000
  H   H3523     1.0  0.76890  0.65877  0.72388  1.0000
  C   C4437     1.0  0.71433  0.56874  0.59163  1.0000
  C   C4438     1.0  0.74422  0.70127  0.69609  1.0000
  C   C4439     1.0  0.73814  0.69672  0.71451  1.0000
  C   C4440     1.0  0.74710  0.68136  0.72442  1.0000
  C   C4441     1.0  0.65800  0.66787  0.52895  1.0000
  C   C4442     1.0  0.62996  0.62371  0.50985  1.0000
  H   H3524     1.0  0.67490  0.84238  0.94349  1.0000
  C   C4443     1.0  0.71918  0.58447  0.63610  1.0000
  H   H3525     1.0  0.61935  0.87514  0.77299  1.0000
  H   H3526     1.0  0.60593  0.79578  0.90945  1.0000
  H   H3527     1.0  0.73720  0.71314  0.68841  1.0000
  H   H3528     1.0  0.72650  0.70508  0.72111  1.0000
  H   H3529     1.0  0.74257  0.67780  0.73871  1.0000
  C   C4444     1.0  0.78224  0.63925  0.69111  1.0000
  C   C4445     1.0  0.74855  0.71676  0.95797  1.0000
  H   H3530     1.0  0.75013  0.61189  0.56675  1.0000
  C   C4446     1.0  0.64173  0.85389  0.91235  1.0000
  C   C4447     1.0  0.64046  0.86316  0.89507  1.0000
  C   C4448     1.0  0.63868  0.85436  0.88295  1.0000
  C   C4449     1.0  0.63846  0.83621  0.88800  1.0000
  C   C4450     1.0  0.63993  0.82671  0.90526  1.0000
  C   C4451     1.0  0.62442  0.78496  0.86916  1.0000
  C   C4452     1.0  0.64158  0.78756  0.86688  1.0000
  H   H3531     1.0  0.64073  0.87721  0.89114  1.0000
  H   H3532     1.0  0.63755  0.86157  0.86960  1.0000
  H   H3533     1.0  0.63730  0.82963  0.87837  1.0000
  H   H3534     1.0  0.62079  0.78139  0.85866  1.0000
  H   H3535     1.0  0.65133  0.78584  0.85469  1.0000
  S   S607      1.0  0.60387  0.80785  0.82281  1.0000
  H   H3536     1.0  0.65936  0.79513  0.87799  1.0000
  C   C4453     1.0  0.67016  0.98517  0.75848  1.0000
  H   H3537     1.0  0.70630  0.66454  0.50385  1.0000
  H   H3538     1.0  0.61697  0.70750  0.52691  1.0000
  C   C4454     1.0  0.75712  0.83966  0.68455  1.0000
  H   H3539     1.0  0.74831  0.95947  0.87438  1.0000
  H   H3540     1.0  0.78707  0.71114  0.95337  1.0000
  S   S608      1.0  0.61711  0.95493  0.82193  1.0000
  C   C4455     1.0  0.73257  0.52312  0.60387  1.0000
  H   H3541     1.0  0.64069  0.59157  0.81146  1.0000
  C   C4456     1.0  0.74099  0.49779  0.67355  1.0000
  C   C4457     1.0  0.63586  0.57956  0.69728  1.0000
  C   C4458     1.0  0.72057  0.85478  0.69281  1.0000
  H   H3542     1.0  0.64699  0.57397  0.70385  1.0000
  H   H3543     1.0  0.73790  0.76889  0.61124  1.0000
  H   H3544     1.0  0.75630  0.73926  0.56556  1.0000
  H   H3545     1.0  0.65833  0.58235  0.63060  1.0000
  C   C4459     1.0  0.63374  0.89103  0.81301  1.0000
  C   C4460     1.0  0.64169  0.73701  0.58623  1.0000
  H   H3546     1.0  0.76861  0.60117  0.91683  1.0000
  H   H3547     1.0  0.65700  0.96419  0.80012  1.0000
  H   H3548     1.0  0.73633  0.66955  0.53842  1.0000
  H   H3549     1.0  0.64985  0.53550  0.81457  1.0000
  C   C4461     1.0  0.63022  0.89592  0.97721  1.0000
  H   H3550     1.0  0.60828  0.64725  0.59974  1.0000
  C   C4462     1.0  0.64051  0.90393  0.81651  1.0000
  C   C4463     1.0  0.62367  0.54079  0.54455  1.0000
  H   H3551     1.0  0.68777  0.65101  0.56084  1.0000
  C   C4464     1.0  0.64091  0.66488  0.53127  1.0000
  H   H3552     1.0  0.64296  0.86087  0.92171  1.0000
  H   H3553     1.0  0.64574  0.60300  0.68292  1.0000
  C   C4465     1.0  0.61050  0.87151  0.78568  1.0000
  C   C4466     1.0  0.65280  0.89890  0.82747  1.0000
  H   H3554     1.0  0.68661  0.74645  0.71535  1.0000
  C   C4467     1.0  0.69233  0.49716  0.63904  1.0000
  C   C4468     1.0  0.70005  0.87650  0.97729  1.0000
  P   P153      1.0  0.75455  0.73292  0.82573  1.0000
  C   C4469     1.0  0.60377  0.76404  0.77771  1.0000
  C   C4470     1.0  0.78951  0.64925  0.84798  1.0000
  C   C4471     1.0  0.60169  0.94423  0.87962  1.0000
  H   H3555     1.0  0.78918  0.81713  0.62017  1.0000
  C   C4472     1.0  0.61076  0.71723  0.56380  1.0000
  C   C4473     1.0  0.64129  0.83578  0.91748  1.0000
  C   C4474     1.0  0.61177  0.78757  0.88472  1.0000
  C   C4475     1.0  0.62554  0.78574  0.94680  1.0000
  H   H3556     1.0  0.65289  0.76479  0.91760  1.0000
  C   C4476     1.0  0.68726  0.98110  0.79776  1.0000
  C   C4477     1.0  0.60218  0.77197  0.80534  1.0000
  C   C4478     1.0  0.72253  0.66786  0.51957  1.0000
  H   H3557     1.0  0.66188  0.76033  0.67166  1.0000
  H   H3558     1.0  0.63903  0.65151  0.53349  1.0000
  P   P154      1.0  0.61959  0.89742  0.79711  1.0000
  H   H3559     1.0  0.72339  0.79083  0.93256  1.0000
  H   H3560     1.0  0.69494  0.95251  0.97664  1.0000
  H   H3561     1.0  0.69930  0.93754  0.89340  1.0000
  H   H3562     1.0  0.77337  0.89118  0.62547  1.0000
  C   C4479     1.0  0.78705  0.60617  0.58259  1.0000
  H   H3563     1.0  0.63227  0.70930  0.61277  1.0000
  C   C4480     1.0  0.79156  0.80215  0.75352  1.0000
  H   H3564     1.0  0.64360  0.73446  0.74694  1.0000
  C   C4481     1.0  0.65222  0.54841  0.80708  1.0000
  C   C4482     1.0  0.71086  0.77519  0.97713  1.0000
  H   H3565     1.0  0.63439  0.55963  0.73617  1.0000
  S   S609      1.0  0.72746  0.54786  0.50408  1.0000
  C   C4483     1.0  0.78006  0.93189  0.66384  1.0000
  C   C4484     1.0  0.79776  0.68606  0.65647  1.0000
  C   C4485     1.0  0.65864  0.88094  0.83487  1.0000
  C   C4486     1.0  0.65810  0.63346  0.56226  1.0000
  H   H3566     1.0  0.66840  0.87701  0.84314  1.0000
  H   H3567     1.0  0.67936  0.73158  0.74703  1.0000
  H   H3568     1.0  0.62320  0.55720  0.70939  1.0000
  C   C4487     1.0  0.68538  0.88960  0.98253  1.0000
  H   H3569     1.0  0.63520  0.93777  0.98958  1.0000
  C   C4488     1.0  0.74894  0.71535  0.84460  1.0000
  C   C4489     1.0  0.61909  0.72956  0.56618  1.0000
  C   C4490     1.0  0.63514  0.59602  0.68528  1.0000
  C   C4491     1.0  0.77412  0.72375  0.81054  1.0000
  C   C4492     1.0  0.63330  0.79598  0.89555  1.0000
  H   H3570     1.0  0.68579  0.64627  0.64101  1.0000
  H   H3571     1.0  0.71939  0.85332  0.98599  1.0000
  H   H3572     1.0  0.77169  0.93276  0.86951  1.0000
  C   C4493     1.0  0.73616  0.74157  0.81449  1.0000
  C   C4494     1.0  0.71553  0.97853  0.88765  1.0000
  H   H3573     1.0  0.61425  0.65022  0.62745  1.0000
  H   H3574     1.0  0.75173  0.75489  0.79041  1.0000
  C   C4495     1.0  0.79130  0.72396  0.81171  1.0000
  C   C4496     1.0  0.65206  0.86800  0.83138  1.0000
  C   C4497     1.0  0.63968  0.87296  0.82049  1.0000
  C   C4498     1.0  0.62237  0.57022  0.70063  1.0000
  C   C4499     1.0  0.59851  0.94675  0.83543  1.0000
  C   C4500     1.0  0.69462  0.73300  0.64815  1.0000
  C   C4501     1.0  0.69604  0.53284  0.76822  1.0000
  C   C4502     1.0  0.65774  0.58224  0.78843  1.0000
  C   C4503     1.0  0.70624  0.53993  0.77529  1.0000
  H   H3575     1.0  0.69527  0.60233  0.59367  1.0000
  C   C4504     1.0  0.68701  0.62959  0.59595  1.0000
  H   H3576     1.0  0.65067  0.56017  0.75787  1.0000
  H   H3577     1.0  0.77944  0.61995  0.55777  1.0000
  H   H3578     1.0  0.77341  0.98236  0.59335  1.0000
  H   H3579     1.0  0.71642  0.73114  0.83670  1.0000
  C   C4505     1.0  0.67249  0.63098  0.54780  1.0000
  C   C4506     1.0  0.76812  0.61120  0.49864  1.0000
  H   H3580     1.0  0.65681  0.85408  0.83694  1.0000
  C   C4507     1.0  0.67324  0.64201  0.64491  1.0000
  C   C4508     1.0  0.65825  0.65202  0.65418  1.0000
  C   C4509     1.0  0.61614  0.79314  0.89786  1.0000
  H   H3581     1.0  0.68401  0.61832  0.63446  1.0000
  H   H3582     1.0  0.65930  0.66404  0.65728  1.0000
  C   C4510     1.0  0.64204  0.64650  0.65947  1.0000
  C   C4511     1.0  0.66305  0.55047  0.78986  1.0000
  H   H3583     1.0  0.64734  0.92464  0.86868  1.0000
  C   C4512     1.0  0.60806  0.87994  0.79976  1.0000
  C   C4513     1.0  0.67215  0.62631  0.64111  1.0000
  C   C4514     1.0  0.74351  0.68996  0.94430  1.0000
  H   H3584     1.0  0.67055  0.92843  0.90154  1.0000
  C   C4515     1.0  0.78742  0.83424  0.65553  1.0000
  H   H3585     1.0  0.69497  0.61171  0.53722  1.0000
  C   C4516     1.0  0.78556  0.80650  0.68922  1.0000
  C   C4517     1.0  0.67814  0.73921  0.65867  1.0000
  H   H3586     1.0  0.72261  0.87804  0.65145  1.0000
  S   S610      1.0  0.65018  0.78405  0.79763  1.0000
  C   C4518     1.0  0.73873  0.75219  0.79721  1.0000
  C   C4519     1.0  0.71896  0.73887  0.82325  1.0000
  H   H3587     1.0  0.63523  0.86262  0.81755  1.0000
  H   H3588     1.0  0.67394  0.81126  0.90987  1.0000
  H   H3589     1.0  0.68187  0.95962  0.75093  1.0000
  C   C4520     1.0  0.66578  0.56751  0.78066  1.0000
  H   H3590     1.0  0.65521  0.60878  0.64296  1.0000
  C   C4521     1.0  0.78096  0.60211  0.90709  1.0000
  C   C4522     1.0  0.65657  0.95342  0.88830  1.0000
  H   H3591     1.0  0.70197  0.79963  0.95926  1.0000
  H   H3592     1.0  0.71711  0.50691  0.69191  1.0000
  C   C4523     1.0  0.70192  0.99492  0.73821  1.0000
  H   H3593     1.0  0.76043  0.78423  0.61252  1.0000
  C   C4524     1.0  0.73309  0.86522  0.68936  1.0000
  C   C4525     1.0  0.78503  0.62250  0.97485  1.0000
  C   C4526     1.0  0.65591  0.62091  0.64608  1.0000
  C   C4527     1.0  0.70465  0.74650  0.81475  1.0000
  C   C4528     1.0  0.66596  0.60234  0.57652  1.0000
  H   H3594     1.0  0.77843  0.61373  0.98602  1.0000
  H   H3595     1.0  0.74445  0.95002  0.58198  1.0000
  H   H3596     1.0  0.75906  0.95934  0.69276  1.0000
  C   C4529     1.0  0.61688  0.60545  0.63719  1.0000
  C   C4530     1.0  0.72664  0.90195  0.65585  1.0000
  P   P155      1.0  0.67336  0.53153  0.77953  1.0000
  C   C4531     1.0  0.65367  0.94775  0.78458  1.0000
  C   C4532     1.0  0.66369  0.77082  0.91714  1.0000
  C   C4533     1.0  0.64070  0.63105  0.65521  1.0000
  C   C4534     1.0  0.65772  0.97070  0.87887  1.0000
  C   C4535     1.0  0.67157  0.94165  0.89370  1.0000
  H   H3597     1.0  0.77484  0.60945  0.64243  1.0000
  S   S611      1.0  0.63615  0.85255  0.74210  1.0000
  C   C4536     1.0  0.75203  0.95208  0.59034  1.0000
  H   H3598     1.0  0.77557  0.63080  0.90203  1.0000
  H   H3599     1.0  0.77404  0.77704  0.72798  1.0000
  H   H3600     1.0  0.69457  0.91390  0.79970  1.0000
  H   H3601     1.0  0.76322  0.93672  0.77945  1.0000
  C   C4537     1.0  0.70735  0.75697  0.79755  1.0000
  H   H3602     1.0  0.69134  0.74471  0.82165  1.0000
  C   C4538     1.0  0.68320  0.64159  0.50868  1.0000
  C   C4539     1.0  0.61845  0.51015  0.59932  1.0000
  C   C4540     1.0  0.62082  0.60326  0.67663  1.0000
  H   H3603     1.0  0.63065  0.65435  0.66681  1.0000
  H   H3604     1.0  0.62440  0.75408  0.79277  1.0000
  C   C4541     1.0  0.69061  0.53589  0.63221  1.0000
  C   C4542     1.0  0.74878  0.68411  0.85758  1.0000
  C   C4543     1.0  0.72436  0.75988  0.78881  1.0000
  H   H3605     1.0  0.69613  0.76340  0.79122  1.0000
  C   C4544     1.0  0.69213  0.78606  0.91459  1.0000
  C   C4545     1.0  0.67542  0.79695  0.91296  1.0000
  H   H3606     1.0  0.64177  0.82891  0.93101  1.0000
  H   H3607     1.0  0.67388  0.56954  0.76733  1.0000
  C   C4546     1.0  0.69465  0.76758  0.91755  1.0000
  C   C4547     1.0  0.66037  0.93199  0.77833  1.0000
  H   H3608     1.0  0.66292  0.59113  0.58715  1.0000
  Fe  Fe307     1.0  0.64788  0.78778  0.76916  1.0000
  C   C4548     1.0  0.66097  0.78940  0.91463  1.0000
  H   H3609     1.0  0.72102  0.71117  0.66537  1.0000
  C   C4549     1.0  0.63547  0.74522  0.72180  1.0000
  H   H3610     1.0  0.63410  0.73256  0.72049  1.0000
  C   C4550     1.0  0.64086  0.74635  0.73682  1.0000
  H   H3611     1.0  0.70774  0.75922  0.91840  1.0000
  C   C4551     1.0  0.71793  0.97419  0.91825  1.0000
  C   C4552     1.0  0.73874  0.71964  0.86081  1.0000
  Fe  Fe308     1.0  0.61125  0.71817  0.65668  1.0000
  P   P156      1.0  0.63939  0.80326  0.91218  1.0000
  C   C4553     1.0  0.73175  0.88682  0.64856  1.0000
  H   H3612     1.0  0.78239  0.75900  0.78780  1.0000
  C   C4554     1.0  0.68781  0.76567  0.65782  1.0000
  H   H3613     1.0  0.79810  0.69382  0.66552  1.0000
  C   C4555     1.0  0.72254  0.50890  0.58070  1.0000
  C   C4556     1.0  0.74395  0.73879  0.59321  1.0000
  C   C4557     1.0  0.63395  0.92595  0.98632  1.0000
  H   H3614     1.0  0.68507  0.77838  0.66154  1.0000
  H   H3615     1.0  0.60434  0.85092  0.77721  1.0000
  S   S612      1.0  0.64961  0.76337  0.75811  1.0000
  H   H3616     1.0  0.71368  0.65971  0.56471  1.0000
  C   C4558     1.0  0.65495  0.61922  0.57659  1.0000
  C   C4559     1.0  0.64260  0.76271  0.73894  1.0000
  C   C4560     1.0  0.68043  0.75996  0.91872  1.0000
  H   H3617     1.0  0.72619  0.76862  0.77576  1.0000
  H   H3618     1.0  0.61527  0.94081  0.96997  1.0000
  H   H3619     1.0  0.68251  0.74567  0.92045  1.0000
  Fe  Fe309     1.0  0.64336  0.82804  0.76288  1.0000
  C   C4561     1.0  0.64539  0.69968  0.52496  1.0000
  H   H3620     1.0  0.65605  0.56191  0.61340  1.0000
  C   C4562     1.0  0.73848  0.91314  0.65255  1.0000
  H   H3621     1.0  0.64606  0.76538  0.61686  1.0000
  H   H3622     1.0  0.79211  0.92186  0.66159  1.0000
  C   C4563     1.0  0.65058  0.56284  0.56836  1.0000
  H   H3623     1.0  0.70325  0.79203  0.91302  1.0000
  C   C4564     1.0  0.75202  0.94950  0.65671  1.0000
  C   C4565     1.0  0.75769  0.73742  0.64250  1.0000
  S   S613      1.0  0.62382  0.81005  0.77219  1.0000
  H   H3624     1.0  0.74526  0.53543  0.64457  1.0000
  H   H3625     1.0  0.61133  0.75698  0.76729  1.0000
  H   H3626     1.0  0.75277  0.87109  0.63230  1.0000
  H   H3627     1.0  0.65428  0.92927  0.76909  1.0000
  H   H3628     1.0  0.64202  0.95705  0.78064  1.0000
  C   C4566     1.0  0.63151  0.76052  0.70873  1.0000
  C   C4567     1.0  0.66622  0.55802  0.62117  1.0000
  C   C4568     1.0  0.74680  0.76250  0.62032  1.0000
  H   H3629     1.0  0.72865  0.87918  0.68997  1.0000
  H   H3630     1.0  0.78867  0.66617  0.86527  1.0000
  C   C4569     1.0  0.72077  0.62586  0.60205  1.0000
  C   C4570     1.0  0.73656  0.93941  0.77642  1.0000
  C   C4571     1.0  0.62817  0.75473  0.60876  1.0000
  C   C4572     1.0  0.65806  0.80492  0.95857  1.0000
  C   C4573     1.0  0.70864  0.64220  0.60171  1.0000
  H   H3631     1.0  0.73482  0.73331  0.86241  1.0000
  C   C4574     1.0  0.75551  0.90943  0.64165  1.0000
  C   C4575     1.0  0.76531  0.94161  0.61631  1.0000
  H   H3632     1.0  0.64056  0.79051  0.72695  1.0000
  C   C4576     1.0  0.72584  0.94116  0.81231  1.0000
  C   C4577     1.0  0.62446  0.62336  0.54131  1.0000
  C   C4578     1.0  0.62660  0.74446  0.59785  1.0000
  C   C4579     1.0  0.60779  0.57763  0.69257  1.0000
  H   H3633     1.0  0.64407  0.60546  0.55503  1.0000
  C   C4580     1.0  0.76046  0.89426  0.63420  1.0000
  C   C4581     1.0  0.68789  0.94689  0.88904  1.0000
  H   H3634     1.0  0.78893  0.85701  0.72450  1.0000
  H   H3635     1.0  0.78127  0.76983  0.63277  1.0000
  C   C4582     1.0  0.74926  0.93822  0.78600  1.0000
  H   H3636     1.0  0.73418  0.92458  0.65858  1.0000
  S   S614      1.0  0.74716  0.58956  0.49850  1.0000
  C   C4583     1.0  0.61954  0.57777  0.53516  1.0000
  C   C4584     1.0  0.72152  0.52714  0.74404  1.0000
  C   C4585     1.0  0.60769  0.86261  0.96898  1.0000
  C   C4586     1.0  0.68325  0.92352  0.79540  1.0000
  C   C4587     1.0  0.61623  0.62225  0.64003  1.0000
  C   C4588     1.0  0.66589  0.93367  0.84466  1.0000
  H   H3637     1.0  0.64343  0.62109  0.58730  1.0000
  H   H3638     1.0  0.64895  0.64617  0.56236  1.0000
  P   P157      1.0  0.77027  0.92480  0.63557  1.0000
  C   C4589     1.0  0.76729  0.93606  0.65339  1.0000
  H   H3639     1.0  0.75843  0.67149  0.96287  1.0000
  H   H3640     1.0  0.62039  0.86110  0.95968  1.0000
  H   H3641     1.0  0.74449  0.76186  0.93535  1.0000
  C   C4590     1.0  0.65991  0.75048  0.59649  1.0000
  C   C4591     1.0  0.73353  0.70626  0.87522  1.0000
  C   C4592     1.0  0.62306  0.80069  0.93287  1.0000
  C   C4593     1.0  0.78069  0.59523  0.74951  1.0000
  H   H3642     1.0  0.63731  0.77525  0.94553  1.0000
  C   C4594     1.0  0.67489  0.91968  0.78409  1.0000
  H   H3643     1.0  0.67280  0.96563  0.84218  1.0000
  C   C4595     1.0  0.67471  0.75554  0.66351  1.0000
  H   H3644     1.0  0.68815  0.92308  0.98214  1.0000
  H   H3645     1.0  0.70664  0.56815  0.60514  1.0000
  C   C4596     1.0  0.77108  0.76324  0.63264  1.0000
  H   H3646     1.0  0.72605  0.70967  0.88778  1.0000
  C   C4597     1.0  0.67094  0.99308  0.82925  1.0000
  C   C4598     1.0  0.66220  0.95176  0.79568  1.0000
  C   C4599     1.0  0.66753  0.56957  0.63086  1.0000
  H   H3647     1.0  0.67384  0.63094  0.59390  1.0000
  H   H3648     1.0  0.77907  0.75534  0.86379  1.0000
  H   H3649     1.0  0.70646  0.86066  0.69610  1.0000
  H   H3650     1.0  0.71644  0.82882  0.69443  1.0000
  H   H3651     1.0  0.61562  0.98259  0.85758  1.0000
  H   H3652     1.0  0.73700  0.96775  0.67377  1.0000
  P   P158      1.0  0.73230  0.59038  0.59922  1.0000
  H   H3653     1.0  0.71234  0.59830  0.63421  1.0000
  C   C4600     1.0  0.60765  0.81412  0.93521  1.0000
  H   H3654     1.0  0.61341  0.59098  0.61961  1.0000
  C   C4601     1.0  0.61353  0.60389  0.62148  1.0000
  C   C4602     1.0  0.72800  0.57837  0.58506  1.0000
  H   H3655     1.0  0.75349  0.53052  0.58159  1.0000
  H   H3656     1.0  0.60478  0.83486  0.70383  1.0000
  H   H3657     1.0  0.71044  0.62920  0.51116  1.0000
  C   C4603     1.0  0.71795  0.51484  0.61004  1.0000
  C   C4604     1.0  0.62616  0.67907  0.53076  1.0000
  H   H3658     1.0  0.70900  0.94252  0.77692  1.0000
  C   C4605     1.0  0.79355  0.75977  0.93859  1.0000
  H   H3659     1.0  0.77107  0.59339  0.69594  1.0000
  C   C4606     1.0  0.67774  0.54131  0.62177  1.0000
  C   C4607     1.0  0.67985  0.93227  0.99034  1.0000
  H   H3660     1.0  0.74996  0.84889  0.83073  1.0000
  H   H3661     1.0  0.67649  0.53244  0.61430  1.0000
  C   C4608     1.0  0.68050  0.56445  0.64107  1.0000
  C   C4609     1.0  0.69690  0.91945  0.84392  1.0000
  H   H3662     1.0  0.68144  0.57332  0.64876  1.0000
  C   C4610     1.0  0.69225  0.90987  0.86132  1.0000
  H   H3663     1.0  0.71063  0.91681  0.83697  1.0000
  H   H3664     1.0  0.70252  0.90058  0.86770  1.0000
  C   C4611     1.0  0.63897  0.77791  0.72571  1.0000
  H   H3665     1.0  0.70498  0.50999  0.51792  1.0000
  C   C4612     1.0  0.75426  0.59555  0.59237  1.0000
  C   C4613     1.0  0.75860  0.93406  0.86717  1.0000
  C   C4614     1.0  0.67440  0.91180  0.87025  1.0000
  C   C4615     1.0  0.71856  0.94111  0.78485  1.0000
  H   H3666     1.0  0.75048  0.92699  0.60848  1.0000
  H   H3667     1.0  0.67079  0.90401  0.88361  1.0000
  H   H3668     1.0  0.74057  0.93919  0.76237  1.0000
  C   C4616     1.0  0.72285  0.50513  0.67842  1.0000
  C   C4617     1.0  0.78525  0.84530  0.70492  1.0000
  H   H3669     1.0  0.72180  0.94249  0.82597  1.0000
  C   C4618     1.0  0.67400  0.97600  0.87433  1.0000
  H   H3670     1.0  0.77959  0.95939  0.61998  1.0000
  H   H3671     1.0  0.60109  0.65125  0.74941  1.0000
  C   C4619     1.0  0.64483  0.75772  0.60811  1.0000
  S   S615      1.0  0.79005  0.66075  0.56003  1.0000
  P   P159      1.0  0.68964  0.94529  0.81360  1.0000
  C   C4620     1.0  0.66119  0.92352  0.86183  1.0000
  C   C4621     1.0  0.72383  0.54089  0.76659  1.0000
  H   H3672     1.0  0.62385  0.82946  0.83164  1.0000
  C   C4622     1.0  0.70392  0.52619  0.75266  1.0000
  H   H3673     1.0  0.62343  0.93443  0.78193  1.0000
  H   H3674     1.0  0.76159  0.67276  0.62502  1.0000
  C   C4623     1.0  0.74915  0.95793  0.67078  1.0000
  H   H3675     1.0  0.61303  0.67647  0.53279  1.0000
  Fe  Fe310     1.0  0.62771  0.80802  0.79956  1.0000
  S   S616      1.0  0.62384  0.76003  0.68987  1.0000
  C   C4624     1.0  0.71424  0.73314  0.58518  1.0000
  C   C4625     1.0  0.63328  0.77685  0.71083  1.0000
  C   C4626     1.0  0.71972  0.99427  0.81783  1.0000
  C   C4627     1.0  0.69200  0.54768  0.64174  1.0000
  C   C4628     1.0  0.74625  0.61368  0.65219  1.0000
  H   H3676     1.0  0.61833  0.84199  0.85848  1.0000
  S   S617      1.0  0.62380  0.51895  0.63918  1.0000
  C   C4629     1.0  0.71309  0.94151  0.80305  1.0000
  C   C4630     1.0  0.74578  0.67370  0.65134  1.0000
  C   C4631     1.0  0.77435  0.60616  0.69426  1.0000
  H   H3677     1.0  0.73478  0.67809  0.88488  1.0000
  H   H3678     1.0  0.67032  0.56354  0.54399  1.0000
  H   H3679     1.0  0.64259  0.57570  0.56373  1.0000
  C   C4632     1.0  0.79398  0.66324  0.85219  1.0000
  H   H3680     1.0  0.72616  0.99027  0.80529  1.0000
  C   C4633     1.0  0.76162  0.95323  0.68148  1.0000
  C   C4634     1.0  0.76572  0.59043  0.60435  1.0000
  C   C4635     1.0  0.79316  0.90469  0.71224  1.0000
  H   H3681     1.0  0.64731  0.57272  0.52233  1.0000
  H   H3682     1.0  0.65771  0.98165  0.76603  1.0000
  C   C4636     1.0  0.79234  0.72452  0.59752  1.0000
  C   C4637     1.0  0.63809  0.91508  0.74406  1.0000
  C   C4638     1.0  0.61214  0.82789  0.84210  1.0000
  H   H3683     1.0  0.62562  0.52643  0.54844  1.0000
  C   C4639     1.0  0.78072  0.80330  0.77044  1.0000
  C   C4640     1.0  0.72512  0.98933  0.91376  1.0000
  H   H3684     1.0  0.64964  0.85255  0.96668  1.0000
  C   C4641     1.0  0.61001  0.93467  0.78957  1.0000
  H   H3685     1.0  0.75397  0.70519  0.61384  1.0000
  C   C4642     1.0  0.62678  0.91088  0.76058  1.0000
  C   C4643     1.0  0.75395  0.72551  0.98922  1.0000
  H   H3686     1.0  0.60823  0.77111  0.81625  1.0000
  C   C4644     1.0  0.71206  0.51005  0.66597  1.0000
  C   C4645     1.0  0.60682  0.59425  0.68093  1.0000
  H   H3687     1.0  0.75026  0.62121  0.68579  1.0000
  S   S618      1.0  0.78575  0.69966  0.92116  1.0000
  H   H3688     1.0  0.65973  0.59537  0.78102  1.0000
  C   C4646     1.0  0.74841  0.69964  0.62749  1.0000
  C   C4647     1.0  0.73462  0.68464  0.66274  1.0000
  H   H3689     1.0  0.77119  0.84621  0.71064  1.0000
  H   H3690     1.0  0.72926  0.67896  0.67641  1.0000
  H   H3691     1.0  0.69809  0.72329  0.51363  1.0000
  C   C4648     1.0  0.76633  0.63837  0.68736  1.0000
  C   C4649     1.0  0.72964  0.57705  0.62162  1.0000
  H   H3692     1.0  0.73630  0.52905  0.61259  1.0000
  H   H3693     1.0  0.75368  0.93844  0.81134  1.0000
  H   H3694     1.0  0.61367  0.74178  0.59900  1.0000
  H   H3695     1.0  0.77552  0.73213  0.85089  1.0000
  C   C4650     1.0  0.60722  0.97385  0.86664  1.0000
  C   C4651     1.0  0.76212  0.67058  0.71596  1.0000
  H   H3696     1.0  0.71429  0.76748  0.64327  1.0000
  C   C4652     1.0  0.62840  0.69649  0.52753  1.0000
  H   H3697     1.0  0.75919  0.71449  0.79721  1.0000
  H   H3698     1.0  0.76524  0.90875  0.85947  1.0000
  C   C4653     1.0  0.76833  0.97031  0.59675  1.0000
  C   C4654     1.0  0.75932  0.69051  0.68760  1.0000
  C   C4655     1.0  0.71022  0.56006  0.58070  1.0000
  H   H3699     1.0  0.75743  0.72424  0.65069  1.0000
  C   C4656     1.0  0.73765  0.57885  0.56742  1.0000
  H   H3700     1.0  0.79025  0.89365  0.65593  1.0000
  C   C4657     1.0  0.78488  0.77104  0.77819  1.0000
  H   H3701     1.0  0.77910  0.81158  0.65295  1.0000
  C   C4658     1.0  0.60892  0.83510  0.85729  1.0000
  H   H3702     1.0  0.77973  0.73989  0.65176  1.0000
  C   C4659     1.0  0.70800  0.74289  0.64260  1.0000
  H   H3703     1.0  0.71352  0.90491  0.66428  1.0000
  C   C4660     1.0  0.77177  0.95730  0.61184  1.0000
  H   H3704     1.0  0.68067  0.81201  0.93845  1.0000
  H   H3705     1.0  0.70297  0.73039  0.58212  1.0000
  C   C4661     1.0  0.66619  0.83349  0.95147  1.0000
  C   C4662     1.0  0.61264  0.95546  0.86814  1.0000
  H   H3706     1.0  0.70741  0.95717  0.90899  1.0000
  C   C4663     1.0  0.78131  0.78205  0.71476  1.0000
  C   C4664     1.0  0.77226  0.71533  0.79801  1.0000
  C   C4665     1.0  0.75546  0.93904  0.60543  1.0000
  H   H3707     1.0  0.78059  0.70722  0.58975  1.0000
  C   C4666     1.0  0.76252  0.62189  0.68871  1.0000
  H   H3708     1.0  0.76193  0.58296  0.61774  1.0000
  S   S619      1.0  0.61285  0.63177  0.56021  1.0000
  C   C4667     1.0  0.77009  0.82488  0.83407  1.0000
  C   C4668     1.0  0.74527  0.94917  0.86997  1.0000
  H   H3709     1.0  0.72994  0.73414  0.55847  1.0000
  C   C4669     1.0  0.75922  0.60655  0.57569  1.0000
  H   H3710     1.0  0.61651  0.75990  0.61811  1.0000
  S   S620      1.0  0.78927  0.62827  0.74250  1.0000
  H   H3711     1.0  0.79332  0.72968  0.82162  1.0000
  H   H3712     1.0  0.61091  0.62961  0.69707  1.0000
  C   C4670     1.0  0.77696  0.78765  0.78251  1.0000
  C   C4671     1.0  0.68859  0.50196  0.80293  1.0000
  H   H3713     1.0  0.79117  0.80077  0.80248  1.0000
  C   C4672     1.0  0.70439  0.75941  0.64739  1.0000
  H   H3714     1.0  0.60704  0.63986  0.52417  1.0000
  H   H3715     1.0  0.73147  0.54704  0.77161  1.0000
  H   H3716     1.0  0.61261  0.91633  0.76206  1.0000
  H   H3717     1.0  0.61185  0.91419  0.96184  1.0000
  C   C4673     1.0  0.60727  0.81662  0.72880  1.0000
  C   C4674     1.0  0.76205  0.61791  0.64067  1.0000
  C   C4675     1.0  0.67432  0.50062  0.64771  1.0000
  H   H3718     1.0  0.65111  0.53995  0.53087  1.0000
  H   H3719     1.0  0.60588  0.92994  0.88072  1.0000
  H   H3720     1.0  0.74680  0.60188  0.66277  1.0000
  H   H3721     1.0  0.71587  0.96665  0.93186  1.0000
  H   H3722     1.0  0.63024  0.78880  0.70087  1.0000
  C   C4676     1.0  0.65175  0.83923  0.96455  1.0000
  H   H3723     1.0  0.73255  0.67224  0.50816  1.0000
  C   C4677     1.0  0.73755  0.49995  0.64380  1.0000
  H   H3724     1.0  0.78961  0.57390  0.90942  1.0000
  C   C4678     1.0  0.78915  0.71665  0.58524  1.0000
  H   H3725     1.0  0.66805  0.73129  0.66317  1.0000
  C   C4679     1.0  0.77025  0.74630  0.64330  1.0000
  H   H3726     1.0  0.70965  0.58000  0.66450  1.0000
  C   C4680     1.0  0.71781  0.57415  0.65341  1.0000
  C   C4681     1.0  0.73907  0.55931  0.62476  1.0000
  H   H3727     1.0  0.70173  0.54397  0.64989  1.0000
  H   H3728     1.0  0.78974  0.64646  0.65548  1.0000
  C   C4682     1.0  0.60513  0.85139  0.98597  1.0000
  C   C4683     1.0  0.60445  0.91875  0.79885  1.0000
  C   C4684     1.0  0.73650  0.71061  0.63858  1.0000
  C   C4685     1.0  0.79296  0.58668  0.90287  1.0000
  C   C4686     1.0  0.79239  0.89661  0.69905  1.0000
  H   H3729     1.0  0.72614  0.54860  0.66998  1.0000
  C   C4687     1.0  0.77430  0.73874  0.95359  1.0000
  H   H3730     1.0  0.75696  0.65045  0.68335  1.0000
  H   H3731     1.0  0.75584  0.74043  0.59606  1.0000
  H   H3732     1.0  0.76348  0.69412  0.67330  1.0000
  C   C4688     1.0  0.74589  0.74545  0.63095  1.0000
  C   C4689     1.0  0.79536  0.85108  0.71311  1.0000
  C   C4690     1.0  0.72719  0.55649  0.65647  1.0000
  C   C4691     1.0  0.74430  0.73810  0.57583  1.0000
  C   C4692     1.0  0.71974  0.56087  0.56313  1.0000
  C   C4693     1.0  0.73344  0.57023  0.55651  1.0000
  C   C4694     1.0  0.64049  0.82770  0.97505  1.0000
  H   H3733     1.0  0.66044  0.79173  0.95602  1.0000
  H   H3734     1.0  0.70073  0.50698  0.79825  1.0000
  C   C4695     1.0  0.77572  0.61146  0.57067  1.0000
  C   C4696     1.0  0.72879  0.73644  0.60682  1.0000
  H   H3735     1.0  0.74771  0.55360  0.61377  1.0000
  C   C4697     1.0  0.61125  0.76237  0.79215  1.0000
  H   H3736     1.0  0.77759  0.88649  0.75022  1.0000
  C   C4698     1.0  0.79718  0.66633  0.63267  1.0000
  C   C4699     1.0  0.64361  0.81058  0.97173  1.0000
  H   H3737     1.0  0.71646  0.55425  0.55463  1.0000
  H   H3738     1.0  0.69705  0.72029  0.64459  1.0000
  H   H3739     1.0  0.66375  0.49777  0.70542  1.0000
  H   H3740     1.0  0.79093  0.80130  0.83317  1.0000
  C   C4700     1.0  0.72947  0.73521  0.57183  1.0000
  H   H3741     1.0  0.76447  0.62838  0.96008  1.0000
  C   C4701     1.0  0.67329  0.51108  0.79620  1.0000
  C   C4702     1.0  0.71881  0.50333  0.51760  1.0000
  C   C4703     1.0  0.77706  0.75625  0.94860  1.0000
  S   S621      1.0  0.79120  0.62769  0.82583  1.0000
  H   H3742     1.0  0.70148  0.77905  0.98877  1.0000
  H   H3743     1.0  0.61595  0.53677  0.58364  1.0000
  C   C4704     1.0  0.78507  0.82291  0.64604  1.0000
  H   H3744     1.0  0.70114  0.50224  0.60236  1.0000
  C   C4705     1.0  0.79073  0.82601  0.62750  1.0000
  C   C4706     1.0  0.61065  0.63561  0.61029  1.0000
  H   H3745     1.0  0.60546  0.82580  0.92469  1.0000
  C   C4707     1.0  0.78862  0.72479  0.94931  1.0000
  C   C4708     1.0  0.77455  0.85937  0.76061  1.0000
  C   C4709     1.0  0.60513  0.57026  0.54538  1.0000
  C   C4710     1.0  0.78990  0.60689  0.69864  1.0000
  C   C4711     1.0  0.60185  0.63977  0.68978  1.0000
  C   C4712     1.0  0.79586  0.77080  0.70625  1.0000
  H   H3746     1.0  0.79667  0.53225  0.98021  1.0000
  C   C4713     1.0  0.79320  0.66932  0.66308  1.0000
  H   H3747     1.0  0.74340  0.49710  0.63073  1.0000
  C   C4714     1.0  0.79301  0.65947  0.65099  1.0000
  C   C4715     1.0  0.79469  0.84915  0.64616  1.0000
  H   H3748     1.0  0.79697  0.65868  0.62340  1.0000
  H   H3749     1.0  0.79046  0.59238  0.60895  1.0000
  S   S622      1.0  0.79321  0.71144  0.55134  1.0000
  H   H3750     1.0  0.60320  0.59076  0.49849  1.0000
  P   P160      1.0  0.77061  0.82464  0.77634  1.0000
  H   H3751     1.0  0.78586  0.70006  0.77786  1.0000
  H   H3752     1.0  0.78572  0.62784  0.49743  1.0000
  C   C4716     1.0  0.79388  0.62335  0.69705  1.0000
  H   H3753     1.0  0.79606  0.85835  0.65318  1.0000
  C   C4717     1.0  0.79693  0.72111  0.56717  1.0000
  C   C4718     1.0  0.78330  0.84140  0.76442  1.0000
  H   H3754     1.0  0.72853  0.99363  0.92393  1.0000
  C   C4719     1.0  0.79609  0.76995  0.76155  1.0000
  H   H3755     1.0  0.61372  0.99150  0.98744  1.0000
  H   H3756     1.0  0.60311  0.52918  0.52984  1.0000
  H   H3757     1.0  0.79433  0.67124  0.71751  1.0000
  C   C4720     1.0  0.59982  0.82409  0.71382  1.0000
  S   S623      1.0  0.59859  0.72446  0.68384  1.0000
  H   H3758     1.0  0.72304  0.75041  0.99194  1.0000
  H   H3759     1.0  0.64927  0.88096  0.99308  1.0000
  C   C4721     1.0  0.64391  0.90915  0.99271  1.0000
  C   C4722     1.0  0.96660  0.22883  0.47370  1.0000
  S   S624      1.0  0.97284  0.17653  0.41371  1.0000
  Fe  Fe311     1.0  0.92498  0.28135  0.18263  1.0000
  S   S625      1.0  0.94205  0.30140  0.17166  1.0000
  S   S626      1.0  0.90763  0.27844  0.21006  1.0000
  Fe  Fe312     1.0  0.93377  0.26946  0.14793  1.0000
  S   S627      1.0  0.95121  0.28901  0.13334  1.0000
  S   S628      1.0  0.93113  0.24812  0.13609  1.0000
  Fe  Fe313     1.0  0.96200  0.28097  0.15806  1.0000
  Fe  Fe314     1.0  0.93002  0.30803  0.14791  1.0000
  S   S629      1.0  0.92247  0.33715  0.13690  1.0000
  S   S630      1.0  0.94615  0.25982  0.17179  1.0000
  S   S631      1.0  0.91124  0.28948  0.15982  1.0000
  H   H3760     1.0  0.93261  0.48126  0.13044  1.0000
  S   S632      1.0  0.92920  0.40334  0.03386  1.0000
  C   C4723     1.0  0.82165  0.36259  0.23953  1.0000
  H   H3761     1.0  0.84235  0.48026  0.17885  1.0000
  S   S633      1.0  0.91108  0.44586  0.03007  1.0000
  C   C4724     1.0  0.94411  0.01537  0.46229  1.0000
  Fe  Fe315     1.0  0.93828  0.42873  0.02953  1.0000
  S   S634      1.0  0.95715  0.42880  0.04586  1.0000
  Fe  Fe316     1.0  0.90227  0.42073  0.03213  1.0000
  S   S635      1.0  0.87861  0.41317  0.05312  1.0000
  C   C4725     1.0  0.81131  0.04345  0.48138  1.0000
  C   C4726     1.0  0.82067  0.45675  0.30480  1.0000
  Fe  Fe317     1.0  0.82472  0.32127  0.11418  1.0000
  S   S636      1.0  0.85189  0.32039  0.09604  1.0000
  H   H3762     1.0  0.85117  0.26839  0.06096  1.0000
  C   C4727     1.0  0.96485  0.35316  0.99990  1.0000
  S   S637      1.0  0.83686  0.30419  0.07080  1.0000
  H   H3763     1.0  0.87616  0.21332  0.06356  1.0000
  Fe  Fe318     1.0  0.84955  0.29357  0.09434  1.0000
  S   S638      1.0  0.87040  0.26832  0.09303  1.0000
  Fe  Fe319     1.0  0.83659  0.33124  0.07423  1.0000
  S   S639      1.0  0.84470  0.35141  0.04916  1.0000
  S   S640      1.0  0.82364  0.29332  0.11420  1.0000
  C   C4728     1.0  0.92674  0.08570  0.48231  1.0000
  Fe  Fe320     1.0  0.86792  0.39809  0.18933  1.0000
  S   S641      1.0  0.87484  0.40972  0.16010  1.0000
  S   S642      1.0  0.88605  0.37416  0.20194  1.0000
  Fe  Fe321     1.0  0.83259  0.42349  0.19472  1.0000
  S   S643      1.0  0.83667  0.43711  0.16598  1.0000
  C   C4729     1.0  0.91821  0.35690  0.04300  1.0000
  Fe  Fe322     1.0  0.84663  0.40944  0.16072  1.0000
  S   S644      1.0  0.83993  0.40169  0.13841  1.0000
  Fe  Fe323     1.0  0.86447  0.43604  0.16823  1.0000
  S   S645      1.0  0.87651  0.46048  0.15521  1.0000
  S   S646      1.0  0.84044  0.39594  0.18941  1.0000
  S   S647      1.0  0.85957  0.42435  0.19757  1.0000
  Fe  Fe324     1.0  0.97395  0.47398  0.13201  1.0000
  H   H3764     1.0  0.88820  0.33180  0.04958  1.0000
  S   S648      1.0  0.95358  0.46713  0.15749  1.0000
  Fe  Fe325     1.0  0.98272  0.48427  0.09154  1.0000
  C   C4730     1.0  0.83686  0.44966  0.29443  1.0000
  S   S649      1.0  0.97928  0.45848  0.11092  1.0000
  Fe  Fe326     1.0  0.93704  0.18500  0.32490  1.0000
  S   S650      1.0  0.92768  0.21471  0.31918  1.0000
  S   S651      1.0  0.95448  0.16789  0.34417  1.0000
  Fe  Fe327     1.0  0.91869  0.18028  0.29751  1.0000
  S   S652      1.0  0.90798  0.20950  0.28974  1.0000
  S   S653      1.0  0.91424  0.16118  0.28341  1.0000
  Fe  Fe328     1.0  0.93474  0.21289  0.29045  1.0000
  S   S654      1.0  0.94978  0.23188  0.26926  1.0000
  Fe  Fe329     1.0  0.90178  0.20898  0.31880  1.0000
  S   S655      1.0  0.87575  0.22514  0.33063  1.0000
  S   S656      1.0  0.94628  0.18350  0.29593  1.0000
  S   S657      1.0  0.91041  0.17925  0.32687  1.0000
  C   C4731     1.0  0.82830  0.09143  0.41943  1.0000
  H   H3765     1.0  0.80386  0.13269  0.36059  1.0000
  H   H3766     1.0  0.86674  0.35909  0.09667  1.0000
  H   H3767     1.0  0.91338  0.08388  0.48845  1.0000
  S   S658      1.0  0.97753  0.12597  0.43508  1.0000
  C   C4732     1.0  0.84124  0.17190  0.44458  1.0000
  Fe  Fe330     1.0  0.91756  0.44756  0.00069  1.0000
  H   H3768     1.0  0.89945  0.28608  0.00188  1.0000
  Fe  Fe331     1.0  0.98088  0.12318  0.46263  1.0000
  H   H3769     1.0  0.98962  0.22812  0.10309  1.0000
  C   C4733     1.0  0.91898  0.15795  0.42282  1.0000
  C   C4734     1.0  0.82534  0.39610  0.24117  1.0000
  Fe  Fe332     1.0  0.82398  0.14047  0.28051  1.0000
  S   S659      1.0  0.82329  0.11995  0.30608  1.0000
  S   S660      1.0  0.83619  0.16419  0.27658  1.0000
  H   H3770     1.0  0.83878  0.48930  0.00419  1.0000
  H   H3771     1.0  0.92326  0.21592  0.45994  1.0000
  H   H3772     1.0  0.81774  0.46619  0.19840  1.0000
  H   H3773     1.0  0.97480  0.09247  0.46038  1.0000
  Fe  Fe333     1.0  0.82946  0.10077  0.28816  1.0000
  S   S661      1.0  0.84953  0.07493  0.29332  1.0000
  Fe  Fe334     1.0  0.86925  0.05307  0.46161  1.0000
  S   S662      1.0  0.83171  0.12118  0.26237  1.0000
  Fe  Fe335     1.0  0.93924  0.03538  0.36753  1.0000
  S   S663      1.0  0.92708  0.06393  0.36843  1.0000
  S   S664      1.0  0.92941  0.01238  0.38754  1.0000
  Fe  Fe336     1.0  0.96598  0.04422  0.33368  1.0000
  S   S665      1.0  0.95638  0.07351  0.33170  1.0000
  Fe  Fe337     1.0  0.95540  0.06737  0.36098  1.0000
  S   S666      1.0  0.96223  0.08824  0.37061  1.0000
  Fe  Fe338     1.0  0.92897  0.06791  0.33905  1.0000
  S   S667      1.0  0.90967  0.08791  0.32342  1.0000
  S   S668      1.0  0.96750  0.03832  0.36242  1.0000
  S   S669      1.0  0.93868  0.03899  0.33882  1.0000
  S   S670      1.0  0.86214  0.03910  0.44450  1.0000
  C   C4735     1.0  0.91093  0.01961  0.40365  1.0000
  C   C4736     1.0  0.91146  0.03200  0.41286  1.0000
  C   C4737     1.0  0.89676  0.03721  0.42614  1.0000
  C   C4738     1.0  0.88125  0.03080  0.42956  1.0000
  C   C4739     1.0  0.88074  0.01839  0.42037  1.0000
  C   C4740     1.0  0.89569  0.01256  0.40766  1.0000
  H   H3774     1.0  0.92329  0.03733  0.40991  1.0000
  H   H3775     1.0  0.89721  0.04647  0.43356  1.0000
  H   H3776     1.0  0.86881  0.01330  0.42308  1.0000
  H   H3777     1.0  0.86197  0.16706  0.47799  1.0000
  C   C4741     1.0  0.86672  0.07809  0.30139  1.0000
  C   C4742     1.0  0.87796  0.06349  0.31004  1.0000
  C   C4743     1.0  0.89140  0.06615  0.31680  1.0000
  C   C4744     1.0  0.89358  0.08345  0.31489  1.0000
  C   C4745     1.0  0.88259  0.09791  0.30592  1.0000
  C   C4746     1.0  0.86921  0.09526  0.29924  1.0000
  H   H3778     1.0  0.87617  0.05016  0.31163  1.0000
  H   H3779     1.0  0.90001  0.05492  0.32351  1.0000
  H   H3780     1.0  0.88435  0.11130  0.30421  1.0000
  H   H3781     1.0  0.86094  0.10658  0.29226  1.0000
  C   C4747     1.0  0.84298  0.47500  0.00560  1.0000
  C   C4748     1.0  0.94180  0.19452  0.17808  1.0000
  H   H3782     1.0  0.89164  0.35341  0.07162  1.0000
  H   H3783     1.0  0.84815  0.28502  0.99445  1.0000
  C   C4749     1.0  0.82874  0.12510  0.14990  1.0000
  C   C4750     1.0  0.82415  0.02784  0.48485  1.0000
  C   C4751     1.0  0.97773  0.08705  0.38320  1.0000
  H   H3784     1.0  0.87119  0.32046  0.00821  1.0000
  C   C4752     1.0  0.97777  0.03426  0.48173  1.0000
  C   C4753     1.0  0.81268  0.49492  0.15172  1.0000
  H   H3785     1.0  0.89530  0.00290  0.40064  1.0000
  C   C4754     1.0  0.89206  0.16036  0.28428  1.0000
  C   C4755     1.0  0.87762  0.17311  0.29071  1.0000
  C   C4756     1.0  0.86029  0.17345  0.28937  1.0000
  C   C4757     1.0  0.85722  0.16095  0.28174  1.0000
  C   C4758     1.0  0.87150  0.14751  0.27632  1.0000
  C   C4759     1.0  0.88888  0.14733  0.27745  1.0000
  H   H3786     1.0  0.87992  0.18329  0.29584  1.0000
  H   H3787     1.0  0.84936  0.18391  0.29359  1.0000
  H   H3788     1.0  0.86930  0.13776  0.27049  1.0000
  H   H3789     1.0  0.89994  0.13727  0.27266  1.0000
  C   C4760     1.0  0.95957  0.17139  0.36302  1.0000
  C   C4761     1.0  0.97147  0.15771  0.37180  1.0000
  C   C4762     1.0  0.97562  0.15932  0.38721  1.0000
  C   C4763     1.0  0.96798  0.17469  0.39402  1.0000
  C   C4764     1.0  0.95619  0.18855  0.38516  1.0000
  C   C4765     1.0  0.95194  0.18689  0.36971  1.0000
  H   H3790     1.0  0.97750  0.14575  0.36665  1.0000
  H   H3791     1.0  0.79966  0.13520  0.05926  1.0000
  H   H3792     1.0  0.95027  0.20051  0.39031  1.0000
  H   H3793     1.0  0.94281  0.19753  0.36301  1.0000
  C   C4766     1.0  0.86063  0.21113  0.33935  1.0000
  C   C4767     1.0  0.86413  0.19544  0.33333  1.0000
  C   C4768     1.0  0.85366  0.18285  0.34171  1.0000
  C   C4769     1.0  0.83965  0.18593  0.35611  1.0000
  C   C4770     1.0  0.83524  0.20216  0.36147  1.0000
  C   C4771     1.0  0.84578  0.21486  0.35300  1.0000
  H   H3794     1.0  0.87509  0.19291  0.32234  1.0000
  H   H3795     1.0  0.85661  0.17056  0.33724  1.0000
  C   C4772     1.0  0.90095  0.47607  0.05721  1.0000
  H   H3796     1.0  0.84285  0.22718  0.35743  1.0000
  C   C4773     1.0  0.87728  0.33653  0.11540  1.0000
  C   C4774     1.0  0.94178  0.40127  0.22017  1.0000
  C   C4775     1.0  0.89834  0.46127  0.15563  1.0000
  C   C4776     1.0  0.90585  0.45229  0.17037  1.0000
  C   C4777     1.0  0.92279  0.45415  0.17085  1.0000
  C   C4778     1.0  0.93258  0.46450  0.15634  1.0000
  C   C4779     1.0  0.92523  0.47312  0.14147  1.0000
  C   C4780     1.0  0.90805  0.47177  0.14122  1.0000
  H   H3797     1.0  0.89835  0.44432  0.18151  1.0000
  H   H3798     1.0  0.92828  0.44765  0.18251  1.0000
  H   H3799     1.0  0.80340  0.27629  0.27987  1.0000
  H   H3800     1.0  0.95344  0.20721  0.24705  1.0000
  C   C4781     1.0  0.82542  0.34935  0.14000  1.0000
  C   C4782     1.0  0.82445  0.35407  0.15601  1.0000
  C   C4783     1.0  0.82946  0.36977  0.15583  1.0000
  C   C4784     1.0  0.83537  0.38087  0.13960  1.0000
  C   C4785     1.0  0.83654  0.37598  0.12366  1.0000
  C   C4786     1.0  0.83167  0.36027  0.12384  1.0000
  C   C4787     1.0  0.98626  0.40699  0.14027  1.0000
  H   H3801     1.0  0.82835  0.37351  0.16817  1.0000
  H   H3802     1.0  0.84097  0.38456  0.11108  1.0000
  H   H3803     1.0  0.83241  0.35678  0.11146  1.0000
  C   C4788     1.0  0.96018  0.44777  0.05093  1.0000
  C   C4789     1.0  0.97207  0.44496  0.06188  1.0000
  C   C4790     1.0  0.97519  0.45923  0.06669  1.0000
  C   C4791     1.0  0.96669  0.47660  0.06042  1.0000
  C   C4792     1.0  0.95483  0.47967  0.04917  1.0000
  C   C4793     1.0  0.95148  0.46521  0.04449  1.0000
  H   H3804     1.0  0.97893  0.43157  0.06678  1.0000
  H   H3805     1.0  0.98442  0.45675  0.07510  1.0000
  H   H3806     1.0  0.91232  0.15213  0.48804  1.0000
  H   H3807     1.0  0.94228  0.46751  0.03594  1.0000
  C   C4794     1.0  0.87002  0.39545  0.05200  1.0000
  C   C4795     1.0  0.87338  0.38979  0.03609  1.0000
  C   C4796     1.0  0.86561  0.37622  0.03537  1.0000
  C   C4797     1.0  0.85475  0.36797  0.05063  1.0000
  C   C4798     1.0  0.85155  0.37350  0.06657  1.0000
  C   C4799     1.0  0.85902  0.38734  0.06719  1.0000
  H   H3808     1.0  0.88159  0.39617  0.02424  1.0000
  H   H3809     1.0  0.86792  0.37220  0.02293  1.0000
  H   H3810     1.0  0.84298  0.36740  0.07832  1.0000
  H   H3811     1.0  0.85628  0.39179  0.07948  1.0000
  H   H3812     1.0  0.83509  0.11420  0.15907  1.0000
  C   C4800     1.0  0.89550  0.14188  0.47787  1.0000
  C   C4801     1.0  0.97084  0.37623  0.01042  1.0000
  C   C4802     1.0  0.96545  0.03347  0.42154  1.0000
  H   H3813     1.0  0.83506  0.30154  0.30734  1.0000
  C   C4803     1.0  0.91955  0.26581  0.22636  1.0000
  C   C4804     1.0  0.91040  0.25730  0.24255  1.0000
  C   C4805     1.0  0.91951  0.24741  0.25598  1.0000
  C   C4806     1.0  0.93793  0.24558  0.25312  1.0000
  C   C4807     1.0  0.94709  0.25436  0.23696  1.0000
  C   C4808     1.0  0.93792  0.26440  0.22352  1.0000
  H   H3814     1.0  0.89626  0.25821  0.24464  1.0000
  H   H3815     1.0  0.91221  0.24144  0.26859  1.0000
  H   H3816     1.0  0.96134  0.25307  0.23471  1.0000
  H   H3817     1.0  0.94505  0.27102  0.21100  1.0000
  C   C4809     1.0  0.91293  0.34723  0.15519  1.0000
  C   C4810     1.0  0.91347  0.36493  0.15370  1.0000
  C   C4811     1.0  0.90615  0.37286  0.16846  1.0000
  C   C4812     1.0  0.89780  0.36329  0.18455  1.0000
  C   C4813     1.0  0.89761  0.34548  0.18617  1.0000
  C   C4814     1.0  0.90521  0.33744  0.17149  1.0000
  H   H3818     1.0  0.91947  0.37252  0.14115  1.0000
  H   H3819     1.0  0.90681  0.38647  0.16731  1.0000
  H   H3820     1.0  0.89120  0.33802  0.19860  1.0000
  H   H3821     1.0  0.90479  0.32375  0.17273  1.0000
  C   C4815     1.0  0.88677  0.26329  0.10549  1.0000
  C   C4816     1.0  0.88922  0.27583  0.11342  1.0000
  C   C4817     1.0  0.90294  0.27134  0.12281  1.0000
  C   C4818     1.0  0.91396  0.25429  0.12444  1.0000
  C   C4819     1.0  0.91136  0.24178  0.11663  1.0000
  C   C4820     1.0  0.89788  0.24631  0.10708  1.0000
  H   H3822     1.0  0.88067  0.28898  0.11217  1.0000
  H   H3823     1.0  0.90496  0.28101  0.12881  1.0000
  H   H3824     1.0  0.91984  0.22860  0.11789  1.0000
  H   H3825     1.0  0.89600  0.23663  0.10094  1.0000
  H   H3826     1.0  0.96313  0.30897  0.05798  1.0000
  H   H3827     1.0  0.84401  0.30584  0.23723  1.0000
  H   H3828     1.0  0.83185  0.17397  0.47198  1.0000
  C   C4821     1.0  0.86289  0.24052  0.06417  1.0000
  H   H3829     1.0  0.93329  0.16249  0.45298  1.0000
  C   C4822     1.0  0.95499  0.29908  0.06372  1.0000
  C   C4823     1.0  0.89124  0.32190  0.11804  1.0000
  H   H3830     1.0  0.82070  0.26904  0.07640  1.0000
  H   H3831     1.0  0.82545  0.24210  0.06422  1.0000
  H   H3832     1.0  0.80374  0.41892  0.18581  1.0000
  C   C4824     1.0  0.80264  0.30410  0.03587  1.0000
  C   C4825     1.0  0.87279  0.28590  0.00046  1.0000
  H   H3833     1.0  0.80833  0.33274  0.21100  1.0000
  H   H3834     1.0  0.88432  0.47089  0.01018  1.0000
  C   C4826     1.0  0.93858  0.38624  0.21663  1.0000
  H   H3835     1.0  0.85598  0.13070  0.44027  1.0000
  H   H3836     1.0  0.91199  0.29490  0.08183  1.0000
  H   H3837     1.0  0.98142  0.99927  0.35051  1.0000
  H   H3838     1.0  0.85216  0.47872  0.12763  1.0000
  H   H3839     1.0  0.87367  0.27626  0.18326  1.0000
  S   S671      1.0  0.80765  0.43311  0.21386  1.0000
  H   H3840     1.0  0.85030  0.35794  0.22896  1.0000
  C   C4827     1.0  0.96301  0.28109  0.06437  1.0000
  C   C4828     1.0  0.87400  0.22690  0.05596  1.0000
  H   H3841     1.0  0.87867  0.28015  0.05558  1.0000
  C   C4829     1.0  0.84151  0.44464  0.11773  1.0000
  C   C4830     1.0  0.83908  0.46024  0.12361  1.0000
  C   C4831     1.0  0.85387  0.46671  0.12302  1.0000
  C   C4832     1.0  0.87105  0.45762  0.11656  1.0000
  C   C4833     1.0  0.87364  0.44176  0.11096  1.0000
  C   C4834     1.0  0.85869  0.43549  0.11132  1.0000
  P   P161      1.0  0.89512  0.43321  0.09817  1.0000
  C   C4835     1.0  0.91351  0.43273  0.10748  1.0000
  C   C4836     1.0  0.89775  0.41040  0.09714  1.0000
  C   C4837     1.0  0.89137  0.39827  0.11238  1.0000
  C   C4838     1.0  0.89584  0.38005  0.11268  1.0000
  C   C4839     1.0  0.90696  0.37379  0.09788  1.0000
  C   C4840     1.0  0.91315  0.38579  0.08255  1.0000
  C   C4841     1.0  0.90855  0.40408  0.08215  1.0000
  C   C4842     1.0  0.93085  0.43123  0.09689  1.0000
  C   C4843     1.0  0.94526  0.43003  0.10426  1.0000
  C   C4844     1.0  0.94257  0.42970  0.12231  1.0000
  C   C4845     1.0  0.92553  0.43025  0.13310  1.0000
  C   C4846     1.0  0.91100  0.43190  0.12572  1.0000
  C   C4847     1.0  0.89439  0.44858  0.07711  1.0000
  C   C4848     1.0  0.90486  0.46150  0.07094  1.0000
  C   C4849     1.0  0.96836  0.23566  0.45530  1.0000
  H   H3842     1.0  0.88233  0.46316  0.11566  1.0000
  H   H3843     1.0  0.88323  0.40281  0.12420  1.0000
  H   H3844     1.0  0.89105  0.37071  0.12456  1.0000
  H   H3845     1.0  0.91098  0.35962  0.09852  1.0000
  H   H3846     1.0  0.92191  0.38091  0.07116  1.0000
  H   H3847     1.0  0.91384  0.41322  0.07040  1.0000
  H   H3848     1.0  0.93329  0.43085  0.08297  1.0000
  H   H3849     1.0  0.95857  0.42901  0.09607  1.0000
  H   H3850     1.0  0.95372  0.42893  0.12793  1.0000
  H   H3851     1.0  0.92354  0.42956  0.14717  1.0000
  H   H3852     1.0  0.89788  0.43242  0.13428  1.0000
  C   C4850     1.0  0.81008  0.13044  0.15278  1.0000
  H   H3853     1.0  0.91566  0.46077  0.07700  1.0000
  H   H3854     1.0  0.88292  0.48963  0.03970  1.0000
  H   H3855     1.0  0.91670  0.00739  0.34053  1.0000
  C   C4851     1.0  0.93737  0.07809  0.28554  1.0000
  C   C4852     1.0  0.93329  0.09666  0.28051  1.0000
  C   C4853     1.0  0.80979  0.27724  0.26602  1.0000
  H   H3856     1.0  0.81899  0.46924  0.30862  1.0000
  P   P162      1.0  0.97947  0.11030  0.27956  1.0000
  H   H3857     1.0  0.92717  0.07066  0.28767  1.0000
  H   H3858     1.0  0.91990  0.10353  0.27895  1.0000
  H   H3859     1.0  0.99590  0.06050  0.32220  1.0000
  H   H3860     1.0  0.81428  0.05333  0.46933  1.0000
  H   H3861     1.0  0.95885  0.25422  0.07214  1.0000
  C   C4854     1.0  0.90365  0.14295  0.49094  1.0000
  H   H3862     1.0  0.82579  0.46718  0.12876  1.0000
  C   C4855     1.0  0.98083  0.38059  0.19673  1.0000
  H   H3863     1.0  0.95295  0.13858  0.29505  1.0000
  C   C4856     1.0  0.81966  0.10304  0.21468  1.0000
  C   C4857     1.0  0.87385  0.29879  0.03113  1.0000
  H   H3864     1.0  0.96528  0.14571  0.22205  1.0000
  C   C4858     1.0  0.82081  0.37148  0.33035  1.0000
  C   C4859     1.0  0.88339  0.48461  0.00309  1.0000
  H   H3865     1.0  0.82667  0.40919  0.24137  1.0000
  S   S672      1.0  0.89043  0.03790  0.47664  1.0000
  C   C4860     1.0  0.96092  0.13080  0.30468  1.0000
  H   H3866     1.0  0.81985  0.10846  0.22568  1.0000
  C   C4861     1.0  0.93780  0.12294  0.43104  1.0000
  C   C4862     1.0  0.89347  0.19185  0.46100  1.0000
  C   C4863     1.0  0.82332  0.10836  0.46198  1.0000
  C   C4864     1.0  0.81776  0.13726  0.46901  1.0000
  H   H3867     1.0  0.94398  0.02718  0.46647  1.0000
  C   C4865     1.0  0.92358  0.19313  0.23361  1.0000
  C   C4866     1.0  0.82792  0.11988  0.46954  1.0000
  C   C4867     1.0  0.81630  0.06889  0.40612  1.0000
  P   P163      1.0  0.86388  0.28485  0.02394  1.0000
  C   C4868     1.0  0.99177  0.19337  0.45127  1.0000
  C   C4869     1.0  0.92301  0.33826  0.04784  1.0000
  H   H3868     1.0  0.92953  0.31382  0.03821  1.0000
  H   H3869     1.0  0.91630  0.36501  0.05250  1.0000
  H   H3870     1.0  0.83014  0.43952  0.11809  1.0000
  S   S673      1.0  0.98720  0.03169  0.31308  1.0000
  H   H3871     1.0  0.98186  0.16793  0.48737  1.0000
  C   C4870     1.0  0.81644  0.25953  0.30823  1.0000
  H   H3872     1.0  0.93488  0.30724  0.23648  1.0000
  C   C4871     1.0  0.85986  0.25801  0.05437  1.0000
  H   H3873     1.0  0.83098  0.36637  0.33817  1.0000
  C   C4872     1.0  0.81922  0.06940  0.33324  1.0000
  C   C4873     1.0  0.87757  0.34769  0.09858  1.0000
  H   H3874     1.0  0.92620  0.26334  0.08290  1.0000
  H   H3875     1.0  0.80117  0.45235  0.15918  1.0000
  C   C4874     1.0  0.96139  0.09067  0.46653  1.0000
  H   H3876     1.0  0.94665  0.14668  0.32411  1.0000
  C   C4875     1.0  0.88223  0.23081  0.03794  1.0000
  C   C4876     1.0  0.98902  0.34903  0.20912  1.0000
  H   H3877     1.0  0.82687  0.41222  0.29079  1.0000
  H   H3878     1.0  0.82114  0.14606  0.47512  1.0000
  C   C4877     1.0  0.97401  0.22786  0.14705  1.0000
  C   C4878     1.0  0.80945  0.26501  0.07479  1.0000
  C   C4879     1.0  0.91882  0.35522  0.01306  1.0000
  P   P164      1.0  0.97730  0.20626  0.48245  1.0000
  C   C4880     1.0  0.94235  0.33695  0.07514  1.0000
  S   S674      1.0  0.97147  0.49422  0.06649  1.0000
  C   C4881     1.0  0.92365  0.33668  0.01768  1.0000
  C   C4882     1.0  0.93664  0.30424  0.07046  1.0000
  Fe  Fe339     1.0  0.89912  0.06367  0.47050  1.0000
  C   C4883     1.0  0.94609  0.10640  0.27862  1.0000
  C   C4884     1.0  0.93325  0.15121  0.41024  1.0000
  C   C4885     1.0  0.83005  0.48237  0.17449  1.0000
  H   H3879     1.0  0.80474  0.03746  0.25701  1.0000
  S   S675      1.0  0.84615  0.11277  0.47992  1.0000
  C   C4886     1.0  0.86365  0.18564  0.22324  1.0000
  C   C4887     1.0  0.82893  0.22875  0.30643  1.0000
  C   C4888     1.0  0.82743  0.24694  0.29843  1.0000
  P   P165      1.0  0.84064  0.25415  0.27653  1.0000
  C   C4889     1.0  0.85645  0.26559  0.27850  1.0000
  C   C4890     1.0  0.85299  0.23479  0.26761  1.0000
  C   C4891     1.0  0.87159  0.22950  0.26558  1.0000
  C   C4892     1.0  0.88077  0.21407  0.25934  1.0000
  C   C4893     1.0  0.87149  0.20373  0.25525  1.0000
  C   C4894     1.0  0.85300  0.20893  0.25716  1.0000
  C   C4895     1.0  0.84377  0.22447  0.26319  1.0000
  C   C4896     1.0  0.86423  0.27727  0.26370  1.0000
  C   C4897     1.0  0.87807  0.28439  0.26463  1.0000
  C   C4898     1.0  0.88455  0.27955  0.28022  1.0000
  C   C4899     1.0  0.87693  0.26789  0.29500  1.0000
  C   C4900     1.0  0.86283  0.26107  0.29422  1.0000
  C   C4901     1.0  0.82735  0.26796  0.26062  1.0000
  H   H3880     1.0  0.80464  0.42732  0.14524  1.0000
  C   C4902     1.0  0.85404  0.43800  0.01018  1.0000
  H   H3881     1.0  0.80525  0.11445  0.03931  1.0000
  C   C4903     1.0  0.82489  0.27996  0.22971  1.0000
  C   C4904     1.0  0.83472  0.26934  0.24232  1.0000
  H   H3882     1.0  0.83817  0.21856  0.29996  1.0000
  H   H3883     1.0  0.87910  0.23691  0.26918  1.0000
  H   H3884     1.0  0.89505  0.20980  0.25823  1.0000
  H   H3885     1.0  0.87854  0.19124  0.25142  1.0000
  H   H3886     1.0  0.84575  0.20044  0.25475  1.0000
  H   H3887     1.0  0.82939  0.22809  0.26502  1.0000
  H   H3888     1.0  0.86035  0.28018  0.25115  1.0000
  H   H3889     1.0  0.88441  0.29290  0.25292  1.0000
  H   H3890     1.0  0.89587  0.28433  0.28065  1.0000
  H   H3891     1.0  0.88242  0.26350  0.30684  1.0000
  H   H3892     1.0  0.85753  0.25158  0.30563  1.0000
  H   H3893     1.0  0.85154  0.42814  0.28132  1.0000
  C   C4905     1.0  0.87927  0.29325  0.04743  1.0000
  C   C4906     1.0  0.97468  0.11623  0.30083  1.0000
  H   H3894     1.0  0.83074  0.28099  0.21563  1.0000
  H   H3895     1.0  0.84811  0.26217  0.23778  1.0000
  H   H3896     1.0  0.95357  0.22783  0.21760  1.0000
  H   H3897     1.0  0.92275  0.00121  0.43912  1.0000
  C   C4907     1.0  0.81213  0.31854  0.27411  1.0000
  C   C4908     1.0  0.82503  0.42458  0.29491  1.0000
  H   H3898     1.0  0.96816  0.99639  0.30636  1.0000
  H   H3899     1.0  0.98881  0.31659  0.06628  1.0000
  C   C4909     1.0  0.98487  0.34948  0.16287  1.0000
  C   C4910     1.0  0.96150  0.19193  0.48924  1.0000
  H   H3900     1.0  0.93412  0.18526  0.25740  1.0000
  H   H3901     1.0  0.83997  0.31974  0.02888  1.0000
  C   C4911     1.0  0.83744  0.04927  0.35320  1.0000
  C   C4912     1.0  0.81620  0.47438  0.18545  1.0000
  C   C4913     1.0  0.94532  0.21803  0.22199  1.0000
  H   H3902     1.0  0.91228  0.17170  0.41955  1.0000
  C   C4914     1.0  0.83160  0.14804  0.12288  1.0000
  C   C4915     1.0  0.81210  0.24973  0.06792  1.0000
  H   H3903     1.0  0.88750  0.30103  0.06716  1.0000
  H   H3904     1.0  0.96100  0.02263  0.40170  1.0000
  H   H3905     1.0  0.82757  0.04514  0.26778  1.0000
  H   H3906     1.0  0.80636  0.18371  0.33823  1.0000
  H   H3907     1.0  0.90700  0.99845  0.49028  1.0000
  C   C4916     1.0  0.81790  0.12775  0.35584  1.0000
  C   C4917     1.0  0.95609  0.99959  0.46722  1.0000
  C   C4918     1.0  0.81861  0.07679  0.36098  1.0000
  C   C4919     1.0  0.94173  0.00271  0.32179  1.0000
  S   S676      1.0  0.95918  0.11521  0.48567  1.0000
  S   S677      1.0  0.94566  0.43224  0.99996  1.0000
  H   H3908     1.0  0.82199  0.15352  0.34046  1.0000
  H   H3909     1.0  0.92290  0.02818  0.44840  1.0000
  H   H3910     1.0  0.97582  0.30810  0.17458  1.0000
  H   H3911     1.0  0.89103  0.31334  0.13113  1.0000
  H   H3912     1.0  0.86622  0.33922  0.12639  1.0000
  C   C4920     1.0  0.90568  0.31862  0.10398  1.0000
  C   C4921     1.0  0.90630  0.32994  0.08701  1.0000
  C   C4922     1.0  0.92625  0.29126  0.07700  1.0000
  H   H3913     1.0  0.87195  0.44053  0.07362  1.0000
  C   C4923     1.0  0.98381  0.36359  0.01871  1.0000
  C   C4924     1.0  0.95267  0.26818  0.07143  1.0000
  S   S678      1.0  0.80072  0.10117  0.29017  1.0000
  C   C4925     1.0  0.95326  0.34717  0.06171  1.0000
  H   H3914     1.0  0.86019  0.42381  0.10619  1.0000
  H   H3915     1.0  0.79888  0.07064  0.09786  1.0000
  C   C4926     1.0  0.98479  0.29504  0.08895  1.0000
  H   H3916     1.0  0.95821  0.43015  0.17066  1.0000
  H   H3917     1.0  0.95706  0.05493  0.29373  1.0000
  C   C4927     1.0  0.96322  0.09758  0.28144  1.0000
  H   H3918     1.0  0.84945  0.19095  0.22458  1.0000
  H   H3919     1.0  0.97725  0.27724  0.05947  1.0000
  C   C4928     1.0  0.96698  0.07896  0.28714  1.0000
  C   C4929     1.0  0.86054  0.16774  0.46471  1.0000
  S   S679      1.0  0.87958  0.07827  0.45303  1.0000
  C   C4930     1.0  0.84935  0.44591  0.02485  1.0000
  C   C4931     1.0  0.84504  0.31658  0.28137  1.0000
  C   C4932     1.0  0.90538  0.17602  0.45759  1.0000
  H   H3920     1.0  0.97815  0.19521  0.45005  1.0000
  C   C4933     1.0  0.80661  0.44781  0.31022  1.0000
  C   C4934     1.0  0.97953  0.10310  0.38576  1.0000
  H   H3921     1.0  0.92581  0.32887  0.00785  1.0000
  C   C4935     1.0  0.99188  0.27778  0.09737  1.0000
  C   C4936     1.0  0.79876  0.48670  0.16258  1.0000
  C   C4937     1.0  0.90025  0.17175  0.21990  1.0000
  H   H3922     1.0  0.91440  0.16611  0.21856  1.0000
  H   H3923     1.0  0.82421  0.20462  0.37248  1.0000
  H   H3924     1.0  0.93245  0.42929  0.22010  1.0000
  C   C4938     1.0  0.97781  0.39270  0.14391  1.0000
  C   C4939     1.0  0.97578  0.38226  0.11305  1.0000
  H   H3925     1.0  0.84011  0.47050  0.03396  1.0000
  C   C4940     1.0  0.97590  0.39436  0.08168  1.0000
  C   C4941     1.0  0.95809  0.39327  0.08474  1.0000
  C   C4942     1.0  0.94902  0.38696  0.10196  1.0000
  C   C4943     1.0  0.95778  0.38156  0.11606  1.0000
  C   C4944     1.0  0.96171  0.39256  0.15662  1.0000
  C   C4945     1.0  0.95462  0.40610  0.16615  1.0000
  C   C4946     1.0  0.96362  0.41976  0.16315  1.0000
  C   C4947     1.0  0.87535  0.31583  0.02079  1.0000
  C   C4948     1.0  0.83145  0.05351  0.33738  1.0000
  H   H3926     1.0  0.94931  0.03887  0.49059  1.0000
  H   H3927     1.0  0.98560  0.33679  0.21765  1.0000
  H   H3928     1.0  0.81815  0.39865  0.33143  1.0000
  S   S680      1.0  0.80020  0.18052  0.41421  1.0000
  C   C4949     1.0  0.97932  0.42031  0.15011  1.0000
  H   H3929     1.0  0.93434  0.22676  0.19862  1.0000
  H   H3930     1.0  0.98039  0.35315  0.27367  1.0000
  C   C4950     1.0  0.91101  0.40428  0.20831  1.0000
  P   P166      1.0  0.90994  0.20414  0.20235  1.0000
  H   H3931     1.0  0.79991  0.29737  0.22545  1.0000
  C   C4951     1.0  0.84025  0.38385  0.23474  1.0000
  H   H3932     1.0  0.85786  0.31567  0.28412  1.0000
  C   C4952     1.0  0.97068  0.02316  0.40869  1.0000
  H   H3933     1.0  0.97674  0.35584  0.08702  1.0000
  C   C4953     1.0  0.80870  0.43163  0.30533  1.0000
  H   H3934     1.0  0.95050  0.37676  0.12931  1.0000
  H   H3935     1.0  0.95449  0.38216  0.15896  1.0000
  H   H3936     1.0  0.94206  0.40614  0.17574  1.0000
  H   H3937     1.0  0.80139  0.39990  0.12793  1.0000
  H   H3938     1.0  0.89287  0.14696  0.23480  1.0000
  C   C4954     1.0  0.81500  0.35976  0.32413  1.0000
  H   H3939     1.0  0.96955  0.31745  0.14430  1.0000
  C   C4955     1.0  0.92378  0.17465  0.45542  1.0000
  C   C4956     1.0  0.81035  0.28680  0.03339  1.0000
  C   C4957     1.0  0.87266  0.17586  0.38008  1.0000
  C   C4958     1.0  0.89073  0.17276  0.37193  1.0000
  C   C4959     1.0  0.90083  0.18510  0.37043  1.0000
  C   C4960     1.0  0.89291  0.20047  0.37723  1.0000
  C   C4961     1.0  0.87489  0.20337  0.38617  1.0000
  C   C4962     1.0  0.86475  0.19112  0.38709  1.0000
  P   P167      1.0  0.86535  0.22230  0.39677  1.0000
  C   C4963     1.0  0.84706  0.21785  0.41532  1.0000
  C   C4964     1.0  0.88318  0.22603  0.40430  1.0000
  C   C4965     1.0  0.89473  0.21140  0.41245  1.0000
  C   C4966     1.0  0.91001  0.21367  0.41617  1.0000
  C   C4967     1.0  0.91347  0.23068  0.41246  1.0000
  C   C4968     1.0  0.90164  0.24543  0.40500  1.0000
  C   C4969     1.0  0.88657  0.24314  0.40084  1.0000
  C   C4970     1.0  0.84832  0.21654  0.43285  1.0000
  C   C4971     1.0  0.83345  0.21495  0.44685  1.0000
  C   C4972     1.0  0.81731  0.21444  0.44350  1.0000
  C   C4973     1.0  0.81600  0.21556  0.42615  1.0000
  C   C4974     1.0  0.83075  0.21733  0.41211  1.0000
  C   C4975     1.0  0.85724  0.24195  0.38115  1.0000
  C   C4976     1.0  0.84128  0.25396  0.38637  1.0000
  C   C4977     1.0  0.83484  0.26876  0.37398  1.0000
  C   C4978     1.0  0.84435  0.27185  0.35639  1.0000
  C   C4979     1.0  0.86061  0.26045  0.35133  1.0000
  C   C4980     1.0  0.86713  0.24566  0.36370  1.0000
  H   H3940     1.0  0.86467  0.16659  0.38067  1.0000
  H   H3941     1.0  0.89684  0.16101  0.36637  1.0000
  H   H3942     1.0  0.91479  0.18286  0.36372  1.0000
  H   H3943     1.0  0.90099  0.20996  0.37560  1.0000
  H   H3944     1.0  0.85073  0.19320  0.39310  1.0000
  H   H3945     1.0  0.89220  0.19817  0.41524  1.0000
  H   H3946     1.0  0.91941  0.20219  0.42153  1.0000
  H   H3947     1.0  0.92546  0.23236  0.41512  1.0000
  H   H3948     1.0  0.90442  0.25861  0.40195  1.0000
  H   H3949     1.0  0.87788  0.25465  0.39454  1.0000
  H   H3950     1.0  0.86061  0.21708  0.43574  1.0000
  H   H3951     1.0  0.94532  0.10942  0.43421  1.0000
  S   S681      1.0  0.98900  0.14919  0.45690  1.0000
  S   S682      1.0  0.99115  0.27656  0.15785  1.0000
  H   H3952     1.0  0.82924  0.21889  0.39865  1.0000
  H   H3953     1.0  0.83360  0.25194  0.39988  1.0000
  H   H3954     1.0  0.82221  0.27762  0.37787  1.0000
  H   H3955     1.0  0.83896  0.28296  0.34669  1.0000
  H   H3956     1.0  0.86796  0.26269  0.33769  1.0000
  H   H3957     1.0  0.87965  0.23685  0.35947  1.0000
  C   C4981     1.0  0.93246  0.10025  0.40442  1.0000
  C   C4982     1.0  0.93395  0.08345  0.41568  1.0000
  C   C4983     1.0  0.92095  0.07373  0.41857  1.0000
  C   C4984     1.0  0.90676  0.08064  0.40988  1.0000
  C   C4985     1.0  0.90529  0.09748  0.39841  1.0000
  C   C4986     1.0  0.91799  0.10751  0.39621  1.0000
  P   P168      1.0  0.88725  0.10641  0.38673  1.0000
  C   C4987     1.0  0.87954  0.08810  0.38418  1.0000
  C   C4988     1.0  0.86889  0.11944  0.39975  1.0000
  C   C4989     1.0  0.86995  0.12100  0.41652  1.0000
  C   C4990     1.0  0.85519  0.12988  0.42720  1.0000
  C   C4991     1.0  0.83943  0.13761  0.42110  1.0000
  C   C4992     1.0  0.83823  0.13601  0.40455  1.0000
  C   C4993     1.0  0.85283  0.12677  0.39398  1.0000
  C   C4994     1.0  0.88475  0.08266  0.36796  1.0000
  C   C4995     1.0  0.88091  0.06711  0.36655  1.0000
  C   C4996     1.0  0.87131  0.05710  0.38128  1.0000
  C   C4997     1.0  0.86522  0.06291  0.39726  1.0000
  C   C4998     1.0  0.86936  0.07830  0.39878  1.0000
  C   C4999     1.0  0.89611  0.11853  0.36482  1.0000
  C   C5000     1.0  0.91362  0.11193  0.35623  1.0000
  C   C5001     1.0  0.92017  0.11922  0.33852  1.0000
  C   C5002     1.0  0.90952  0.13348  0.32921  1.0000
  C   C5003     1.0  0.89234  0.14069  0.33769  1.0000
  C   C5004     1.0  0.88558  0.13328  0.35547  1.0000
  H   H3958     1.0  0.94308  0.10721  0.40123  1.0000
  H   H3959     1.0  0.94530  0.07791  0.42193  1.0000
  H   H3960     1.0  0.92197  0.06079  0.42746  1.0000
  H   H3961     1.0  0.89714  0.07271  0.41203  1.0000
  H   H3962     1.0  0.91726  0.12056  0.38745  1.0000
  H   H3963     1.0  0.88197  0.11509  0.42161  1.0000
  H   H3964     1.0  0.82588  0.14174  0.40000  1.0000
  H   H3965     1.0  0.85140  0.12512  0.38145  1.0000
  H   H3966     1.0  0.89232  0.09009  0.35652  1.0000
  H   H3967     1.0  0.88566  0.06276  0.35407  1.0000
  H   H3968     1.0  0.86879  0.04476  0.38038  1.0000
  H   H3969     1.0  0.85783  0.05512  0.40869  1.0000
  H   H3970     1.0  0.86539  0.08204  0.41156  1.0000
  H   H3971     1.0  0.92219  0.10071  0.36294  1.0000
  H   H3972     1.0  0.93331  0.11329  0.33183  1.0000
  H   H3973     1.0  0.91459  0.13873  0.31537  1.0000
  H   H3974     1.0  0.88427  0.15182  0.33024  1.0000
  H   H3975     1.0  0.87217  0.13899  0.36154  1.0000
  H   H3976     1.0  0.98643  0.05851  0.38914  1.0000
  H   H3977     1.0  0.85841  0.42365  0.01204  1.0000
  H   H3978     1.0  0.88120  0.34095  0.01972  1.0000
  C   C5005     1.0  0.97543  0.22495  0.13021  1.0000
  P   P169      1.0  0.89749  0.15722  0.45654  1.0000
  H   H3979     1.0  0.89069  0.21845  0.46432  1.0000
  H   H3980     1.0  0.85009  0.43769  0.03799  1.0000
  C   C5006     1.0  0.94643  0.34739  0.21668  1.0000
  H   H3981     1.0  0.83282  0.35744  0.20273  1.0000
  H   H3982     1.0  0.94548  0.33046  0.24316  1.0000
  H   H3983     1.0  0.96160  0.25841  0.43465  1.0000
  H   H3984     1.0  0.95350  0.40026  0.22506  1.0000
  C   C5007     1.0  0.91441  0.41917  0.21169  1.0000
  C   C5008     1.0  0.94526  0.20641  0.23856  1.0000
  C   C5009     1.0  0.99546  0.19773  0.46560  1.0000
  C   C5010     1.0  0.93428  0.27330  0.07756  1.0000
  P   P170      1.0  0.95372  0.36497  0.22118  1.0000
  C   C5011     1.0  0.87572  0.19673  0.21453  1.0000
  C   C5012     1.0  0.80864  0.39164  0.24693  1.0000
  C   C5013     1.0  0.81363  0.04810  0.27433  1.0000
  C   C5014     1.0  0.97383  0.32640  0.14949  1.0000
  C   C5015     1.0  0.96006  0.25320  0.44887  1.0000
  C   C5016     1.0  0.88107  0.32747  0.02722  1.0000
  Fe  Fe340     1.0  0.98778  0.15090  0.42865  1.0000
  H   H3985     1.0  0.85129  0.33212  0.25491  1.0000
  C   C5017     1.0  0.85377  0.33784  0.19137  1.0000
  C   C5018     1.0  0.86377  0.32040  0.19422  1.0000
  C   C5019     1.0  0.86028  0.30892  0.21081  1.0000
  C   C5020     1.0  0.84676  0.31487  0.22455  1.0000
  H   H3986     1.0  0.94240  0.12082  0.27547  1.0000
  H   H3987     1.0  0.87437  0.31584  0.18362  1.0000
  H   H3988     1.0  0.86828  0.29552  0.21300  1.0000
  H   H3989     1.0  0.96233  0.07264  0.45042  1.0000
  C   C5021     1.0  0.87939  0.24837  0.02814  1.0000
  C   C5022     1.0  0.97721  0.34046  0.00880  1.0000
  H   H3990     1.0  0.94873  0.19759  0.18638  1.0000
  C   C5023     1.0  0.93744  0.31888  0.22623  1.0000
  H   H3991     1.0  0.82808  0.14472  0.42922  1.0000
  H   H3992     1.0  0.93295  0.49373  0.10145  1.0000
  H   H3993     1.0  0.83455  0.26743  0.02834  1.0000
  H   H3994     1.0  0.85321  0.38735  0.23001  1.0000
  C   C5024     1.0  0.99084  0.10321  0.39641  1.0000
  H   H3995     1.0  0.96538  0.21947  0.12799  1.0000
  C   C5025     1.0  0.92294  0.38784  0.21090  1.0000
  C   C5026     1.0  0.80707  0.23604  0.33256  1.0000
  H   H3996     1.0  0.94052  0.26591  0.48823  1.0000
  H   H3997     1.0  0.84771  0.45665  0.29017  1.0000
  H   H3998     1.0  0.87547  0.26239  0.21469  1.0000
  H   H3999     1.0  0.90503  0.43183  0.20990  1.0000
  S   S683      1.0  0.80162  0.22588  0.05556  1.0000
  C   C5027     1.0  0.83692  0.33246  0.22193  1.0000
  C   C5028     1.0  0.88023  0.45032  0.06906  1.0000
  Fe  Fe341     1.0  0.81101  0.30547  0.09055  1.0000
  C   C5029     1.0  0.95416  0.06925  0.28898  1.0000
  C   C5030     1.0  0.88021  0.26241  0.18687  1.0000
  C   C5031     1.0  0.95725  0.13544  0.32115  1.0000
  C   C5032     1.0  0.91478  0.19187  0.17160  1.0000
  C   C5033     1.0  0.88107  0.25456  0.20459  1.0000
  C   C5034     1.0  0.95337  0.36095  0.24460  1.0000
  H   H4000     1.0  0.82797  0.17448  0.44208  1.0000
  C   C5035     1.0  0.84127  0.32586  0.26480  1.0000
  H   H4001     1.0  0.97941  0.32659  0.00839  1.0000
  H   H4002     1.0  0.91982  0.12092  0.45646  1.0000
  C   C5036     1.0  0.86821  0.26212  0.03633  1.0000
  C   C5037     1.0  0.81886  0.22341  0.32343  1.0000
  H   H4003     1.0  0.94810  0.49313  0.04431  1.0000
  C   C5038     1.0  0.98173  0.35465  0.14558  1.0000
  C   C5039     1.0  0.93048  0.00022  0.33864  1.0000
  H   H4004     1.0  0.86494  0.46650  0.04977  1.0000
  C   C5040     1.0  0.80007  0.39642  0.31663  1.0000
  C   C5041     1.0  0.83116  0.06092  0.36491  1.0000
  C   C5042     1.0  0.95438  0.07927  0.46102  1.0000
  H   H4005     1.0  0.97474  0.34620  0.12530  1.0000
  C   C5043     1.0  0.94302  0.13394  0.41454  1.0000
  H   H4006     1.0  0.85418  0.14298  0.32877  1.0000
  C   C5044     1.0  0.80219  0.49132  0.47678  1.0000
  H   H4007     1.0  0.98543  0.32855  0.18652  1.0000
  C   C5045     1.0  0.89186  0.34436  0.08437  1.0000
  H   H4008     1.0  0.88450  0.16122  0.42369  1.0000
  C   C5046     1.0  0.88462  0.30505  0.05399  1.0000
  H   H4009     1.0  0.85382  0.12983  0.13285  1.0000
  C   C5047     1.0  0.82470  0.32710  0.26105  1.0000
  H   H4010     1.0  0.99140  0.36772  0.02563  1.0000
  C   C5048     1.0  0.97791  0.03478  0.43019  1.0000
  C   C5049     1.0  0.96153  0.37102  0.00084  1.0000
  H   H4011     1.0  0.98500  0.23859  0.16270  1.0000
  C   C5050     1.0  0.98024  0.11050  0.33047  1.0000
  C   C5051     1.0  0.92580  0.32820  0.03498  1.0000
  H   H4012     1.0  0.93655  0.33651  0.18261  1.0000
  H   H4013     1.0  0.96497  0.99933  0.47537  1.0000
  C   C5052     1.0  0.93698  0.07692  0.46876  1.0000
  C   C5053     1.0  0.93216  0.01586  0.45218  1.0000
  H   H4014     1.0  0.87057  0.21058  0.20910  1.0000
  H   H4015     1.0  0.88803  0.25875  0.15989  1.0000
  C   C5054     1.0  0.95663  0.34022  0.09699  1.0000
  C   C5055     1.0  0.97202  0.13015  0.24685  1.0000
  H   H4016     1.0  0.81697  0.17290  0.31006  1.0000
  H   H4017     1.0  0.97119  0.39303  0.19540  1.0000
  H   H4018     1.0  0.99832  0.39048  0.09323  1.0000
  P   P171      1.0  0.81280  0.09352  0.37411  1.0000
  C   C5056     1.0  0.94337  0.33218  0.22995  1.0000
  C   C5057     1.0  0.81864  0.08897  0.18666  1.0000
  C   C5058     1.0  0.96900  0.35827  0.25074  1.0000
  C   C5059     1.0  0.88837  0.25257  0.17369  1.0000
  C   C5060     1.0  0.88490  0.12928  0.48183  1.0000
  H   H4019     1.0  0.83070  0.48516  0.47405  1.0000
  C   C5061     1.0  0.82890  0.28111  0.02955  1.0000
  C   C5062     1.0  0.84634  0.13375  0.33785  1.0000
  H   H4020     1.0  0.99205  0.11572  0.39824  1.0000
  C   C5063     1.0  0.92325  0.12951  0.44358  1.0000
  C   C5064     1.0  0.98273  0.33273  0.17330  1.0000
  C   C5065     1.0  0.82931  0.08591  0.21319  1.0000
  C   C5066     1.0  0.82881  0.07887  0.19917  1.0000
  H   H4021     1.0  0.83708  0.07809  0.22297  1.0000
  H   H4022     1.0  0.81850  0.08334  0.17582  1.0000
  H   H4023     1.0  0.92974  0.31041  0.20658  1.0000
  S   S684      1.0  0.92860  0.06269  0.46139  1.0000
  C   C5067     1.0  0.96828  0.35530  0.26898  1.0000
  H   H4024     1.0  0.93653  0.32531  0.10339  1.0000
  H   H4025     1.0  0.91660  0.30748  0.10657  1.0000
  H   H4026     1.0  0.89074  0.22021  0.03156  1.0000
  C   C5068     1.0  0.80680  0.37493  0.24628  1.0000
  C   C5069     1.0  0.89001  0.23689  0.20916  1.0000
  H   H4027     1.0  0.89086  0.23117  0.22290  1.0000
  C   C5070     1.0  0.97834  0.16148  0.25087  1.0000
  H   H4028     1.0  0.95130  0.39744  0.07377  1.0000
  C   C5071     1.0  0.82814  0.13965  0.34432  1.0000
  H   H4029     1.0  0.98285  0.39946  0.06831  1.0000
  H   H4030     1.0  0.86850  0.11126  0.33794  1.0000
  H   H4031     1.0  0.85654  0.23763  0.07816  1.0000
  C   C5072     1.0  0.96965  0.14575  0.23373  1.0000
  H   H4032     1.0  0.83627  0.06556  0.19803  1.0000
  C   C5073     1.0  0.95102  0.09976  0.47983  1.0000
  C   C5074     1.0  0.81877  0.08559  0.39555  1.0000
  C   C5075     1.0  0.97727  0.13020  0.26223  1.0000
  H   H4033     1.0  0.81615  0.27351  0.30303  1.0000
  C   C5076     1.0  0.85438  0.11588  0.34299  1.0000
  C   C5077     1.0  0.81579  0.30971  0.29081  1.0000
  C   C5078     1.0  0.98914  0.23001  0.11610  1.0000
  C   C5079     1.0  0.93842  0.33530  0.19586  1.0000
  C   C5080     1.0  0.96695  0.12534  0.33401  1.0000
  H   H4034     1.0  0.96390  0.12879  0.34688  1.0000
  H   H4035     1.0  0.94441  0.18783  0.45417  1.0000
  H   H4036     1.0  0.81849  0.06003  0.29318  1.0000
  H   H4037     1.0  0.80185  0.43219  0.27299  1.0000
  C   C5081     1.0  0.93635  0.35799  0.27512  1.0000
  C   C5082     1.0  0.88623  0.47816  0.04998  1.0000
  H   H4038     1.0  0.83682  0.02568  0.47548  1.0000
  C   C5083     1.0  0.93473  0.32056  0.20928  1.0000
  C   C5084     1.0  0.94434  0.33341  0.09275  1.0000
  H   H4039     1.0  0.94371  0.27772  0.45569  1.0000
  C   C5085     1.0  0.80839  0.11413  0.45420  1.0000
  P   P172      1.0  0.92664  0.32748  0.06998  1.0000
  C   C5086     1.0  0.99411  0.30305  0.07259  1.0000
  H   H4040     1.0  0.97221  0.30232  0.09529  1.0000
  H   H4041     1.0  0.83444  0.21408  0.46032  1.0000
  C   C5087     1.0  0.97724  0.32119  0.16660  1.0000
  C   C5088     1.0  0.89746  0.23491  0.17818  1.0000
  H   H4042     1.0  0.98519  0.14620  0.27554  1.0000
  C   C5089     1.0  0.92984  0.41769  0.21753  1.0000
  H   H4043     1.0  0.87867  0.12800  0.47188  1.0000
  H   H4044     1.0  0.91960  0.37648  0.20868  1.0000
  P   P173      1.0  0.98670  0.37527  0.13157  1.0000
  C   C5090     1.0  0.98682  0.34567  0.01806  1.0000
  H   H4045     1.0  0.93665  0.01181  0.31063  1.0000
  C   C5091     1.0  0.84413  0.10389  0.35429  1.0000
  H   H4046     1.0  0.82569  0.11013  0.39489  1.0000
  H   H4047     1.0  0.81970  0.34562  0.16855  1.0000
  H   H4048     1.0  0.97372  0.36216  0.05576  1.0000
  H   H4049     1.0  0.94694  0.35999  0.18894  1.0000
  C   C5092     1.0  0.95199  0.35511  0.28116  1.0000
  C   C5093     1.0  0.87331  0.16454  0.43428  1.0000
  H   H4050     1.0  0.90232  0.47883  0.12979  1.0000
  H   H4051     1.0  0.85435  0.16825  0.41819  1.0000
  H   H4052     1.0  0.96295  0.22459  0.15776  1.0000
  H   H4053     1.0  0.81116  0.06024  0.40135  1.0000
  C   C5094     1.0  0.82579  0.10971  0.36074  1.0000
  Fe  Fe342     1.0  0.93384  0.40868  0.00423  1.0000
  C   C5095     1.0  0.83903  0.43359  0.28947  1.0000
  H   H4054     1.0  0.83298  0.10016  0.42456  1.0000
  H   H4055     1.0  0.84744  0.03728  0.35606  1.0000
  H   H4056     1.0  0.83111  0.09494  0.46233  1.0000
  H   H4057     1.0  0.92478  0.36322  0.25238  1.0000
  C   C5096     1.0  0.94433  0.34861  0.19950  1.0000
  H   H4058     1.0  0.95147  0.35276  0.29528  1.0000
  C   C5097     1.0  0.83202  0.31040  0.02975  1.0000
  C   C5098     1.0  0.89823  0.22688  0.19601  1.0000
  H   H4059     1.0  0.90408  0.22789  0.16756  1.0000
  C   C5099     1.0  0.82445  0.09693  0.40250  1.0000
  C   C5100     1.0  0.83226  0.30859  0.29441  1.0000
  C   C5101     1.0  0.80849  0.05648  0.28870  1.0000
  C   C5102     1.0  0.98634  0.23580  0.14980  1.0000
  H   H4060     1.0  0.85663  0.34678  0.17853  1.0000
  C   C5103     1.0  0.93702  0.36099  0.25691  1.0000
  C   C5104     1.0  0.87602  0.46518  0.05573  1.0000
  C   C5105     1.0  0.92372  0.20464  0.21678  1.0000
  H   H4061     1.0  0.98652  0.29981  0.12306  1.0000
  C   C5106     1.0  0.91824  0.20478  0.45942  1.0000
  H   H4062     1.0  0.95078  0.18108  0.13904  1.0000
  C   C5107     1.0  0.91616  0.36529  0.02570  1.0000
  P   P174      1.0  0.81987  0.34034  0.23991  1.0000
  C   C5108     1.0  0.96773  0.17350  0.49065  1.0000
  C   C5109     1.0  0.97271  0.16143  0.23579  1.0000
  C   C5110     1.0  0.81309  0.08114  0.34480  1.0000
  H   H4063     1.0  0.87927  0.19324  0.46282  1.0000
  S   S685      1.0  0.84912  0.06091  0.48538  1.0000
  C   C5111     1.0  0.83944  0.13394  0.13502  1.0000
  H   H4064     1.0  0.93706  0.15953  0.39729  1.0000
  H   H4065     1.0  0.89900  0.40538  0.20383  1.0000
  S   S686      1.0  0.81835  0.33003  0.14043  1.0000
  H   H4066     1.0  0.95258  0.34972  0.04788  1.0000
  H   H4067     1.0  0.83003  0.07015  0.44250  1.0000
  C   C5112     1.0  0.80874  0.10617  0.18816  1.0000
  H   H4068     1.0  0.83673  0.05786  0.37654  1.0000
  H   H4069     1.0  0.97955  0.07189  0.29081  1.0000
  C   C5113     1.0  0.93016  0.18901  0.45620  1.0000
  H   H4070     1.0  0.81521  0.07308  0.32061  1.0000
  Fe  Fe343     1.0  0.86134  0.08483  0.47831  1.0000
  H   H4071     1.0  0.90904  0.49428  0.01600  1.0000
  H   H4072     1.0  0.83985  0.15484  0.11129  1.0000
  C   C5114     1.0  0.89991  0.20618  0.46189  1.0000
  C   C5115     1.0  0.82046  0.06328  0.42298  1.0000
  H   H4073     1.0  0.93517  0.38630  0.10446  1.0000
  C   C5116     1.0  0.84036  0.34386  0.20514  1.0000
  S   S687      1.0  0.80939  0.33370  0.09236  1.0000
  C   C5117     1.0  0.88518  0.32226  0.04404  1.0000
  C   C5118     1.0  0.85615  0.16855  0.43103  1.0000
  C   C5119     1.0  0.86983  0.16779  0.23073  1.0000
  C   C5120     1.0  0.98468  0.38910  0.09582  1.0000
  H   H4074     1.0  0.91280  0.37968  0.02196  1.0000
  S   S688      1.0  0.82868  0.16877  0.36775  1.0000
  C   C5121     1.0  0.81306  0.15334  0.12562  1.0000
  C   C5122     1.0  0.96550  0.35409  0.06606  1.0000
  H   H4075     1.0  0.90045  0.19314  0.17486  1.0000
  H   H4076     1.0  0.98477  0.14863  0.39382  1.0000
  C   C5123     1.0  0.91390  0.14721  0.43962  1.0000
  C   C5124     1.0  0.97610  0.36499  0.20808  1.0000
  H   H4077     1.0  0.95777  0.33751  0.11070  1.0000
  C   C5125     1.0  0.94821  0.25743  0.47903  1.0000
  C   C5126     1.0  0.89413  0.18995  0.21319  1.0000
  C   C5127     1.0  0.82650  0.07455  0.42960  1.0000
  H   H4078     1.0  0.98745  0.10246  0.34063  1.0000
  H   H4079     1.0  0.98934  0.35825  0.16807  1.0000
  C   C5128     1.0  0.93384  0.09697  0.48795  1.0000
  H   H4080     1.0  0.91803  0.18358  0.14721  1.0000
  C   C5129     1.0  0.84375  0.46438  0.02257  1.0000
  C   C5130     1.0  0.83846  0.36716  0.23399  1.0000
  C   C5131     1.0  0.96724  0.35053  0.08367  1.0000
  C   C5132     1.0  0.92322  0.19616  0.18271  1.0000
  H   H4081     1.0  0.86040  0.15939  0.23808  1.0000
  C   C5133     1.0  0.88812  0.16081  0.22893  1.0000
  C   C5134     1.0  0.83992  0.29281  0.02785  1.0000
  C   C5135     1.0  0.87565  0.16409  0.45122  1.0000
  H   H4082     1.0  0.83684  0.04490  0.32792  1.0000
  C   C5136     1.0  0.80755  0.28925  0.23523  1.0000
  C   C5137     1.0  0.98384  0.10570  0.31411  1.0000
  H   H4083     1.0  0.97623  0.22767  0.44578  1.0000
  C   C5138     1.0  0.95169  0.18901  0.16243  1.0000
  H   H4084     1.0  0.85044  0.08999  0.35765  1.0000
  H   H4085     1.0  0.99245  0.00728  0.39354  1.0000
  C   C5139     1.0  0.92470  0.18647  0.15591  1.0000
  C   C5140     1.0  0.95647  0.23989  0.48551  1.0000
  H   H4086     1.0  0.92370  0.35790  0.28455  1.0000
  C   C5141     1.0  0.97645  0.34288  0.13885  1.0000
  C   C5142     1.0  0.94314  0.18509  0.15129  1.0000
  H   H4087     1.0  0.91500  0.18368  0.23881  1.0000
  H   H4088     1.0  0.91640  0.48957  0.08150  1.0000
  C   C5143     1.0  0.80933  0.11312  0.20231  1.0000
  H   H4089     1.0  0.95472  0.12913  0.40506  1.0000
  C   C5144     1.0  0.93434  0.19405  0.24439  1.0000
  C   C5145     1.0  0.81346  0.31592  0.03394  1.0000
  H   H4090     1.0  0.98175  0.35854  0.24160  1.0000
  H   H4091     1.0  0.95182  0.04084  0.42446  1.0000
  H   H4092     1.0  0.82059  0.20943  0.32969  1.0000
  C   C5146     1.0  0.84344  0.17160  0.46140  1.0000
  H   H4093     1.0  0.98464  0.27205  0.11026  1.0000
  H   H4094     1.0  0.80575  0.21323  0.45430  1.0000
  H   H4095     1.0  0.80574  0.30387  0.30109  1.0000
  H   H4096     1.0  0.96846  0.39009  0.01098  1.0000
  H   H4097     1.0  0.97066  0.17357  0.22575  1.0000
  C   C5147     1.0  0.98771  0.07096  0.39107  1.0000
  H   H4098     1.0  0.81087  0.25234  0.36084  1.0000
  H   H4099     1.0  0.96598  0.18797  0.15883  1.0000
  H   H4100     1.0  0.97385  0.04337  0.43964  1.0000
  C   C5148     1.0  0.95000  0.26409  0.46071  1.0000
  C   C5149     1.0  0.93213  0.00052  0.44701  1.0000
  C   C5150     1.0  0.98846  0.01427  0.40432  1.0000
  C   C5151     1.0  0.93444  0.21733  0.21125  1.0000
  H   H4101     1.0  0.90929  0.48577  0.05226  1.0000
  C   C5152     1.0  0.81986  0.46152  0.48424  1.0000
  H   H4102     1.0  0.97201  0.11556  0.37951  1.0000
  S   S689      1.0  0.90614  0.42416  0.00263  1.0000
  H   H4103     1.0  0.98584  0.43135  0.14732  1.0000
  H   H4104     1.0  0.80749  0.32922  0.03629  1.0000
  C   C5153     1.0  0.80590  0.25413  0.32495  1.0000
  H   H4105     1.0  0.82058  0.34558  0.32711  1.0000
  C   C5154     1.0  0.81346  0.38974  0.32655  1.0000
  H   H4106     1.0  0.80689  0.16412  0.11612  1.0000
  C   C5155     1.0  0.80237  0.14459  0.14051  1.0000
  Fe  Fe344     1.0  0.80342  0.17706  0.38652  1.0000
  H   H4107     1.0  0.79926  0.23183  0.34574  1.0000
  H   H4108     1.0  0.96955  0.11811  0.24510  1.0000
  Fe  Fe345     1.0  0.80213  0.12317  0.26590  1.0000
  H   H4109     1.0  0.98063  0.17365  0.25253  1.0000
  C   C5156     1.0  0.99421  0.02433  0.48537  1.0000
  C   C5157     1.0  0.98080  0.14589  0.26396  1.0000
  C   C5158     1.0  0.79903  0.18927  0.32768  1.0000
  H   H4110     1.0  0.81915  0.05016  0.43093  1.0000
  H   H4111     1.0  0.88581  0.25109  0.01421  1.0000
  H   H4112     1.0  0.83269  0.45265  0.48514  1.0000
  C   C5159     1.0  0.80498  0.18319  0.31184  1.0000
  H   H4113     1.0  0.80665  0.05437  0.12665  1.0000
  C   C5160     1.0  0.80446  0.45464  0.48910  1.0000
  C   C5161     1.0  0.99568  0.02579  0.42597  1.0000
  H   H4114     1.0  0.97721  0.04449  0.46969  1.0000
  H   H4115     1.0  0.80169  0.12615  0.20414  1.0000
  C   C5162     1.0  0.80186  0.36631  0.31410  1.0000
  H   H4116     1.0  0.80194  0.27753  0.03526  1.0000
  C   C5163     1.0  0.80078  0.04376  0.26831  1.0000
  H   H4117     1.0  0.80452  0.09393  0.34077  1.0000
  H   H4118     1.0  0.80477  0.10515  0.44854  1.0000
  H   H4119     1.0  0.91750  0.36190  0.99960  1.0000
  H   H4120     1.0  0.99056  0.45882  0.02196  1.0000
  C   C5164     1.0  0.79889  0.25553  0.37073  1.0000
  C   C5165     1.0  0.82823  0.49274  0.15769  1.0000
  H   H4121     1.0  0.80344  0.21539  0.42350  1.0000
  C   C5166     1.0  0.80002  0.28794  0.25336  1.0000
  C   C5167     1.0  0.80311  0.14319  0.46080  1.0000
  C   C5168     1.0  0.81872  0.47985  0.47803  1.0000
  H   H4122     1.0  0.79943  0.31870  0.27171  1.0000
  H   H4123     1.0  0.99366  0.09372  0.31197  1.0000
  C   C5169     1.0  0.99536  0.45322  0.01015  1.0000
  H   H4124     1.0  0.99668  0.08117  0.26030  1.0000
  H   H4125     1.0  0.79999  0.22824  0.38503  1.0000
  H   H4126     1.0  0.79995  0.18534  0.28617  1.0000
  H   H4127     1.0  0.86031  0.49462  0.02194  1.0000
  H   H4128     1.0  0.80162  0.37774  0.20185  1.0000
  H   H4129     1.0  0.80038  0.38487  0.10500  1.0000
  C   C5170     1.0  0.80067  0.47641  0.17951  1.0000
  H   H4130     1.0  0.99825  0.22866  0.48740  1.0000
  C   C5171     1.0  0.99824  0.38025  0.18673  1.0000
  H   H4131     1.0  0.99808  0.40795  0.12975  1.0000
  H   H4132     1.0  0.95765  0.34911  0.99256  1.0000
  H   H4133     1.0  0.95500  0.23498  0.49976  1.0000
  Fe  Fe346     1.0  0.87119  0.04751  0.49986  1.0000
  S   S690      1.0  0.91401  0.47284  0.98001  1.0000
  H   H4134     1.0  0.92223  0.07806  0.52461  1.0000
  H   H4135     1.0  0.87203  0.01261  0.59156  1.0000
  S   S691      1.0  0.86838  0.02785  0.52585  1.0000
  C   C5172     1.0  0.96969  0.07571  0.67689  1.0000
  H   H4136     1.0  0.90710  0.13281  0.51795  1.0000
  C   C5173     1.0  0.96199  0.44911  0.95039  1.0000
  H   H4137     1.0  0.92834  0.16007  0.50550  1.0000
  C   C5174     1.0  0.87256  0.00690  0.52081  1.0000
  H   H4138     1.0  0.89282  0.28655  0.95020  1.0000
  C   C5175     1.0  0.96677  0.37815  0.94646  1.0000
  H   H4139     1.0  0.95325  0.06424  0.61603  1.0000
  C   C5176     1.0  0.88544  0.49174  0.92518  1.0000
  H   H4140     1.0  0.80236  0.00829  0.52517  1.0000
  C   C5177     1.0  0.86750  0.00527  0.50600  1.0000
  C   C5178     1.0  0.98046  0.34181  0.94770  1.0000
  C   C5179     1.0  0.95578  0.16211  0.49629  1.0000
  C   C5180     1.0  0.95550  0.36613  0.95374  1.0000
  C   C5181     1.0  0.80731  0.45992  0.94953  1.0000
  C   C5182     1.0  0.99190  0.35382  0.94032  1.0000
  H   H4141     1.0  0.97431  0.18457  0.51924  1.0000
  C   C5183     1.0  0.88193  0.11840  0.49883  1.0000
  H   H4142     1.0  0.86506  0.00661  0.56560  1.0000
  C   C5184     1.0  0.93752  0.16899  0.50100  1.0000
  C   C5185     1.0  0.99588  0.13962  0.53973  1.0000
  C   C5186     1.0  0.84776  0.46717  0.99076  1.0000
  C   C5187     1.0  0.86929  0.28582  0.97122  1.0000
  H   H4143     1.0  0.97420  0.43128  0.97126  1.0000
  H   H4144     1.0  0.81939  0.09194  0.50901  1.0000
  H   H4145     1.0  0.79920  0.12160  0.50853  1.0000
  C   C5188     1.0  0.82163  0.46622  0.93729  1.0000
  C   C5189     1.0  0.86741  0.47974  0.95352  1.0000
  H   H4146     1.0  0.86071  0.01689  0.49786  1.0000
  H   H4147     1.0  0.91540  0.01923  0.50285  1.0000
  H   H4148     1.0  0.97596  0.05399  0.66367  1.0000
  H   H4149     1.0  0.84447  0.47706  0.93327  1.0000
  H   H4150     1.0  0.99439  0.33476  0.91452  1.0000
  C   C5190     1.0  0.96619  0.05590  0.61751  1.0000
  H   H4151     1.0  0.94466  0.05107  0.51924  1.0000
  C   C5191     1.0  0.85312  0.44855  0.99320  1.0000
  C   C5192     1.0  0.97735  0.06140  0.62479  1.0000
  H   H4152     1.0  0.88745  0.11133  0.52505  1.0000
  H   H4153     1.0  0.89027  0.07675  0.53607  1.0000
  H   H4154     1.0  0.95346  0.46754  0.92758  1.0000
  H   H4155     1.0  0.97970  0.99764  0.52490  1.0000
  C   C5193     1.0  0.96477  0.46004  0.93343  1.0000
  H   H4156     1.0  0.91351  0.48009  0.92081  1.0000
  C   C5194     1.0  0.90016  0.06484  0.53373  1.0000
  C   C5195     1.0  0.93080  0.05021  0.52394  1.0000
  C   C5196     1.0  0.88281  0.46782  0.95813  1.0000
  C   C5197     1.0  0.88972  0.11983  0.51192  1.0000
  C   C5198     1.0  0.99500  0.07105  0.65231  1.0000
  H   H4157     1.0  0.81434  0.46593  0.98735  1.0000
  C   C5199     1.0  0.86207  0.28553  0.98929  1.0000
  C   C5200     1.0  0.94311  0.19874  0.49414  1.0000
  C   C5201     1.0  0.97652  0.43949  0.95802  1.0000
  P   P175      1.0  0.84596  0.48059  0.96886  1.0000
  C   C5202     1.0  0.90756  0.03330  0.53394  1.0000
  H   H4158     1.0  0.99278  0.01638  0.60970  1.0000
  H   H4159     1.0  0.90324  0.02086  0.53687  1.0000
  C   C5203     1.0  0.91811  0.06558  0.52719  1.0000
  C   C5204     1.0  0.94432  0.00314  0.54696  1.0000
  H   H4160     1.0  0.94158  0.37090  0.95945  1.0000
  C   C5205     1.0  0.90066  0.13204  0.50795  1.0000
  H   H4161     1.0  0.95800  0.07163  0.68600  1.0000
  H   H4162     1.0  0.88101  0.04809  0.54239  1.0000
  C   C5206     1.0  0.98178  0.19455  0.51767  1.0000
  C   C5207     1.0  0.80656  0.09442  0.50554  1.0000
  H   H4163     1.0  0.99213  0.37239  0.97386  1.0000
  H   H4164     1.0  0.94851  0.44830  0.95776  1.0000
  C   C5208     1.0  0.80180  0.08113  0.50062  1.0000
  C   C5209     1.0  0.97477  0.09074  0.67801  1.0000
  C   C5210     1.0  0.93117  0.18728  0.49999  1.0000
  H   H4165     1.0  0.88242  0.45898  0.97107  1.0000
  C   C5211     1.0  0.99527  0.21927  0.49986  1.0000
  C   C5212     1.0  0.99405  0.05056  0.62698  1.0000
  C   C5213     1.0  0.97984  0.06581  0.66416  1.0000
  C   C5214     1.0  0.99008  0.09577  0.66652  1.0000
  H   H4166     1.0  0.91119  0.45884  0.95005  1.0000
  C   C5215     1.0  0.88726  0.28633  0.96421  1.0000
  C   C5216     1.0  0.96249  0.01836  0.50968  1.0000
  C   C5217     1.0  0.83093  0.47255  0.96110  1.0000
  C   C5218     1.0  0.92556  0.03401  0.52699  1.0000
  C   C5219     1.0  0.89806  0.28646  0.97530  1.0000
  H   H4167     1.0  0.96299  0.03524  0.60672  1.0000
  C   C5220     1.0  0.98531  0.20667  0.50140  1.0000
  H   H4168     1.0  0.98625  0.13444  0.51931  1.0000
  C   C5221     1.0  0.96196  0.03116  0.49372  1.0000
  H   H4169     1.0  0.96698  0.09837  0.68793  1.0000
  C   C5222     1.0  0.89930  0.46773  0.94621  1.0000
  C   C5223     1.0  0.98845  0.02899  0.61390  1.0000
  C   C5224     1.0  0.89493  0.04869  0.53724  1.0000
  C   C5225     1.0  0.80476  0.45988  0.96754  1.0000
  P   P176      1.0  0.94196  0.01377  0.52448  1.0000
  C   C5226     1.0  0.98844  0.19484  0.53205  1.0000
  H   H4170     1.0  0.96150  0.39215  0.94662  1.0000
  H   H4171     1.0  0.85669  0.44221  0.98197  1.0000
  C   C5227     1.0  0.83341  0.47249  0.94302  1.0000
  H   H4172     1.0  0.82372  0.46609  0.92334  1.0000
  C   C5228     1.0  0.97168  0.03962  0.61220  1.0000
  C   C5229     1.0  0.99662  0.45224  0.93206  1.0000
  C   C5230     1.0  0.90063  0.47971  0.92978  1.0000
  C   C5231     1.0  0.92213  0.00535  0.50507  1.0000
  C   C5232     1.0  0.99399  0.44068  0.94885  1.0000
  H   H4173     1.0  0.98576  0.15159  0.54120  1.0000
  H   H4174     1.0  0.96070  0.14792  0.49697  1.0000
  C   C5233     1.0  0.95751  0.99946  0.57214  1.0000
  C   C5234     1.0  0.93531  0.99902  0.51519  1.0000
  H   H4175     1.0  0.91202  0.28675  0.96990  1.0000
  H   H4176     1.0  0.96405  0.01717  0.54698  1.0000
  H   H4177     1.0  0.95361  0.33865  0.96030  1.0000
  C   C5235     1.0  0.98209  0.46162  0.92427  1.0000
  H   H4178     1.0  0.99421  0.10724  0.66756  1.0000
  S   S692      1.0  0.94613  0.38673  0.98950  1.0000
  H   H4179     1.0  0.86092  0.28560  0.96266  1.0000
  C   C5236     1.0  0.95603  0.00756  0.55458  1.0000
  H   H4180     1.0  0.97294  0.07413  0.62870  1.0000
  H   H4181     1.0  0.98417  0.47037  0.91123  1.0000
  C   C5237     1.0  0.82087  0.01516  0.50059  1.0000
  C   C5238     1.0  0.81651  0.46614  0.97331  1.0000
  H   H4182     1.0  0.96701  0.00236  0.57781  1.0000
  H   H4183     1.0  0.81090  0.06834  0.50089  1.0000
  C   C5239     1.0  0.96232  0.34797  0.95430  1.0000
  H   H4184     1.0  0.91699  0.19257  0.50370  1.0000
  C   C5240     1.0  0.86701  0.99596  0.57713  1.0000
  H   H4185     1.0  0.98636  0.18505  0.54437  1.0000
  H   H4186     1.0  0.87345  0.10896  0.50182  1.0000
  C   C5241     1.0  0.86894  0.49185  0.93701  1.0000
  H   H4187     1.0  0.83096  0.00317  0.50335  1.0000
  C   C5242     1.0  0.97902  0.00808  0.51302  1.0000
  C   C5243     1.0  0.87090  0.99934  0.59177  1.0000
  C   C5244     1.0  0.99620  0.12999  0.52738  1.0000
  H   H4188     1.0  0.98923  0.40444  0.96188  1.0000
  H   H4189     1.0  0.92595  0.10379  0.49834  1.0000
  C   C5245     1.0  0.89578  0.48905  0.98739  1.0000
  C   C5246     1.0  0.99483  0.01120  0.50099  1.0000
  C   C5247     1.0  0.98489  0.37207  0.93972  1.0000
  H   H4190     1.0  0.99338  0.38163  0.93465  1.0000
  H   H4191     1.0  0.98569  0.32764  0.94874  1.0000
  H   H4192     1.0  0.99211  0.47861  0.99188  1.0000
  C   C5248     1.0  0.80473  0.01807  0.51287  1.0000
  S   S693      1.0  0.88167  0.07204  0.49522  1.0000
  C   C5249     1.0  0.99627  0.46433  0.99322  1.0000
  H   H4193     1.0  0.80535  0.44041  0.49371  1.0000
  H   H4194     1.0  0.93793  0.21283  0.49354  1.0000
  C   C5250     1.0  0.89089  0.28615  0.99339  1.0000
  C   C5251     1.0  0.92182  0.54013  0.00529  1.0000
  H   H4195     1.0  0.94033  0.52268  0.09782  1.0000
  H   H4196     1.0  0.96603  0.91549  0.35871  1.0000
  C   C5252     1.0  0.95895  0.96475  0.42337  1.0000
  H   H4197     1.0  0.96241  0.62848  0.02649  1.0000
  S   S694      1.0  0.85247  0.53233  0.01020  1.0000
  H   H4198     1.0  0.87890  0.97247  0.46689  1.0000
  H   H4199     1.0  0.87720  0.59555  0.05972  1.0000
  C   C5253     1.0  0.96488  0.91544  0.48581  1.0000
  Fe  Fe347     1.0  0.85726  0.55988  0.99761  1.0000
  S   S695      1.0  0.84649  0.58072  0.01385  1.0000
  C   C5254     1.0  0.92802  0.62740  0.00110  1.0000
  C   C5255     1.0  0.97685  0.92455  0.47280  1.0000
  H   H4200     1.0  0.99649  0.94179  0.31124  1.0000
  H   H4201     1.0  0.90784  0.51450  0.05682  1.0000
  C   C5256     1.0  0.93350  0.52107  0.08857  1.0000
  C   C5257     1.0  0.95510  0.98030  0.35090  1.0000
  H   H4202     1.0  0.89861  0.96484  0.41330  1.0000
  C   C5258     1.0  0.91848  0.96438  0.42716  1.0000
  C   C5259     1.0  0.97670  0.92214  0.35719  1.0000
  H   H4203     1.0  0.89807  0.61415  0.03842  1.0000
  H   H4204     1.0  0.92924  0.96235  0.41580  1.0000
  C   C5260     1.0  0.97091  0.98086  0.39393  1.0000
  C   C5261     1.0  0.90255  0.57934  0.06444  1.0000
  H   H4205     1.0  0.80169  0.50540  0.47156  1.0000
  H   H4206     1.0  0.87330  0.96988  0.43880  1.0000
  C   C5262     1.0  0.95467  0.58633  0.02322  1.0000
  C   C5263     1.0  0.93720  0.98913  0.35320  1.0000
  C   C5264     1.0  0.91994  0.53250  0.06289  1.0000
  H   H4207     1.0  0.95702  0.60854  0.05637  1.0000
  C   C5265     1.0  0.90172  0.52052  0.02179  1.0000
  C   C5266     1.0  0.88992  0.97037  0.45573  1.0000
  H   H4208     1.0  0.86464  0.59704  0.09139  1.0000
  C   C5267     1.0  0.90106  0.96582  0.42564  1.0000
  C   C5268     1.0  0.90726  0.96921  0.45722  1.0000
  C   C5269     1.0  0.92899  0.50470  0.09096  1.0000
  C   C5270     1.0  0.90523  0.61562  0.02473  1.0000
  H   H4209     1.0  0.99278  0.62570  0.00752  1.0000
  C   C5271     1.0  0.96568  0.57340  0.01402  1.0000
  C   C5272     1.0  0.95604  0.55023  0.03861  1.0000
  C   C5273     1.0  0.94449  0.58125  0.04025  1.0000
  C   C5274     1.0  0.86983  0.49800  0.00973  1.0000
  C   C5275     1.0  0.91846  0.62557  0.01870  1.0000
  H   H4210     1.0  0.95702  0.53615  0.04450  1.0000
  C   C5276     1.0  0.97902  0.54324  0.09172  1.0000
  C   C5277     1.0  0.96789  0.94862  0.41814  1.0000
  C   C5278     1.0  0.94836  0.57039  0.09151  1.0000
  H   H4211     1.0  0.95416  0.60031  0.01717  1.0000
  C   C5279     1.0  0.87811  0.58966  0.08746  1.0000
  C   C5280     1.0  0.97103  0.51166  0.00495  1.0000
  C   C5281     1.0  0.88679  0.96876  0.43994  1.0000
  C   C5282     1.0  0.94662  0.92109  0.48633  1.0000
  C   C5283     1.0  0.93232  0.52698  0.99590  1.0000
  H   H4212     1.0  0.91623  0.54319  0.05199  1.0000
  C   C5284     1.0  0.97331  0.61845  0.03122  1.0000
  C   C5285     1.0  0.96024  0.98084  0.41099  1.0000
  C   C5286     1.0  0.88522  0.58892  0.06961  1.0000
  C   C5287     1.0  0.96121  0.57049  0.10040  1.0000
  C   C5288     1.0  0.96604  0.54290  0.08312  1.0000
  C   C5289     1.0  0.95211  0.94530  0.46090  1.0000
  C   C5290     1.0  0.99013  0.94803  0.34463  1.0000
  H   H4213     1.0  0.92497  0.55311  0.00239  1.0000
  H   H4214     1.0  0.98196  0.58578  0.06710  1.0000
  H   H4215     1.0  0.93695  0.58139  0.09099  1.0000
  C   C5291     1.0  0.97869  0.94868  0.40111  1.0000
  H   H4216     1.0  0.91288  0.56317  0.10532  1.0000
  H   H4217     1.0  0.96638  0.93599  0.42713  1.0000
  C   C5292     1.0  0.94410  0.98450  0.45196  1.0000
  P   P177      1.0  0.98937  0.97029  0.33107  1.0000
  H   H4218     1.0  0.93636  0.59144  0.04737  1.0000
  H   H4219     1.0  0.92598  0.93993  0.47486  1.0000
  C   C5293     1.0  0.91294  0.57046  0.07716  1.0000
  H   H4220     1.0  0.96819  0.53214  0.07640  1.0000
  C   C5294     1.0  0.90122  0.60764  0.01315  1.0000
  C   C5295     1.0  0.94503  0.56314  0.04801  1.0000
  C   C5296     1.0  0.92174  0.96591  0.44305  1.0000
  C   C5297     1.0  0.99840  0.96912  0.30799  1.0000
  H   H4221     1.0  0.83909  0.49880  0.14921  1.0000
  S   S696      1.0  0.88532  0.59431  0.02184  1.0000
  C   C5298     1.0  0.90549  0.57078  0.09517  1.0000
  H   H4222     1.0  0.90930  0.97082  0.46950  1.0000
  H   H4223     1.0  0.82906  0.63954  0.00517  1.0000
  C   C5299     1.0  0.92929  0.53497  0.07428  1.0000
  C   C5300     1.0  0.95043  0.55628  0.08326  1.0000
  H   H4224     1.0  0.98569  0.93621  0.39717  1.0000
  P   P178      1.0  0.94413  0.96480  0.44494  1.0000
  C   C5301     1.0  0.97647  0.55684  0.10061  1.0000
  C   C5302     1.0  0.91515  0.51624  0.06557  1.0000
  H   H4225     1.0  0.90758  0.57856  0.05058  1.0000
  H   H4226     1.0  0.89801  0.54742  0.02468  1.0000
  C   C5303     1.0  0.98032  0.96481  0.38906  1.0000
  H   H4227     1.0  0.99130  0.90007  0.37363  1.0000
  H   H4228     1.0  0.88935  0.51847  0.03103  1.0000
  H   H4229     1.0  0.92154  0.63158  0.02781  1.0000
  C   C5304     1.0  0.97030  0.60721  0.04801  1.0000
  C   C5305     1.0  0.96630  0.55537  0.02168  1.0000
  H   H4230     1.0  0.99016  0.53170  0.04516  1.0000
  H   H4231     1.0  0.98868  0.96487  0.37589  1.0000
  H   H4232     1.0  0.96530  0.97205  0.46639  1.0000
  H   H4233     1.0  0.80156  0.65599  0.99456  1.0000
  C   C5306     1.0  0.94021  0.93596  0.47400  1.0000
  C   C5307     1.0  0.95613  0.98417  0.46210  1.0000
  P   P179      1.0  0.93445  0.55640  0.07096  1.0000
  C   C5308     1.0  0.88822  0.58055  0.10026  1.0000
  H   H4234     1.0  0.96006  0.97187  0.36237  1.0000
  H   H4235     1.0  0.97998  0.94634  0.45040  1.0000
  H   H4236     1.0  0.97364  0.57736  0.00089  1.0000
  C   C5309     1.0  0.90654  0.53690  0.01812  1.0000
  C   C5310     1.0  0.98444  0.59436  0.05404  1.0000
  C   C5311     1.0  0.99044  0.61684  0.02048  1.0000
  C   C5312     1.0  0.97052  0.93941  0.46038  1.0000
  H   H4237     1.0  0.99102  0.91999  0.47233  1.0000
  H   H4238     1.0  0.88256  0.58077  0.11416  1.0000
  H   H4239     1.0  0.95942  0.58122  0.10703  1.0000
  C   C5313     1.0  0.86887  0.51583  0.00094  1.0000
  H   H4240     1.0  0.98636  0.55679  0.10763  1.0000
  H   H4241     1.0  0.88235  0.67597  0.01178  1.0000
  H   H4242     1.0  0.91501  0.67076  0.99967  1.0000
  H   H4243     1.0  0.96531  0.94580  0.34012  1.0000
  C   C5314     1.0  0.92791  0.51022  0.00036  1.0000
  H   H4244     1.0  0.97148  0.99338  0.38438  1.0000
  H   H4245     1.0  0.97482  0.54537  0.01453  1.0000
  H   H4246     1.0  0.95948  0.50598  0.01177  1.0000
  C   C5315     1.0  0.97633  0.93933  0.34670  1.0000
  H   H4247     1.0  0.99102  0.53282  0.09166  1.0000
  Fe  Fe348     1.0  0.87277  0.58871  0.00252  1.0000
  H   H4248     1.0  0.92861  0.98771  0.36636  1.0000
  S   S697      1.0  0.97534  0.50030  0.11271  1.0000
  C   C5316     1.0  0.99739  0.96912  0.48998  1.0000
  C   C5317     1.0  0.98593  0.50640  0.01267  1.0000
  C   C5318     1.0  0.91029  0.61001  0.99528  1.0000
  S   S698      1.0  0.94526  0.63905  0.99462  1.0000
  H   H4249     1.0  0.98920  0.98231  0.48705  1.0000
  H   H4250     1.0  0.81178  0.50281  0.13856  1.0000
  C   C5319     1.0  0.96642  0.98237  0.33394  1.0000
  C   C5320     1.0  0.91264  0.50705  0.01321  1.0000
  C   C5321     1.0  0.99571  0.99506  0.34640  1.0000
  C   C5322     1.0  0.88762  0.67425  0.99822  1.0000
  H   H4251     1.0  0.95258  0.99339  0.41428  1.0000
  H   H4252     1.0  0.86710  0.98739  0.49032  1.0000
  C   C5323     1.0  0.91980  0.50229  0.07953  1.0000
  H   H4253     1.0  0.99269  0.56228  0.04325  1.0000
  C   C5324     1.0  0.99089  0.91346  0.36560  1.0000
  C   C5325     1.0  0.95967  0.99394  0.31945  1.0000
  S   S699      1.0  0.81057  0.61541  0.99392  1.0000
  C   C5326     1.0  0.82970  0.65041  0.99358  1.0000
  H   H4254     1.0  0.98562  0.49693  0.02534  1.0000
  H   H4255     1.0  0.93595  0.49969  0.99361  1.0000
  Fe  Fe349     1.0  0.90924  0.70911  0.82560  1.0000
  S   S700      1.0  0.91122  0.67968  0.83531  1.0000
  S   S701      1.0  0.88702  0.72994  0.83677  1.0000
  Fe  Fe350     1.0  0.94171  0.70507  0.79600  1.0000
  S   S702      1.0  0.94626  0.67536  0.80293  1.0000
  S   S703      1.0  0.96039  0.71954  0.77383  1.0000
  Fe  Fe351     1.0  0.91665  0.67922  0.80641  1.0000
  S   S704      1.0  0.90658  0.65888  0.79906  1.0000
  Fe  Fe352     1.0  0.94053  0.67815  0.83120  1.0000
  S   S705      1.0  0.95699  0.65674  0.84880  1.0000
  S   S706      1.0  0.91256  0.70885  0.79681  1.0000
  S   S707      1.0  0.93813  0.70774  0.82409  1.0000
  Fe  Fe353     1.0  0.96777  0.63160  0.97237  1.0000
  H   H4256     1.0  0.95325  0.73420  0.87298  1.0000
  C   C5327     1.0  0.93457  0.98365  0.57512  1.0000
  C   C5328     1.0  0.80517  0.54174  0.89537  1.0000
  H   H4257     1.0  0.95912  0.56117  0.98800  1.0000
  C   C5329     1.0  0.92742  0.62186  0.82216  1.0000
  H   H4258     1.0  0.88634  0.99321  0.54202  1.0000
  H   H4259     1.0  0.99755  0.59735  0.76898  1.0000
  S   S708      1.0  0.81355  0.67477  0.89418  1.0000
  H   H4260     1.0  0.96970  0.90392  0.49549  1.0000
  S   S709      1.0  0.96723  0.62687  0.94617  1.0000
  C   C5330     1.0  0.81350  0.85029  0.70593  1.0000
  Fe  Fe354     1.0  0.95577  0.55779  0.87049  1.0000
  S   S710      1.0  0.96220  0.52835  0.88069  1.0000
  S   S711      1.0  0.96361  0.57825  0.87993  1.0000
  Fe  Fe355     1.0  0.93422  0.55529  0.84435  1.0000
  S   S712      1.0  0.93841  0.52554  0.85332  1.0000
  S   S713      1.0  0.91937  0.57494  0.82404  1.0000
  Fe  Fe356     1.0  0.93356  0.53032  0.88090  1.0000
  S   S714      1.0  0.91582  0.51909  0.90613  1.0000
  Fe  Fe357     1.0  0.96665  0.52667  0.85218  1.0000
  S   S715      1.0  0.92688  0.56003  0.87198  1.0000
  S   S716      1.0  0.96278  0.55610  0.84173  1.0000
  Fe  Fe358     1.0  0.83355  0.64189  0.76814  1.0000
  S   S717      1.0  0.83695  0.62248  0.79376  1.0000
  S   S718      1.0  0.84539  0.66656  0.75890  1.0000
  H   H4261     1.0  0.80898  0.82337  0.76514  1.0000
  H   H4262     1.0  0.82298  0.80842  0.71700  1.0000
  H   H4263     1.0  0.83251  0.93021  0.68218  1.0000
  S   S719      1.0  0.86383  0.60859  0.97915  1.0000
  Fe  Fe359     1.0  0.83943  0.60151  0.77903  1.0000
  S   S720      1.0  0.86016  0.57578  0.78375  1.0000
  C   C5331     1.0  0.84785  0.69453  0.64078  1.0000
  S   S721      1.0  0.83803  0.62079  0.75262  1.0000
  S   S722      1.0  0.89102  0.58674  0.93890  1.0000
  Fe  Fe360     1.0  0.84492  0.77679  0.62439  1.0000
  S   S723      1.0  0.86280  0.79003  0.60061  1.0000
  S   S724      1.0  0.84507  0.77816  0.65204  1.0000
  Fe  Fe361     1.0  0.82827  0.76252  0.60240  1.0000
  S   S725      1.0  0.84427  0.77517  0.57656  1.0000
  C   C5332     1.0  0.98266  0.57654  0.92953  1.0000
  Fe  Fe362     1.0  0.86715  0.76530  0.59052  1.0000
  S   S726      1.0  0.89400  0.75136  0.57737  1.0000
  Fe  Fe363     1.0  0.83853  0.79908  0.58879  1.0000
  S   S727      1.0  0.83056  0.82732  0.57347  1.0000
  S   S728      1.0  0.85169  0.75104  0.61555  1.0000
  S   S729      1.0  0.82024  0.78736  0.61340  1.0000
  Fe  Fe364     1.0  0.89492  0.93117  0.52839  1.0000
  S   S730      1.0  0.88306  0.93089  0.55731  1.0000
  C   C5333     1.0  0.99299  0.58553  0.77711  1.0000
  Fe  Fe365     1.0  0.92316  0.89808  0.53600  1.0000
  S   S731      1.0  0.91332  0.89480  0.56559  1.0000
  S   S732      1.0  0.94806  0.88127  0.52248  1.0000
  Fe  Fe366     1.0  0.88591  0.90152  0.55998  1.0000
  S   S733      1.0  0.86457  0.88811  0.57983  1.0000
  Fe  Fe367     1.0  0.91153  0.92425  0.56016  1.0000
  S   S734      1.0  0.92091  0.93679  0.57718  1.0000
  S   S735      1.0  0.89587  0.90225  0.53066  1.0000
  S   S736      1.0  0.92302  0.92706  0.53102  1.0000
  Fe  Fe368     1.0  0.97378  0.71395  0.67622  1.0000
  H   H4264     1.0  0.79859  0.59468  0.70384  1.0000
  S   S737      1.0  0.97153  0.69455  0.70250  1.0000
  Fe  Fe369     1.0  0.95893  0.72079  0.64328  1.0000
  S   S738      1.0  0.97588  0.74041  0.62776  1.0000
  S   S739      1.0  0.94127  0.70943  0.63358  1.0000
  C   C5334     1.0  0.82153  0.84373  0.69048  1.0000
  Fe  Fe370     1.0  0.96861  0.75054  0.65291  1.0000
  S   S740      1.0  0.96354  0.78016  0.64823  1.0000
  S   S741      1.0  0.98187  0.70089  0.65295  1.0000
  S   S742      1.0  0.94955  0.73256  0.66750  1.0000
  Fe  Fe371     1.0  0.89435  0.84516  0.69021  1.0000
  S   S743      1.0  0.90009  0.84979  0.66050  1.0000
  S   S744      1.0  0.90791  0.81930  0.70568  1.0000
  Fe  Fe372     1.0  0.86808  0.88061  0.69044  1.0000
  S   S745      1.0  0.87277  0.88823  0.66064  1.0000
  S   S746      1.0  0.84658  0.89786  0.70713  1.0000
  Fe  Fe373     1.0  0.87093  0.86015  0.66300  1.0000
  S   S747      1.0  0.85561  0.85542  0.64564  1.0000
  Fe  Fe374     1.0  0.90171  0.87719  0.66118  1.0000
  S   S748      1.0  0.92507  0.88616  0.64064  1.0000
  S   S749      1.0  0.86470  0.85303  0.69274  1.0000
  S   S750      1.0  0.89734  0.87212  0.69094  1.0000
  H   H4265     1.0  0.85202  0.74459  0.85455  1.0000
  C   C5335     1.0  0.97088  0.65783  0.66798  1.0000
  H   H4266     1.0  0.88661  0.50135  0.91261  1.0000
  C   C5336     1.0  0.83661  0.55124  0.83800  1.0000
  C   C5337     1.0  0.88296  0.67174  0.97028  1.0000
  S   S751      1.0  0.96984  0.93824  0.64656  1.0000
  H   H4267     1.0  0.95437  0.97590  0.52509  1.0000
  H   H4268     1.0  0.88013  0.53394  0.97795  1.0000
  C   C5338     1.0  0.94775  0.55498  0.96947  1.0000
  C   C5339     1.0  0.93702  0.90076  0.64276  1.0000
  C   C5340     1.0  0.93389  0.90673  0.65846  1.0000
  C   C5341     1.0  0.94411  0.91808  0.65960  1.0000
  C   C5342     1.0  0.95750  0.92350  0.64509  1.0000
  C   C5343     1.0  0.96048  0.91754  0.62944  1.0000
  C   C5344     1.0  0.95030  0.90622  0.62829  1.0000
  H   H4269     1.0  0.92354  0.90270  0.66963  1.0000
  H   H4270     1.0  0.94136  0.92294  0.67161  1.0000
  H   H4271     1.0  0.97049  0.92175  0.61811  1.0000
  H   H4272     1.0  0.95267  0.90177  0.61604  1.0000
  C   C5345     1.0  0.94853  0.79027  0.66494  1.0000
  C   C5346     1.0  0.94423  0.80881  0.66167  1.0000
  C   C5347     1.0  0.93268  0.81761  0.67468  1.0000
  C   C5348     1.0  0.92454  0.80794  0.69073  1.0000
  C   C5349     1.0  0.92914  0.78928  0.69431  1.0000
  C   C5350     1.0  0.94119  0.78040  0.68137  1.0000
  H   H4273     1.0  0.94992  0.81639  0.64901  1.0000
  H   H4274     1.0  0.93020  0.83192  0.67226  1.0000
  H   H4275     1.0  0.92312  0.78173  0.70687  1.0000
  H   H4276     1.0  0.94474  0.76603  0.68403  1.0000
  C   C5351     1.0  0.94320  0.93921  0.57183  1.0000
  C   C5352     1.0  0.95313  0.94138  0.55430  1.0000
  C   C5353     1.0  0.97000  0.94566  0.55024  1.0000
  C   C5354     1.0  0.97705  0.94765  0.56370  1.0000
  C   C5355     1.0  0.96739  0.94477  0.58128  1.0000
  C   C5356     1.0  0.95057  0.94057  0.58531  1.0000
  H   H4277     1.0  0.94757  0.94027  0.54386  1.0000
  H   H4278     1.0  0.97745  0.94754  0.53667  1.0000
  H   H4279     1.0  0.97261  0.94631  0.59178  1.0000
  H   H4280     1.0  0.94305  0.93869  0.59889  1.0000
  C   C5357     1.0  0.96433  0.87445  0.53535  1.0000
  C   C5358     1.0  0.98058  0.86312  0.52990  1.0000
  C   C5359     1.0  0.96076  0.87937  0.55164  1.0000
  C   C5360     1.0  0.94075  0.59187  0.95579  1.0000
  H   H4281     1.0  0.94896  0.88904  0.55546  1.0000
  H   H4282     1.0  0.81953  0.71530  0.80227  1.0000
  H   H4283     1.0  0.85814  0.64667  0.98863  1.0000
  H   H4284     1.0  0.79935  0.54838  0.88387  1.0000
  H   H4285     1.0  0.90715  0.60395  0.98625  1.0000
  C   C5361     1.0  0.83757  0.71175  0.63645  1.0000
  C   C5362     1.0  0.80056  0.85206  0.62764  1.0000
  S   S752      1.0  0.80385  0.64546  0.77444  1.0000
  H   H4286     1.0  0.84350  0.73748  0.94867  1.0000
  H   H4287     1.0  0.90103  0.59226  0.75595  1.0000
  C   C5363     1.0  0.90761  0.74066  0.59276  1.0000
  C   C5364     1.0  0.90333  0.74480  0.60955  1.0000
  C   C5365     1.0  0.91427  0.73598  0.62178  1.0000
  C   C5366     1.0  0.92939  0.72288  0.61736  1.0000
  C   C5367     1.0  0.93369  0.71886  0.60050  1.0000
  C   C5368     1.0  0.92290  0.72781  0.58819  1.0000
  H   H4288     1.0  0.89160  0.75483  0.61308  1.0000
  H   H4289     1.0  0.91084  0.73917  0.63470  1.0000
  H   H4290     1.0  0.94513  0.70851  0.59709  1.0000
  H   H4291     1.0  0.92618  0.72453  0.57525  1.0000
  C   C5369     1.0  0.84050  0.84397  0.57514  1.0000
  C   C5370     1.0  0.85062  0.84088  0.58790  1.0000
  C   C5371     1.0  0.85846  0.85431  0.58886  1.0000
  C   C5372     1.0  0.85677  0.87073  0.57669  1.0000
  C   C5373     1.0  0.84663  0.87387  0.56392  1.0000
  C   C5374     1.0  0.83843  0.86057  0.56324  1.0000
  H   H4292     1.0  0.85222  0.82826  0.59722  1.0000
  H   H4293     1.0  0.86569  0.85205  0.59920  1.0000
  H   H4294     1.0  0.84477  0.88669  0.55485  1.0000
  H   H4295     1.0  0.83057  0.86311  0.55337  1.0000
  C   C5375     1.0  0.84693  0.79985  0.65115  1.0000
  C   C5376     1.0  0.85362  0.80325  0.66408  1.0000
  C   C5377     1.0  0.85684  0.82014  0.66237  1.0000
  C   C5378     1.0  0.85240  0.83394  0.64817  1.0000
  C   C5379     1.0  0.84458  0.83081  0.63593  1.0000
  C   C5380     1.0  0.84211  0.81376  0.63723  1.0000
  H   H4296     1.0  0.85687  0.79270  0.67507  1.0000
  H   H4297     1.0  0.86270  0.82250  0.67202  1.0000
  H   H4298     1.0  0.84065  0.84160  0.62526  1.0000
  H   H4299     1.0  0.83644  0.81145  0.62743  1.0000
  C   C5381     1.0  0.88521  0.97517  0.52687  1.0000
  C   C5382     1.0  0.88000  0.97349  0.51215  1.0000
  H   H4300     1.0  0.89259  0.96373  0.53465  1.0000
  H   H4301     1.0  0.89695  0.73415  0.97137  1.0000
  C   C5383     1.0  0.94000  0.51747  0.95672  1.0000
  C   C5384     1.0  0.97218  0.87126  0.56342  1.0000
  C   C5385     1.0  0.90319  0.57421  0.81296  1.0000
  C   C5386     1.0  0.89898  0.55836  0.81276  1.0000
  C   C5387     1.0  0.88578  0.55889  0.80376  1.0000
  C   C5388     1.0  0.87648  0.57524  0.79529  1.0000
  C   C5389     1.0  0.88061  0.59098  0.79575  1.0000
  C   C5390     1.0  0.89396  0.59044  0.80438  1.0000
  H   H4302     1.0  0.90596  0.54576  0.81937  1.0000
  H   H4303     1.0  0.88270  0.54661  0.80344  1.0000
  H   H4304     1.0  0.87379  0.60362  0.78916  1.0000
  H   H4305     1.0  0.89683  0.60276  0.80475  1.0000
  C   C5391     1.0  0.91039  0.53528  0.91893  1.0000
  C   C5392     1.0  0.89424  0.53769  0.93142  1.0000
  C   C5393     1.0  0.88863  0.55302  0.93868  1.0000
  C   C5394     1.0  0.89903  0.56595  0.93310  1.0000
  C   C5395     1.0  0.91563  0.56282  0.92159  1.0000
  C   C5396     1.0  0.92151  0.54727  0.91501  1.0000
  H   H4306     1.0  0.88569  0.52829  0.93473  1.0000
  H   H4307     1.0  0.87581  0.55537  0.94767  1.0000
  H   H4308     1.0  0.92389  0.57256  0.91740  1.0000
  H   H4309     1.0  0.93441  0.54504  0.90621  1.0000
  H   H4310     1.0  0.97406  0.78820  0.54104  1.0000
  C   C5397     1.0  0.98768  0.85884  0.55856  1.0000
  C   C5398     1.0  0.97061  0.82832  0.52301  1.0000
  S   S753      1.0  0.88507  0.95274  0.50637  1.0000
  C   C5399     1.0  0.97828  0.59248  0.91756  1.0000
  C   C5400     1.0  0.97173  0.59264  0.90295  1.0000
  C   C5401     1.0  0.96966  0.57692  0.89996  1.0000
  C   C5402     1.0  0.97349  0.56092  0.91222  1.0000
  C   C5403     1.0  0.88297  0.84586  0.54634  1.0000
  C   C5404     1.0  0.81150  0.83777  0.68233  1.0000
  H   H4311     1.0  0.96871  0.60496  0.89361  1.0000
  C   C5405     1.0  0.96833  0.70245  0.72177  1.0000
  C   C5406     1.0  0.95862  0.69389  0.73754  1.0000
  C   C5407     1.0  0.95632  0.69901  0.75354  1.0000
  C   C5408     1.0  0.96389  0.71271  0.75387  1.0000
  C   C5409     1.0  0.97376  0.72133  0.73807  1.0000
  C   C5410     1.0  0.97582  0.71634  0.72192  1.0000
  H   H4312     1.0  0.95286  0.68322  0.73728  1.0000
  H   H4313     1.0  0.94862  0.69241  0.76561  1.0000
  H   H4314     1.0  0.97966  0.73190  0.73836  1.0000
  H   H4315     1.0  0.98344  0.72294  0.70973  1.0000
  C   C5411     1.0  0.88884  0.66203  0.78852  1.0000
  C   C5412     1.0  0.87971  0.67888  0.78107  1.0000
  C   C5413     1.0  0.86635  0.68033  0.77194  1.0000
  C   C5414     1.0  0.86189  0.66497  0.77054  1.0000
  C   C5415     1.0  0.87095  0.64827  0.77813  1.0000
  C   C5416     1.0  0.88433  0.64682  0.78703  1.0000
  H   H4316     1.0  0.88306  0.69071  0.78221  1.0000
  H   H4317     1.0  0.85934  0.69333  0.76620  1.0000
  H   H4318     1.0  0.86791  0.63636  0.77689  1.0000
  H   H4319     1.0  0.89127  0.63380  0.79282  1.0000
  C   C5417     1.0  0.96454  0.65998  0.86621  1.0000
  C   C5418     1.0  0.96598  0.67671  0.86724  1.0000
  C   C5419     1.0  0.97337  0.67821  0.88076  1.0000
  C   C5420     1.0  0.97880  0.66312  0.89356  1.0000
  C   C5421     1.0  0.97711  0.64649  0.89260  1.0000
  C   C5422     1.0  0.97022  0.64496  0.87882  1.0000
  H   H4320     1.0  0.96184  0.68836  0.85741  1.0000
  Fe  Fe375     1.0  0.99801  0.72169  0.63967  1.0000
  H   H4321     1.0  0.86219  0.51068  0.96469  1.0000
  H   H4322     1.0  0.96929  0.63209  0.87780  1.0000
  C   C5423     1.0  0.87390  0.72204  0.85745  1.0000
  C   C5424     1.0  0.88014  0.70586  0.86839  1.0000
  C   C5425     1.0  0.86920  0.69955  0.88464  1.0000
  C   C5426     1.0  0.85194  0.70935  0.88988  1.0000
  C   C5427     1.0  0.84583  0.72566  0.87909  1.0000
  C   C5428     1.0  0.85687  0.73207  0.86298  1.0000
  H   H4323     1.0  0.89331  0.69815  0.86421  1.0000
  H   H4324     1.0  0.87387  0.68680  0.89275  1.0000
  C   C5429     1.0  0.94922  0.58478  0.97011  1.0000
  C   C5430     1.0  0.89920  0.68024  0.60823  1.0000
  C   C5431     1.0  0.88580  0.68317  0.62336  1.0000
  C   C5432     1.0  0.89047  0.68572  0.63808  1.0000
  C   C5433     1.0  0.90828  0.68479  0.63783  1.0000
  C   C5434     1.0  0.92157  0.68109  0.62304  1.0000
  C   C5435     1.0  0.91702  0.67906  0.60814  1.0000
  C   C5436     1.0  0.82626  0.72022  0.64983  1.0000
  H   H4325     1.0  0.83207  0.68650  0.94983  1.0000
  C   C5437     1.0  0.99160  0.59333  0.82249  1.0000
  H   H4326     1.0  0.87789  0.85903  0.53908  1.0000
  H   H4327     1.0  0.88050  0.68872  0.64963  1.0000
  H   H4328     1.0  0.91181  0.68742  0.64890  1.0000
  H   H4329     1.0  0.93535  0.68047  0.62286  1.0000
  H   H4330     1.0  0.92728  0.67692  0.59641  1.0000
  H   H4331     1.0  0.82802  0.63653  0.64482  1.0000
  H   H4332     1.0  0.80898  0.50098  0.97760  1.0000
  H   H4333     1.0  0.99495  0.69261  0.76851  1.0000
  H   H4334     1.0  0.81599  0.71756  0.93595  1.0000
  C   C5438     1.0  0.88072  0.64634  0.91577  1.0000
  C   C5439     1.0  0.89319  0.63116  0.92135  1.0000
  C   C5440     1.0  0.89755  0.62827  0.93782  1.0000
  C   C5441     1.0  0.88992  0.64080  0.94848  1.0000
  C   C5442     1.0  0.87809  0.65654  0.94253  1.0000
  C   C5443     1.0  0.87288  0.65878  0.92652  1.0000
  P   P180      1.0  0.86831  0.67284  0.95619  1.0000
  C   C5444     1.0  0.80816  0.89014  0.68771  1.0000
  H   H4335     1.0  0.81695  0.76893  0.68283  1.0000
  H   H4336     1.0  0.81388  0.73725  0.54754  1.0000
  C   C5445     1.0  0.84615  0.65442  0.98411  1.0000
  C   C5446     1.0  0.97396  0.50756  0.93610  1.0000
  C   C5447     1.0  0.90144  0.66912  0.96345  1.0000
  C   C5448     1.0  0.83149  0.67685  0.96236  1.0000
  C   C5449     1.0  0.79865  0.89690  0.64285  1.0000
  C   C5450     1.0  0.86547  0.69552  0.94358  1.0000
  C   C5451     1.0  0.85431  0.70927  0.95178  1.0000
  C   C5452     1.0  0.85235  0.72697  0.94237  1.0000
  C   C5453     1.0  0.86159  0.73107  0.92473  1.0000
  C   C5454     1.0  0.87299  0.71751  0.91662  1.0000
  C   C5455     1.0  0.87502  0.69981  0.92603  1.0000
  H   H4337     1.0  0.87684  0.64833  0.90328  1.0000
  H   H4338     1.0  0.89914  0.62132  0.91323  1.0000
  H   H4339     1.0  0.90647  0.61603  0.94253  1.0000
  H   H4340     1.0  0.89309  0.63799  0.96144  1.0000
  H   H4341     1.0  0.86274  0.67011  0.92237  1.0000
  H   H4342     1.0  0.90321  0.51008  0.96547  1.0000
  C   C5456     1.0  0.91288  0.66897  0.97398  1.0000
  H   H4343     1.0  0.90704  0.66718  0.94999  1.0000
  C   C5457     1.0  0.81821  0.58228  0.85023  1.0000
  C   C5458     1.0  0.79964  0.52652  0.90656  1.0000
  H   H4344     1.0  0.81694  0.55270  0.97511  1.0000
  C   C5459     1.0  0.80520  0.67345  0.83939  1.0000
  H   H4345     1.0  0.85979  0.74471  0.91725  1.0000
  H   H4346     1.0  0.87989  0.72063  0.90284  1.0000
  H   H4347     1.0  0.88398  0.68955  0.91953  1.0000
  C   C5460     1.0  0.87182  0.96839  0.60700  1.0000
  C   C5461     1.0  0.87814  0.92963  0.62117  1.0000
  C   C5462     1.0  0.86383  0.92302  0.62033  1.0000
  C   C5463     1.0  0.86705  0.90723  0.61453  1.0000
  C   C5464     1.0  0.88446  0.89800  0.60940  1.0000
  C   C5465     1.0  0.89873  0.90443  0.61030  1.0000
  C   C5466     1.0  0.89561  0.92003  0.61640  1.0000
  C   C5467     1.0  0.86830  0.96501  0.59208  1.0000
  C   C5468     1.0  0.86582  0.97878  0.57726  1.0000
  C   C5469     1.0  0.82232  0.53907  0.97353  1.0000
  C   C5470     1.0  0.82001  0.90407  0.60877  1.0000
  C   C5471     1.0  0.83445  0.94098  0.67070  1.0000
  C   C5472     1.0  0.85044  0.93948  0.65799  1.0000
  H   H4348     1.0  0.85021  0.93019  0.62378  1.0000
  H   H4349     1.0  0.85612  0.90223  0.61364  1.0000
  H   H4350     1.0  0.88681  0.88600  0.60453  1.0000
  H   H4351     1.0  0.91231  0.89750  0.60608  1.0000
  H   H4352     1.0  0.86754  0.95179  0.59172  1.0000
  C   C5473     1.0  0.81306  0.60474  0.88245  1.0000
  C   C5474     1.0  0.91221  0.59488  0.75933  1.0000
  S   S754      1.0  0.80995  0.60169  0.78625  1.0000
  H   H4353     1.0  0.86067  0.92744  0.65979  1.0000
  H   H4354     1.0  0.91488  0.86570  0.62083  1.0000
  H   H4355     1.0  0.83673  0.88529  0.68142  1.0000
  C   C5475     1.0  0.94359  0.84752  0.69806  1.0000
  C   C5476     1.0  0.95111  0.83082  0.70715  1.0000
  C   C5477     1.0  0.96775  0.82798  0.71120  1.0000
  C   C5478     1.0  0.97686  0.84186  0.70619  1.0000
  C   C5479     1.0  0.96922  0.85885  0.69733  1.0000
  C   C5480     1.0  0.95249  0.86154  0.69327  1.0000
  P   P181      1.0  0.98092  0.87693  0.69083  1.0000
  C   C5481     1.0  0.96626  0.89700  0.69677  1.0000
  C   C5482     1.0  0.88098  0.52022  0.98499  1.0000
  H   H4356     1.0  0.92164  0.96645  0.49552  1.0000
  H   H4357     1.0  0.82553  0.60595  0.87305  1.0000
  H   H4358     1.0  0.98371  0.65629  0.65880  1.0000
  H   H4359     1.0  0.81381  0.59304  0.82368  1.0000
  H   H4360     1.0  0.83386  0.68748  0.68596  1.0000
  C   C5483     1.0  0.97108  0.91347  0.68893  1.0000
  C   C5484     1.0  0.96014  0.92905  0.69384  1.0000
  C   C5485     1.0  0.94435  0.92829  0.70670  1.0000
  C   C5486     1.0  0.93959  0.91189  0.71481  1.0000
  C   C5487     1.0  0.95056  0.89627  0.70999  1.0000
  C   C5488     1.0  0.94215  0.50963  0.94244  1.0000
  C   C5489     1.0  0.81145  0.74115  0.57389  1.0000
  H   H4361     1.0  0.79945  0.61071  0.57898  1.0000
  H   H4362     1.0  0.84393  0.53933  0.83311  1.0000
  H   H4363     1.0  0.81802  0.83241  0.67056  1.0000
  C   C5490     1.0  0.97998  0.71075  0.90984  1.0000
  H   H4364     1.0  0.93081  0.84949  0.69476  1.0000
  H   H4365     1.0  0.94398  0.82010  0.71100  1.0000
  H   H4366     1.0  0.97359  0.81496  0.71819  1.0000
  H   H4367     1.0  0.97865  0.66119  0.74408  1.0000
  H   H4368     1.0  0.94629  0.87447  0.68637  1.0000
  H   H4369     1.0  0.80772  0.88374  0.67762  1.0000
  C   C5491     1.0  0.95542  0.65898  0.66237  1.0000
  C   C5492     1.0  0.98970  0.87895  0.63743  1.0000
  S   S755      1.0  0.88443  0.56614  0.98845  1.0000
  C   C5493     1.0  0.80386  0.73643  0.59199  1.0000
  C   C5494     1.0  0.98773  0.82249  0.62906  1.0000
  H   H4370     1.0  0.96373  0.94175  0.68721  1.0000
  H   H4371     1.0  0.93575  0.94041  0.71027  1.0000
  H   H4372     1.0  0.92733  0.91128  0.72477  1.0000
  H   H4373     1.0  0.94674  0.88370  0.71664  1.0000
  H   H4374     1.0  0.96924  0.87333  0.66027  1.0000
  C   C5495     1.0  0.81533  0.88583  0.63849  1.0000
  C   C5496     1.0  0.96810  0.77741  0.54150  1.0000
  C   C5497     1.0  0.98185  0.87728  0.65552  1.0000
  H   H4375     1.0  0.84704  0.70626  0.96542  1.0000
  C   C5498     1.0  0.92875  0.74019  0.71562  1.0000
  C   C5499     1.0  0.92597  0.74051  0.73357  1.0000
  C   C5500     1.0  0.90915  0.74774  0.74273  1.0000
  C   C5501     1.0  0.89512  0.75503  0.73384  1.0000
  C   C5502     1.0  0.89800  0.75554  0.71558  1.0000
  C   C5503     1.0  0.91478  0.74765  0.70664  1.0000
  P   P182      1.0  0.87989  0.76487  0.70409  1.0000
  C   C5504     1.0  0.86765  0.74776  0.70707  1.0000
  C   C5505     1.0  0.86558  0.78378  0.71291  1.0000
  C   C5506     1.0  0.84738  0.78880  0.71244  1.0000
  C   C5507     1.0  0.83681  0.80420  0.71807  1.0000
  C   C5508     1.0  0.84423  0.81453  0.72447  1.0000
  C   C5509     1.0  0.86228  0.80969  0.72494  1.0000
  C   C5510     1.0  0.87292  0.79446  0.71912  1.0000
  C   C5511     1.0  0.85543  0.75004  0.69645  1.0000
  C   C5512     1.0  0.84593  0.73689  0.69888  1.0000
  C   C5513     1.0  0.87007  0.73207  0.72025  1.0000
  C   C5514     1.0  0.88903  0.77382  0.68098  1.0000
  C   C5515     1.0  0.88914  0.76580  0.66733  1.0000
  C   C5516     1.0  0.89447  0.77400  0.64948  1.0000
  C   C5517     1.0  0.90028  0.78995  0.64513  1.0000
  C   C5518     1.0  0.90104  0.79758  0.65859  1.0000
  C   C5519     1.0  0.89531  0.78965  0.67641  1.0000
  H   H4376     1.0  0.94179  0.73431  0.70864  1.0000
  H   H4377     1.0  0.93681  0.73509  0.74046  1.0000
  H   H4378     1.0  0.90705  0.74768  0.75673  1.0000
  H   H4379     1.0  0.88210  0.76039  0.74120  1.0000
  H   H4380     1.0  0.91715  0.74750  0.69268  1.0000
  H   H4381     1.0  0.84140  0.78127  0.70721  1.0000
  H   H4382     1.0  0.91692  0.75228  0.94878  1.0000
  H   H4383     1.0  0.83614  0.82653  0.72866  1.0000
  H   H4384     1.0  0.86827  0.81800  0.72929  1.0000
  H   H4385     1.0  0.88702  0.79138  0.71905  1.0000
  H   H4386     1.0  0.85333  0.76196  0.68620  1.0000
  H   H4387     1.0  0.87928  0.72984  0.72876  1.0000
  H   H4388     1.0  0.88451  0.75364  0.67031  1.0000
  H   H4389     1.0  0.89354  0.76835  0.63898  1.0000
  H   H4390     1.0  0.90388  0.79657  0.63134  1.0000
  H   H4391     1.0  0.90560  0.80993  0.65525  1.0000
  H   H4392     1.0  0.89540  0.79623  0.68652  1.0000
  H   H4393     1.0  0.93828  0.60605  0.95031  1.0000
  H   H4394     1.0  0.92889  0.58617  0.93743  1.0000
  H   H4395     1.0  0.97588  0.78399  0.60948  1.0000
  C   C5520     1.0  0.80672  0.66445  0.71046  1.0000
  C   C5521     1.0  0.96260  0.84740  0.64682  1.0000
  C   C5522     1.0  0.96214  0.84721  0.62956  1.0000
  C   C5523     1.0  0.97472  0.83481  0.62066  1.0000
  H   H4396     1.0  0.99126  0.58321  0.81597  1.0000
  H   H4397     1.0  0.87612  0.98844  0.61801  1.0000
  C   C5524     1.0  0.97593  0.83554  0.65504  1.0000
  C   C5525     1.0  0.92581  0.97561  0.50056  1.0000
  H   H4398     1.0  0.99441  0.63831  0.79484  1.0000
  S   S756      1.0  0.98814  0.66525  0.91031  1.0000
  C   C5526     1.0  0.83490  0.69423  0.67212  1.0000
  H   H4399     1.0  0.83252  0.73326  0.88306  1.0000
  H   H4400     1.0  0.92692  0.66308  0.66933  1.0000
  Fe  Fe376     1.0  0.99339  0.94338  0.62396  1.0000
  S   S757      1.0  0.80853  0.74469  0.60828  1.0000
  H   H4401     1.0  0.95526  0.57020  0.79945  1.0000
  C   C5527     1.0  0.80761  0.65838  0.69521  1.0000
  H   H4402     1.0  0.93736  0.91387  0.49635  1.0000
  C   C5528     1.0  0.97273  0.78549  0.70189  1.0000
  C   C5529     1.0  0.97909  0.79688  0.68610  1.0000
  H   H4403     1.0  0.86206  0.55494  0.86664  1.0000
  H   H4404     1.0  0.89227  0.76210  0.85124  1.0000
  C   C5530     1.0  0.93882  0.66176  0.67402  1.0000
  H   H4405     1.0  0.92626  0.97434  0.58300  1.0000
  C   C5531     1.0  0.90348  0.74514  0.89166  1.0000
  C   C5532     1.0  0.96973  0.65943  0.68525  1.0000
  H   H4406     1.0  0.95253  0.85678  0.65377  1.0000
  H   H4407     1.0  0.95194  0.85663  0.62319  1.0000
  H   H4408     1.0  0.97433  0.83479  0.60723  1.0000
  Fe  Fe377     1.0  0.81252  0.69965  0.90253  1.0000
  H   H4409     1.0  0.97644  0.83627  0.66821  1.0000
  C   C5533     1.0  0.97827  0.72848  0.88035  1.0000
  C   C5534     1.0  0.96848  0.62013  0.75771  1.0000
  H   H4410     1.0  0.94817  0.98099  0.59588  1.0000
  H   H4411     1.0  0.81607  0.70039  0.78031  1.0000
  C   C5535     1.0  0.85465  0.62689  0.63109  1.0000
  C   C5536     1.0  0.82908  0.56612  0.82643  1.0000
  C   C5537     1.0  0.82586  0.88922  0.62138  1.0000
  H   H4412     1.0  0.97939  0.76216  0.72190  1.0000
  H   H4413     1.0  0.95860  0.78762  0.70779  1.0000
  H   H4414     1.0  0.96955  0.80745  0.68002  1.0000
  H   H4415     1.0  0.92920  0.65641  0.76476  1.0000
  C   C5538     1.0  0.87866  0.55949  0.88103  1.0000
  C   C5539     1.0  0.90248  0.62126  0.71208  1.0000
  H   H4416     1.0  0.91818  0.73848  0.84308  1.0000
  H   H4417     1.0  0.98138  0.63479  0.90228  1.0000
  C   C5540     1.0  0.84784  0.51524  0.96762  1.0000
  H   H4418     1.0  0.82017  0.75050  0.56943  1.0000
  H   H4419     1.0  0.94571  0.95536  0.51238  1.0000
  C   C5541     1.0  0.82362  0.97022  0.65385  1.0000
  H   H4420     1.0  0.98154  0.83004  0.51164  1.0000
  H   H4421     1.0  0.80369  0.84243  0.60402  1.0000
  H   H4422     1.0  0.99734  0.81300  0.62191  1.0000
  H   H4423     1.0  0.90738  0.71107  0.74424  1.0000
  C   C5542     1.0  0.91932  0.63526  0.87335  1.0000
  C   C5543     1.0  0.92758  0.61770  0.87943  1.0000
  C   C5544     1.0  0.91863  0.60404  0.88245  1.0000
  C   C5545     1.0  0.90148  0.60788  0.87924  1.0000
  C   C5546     1.0  0.89316  0.62548  0.87271  1.0000
  C   C5547     1.0  0.90224  0.63917  0.86998  1.0000
  P   P183      1.0  0.87022  0.63101  0.87025  1.0000
  C   C5548     1.0  0.86505  0.61936  0.85636  1.0000
  C   C5549     1.0  0.85530  0.62662  0.89176  1.0000
  C   C5550     1.0  0.83681  0.63208  0.89316  1.0000
  C   C5551     1.0  0.82509  0.62787  0.90949  1.0000
  C   C5552     1.0  0.83172  0.61800  0.92449  1.0000
  C   C5553     1.0  0.85004  0.61304  0.92341  1.0000
  C   C5554     1.0  0.86179  0.61716  0.90713  1.0000
  C   C5555     1.0  0.84995  0.62692  0.84877  1.0000
  C   C5556     1.0  0.84518  0.61794  0.83861  1.0000
  C   C5557     1.0  0.85524  0.60122  0.83611  1.0000
  C   C5558     1.0  0.87015  0.59359  0.84364  1.0000
  C   C5559     1.0  0.87530  0.60272  0.85338  1.0000
  C   C5560     1.0  0.86531  0.65420  0.85934  1.0000
  C   C5561     1.0  0.87148  0.65926  0.84087  1.0000
  C   C5562     1.0  0.86737  0.67709  0.83215  1.0000
  C   C5563     1.0  0.85703  0.68994  0.84174  1.0000
  C   C5564     1.0  0.85104  0.68499  0.86011  1.0000
  C   C5565     1.0  0.85557  0.66727  0.86899  1.0000
  H   H4424     1.0  0.92623  0.64587  0.87108  1.0000
  H   H4425     1.0  0.94087  0.61465  0.88193  1.0000
  H   H4426     1.0  0.92494  0.59045  0.88751  1.0000
  H   H4427     1.0  0.89450  0.59717  0.88268  1.0000
  H   H4428     1.0  0.89615  0.65295  0.86548  1.0000
  H   H4429     1.0  0.83143  0.63974  0.88167  1.0000
  C   C5566     1.0  0.99734  0.79412  0.67820  1.0000
  H   H4430     1.0  0.82266  0.61435  0.93701  1.0000
  H   H4431     1.0  0.85518  0.60576  0.93518  1.0000
  H   H4432     1.0  0.87583  0.61262  0.90680  1.0000
  H   H4433     1.0  0.84186  0.63988  0.85050  1.0000
  H   H4434     1.0  0.83365  0.62396  0.83269  1.0000
  H   H4435     1.0  0.85171  0.59427  0.82810  1.0000
  H   H4436     1.0  0.87796  0.58063  0.84171  1.0000
  H   H4437     1.0  0.88733  0.59666  0.85826  1.0000
  H   H4438     1.0  0.87940  0.64945  0.83315  1.0000
  H   H4439     1.0  0.87211  0.68092  0.81792  1.0000
  H   H4440     1.0  0.85359  0.70372  0.83498  1.0000
  H   H4441     1.0  0.84272  0.69495  0.86739  1.0000
  H   H4442     1.0  0.85134  0.66383  0.88331  1.0000
  C   C5567     1.0  0.80980  0.90565  0.71440  1.0000
  H   H4443     1.0  0.83052  0.56575  0.81263  1.0000
  H   H4444     1.0  0.80573  0.62347  0.70106  1.0000
  H   H4445     1.0  0.81045  0.91168  0.72474  1.0000
  S   S758      1.0  0.98674  0.64998  0.96083  1.0000
  H   H4446     1.0  0.95338  0.59345  0.97577  1.0000
  H   H4447     1.0  0.83548  0.84357  0.68461  1.0000
  C   C5568     1.0  0.80143  0.68308  0.62623  1.0000
  H   H4448     1.0  0.88423  0.66298  0.73292  1.0000
  C   C5569     1.0  0.83828  0.65218  0.70885  1.0000
  C   C5570     1.0  0.83942  0.64649  0.69345  1.0000
  C   C5571     1.0  0.82419  0.64966  0.68660  1.0000
  C   C5572     1.0  0.99171  0.79896  0.58731  1.0000
  C   C5573     1.0  0.80757  0.65567  0.81830  1.0000
  S   S759      1.0  0.80161  0.71832  0.87957  1.0000
  C   C5574     1.0  0.99241  0.85542  0.54145  1.0000
  C   C5575     1.0  0.99374  0.77269  0.56906  1.0000
  C   C5576     1.0  0.87537  0.83165  0.54745  1.0000
  C   C5577     1.0  0.91430  0.74089  0.94582  1.0000
  C   C5578     1.0  0.95300  0.78112  0.53432  1.0000
  H   H4449     1.0  0.84994  0.64938  0.71447  1.0000
  H   H4450     1.0  0.85203  0.63925  0.68705  1.0000
  H   H4451     1.0  0.82518  0.64472  0.67497  1.0000
  H   H4452     1.0  0.88063  0.61098  0.73096  1.0000
  H   H4453     1.0  0.93080  0.62183  0.97551  1.0000
  H   H4454     1.0  0.85406  0.67243  0.66237  1.0000
  H   H4455     1.0  0.95327  0.57400  0.76722  1.0000
  H   H4456     1.0  0.99160  0.62948  0.84646  1.0000
  C   C5579     1.0  0.95314  0.66222  0.69695  1.0000
  C   C5580     1.0  0.94156  0.58455  0.76619  1.0000
  C   C5581     1.0  0.92335  0.72917  0.86952  1.0000
  C   C5582     1.0  0.91806  0.73142  0.88717  1.0000
  C   C5583     1.0  0.82609  0.56751  0.86190  1.0000
  P   P184      1.0  0.92923  0.71596  0.90396  1.0000
  C   C5584     1.0  0.91902  0.72152  0.92542  1.0000
  C   C5585     1.0  0.92768  0.69348  0.90471  1.0000
  C   C5586     1.0  0.91674  0.69045  0.89514  1.0000
  C   C5587     1.0  0.91570  0.67312  0.89563  1.0000
  C   C5588     1.0  0.92533  0.65864  0.90587  1.0000
  C   C5589     1.0  0.93579  0.66149  0.91583  1.0000
  C   C5590     1.0  0.93701  0.67878  0.91526  1.0000
  C   C5591     1.0  0.92224  0.73636  0.92930  1.0000
  C   C5592     1.0  0.90305  0.73069  0.95854  1.0000
  C   C5593     1.0  0.89976  0.71595  0.95475  1.0000
  C   C5594     1.0  0.90778  0.71132  0.93828  1.0000
  C   C5595     1.0  0.95228  0.71770  0.89965  1.0000
  C   C5596     1.0  0.96043  0.72742  0.88341  1.0000
  C   C5597     1.0  0.98552  0.62465  0.72717  1.0000
  C   C5598     1.0  0.96214  0.70973  0.91298  1.0000
  H   H4457     1.0  0.82001  0.87439  0.64829  1.0000
  C   C5599     1.0  0.80437  0.70739  0.78830  1.0000
  H   H4458     1.0  0.93425  0.71840  0.86580  1.0000
  H   H4459     1.0  0.89885  0.74706  0.90517  1.0000
  H   H4460     1.0  0.90887  0.70132  0.88728  1.0000
  H   H4461     1.0  0.90752  0.67092  0.88793  1.0000
  H   H4462     1.0  0.92486  0.64518  0.90596  1.0000
  H   H4463     1.0  0.94341  0.65023  0.92359  1.0000
  H   H4464     1.0  0.94551  0.68046  0.92285  1.0000
  H   H4465     1.0  0.93089  0.74441  0.91954  1.0000
  H   H4466     1.0  0.89105  0.70803  0.96461  1.0000
  H   H4467     1.0  0.90522  0.69981  0.93563  1.0000
  C   C5600     1.0  0.97839  0.59670  0.83743  1.0000
  C   C5601     1.0  0.82197  0.66123  0.71729  1.0000
  H   H4468     1.0  0.95618  0.70260  0.92583  1.0000
  H   H4469     1.0  0.92588  0.83302  0.53274  1.0000
  H   H4470     1.0  0.92717  0.66660  0.96879  1.0000
  H   H4471     1.0  0.92986  0.78709  0.56491  1.0000
  H   H4472     1.0  0.92819  0.64840  0.73732  1.0000
  H   H4473     1.0  0.81317  0.98208  0.65224  1.0000
  H   H4474     1.0  0.96883  0.87439  0.57644  1.0000
  H   H4475     1.0  0.97166  0.54875  0.91016  1.0000
  S   S760      1.0  0.83766  0.70075  0.90939  1.0000
  H   H4476     1.0  0.80796  0.65502  0.93533  1.0000
  H   H4477     1.0  0.98310  0.91442  0.67870  1.0000
  H   H4478     1.0  0.83860  0.88029  0.61785  1.0000
  H   H4479     1.0  0.83680  0.73871  0.69037  1.0000
  Fe  Fe378     1.0  0.87327  0.58517  0.96594  1.0000
  C   C5602     1.0  0.97110  0.52417  0.98872  1.0000
  H   H4480     1.0  0.85252  0.61369  0.63248  1.0000
  H   H4481     1.0  0.82106  0.67717  0.81271  1.0000
  H   H4482     1.0  0.90700  0.92457  0.61691  1.0000
  H   H4483     1.0  0.84863  0.72361  0.55622  1.0000
  H   H4484     1.0  0.89917  0.62175  0.76175  1.0000
  P   P185      1.0  0.87390  0.95104  0.62672  1.0000
  C   C5603     1.0  0.85322  0.95342  0.64315  1.0000
  C   C5604     1.0  0.97191  0.51490  0.95076  1.0000
  C   C5605     1.0  0.95230  0.74983  0.54240  1.0000
  C   C5606     1.0  0.98241  0.72874  0.58559  1.0000
  C   C5607     1.0  0.91633  0.85809  0.61098  1.0000
  C   C5608     1.0  0.93553  0.58062  0.94846  1.0000
  C   C5609     1.0  0.93074  0.85828  0.59640  1.0000
  C   C5610     1.0  0.90544  0.83849  0.60009  1.0000
  H   H4485     1.0  0.88175  0.62117  0.61646  1.0000
  C   C5611     1.0  0.91110  0.61146  0.76270  1.0000
  C   C5612     1.0  0.87329  0.98562  0.60667  1.0000
  H   H4486     1.0  0.89208  0.84871  0.62371  1.0000
  H   H4487     1.0  0.83261  0.66673  0.64141  1.0000
  C   C5613     1.0  0.95904  0.50505  0.93188  1.0000
  P   P186      1.0  0.99530  0.75527  0.55779  1.0000
  C   C5614     1.0  0.83964  0.96880  0.64112  1.0000
  H   H4488     1.0  0.82117  0.85549  0.71187  1.0000
  C   C5615     1.0  0.80686  0.51791  0.92155  1.0000
  C   C5616     1.0  0.93273  0.84831  0.58378  1.0000
  C   C5617     1.0  0.86050  0.71896  0.72270  1.0000
  H   H4489     1.0  0.83812  0.71873  0.62273  1.0000
  H   H4490     1.0  0.80684  0.86315  0.62047  1.0000
  H   H4491     1.0  0.94730  0.79471  0.52855  1.0000
  C   C5618     1.0  0.92026  0.83805  0.58577  1.0000
  H   H4492     1.0  0.91850  0.68747  0.76838  1.0000
  H   H4493     1.0  0.92815  0.56851  0.75870  1.0000
  H   H4494     1.0  0.92385  0.98803  0.55213  1.0000
  H   H4495     1.0  0.96401  0.63717  0.81946  1.0000
  H   H4496     1.0  0.81089  0.59449  0.85442  1.0000
  H   H4497     1.0  0.84126  0.97967  0.62973  1.0000
  C   C5619     1.0  0.97789  0.64806  0.74348  1.0000
  C   C5620     1.0  0.80996  0.63684  0.96059  1.0000
  C   C5621     1.0  0.94489  0.76738  0.53509  1.0000
  C   C5622     1.0  0.99008  0.88102  0.66710  1.0000
  P   P187      1.0  0.86293  0.68379  0.62348  1.0000
  C   C5623     1.0  0.90353  0.84845  0.61266  1.0000
  C   C5624     1.0  0.84075  0.53292  0.96907  1.0000
  C   C5625     1.0  0.94029  0.76591  0.60484  1.0000
  C   C5626     1.0  0.84351  0.65689  0.63613  1.0000
  C   C5627     1.0  0.86003  0.66125  0.62718  1.0000
  C   C5628     1.0  0.84708  0.66796  0.96866  1.0000
  C   C5629     1.0  0.98809  0.72002  0.89350  1.0000
  C   C5630     1.0  0.93927  0.96935  0.51020  1.0000
  H   H4498     1.0  0.89084  0.55314  0.87309  1.0000
  C   C5631     1.0  0.82519  0.53971  0.91420  1.0000
  C   C5632     1.0  0.84838  0.72140  0.71207  1.0000
  H   H4499     1.0  0.98163  0.65941  0.68930  1.0000
  C   C5633     1.0  0.84086  0.63978  0.63809  1.0000
  H   H4500     1.0  0.89589  0.67890  0.59645  1.0000
  H   H4501     1.0  0.81854  0.73361  0.64620  1.0000
  H   H4502     1.0  0.87473  0.80416  0.55919  1.0000
  H   H4503     1.0  0.96812  0.61252  0.85733  1.0000
  H   H4504     1.0  0.88281  0.76656  0.88225  1.0000
  C   C5634     1.0  0.95551  0.63071  0.81600  1.0000
  C   C5635     1.0  0.92504  0.61450  0.76815  1.0000
  H   H4505     1.0  0.91004  0.95560  0.60926  1.0000
  H   H4506     1.0  0.80851  0.80027  0.66821  1.0000
  C   C5636     1.0  0.81182  0.85035  0.75389  1.0000
  H   H4507     1.0  0.92308  0.63442  0.69528  1.0000
  H   H4508     1.0  0.86920  0.63774  0.74402  1.0000
  C   C5637     1.0  0.98638  0.53119  0.98029  1.0000
  C   C5638     1.0  0.87377  0.64823  0.62002  1.0000
  C   C5639     1.0  0.88939  0.65149  0.72682  1.0000
  H   H4509     1.0  0.91414  0.62150  0.83022  1.0000
  H   H4510     1.0  0.84104  0.68014  0.60080  1.0000
  H   H4511     1.0  0.89557  0.83080  0.60180  1.0000
  H   H4512     1.0  0.92669  0.52193  0.96408  1.0000
  C   C5640     1.0  0.94027  0.60099  0.77020  1.0000
  C   C5641     1.0  0.96161  0.62269  0.80133  1.0000
  H   H4513     1.0  0.95263  0.66418  0.70997  1.0000
  C   C5642     1.0  0.91428  0.74046  0.85661  1.0000
  C   C5643     1.0  0.91197  0.69747  0.74256  1.0000
  C   C5644     1.0  0.84629  0.68575  0.65875  1.0000
  H   H4514     1.0  0.92369  0.62723  0.77128  1.0000
  C   C5645     1.0  0.98312  0.78490  0.59576  1.0000
  C   C5646     1.0  0.90819  0.95553  0.62323  1.0000
  C   C5647     1.0  0.89199  0.95314  0.63506  1.0000
  C   C5648     1.0  0.93021  0.80038  0.58495  1.0000
  C   C5649     1.0  0.95326  0.83190  0.52053  1.0000
  H   H4515     1.0  0.81623  0.71814  0.67801  1.0000
  H   H4516     1.0  0.93376  0.63650  0.83777  1.0000
  H   H4517     1.0  0.93862  0.75692  0.58240  1.0000
  H   H4518     1.0  0.92436  0.60846  0.80376  1.0000
  H   H4519     1.0  0.94391  0.75263  0.61263  1.0000
  H   H4520     1.0  0.95068  0.83634  0.50723  1.0000
  C   C5650     1.0  0.98001  0.56077  0.92702  1.0000
  C   C5651     1.0  0.81803  0.54841  0.89907  1.0000
  H   H4521     1.0  0.96160  0.64325  0.76959  1.0000
  C   C5652     1.0  0.83491  0.55182  0.85573  1.0000
  H   H4522     1.0  0.98458  0.88561  0.72313  1.0000
  H   H4523     1.0  0.84102  0.71118  0.71403  1.0000
  C   C5653     1.0  0.86218  0.56053  0.87745  1.0000
  H   H4524     1.0  0.91009  0.72729  0.66368  1.0000
  C   C5654     1.0  0.81974  0.58152  0.83261  1.0000
  H   H4525     1.0  0.90282  0.95368  0.67334  1.0000
  C   C5655     1.0  0.85849  0.69620  0.60206  1.0000
  C   C5656     1.0  0.84726  0.69136  0.59420  1.0000
  H   H4526     1.0  0.84075  0.54011  0.86454  1.0000
  H   H4527     1.0  0.98324  0.87597  0.62859  1.0000
  C   C5657     1.0  0.96860  0.63758  0.75811  1.0000
  C   C5658     1.0  0.95030  0.61513  0.79634  1.0000
  C   C5659     1.0  0.81210  0.66953  0.82253  1.0000
  H   H4528     1.0  0.82104  0.66530  0.72948  1.0000
  C   C5660     1.0  0.88156  0.99188  0.53114  1.0000
  H   H4529     1.0  0.83492  0.69764  0.57169  1.0000
  C   C5661     1.0  0.90358  0.82616  0.56432  1.0000
  H   H4530     1.0  0.87934  0.72849  0.66101  1.0000
  H   H4531     1.0  0.93283  0.77032  0.53008  1.0000
  H   H4532     1.0  0.86464  0.57934  0.91638  1.0000
  C   C5662     1.0  0.93735  0.76832  0.58783  1.0000
  C   C5663     1.0  0.93875  0.78065  0.61176  1.0000
  H   H4533     1.0  0.94132  0.77878  0.62487  1.0000
  H   H4534     1.0  0.94029  0.86627  0.59483  1.0000
  H   H4535     1.0  0.89927  0.79913  0.57418  1.0000
  C   C5664     1.0  0.89429  0.75625  0.87872  1.0000
  C   C5665     1.0  0.93337  0.99135  0.55747  1.0000
  H   H4536     1.0  0.97722  0.76124  0.59335  1.0000
  C   C5666     1.0  0.93324  0.61455  0.80702  1.0000
  C   C5667     1.0  0.93908  0.83029  0.53523  1.0000
  H   H4537     1.0  0.93452  0.55387  0.94950  1.0000
  H   H4538     1.0  0.98354  0.85957  0.51717  1.0000
  H   H4539     1.0  0.90655  0.70372  0.71661  1.0000
  C   C5668     1.0  0.87608  0.67463  0.98764  1.0000
  H   H4540     1.0  0.82279  0.63896  0.96059  1.0000
  H   H4541     1.0  0.99190  0.61976  0.71509  1.0000
  C   C5669     1.0  0.91117  0.63553  0.70568  1.0000
  C   C5670     1.0  0.93889  0.56225  0.95531  1.0000
  P   P188      1.0  0.91575  0.66928  0.70530  1.0000
  H   H4542     1.0  0.97499  0.69102  0.88125  1.0000
  C   C5671     1.0  0.87947  0.56645  0.89493  1.0000
  P   P189      1.0  0.82483  0.56824  0.88468  1.0000
  H   H4543     1.0  0.88652  0.65119  0.61269  1.0000
  H   H4544     1.0  0.97507  0.62249  0.79374  1.0000
  H   H4545     1.0  0.98300  0.54847  0.93647  1.0000
  H   H4546     1.0  0.80772  0.78460  0.73616  1.0000
  H   H4547     1.0  0.97263  0.70861  0.60733  1.0000
  C   C5672     1.0  0.86592  0.71118  0.59332  1.0000
  C   C5673     1.0  0.84380  0.70119  0.57767  1.0000
  H   H4548     1.0  0.87428  0.71550  0.59929  1.0000
  C   C5674     1.0  0.98833  0.82268  0.64641  1.0000
  C   C5675     1.0  0.82563  0.89823  0.70359  1.0000
  C   C5676     1.0  0.97864  0.60966  0.84599  1.0000
  C   C5677     1.0  0.84634  0.56877  0.88765  1.0000
  H   H4549     1.0  0.81082  0.63241  0.91065  1.0000
  C   C5678     1.0  0.94407  0.98101  0.51743  1.0000
  H   H4550     1.0  0.90255  0.85440  0.55401  1.0000
  C   C5679     1.0  0.88607  0.71725  0.66967  1.0000
  C   C5680     1.0  0.90333  0.71660  0.67105  1.0000
  H   H4551     1.0  0.82013  0.74858  0.92562  1.0000
  P   P190      1.0  0.95173  0.53133  0.97888  1.0000
  H   H4552     1.0  0.98974  0.83922  0.70943  1.0000
  C   C5681     1.0  0.93396  0.79784  0.60179  1.0000
  C   C5682     1.0  0.93753  0.66345  0.69140  1.0000
  C   C5683     1.0  0.81800  0.50977  0.97496  1.0000
  C   C5684     1.0  0.93844  0.63025  0.82645  1.0000
  H   H4553     1.0  0.82515  0.51795  0.93699  1.0000
  S   S761      1.0  0.99217  0.96905  0.60343  1.0000
  C   C5685     1.0  0.96930  0.57024  0.79418  1.0000
  H   H4554     1.0  0.95626  0.65830  0.64881  1.0000
  H   H4555     1.0  0.94601  0.73918  0.54293  1.0000
  H   H4556     1.0  0.83502  0.54459  0.91751  1.0000
  C   C5686     1.0  0.82105  0.95633  0.66866  1.0000
  C   C5687     1.0  0.89524  0.81215  0.56617  1.0000
  C   C5688     1.0  0.92432  0.66659  0.75411  1.0000
  C   C5689     1.0  0.93239  0.78547  0.57792  1.0000
  H   H4557     1.0  0.93321  0.80898  0.60743  1.0000
  C   C5690     1.0  0.89677  0.84323  0.55503  1.0000
  C   C5691     1.0  0.92226  0.95733  0.62943  1.0000
  H   H4558     1.0  0.93497  0.95845  0.62043  1.0000
  C   C5692     1.0  0.98402  0.77192  0.58662  1.0000
  C   C5693     1.0  0.80157  0.62527  0.97495  1.0000
  C   C5694     1.0  0.95963  0.82163  0.55498  1.0000
  C   C5695     1.0  0.95265  0.56643  0.97693  1.0000
  C   C5696     1.0  0.80157  0.64592  0.94632  1.0000
  C   C5697     1.0  0.86385  0.57445  0.90530  1.0000
  C   C5698     1.0  0.86245  0.72095  0.57681  1.0000
  C   C5699     1.0  0.85149  0.71589  0.56893  1.0000
  Fe  Fe379     1.0  0.83834  0.59871  0.98926  1.0000
  H   H4559     1.0  0.98713  0.82130  0.54200  1.0000
  C   C5700     1.0  0.82497  0.71151  0.66767  1.0000
  C   C5701     1.0  0.87752  0.70338  0.67948  1.0000
  C   C5702     1.0  0.91218  0.70199  0.68183  1.0000
  H   H4560     1.0  0.86408  0.70404  0.67853  1.0000
  H   H4561     1.0  0.92570  0.70164  0.68248  1.0000
  H   H4562     1.0  0.98356  0.51695  0.95365  1.0000
  H   H4563     1.0  0.98246  0.66583  0.77482  1.0000
  C   C5703     1.0  0.99203  0.61937  0.83965  1.0000
  C   C5704     1.0  0.84733  0.57577  0.90163  1.0000
  S   S762      1.0  0.84690  0.57712  0.97375  1.0000
  H   H4564     1.0  0.86811  0.73259  0.57022  1.0000
  H   H4565     1.0  0.82831  0.90660  0.59550  1.0000
  C   C5705     1.0  0.95485  0.52007  0.96110  1.0000
  H   H4566     1.0  0.96232  0.81780  0.56824  1.0000
  C   C5706     1.0  0.88726  0.62211  0.72580  1.0000
  P   P191      1.0  0.95822  0.60543  0.77694  1.0000
  C   C5707     1.0  0.91155  0.69317  0.72689  1.0000
  C   C5708     1.0  0.97376  0.82329  0.54019  1.0000
  H   H4567     1.0  0.98665  0.54097  0.96787  1.0000
  H   H4568     1.0  0.81281  0.65300  0.80515  1.0000
  S   S763      1.0  0.99206  0.73306  0.66391  1.0000
  C   C5709     1.0  0.80545  0.77744  0.68940  1.0000
  H   H4569     1.0  0.89222  0.56554  0.89777  1.0000
  H   H4570     1.0  0.86312  0.97603  0.56580  1.0000
  C   C5710     1.0  0.89014  0.95249  0.65320  1.0000
  H   H4571     1.0  0.90767  0.60942  0.70658  1.0000
  C   C5711     1.0  0.80751  0.74585  0.93382  1.0000
  C   C5712     1.0  0.80909  0.58791  0.89042  1.0000
  S   S764      1.0  0.81056  0.69133  0.84402  1.0000
  H   H4572     1.0  0.96922  0.73698  0.58539  1.0000
  Fe  Fe380     1.0  0.99019  0.60389  0.95120  1.0000
  C   C5713     1.0  0.94211  0.82528  0.55264  1.0000
  C   C5714     1.0  0.83654  0.50355  0.97038  1.0000
  C   C5715     1.0  0.87111  0.63111  0.62207  1.0000
  C   C5716     1.0  0.92020  0.95700  0.64741  1.0000
  C   C5717     1.0  0.90372  0.68799  0.69168  1.0000
  C   C5718     1.0  0.88626  0.68878  0.69053  1.0000
  C   C5719     1.0  0.92374  0.66216  0.73857  1.0000
  C   C5720     1.0  0.88077  0.63721  0.73315  1.0000
  H   H4573     1.0  0.83536  0.58187  0.90998  1.0000
  C   C5721     1.0  0.82470  0.89084  0.69002  1.0000
  P   P192      1.0  0.92396  0.82249  0.57182  1.0000
  C   C5722     1.0  0.92378  0.61990  0.98926  1.0000
  C   C5723     1.0  0.88126  0.81491  0.55765  1.0000
  S   S765      1.0  0.99762  0.95424  0.55859  1.0000
  H   H4574     1.0  0.80869  0.95742  0.67858  1.0000
  H   H4575     1.0  0.93125  0.95809  0.65220  1.0000
  C   C5724     1.0  0.91830  0.68418  0.75616  1.0000
  H   H4576     1.0  0.87939  0.67822  0.69806  1.0000
  H   H4577     1.0  0.86428  0.83382  0.54118  1.0000
  C   C5725     1.0  0.89414  0.50675  0.97800  1.0000
  H   H4578     1.0  0.86248  0.70688  0.73288  1.0000
  C   C5726     1.0  0.97675  0.61387  0.74200  1.0000
  H   H4579     1.0  0.94403  0.84862  0.57266  1.0000
  C   C5727     1.0  0.91737  0.67544  0.72482  1.0000
  S   S766      1.0  0.98882  0.60731  0.97853  1.0000
  C   C5728     1.0  0.90420  0.95446  0.65932  1.0000
  H   H4580     1.0  0.87796  0.95040  0.66271  1.0000
  Fe  Fe381     1.0  0.80763  0.62438  0.79883  1.0000
  C   C5729     1.0  0.90466  0.65078  0.71301  1.0000
  C   C5730     1.0  0.92745  0.58145  0.76102  1.0000
  C   C5731     1.0  0.89965  0.75386  0.86122  1.0000
  C   C5732     1.0  0.81961  0.52452  0.92535  1.0000
  H   H4581     1.0  0.80315  0.67928  0.96670  1.0000
  C   C5733     1.0  0.87116  0.98857  0.50171  1.0000
  Fe  Fe382     1.0  0.80823  0.62271  0.76114  1.0000
  H   H4582     1.0  0.98034  0.60466  0.91929  1.0000
  H   H4583     1.0  0.93060  0.50745  0.93933  1.0000
  C   C5734     1.0  0.80080  0.62011  0.88632  1.0000
  C   C5735     1.0  0.80304  0.86815  0.74979  1.0000
  C   C5736     1.0  0.81415  0.65971  0.98758  1.0000
  C   C5737     1.0  0.80633  0.71586  0.80061  1.0000
  C   C5738     1.0  0.97469  0.58551  0.78275  1.0000
  H   H4584     1.0  0.97652  0.60056  0.74131  1.0000
  C   C5739     1.0  0.97535  0.75987  0.54928  1.0000
  Fe  Fe383     1.0  0.98838  0.64304  0.93491  1.0000
  C   C5740     1.0  0.96770  0.74601  0.54910  1.0000
  H   H4585     1.0  0.98454  0.73574  0.86769  1.0000
  H   H4586     1.0  0.82624  0.84701  0.75161  1.0000
  H   H4587     1.0  0.98483  0.90396  0.55921  1.0000
  H   H4588     1.0  0.97782  0.54302  0.80758  1.0000
  H   H4589     1.0  0.99324  0.65006  0.71666  1.0000
  H   H4590     1.0  0.99522  0.91274  0.52680  1.0000
  H   H4591     1.0  0.98703  0.50407  0.92781  1.0000
  C   C5741     1.0  0.98424  0.71263  0.59809  1.0000
  C   C5742     1.0  0.98202  0.55489  0.79895  1.0000
  H   H4592     1.0  0.81070  0.87845  0.74419  1.0000
  H   H4593     1.0  0.97349  0.73226  0.55421  1.0000
  H   H4594     1.0  0.99112  0.80901  0.59435  1.0000
  C   C5743     1.0  0.81505  0.67284  0.97190  1.0000
  C   C5744     1.0  0.80512  0.72836  0.93947  1.0000
  H   H4595     1.0  0.86187  0.67712  0.99305  1.0000
  H   H4596     1.0  0.84962  0.54168  0.96732  1.0000
  S   S767      1.0  0.99015  0.50827  0.83905  1.0000
  C   C5745     1.0  0.98446  0.77108  0.70982  1.0000
  H   H4597     1.0  0.80378  0.63308  0.87986  1.0000
  C   C5746     1.0  0.80200  0.83702  0.76136  1.0000
  H   H4598     1.0  0.96043  0.49980  0.92031  1.0000
  S   S768      1.0  0.99195  0.57626  0.94729  1.0000
  H   H4599     1.0  0.80226  0.75704  0.75828  1.0000
  H   H4600     1.0  0.80463  0.68831  0.61201  1.0000
  C   C5747     1.0  0.94682  0.98747  0.58238  1.0000
  C   C5748     1.0  0.80352  0.91546  0.61319  1.0000
  C   C5749     1.0  0.81094  0.52751  0.97646  1.0000
  C   C5750     1.0  0.80791  0.73359  0.56152  1.0000
  C   C5751     1.0  0.98626  0.64168  0.72800  1.0000
  H   H4601     1.0  0.85745  0.50165  0.93337  1.0000
  C   C5752     1.0  0.91743  0.99364  0.49778  1.0000
  Fe  Fe384     1.0  0.80081  0.69335  0.87250  1.0000
  H   H4602     1.0  0.99680  0.97033  0.51683  1.0000
  C   C5753     1.0  0.80046  0.79525  0.68099  1.0000
  H   H4603     1.0  0.96760  0.58967  0.84217  1.0000
  C   C5754     1.0  0.80163  0.69299  0.63812  1.0000
  H   H4604     1.0  0.80251  0.50618  0.93028  1.0000
  C   C5755     1.0  0.99340  0.66533  0.78067  1.0000
  H   H4605     1.0  0.98762  0.70396  0.92000  1.0000
  C   C5756     1.0  0.99753  0.73425  0.57383  1.0000
  H   H4606     1.0  0.80487  0.70605  0.63303  1.0000
  C   C5757     1.0  0.90600  0.67140  0.99140  1.0000
  C   C5758     1.0  0.99695  0.87718  0.71786  1.0000
  H   H4607     1.0  0.79985  0.75703  0.71279  1.0000
  H   H4608     1.0  0.79922  0.92669  0.60307  1.0000
  C   C5759     1.0  0.79926  0.78550  0.74915  1.0000
  C   C5760     1.0  0.79875  0.84039  0.61834  1.0000
