data_image0
_chemical_formula_structural       FeS2FeSHFeSFeHS2HSH2CHC2SHSC2H2CHCHFeS2FeSHFeSFeS3HFeS2FeS2FeSFeS3C7H3C6H4C6H7C6HCH2CHCHC3H2C3HC2H2C4HC3HCHC7H4C7H3C6PC4H2C6HCH7CH5C2SC3H5CH2CHC2HCH4CHC2HC2H3CHC4HC2HC2H2C2HC2H5C2HC4HC3H4C7PCSH2C2HCHCHCHC2H7PC3SCHCH2CHC4HCH4C7PCHC5HCH3CHC4H2C2H3CHCHC5H2C6SHCHCH4C2H4SC10H5C2H2CPCSH5C3HC3H3CHSHC3HCH4CH2CH2PC2HCHC2H4CHCHPCH2CH3CH2C4HC4PC2H3PHC6HC6HSFeS2FeS2FeSFeS3FeSHFeS2FeSFeS3FeSCFeS2FeSFeS3CSHFeHSFeS2HFeS2HSCHCFeHC2HCHC2H2C6H3C7H2CHC6H2FeC6H4C6H2CHC6H4C7H5FeC3PH4CH2CH2CHCFeHSHCH2CH2C6HC4H3C9HC4H4C3HCPC7H5CHC4PC9H11CH3C3HCHCHC7PC3H4CH10CHC3PSC6H2CHCSC3H8FeHCHC5HC3H6CHC5HC3HCH2PC7H7C4HCH6CFeH2C2PC3PC13SHCH8CH2C8H6CHC3HC2H2C4SPC14H4C3HCH5CHC3HC4H2C4HCH4CHCH2C2H3C3H2CHC2HC3SC4HCH6CHC2HSHCHC2PC2HC3HCH2CH6C2FeH3FeHC3SHSHCSHC6HC2FePCH5C2SHCHCFeC2H2C2HCHC4HC3H2CHCH2SC2H3C2SC2HC4SH4CH2C3HSC2HC4HCHCH3C2HCHCH2PSC3H3CHCH3SC3HFeS2FeS2FeSHCS3H2FeS2FeS2FeHFeS3FeS2FeS2FeSFeHS2C2SC2SCHCHCHPSC4H3CHCHCH2C2HC2H2CHFeHC6H2CHC6H2CHC2FeC3H3C3HC2HCH2C6H4CHCHCH2C2SCH2C8H5SH3C2H2C4HC3H2FeCH3CH2CPCHCHCHC2SHC2H2C2PC3HC7H4CH2CHCHCH6C2H2C4PC14HCH4SH7C6PC7HCH6CHCHC4PC14H13CHCSHC2HC2HC6HCH2CHC2H2CPC3HC2HC6H2PHSCSC2HFeH7C2H2C8PHC6HC2SCHC3HCH5CH5C2HCH3C2FeH4C2H2C4HC2HFeHC2H3CH3CHCHC2H2C4H3CFeH2CFeHFeSCH3C4FeH2CH2CSCH2C4H5C8HCHSHCH5C2H3FeC2H4C2H2C6PC18H5C2H2CHCHCS2HCHSC6H2CH2C2HCH3CHC4H2C3SC4H3CH4C2HCSHCH3CH2C3H2CH2CH4FeS2FeS2Fe3S3CH3CSC2H2FeS2FeS2FeSFeS3HFeS2FeS2FeCFeCS2HC3HSC2HCHC5HCH3C7HCH4C8H4C6H4C3H2CHC7H2CHC2HC6H4C6H2C3H3CH3CH3C2HCHC4H2CH4CHCH2C2HCHCHCHCH4C3HCHCH2C2H2CHPHC7PC9H2C2HCH3CH6SH2CH5C3HC3H2C3HC3H3CHCH2C2HCH2C2FeCHC3PC8HCH2C2H7CHCH2C2HCHCH2CHC4HC3HCH3CHCH2C6HC3HC2HCHC3H2C2H2C3H2SCPCHC3HC3H2C2HSHCH2CH2C4SC9H3C2HC2H3C3H2C2HCH3CH2C2HCHC2H2PCSPHCHCH4CH4C3H2C3HCH2CHCHCH5C2HSFeSCFePFeS3FeHSHSC3HC2H2PC2HC2H2C3HCH3C2SCSC2H2CHC3HC2SC2H2CH3CH2CHC4HC6H4C3HFeSHC3HC4H3CHC3HCHCHC3H7C2H2CHCHCFeCSHC4HC2H3C2SHC5H2C2HCHCH2C2H3C3PSC2H3SCHC2HC3H4FeC2H2CFeSCFeSCH2C2FeS2FeSFeSFeS3FeS2FeS2FeSFeS3HFeS2FeSFeHSCSH2SHFeS2HCFeSFeCS2C6H4CHC2H5C6H4FeHC6H4C6H4C3HC2SC2HC4H3C6H4C7H3SHC6PH2C2H2CH2C3HPC2H2C11HSCH2CH8CHC6PC9H9C2H5C7HCHSHSH3CH3C2H2SHCHC2H2SCHCH2CHFeHC5HSH2C4HC3SHC2HCH6C3H6C8HCHCHSCHC2H3CPHC2H2C3H2CHC6H3PC2H5C3HC3HC3SH4C4FeH5CH2CH3SC6PC15HC2H15C3HC10HCH8C3H3C2SC2H2SC6PC8HC4H2CH6C2H2CH6C6PC3H2SC9H2CH13CSC4S2CSC2HPCH2CH2CHCH2C2HC2H3CHCH2C3FeC2H2CH2CH3C2H2C5HFeC3SCHC2HC2FeCHFeCHCSCH4C2HCH2SHSHCHCHC5HC4H2CSHC3H2CHPC2HCFeC2HCHCHC2H2C4H2CHC2HC3HC2HC2SHCH7C4FeHC6HFeHCH6CH2CHSC2HCFeCHFeHC3H2S2FeC2SH3CSHC9HCSH2C3H2C3H4C2HCHC2H3CH2C7H4C3H2PCPH2CHC4HC2HC5H3SCH3CH2CHC4H2C7H3CPC4HCHC2H2C6HC9HFeCHCHCH4CH2CHC2H2C4H2CHPCSH2PCHCFe2CSFeS2HFeS2FeSHFeSFeS3FeS2FeS2FeSFeS2CSCSC3FeS2HFeS2H2FeSCSC2H2C6H4C5H2C7H4C6H4C6H6C4HC9H4C6H4C6H5FeC4H4C4HSFeC2HC3PC9H2CH2CH12PC6H6CHC3PC13H3CH12PCH2C6PC8H2CHCSC4H12CH4CH3CHCHCHC2HCHSC2HC7PC7H7CHCH2C2PC4HC11HCH2C2H7SC2HC2HFeH2C2HSCH2SHCPCSH3C4H4C3HC4H2C2HCH2CH2C2H2SH4CHC3HCH3C8H6C2HC4HC5H2CH2C2H3C2H3SHCHFeCHC2HC3PC9HC8H11CHC2HCSHC2HC2HCFeCHC3HCHCPC2HC2HSCHCHCHC2SCH2CH2CFeSCHCHC3SC2H2C3HSCHCH2C3H3CHCH2C2H2C2HSCH3SH2CHC3H2C3H4CH2C3HCHCHC3H2C2HC4H3CHCHCFeHC2H2C3HC4HC3H2CHC2H2CHC2H3C2HCHSC8HCHCHC2H2C5SCHCHC4H2SC2H2C2SCPC3H3C3HCH2CHC3HCSH5PC2H2CHC2HC2HC2HCHCHSFeCPHC2H3FeH2C2H2CS2CH4CHFeH2CH5CHC2HCH2PCH2CHC4HCH2SH2CHCSCHCHCH4PH2CHCH2SH5CFeHSHCHCSCFeS2C2SFeCFeS2FeS2Fe2HS2HC5H2CHC2HC3H2C4H2CHSC3H2C2H2C7H4C4PCH2C2H2PHC2H3C8H5CH3CHCSHCH2CSHC2H4C6H2C3SCHC6H2CHC2FeHCPC3H2C2H5C3H2C3HC3HC2HCHC3HCHCHCH2C2H4CHC4HCHC2HC2H2CSHCH6C2H2C3H2CHFeCFeC3H2C2HCSHC2HPC2HCH2C2SFeS2FeCS2CH2C2H3FePSC3SHC2SCFeSCFeS2H2FeSFe2SHFeS3CFeS2C3H2SH2CHCPHCSH8CH4CHC3H3C2H2FeC5H3C7H4CPHCH4SC9H4C2HC5HC3HCH4C6H4CHC4HC2HSCH2CHSHCFeC4HCHCHCHCHCHCH4CHC4SC3HC7PC3HCH3C2HC3H4C3H2C3PC5HCH3CSC8H7PCH2CH3C2HC3PC2H2C4HC2HC4H4C2H4CHCH4C2FeSCH2CH2SCH2C3HCHCHCH5C4HCH6C6H2C2HC2HC2H2C2HFeC7HCH3C6PC14HC2H12CH4C4HCHC5HCHFeC3HC3HFeC2H3CHS2CH4PHCSH2CHC3FeCS2H2CSFeSCFeS2FeSFeS3FeSCFeS2FeSFeS4C2PSH2SC2HCHSHC5HC2HC7H3C6H4C6HCH2C6H4C4H5SC6H4SH2CFeC2HSH2C3H2CH3C3H2CHCHSCHCHCPCH2C2HC2SHCH2SCH2CH3S2CHCHSC8H2C3H7C6PC2H3C3HFeC8H8SH2CHCH6C6PC18H12C2H6CHSCHC6PC14HCHC2H10CH4SHCHC2H2CS2C2H3C3H2CSH2CHC2H2C8H7C3HCH2CH7CH6C2PC3H2C12H16CH5SHC6HCHC2H4FeHSH2CFeC5HPC9FeH2C9H10C2H6C2HC6PC18HCH5CH2CH3PSC3HSC2PHFeH2CFeCHC5H2C2FeH3C3HC2S2HC2SC3H2C3HC2H2C2H3C3PC2H3CHCSCHC4H2CH2CHC2H3Fe2HC2H2CH2CHCHC3H3C3PCSC2SCHCFeH2CSHC2H2FePHC2FeCHCSC2HC2HC2HC4HCH2C2HC2HCH5CH2C2SCH2SH2SFeCSFeS2FeS2FeSFeS3FeS2FeS2FeHFeS4C2H2CS2CSC4H3C5H3CSHCHSCSPC5H2C6H4C6H4C5H4C5HCH3FeHSCH2C7H4CHCH4C2Fe2CFeH4PC7HC5FeCH2C3H2CH6CH3CHC2HCSC4HCHSH2C5HC2HCH3C2H3CSH2CH2C4HCH3CHC3H8C3HC2H4CSHC2FeCHCHPCHC3HCHS2CHCHC2H2C2HCH2C2H2C3HCHCFeCH3CHCH2CH2CHC2HCH2C3SHC2HC8PC14HSHSH13C4HC2HC2H3C4H2SHC2H2C2HC4H2PCH2C3FeHC3FeC2H2Fe2CH2FeHC7H3C7PC16H21PC4PHC3HC2HCHSHCHC12HSCH5CHC2H5PH3CHC2H3CH2CSHC4HC3H2CHCH3C3H3CPC12HC3H2SC2HCSH2C4HC5HC2FeCH3CSHCH2CFeHC2HC3H3C4HCHCHCHC2H2CSHPFeSHC4HSCH4CH3C3SCSH6C5SC2HC3H2FeHC2HPCFeS2FeC2FeSCS2CH2PH2SHC3HCH2CPHFeS2Fe2CS2HFeCSHCSFeS3FeH2SCHC2HSC2HSCHPSC3HSHSH4CHC7H3C7H3C2H2C6H4SHCHSHC2HFeC4H7PHCH2C7H4C3H2CH2CH2CH3C8H3CH3C6HC2H3FeC2H2C2HC2HCH2CSHCSH2C4HC2H2CH2CH2FeC2H2CHSHCHCH2C3H2CHCHCH3C4H4CHC3HSH2CH2FeC2HC3H3C2HCH2SHC7PC18H10C2HC6H2C2FeSC3SHCHC2HCH3FeH4C2HC2HCHCSHC4HCFeCH2CHCSFeSFeS2FeS2FeSFeS4HCFeSH3CHCFeS2HCFeCS2C3HS2H3FeS2C2HCSFeSFeS2C2HCH4C4PCH2C5HCFe2C3HCH2C6H5C2HPCSHCHC2H2C2SC3H2C5H3C6H4C5H4SC6H4C5H3CS2HCHC2HCFePFeHSH3CH2C4PC8HC3FeCHSC3SH10CFeHSCHCHCHCH3PH3CHSH2CHCSHC2HC2HCHFeC3FeH2C6PC9HC8H3SHCH5CHC2H5C2HC5PC18H14CH2CHCHCHCHCH2PC3HC2HC7HCHCH6CH2CHPC2HC4H3C5H2C2H3CH3CSC3PC14H11C3H3CSCHCHCH2C2HCHC2HC10H4CH3CH2SCHCHC2H3CH2CHC6PC18H11CH2SCFeH2SHC6H2FeC4H2C2HCH3C2HC2H2C2HC2FeHC4H2CH3CPHC2H2CHC2SHC3SH2CHCHC4H2SHFeSCS2H2C2H2CHC3HSCH2SC4HFeH2C2H3SC3H2C2SCHSHCHC9FeC2HCH2SCHC3HC3HC3SHCHCFeCH2CH4C3H2CH2C2H2CHC2HCFeC2SC2H2C2HCHCH2CH3C2HCHCSH2CHC3HCHCHCHCHPSC5H2CHFeHC4HCH2C2HC2HCHCH4PH2C2HC3H8CHSH2CH2C4HFeC4HCHFeHCH2CSCH3CSC2HCHC4H2CH2CHC2H2CHC2Fe2S2FeSHS2HPSCH3C2H4C2HCSHSCFeSH3S2FeSC2HSCHCH2CH2CFeHSH2SHFeS2FeS2FeSFeS2C6H6C2HCH2C2HC7H2C6H5C7H4C2HCHC7H5CH2C3HCHC3HC2HSH3CH4C2FeC5H5CH4CH2C4HCH4C4H2SC2H2CHFeSCHPC3H4CH2CHC2SC2HCHC3HC3HFeCSCH4CHCH2SCH2C2FeC2HC3H2C6HC3HCHCHSCH3C11HCPH2PC2H3CHPSCHC3HCFeCHC2HC3HC3H3CH2SC2HC2H2C2HCH2C5HC3HCSHCHCH7SC2HCHCHC2H4CH2FeC6H6SPCH2CHFeCSC3SHCSCHC5H2C3SC2HFe2S2FeSFeS2C2HC2H2CHFeS2FeSFeSFeS3HC4H4C7H2C3HC2HCH2C6H4C4HC4PCHC2HC4HCHC2HC5HC6H4CHCH2CHC4H4CHC4SC3HCH2CHCHCH6FeH2CHCHCH3CH5C6HC2PH3C3HCHCHCHCH4C6PC9H12CHCHCSCH2CSC2H3CH6C4H4C2HCH2SCHCSCHSC4HCFeS2H2C4FeSFeS2CSFeS2FeSCHC2FeS2FeS2FeSFeS3HSHC2SFeSHC6HSHC6H2CHC6H2CFeH2CHC5H3C3H3CH2C6H3CHPHC5HCHC3H2C7H4PH2CHC4H3CHCHC3H3C4H2C2H3FeHCSC2H3FeC2HC2H2CH5CH3C3SCSHC3H3CHSC2HC7HC6H2CH2CHCH4CH5CSH3CH2C2H3C4PCH3C2H6C2HC6HCHPCH2C3H6CH5C6PC3H2C2H2C6HCH8CHCH4C9HCH5CHC2H2CH2CH6CHFeC7HC3H4CH2CHSH5CHC2PCH2C2H2C3H2C7PC15HCH17CH3C2SC2H3CFeHCH2C3HC3H2C6PC15H15C6PC3H3C12H19C5FeH6SCSHC2H5PCHC7SC6PC3HC12H6C3HPCHC3HCH2C2HS2C2HCSFeC5HCH2CFe2SC4H3CHSH2C4FeS3HCH3Fe2C3H2SHC2HCHFeHCSC3HC9HCHC4HCHC8SFeHCH2CFeC3P2CH2CHC3HCHCFeHC3HC4H3C3HSCHCH3CHC3HC2H2SCH3CH3SC3SCSH2CSH2CH3PSC3FeC3HC5SH4SC3HC2HC2H2CH2CH2CHC3HC2PC3PC5HCH3C2HC3HCFeHS2FeS2FeSHFeSFe2S2FeS2CS2CSCH2SFeSFe2S2CHFeS2FeSFeCFeSCS3FeSC5H2C5H5C6H4SCSCSC2H4CHCHC6H4C6H4CH2CHC4HC6H4C4H2CPC14H2CH6CH3CHC2PC3HC2HSH2CHCH3C2HPC6PC8HC3H2CH13CFeHC3PC8H4C2H6C2H3C2HCHC6HC3H2CP2H4C2H2CHCHC5HCSHCH2CHCSFeCH2C2HCHSCHSC3H2C2HC4HCHC4SHC3H2C2HFeC4HFeH4C4H3CH3C2SC2H3SC6PSC6H2C8H2CH6C2HC2H2C3H2CH4CSC6PC18H19FeC2H2C6PC20H11CFeCHCHCH2S2FeSC2H3CSHPHCSH3CH3C3HSH2CFe2H2CH2SCFeCFeCHFeCHCSHC2HCSC5HCSHSHCH2SC3SHCHC4HC2HCHCHCH3SC4HC2H2CH3CH2CH2CHCHCH2C2H2CH2C3HC3FeH2SHC2HC2HC4HC2HCHCHC2H3C6H3CH3SC3PHC4H3CH2C4H3CH4C2HCH3CHC3FeCHC4HSCH5CH2CPC4HCHCHC3H2FeHCHCSCHCHC4H2CPHC2HC2HCH7CHC2HSCH3FeHCPC5H6CH2CH2C2HC2H3CHCHFeSFeS2FeSFeS2HC3SH2CHC3HCSC2HC2HCSCH3CSHCSC2SCHCHSHC2H2C2HCFeC2HCHC2HC2HCH2SH3FeCHC4HC4H2C2HFeHC3H3C4H2CHC2H2C2H5C7HCH2SHC3H2C4HCH2CHC3HSPHSHCHCHFeHC3H2C2H2CH3CH2CH3C4HC2H2CH4C2FeC2PC5PHC12H3CH2C2H3CPH7CHC3HCHCH2CHC2HCSCP2HCH2C2HCHC4HCH3C2H3C3H3C3HPCHCH2CH2C3H3C2H3C2HCH2C5HC2HC4HC2HC3SC2H7CHC3H4SC2SC2H2CH3C4SFeC2HSCPC2HC5HCFeS2FeSHSFeS2HFeH2C3HC3PCHCHC2HCHCHC2H5C3HC4HCH2CHC2H2CHC3HCHC2HSCHC2H3C3HCH2C2SC2HC3H4C2HCHFeCHC2HC4H4CH2C2FeHPHC4H2C4SHC8H2C4H2CHCH5CHCH3CH2CPC3HC2HC2HC3HC2HC2H3SC2H3C2SC3HCH3CH3CH4C3H6PHCH2C2H3CS2HS2CH2CH2SCH2FeS2FeH2Fe2S6FeCSCHFeSCFeS2FeHFeS3CSHCFeS2H2CHCHC6H7C6H4C8H3C4H2C6H5C2SC3HCHFeC7H4Fe2C3HCH2FeC6PC9H8CSHCHCSFeCH2CH3C3H2CH3CH2C2HFeCH2S2H2CS3PC5HCHFeHC7PC4HC5HC3H5SH6CFeC2H2C6PC2H3SC6H8C2H4C4H5CH2CH2C2H2CHCPH3CHC2H3C2SCHCHC2HCSHCH3FeC5H3C2H2CHS2HCH3C4H2SCHC2HC2SC2SCH3FeH2C8PC18H17SH2C13SCHSH2CSHSC3H2C2HCHC4HFeCHCHC2H2C3SHC2FeH3C3H2CHCH2PC8H9CH4C3PC21H13C2H2CHCHCFeHSC3HC5HC2HFe2SC2SC2PCH4FeHCHCH2CPC2HSHC5H3CH2C2H2CHCHCHC6HC5FeCHFeH2C3H2PHFeC7H2S2CSC3SHC2H2C5HCH2C3HCH4C3H2CSCH2CHSHSH2C3HCH2C2HCH6FePC2HSHCSCFeH2CHCH2CHCH
_chemical_formula_sum              "Fe384 S768 H4608 C5760 P192"
_cell_length_a       67.7339
_cell_length_b       67.2135
_cell_length_c       67.3117
_cell_angle_alpha    75.2354
_cell_angle_beta     75.1869
_cell_angle_gamma    75.2834

_space_group_name_H-M_alt    "P 1"
_space_group_IT_number       1

loop_
  _space_group_symop_operation_xyz
  'x, y, z'

loop_
  _atom_site_type_symbol
  _atom_site_label
  _atom_site_symmetry_multiplicity
  _atom_site_fract_x
  _atom_site_fract_y
  _atom_site_fract_z
  _atom_site_occupancy
  Fe  Fe1       1.0  0.11153  0.42648  0.15430  1.0000
  S   S1        1.0  0.12705  0.39859  0.17544  1.0000
  S   S2        1.0  0.08350  0.44995  0.16552  1.0000
  Fe  Fe2       1.0  0.14249  0.41683  0.11495  1.0000
  S   S3        1.0  0.16060  0.38866  0.13287  1.0000
  H   H1        1.0  0.02712  0.07647  0.08340  1.0000
  Fe  Fe3       1.0  0.12924  0.38146  0.14981  1.0000
  S   S4        1.0  0.12366  0.34891  0.15241  1.0000
  Fe  Fe4       1.0  0.15662  0.40889  0.15622  1.0000
  H   H2        1.0  0.05855  0.01732  0.45399  1.0000
  S   S5        1.0  0.11146  0.40869  0.13032  1.0000
  S   S6        1.0  0.14072  0.43783  0.13668  1.0000
  H   H3        1.0  0.16251  0.04372  0.44429  1.0000
  S   S7        1.0  0.00014  0.47577  0.10600  1.0000
  H   H4        1.0  0.00041  0.39737  0.01982  1.0000
  H   H5        1.0  0.04936  0.19047  0.34182  1.0000
  C   C1        1.0  0.01596  0.23695  0.34707  1.0000
  H   H6        1.0  0.15936  0.25699  0.14447  1.0000
  C   C2        1.0  0.00073  0.03852  0.20968  1.0000
  C   C3        1.0  0.10727  0.99554  0.42524  1.0000
  S   S8        1.0  0.14205  0.01251  0.28215  1.0000
  H   H7        1.0  0.04253  0.04477  0.39668  1.0000
  S   S9        1.0  0.00782  0.42360  0.14779  1.0000
  C   C4        1.0  0.12513  0.09515  0.43425  1.0000
  C   C5        1.0  0.16660  0.02417  0.37781  1.0000
  H   H8        1.0  0.12936  0.25430  0.13116  1.0000
  H   H9        1.0  0.17286  0.48285  0.14236  1.0000
  C   C6        1.0  0.02178  0.02107  0.31261  1.0000
  H   H10       1.0  0.02610  0.25746  0.13219  1.0000
  C   C7        1.0  0.01111  0.38029  0.04791  1.0000
  H   H11       1.0  0.03317  0.00970  0.48702  1.0000
  Fe  Fe5       1.0  0.06210  0.32217  0.08127  1.0000
  S   S10       1.0  0.08100  0.28937  0.08145  1.0000
  S   S11       1.0  0.05576  0.34275  0.10507  1.0000
  Fe  Fe6       1.0  0.04874  0.32375  0.04075  1.0000
  S   S12       1.0  0.06652  0.29126  0.03785  1.0000
  H   H12       1.0  0.02585  0.36477  0.07425  1.0000
  Fe  Fe7       1.0  0.05380  0.28286  0.07233  1.0000
  S   S13       1.0  0.03970  0.25437  0.08892  1.0000
  Fe  Fe8       1.0  0.09170  0.30114  0.04688  1.0000
  S   S14       1.0  0.12526  0.29288  0.03046  1.0000
  S   S15       1.0  0.03412  0.31476  0.07469  1.0000
  S   S16       1.0  0.07467  0.33441  0.04739  1.0000
  H   H13       1.0  0.19077  0.11602  0.40517  1.0000
  Fe  Fe9       1.0  0.11435  0.12755  0.35256  1.0000
  S   S17       1.0  0.09570  0.10708  0.37814  1.0000
  S   S18       1.0  0.14310  0.13591  0.35662  1.0000
  Fe  Fe10      1.0  0.08467  0.13530  0.32308  1.0000
  S   S19       1.0  0.06338  0.11577  0.34640  1.0000
  S   S20       1.0  0.07848  0.14897  0.29055  1.0000
  Fe  Fe11      1.0  0.06802  0.13158  0.36994  1.0000
  S   S21       1.0  0.04009  0.14259  0.39395  1.0000
  Fe  Fe12      1.0  0.09274  0.09319  0.35227  1.0000
  S   S22       1.0  0.09463  0.05844  0.35710  1.0000
  S   S23       1.0  0.08677  0.15330  0.34609  1.0000
  S   S24       1.0  0.11391  0.11150  0.32732  1.0000
  C   C8        1.0  0.05436  0.12299  0.45952  1.0000
  C   C9        1.0  0.03370  0.12862  0.45698  1.0000
  C   C10       1.0  0.02929  0.13562  0.43677  1.0000
  C   C11       1.0  0.04557  0.13704  0.41913  1.0000
  C   C12       1.0  0.06616  0.13250  0.42178  1.0000
  C   C13       1.0  0.07050  0.12542  0.44198  1.0000
  C   C14       1.0  0.16090  0.29811  0.10249  1.0000
  H   H14       1.0  0.01333  0.13925  0.43476  1.0000
  H   H15       1.0  0.07877  0.13413  0.40829  1.0000
  H   H16       1.0  0.08635  0.12144  0.44410  1.0000
  C   C15       1.0  0.02120  0.47278  0.02116  1.0000
  C   C16       1.0  0.99868  0.34079  0.12173  1.0000
  C   C17       1.0  0.02082  0.25531  0.05661  1.0000
  C   C18       1.0  0.02251  0.24694  0.07751  1.0000
  C   C19       1.0  0.01056  0.23204  0.08954  1.0000
  C   C20       1.0  0.00990  0.27820  0.21709  1.0000
  H   H17       1.0  0.99679  0.43349  0.06501  1.0000
  H   H18       1.0  0.03001  0.26668  0.04712  1.0000
  H   H19       1.0  0.01185  0.22540  0.10570  1.0000
  H   H20       1.0  0.04599  0.09386  0.27201  1.0000
  C   C21       1.0  0.00973  0.17997  0.29536  1.0000
  C   C22       1.0  0.01920  0.17576  0.31259  1.0000
  C   C23       1.0  0.04031  0.16636  0.31103  1.0000
  C   C24       1.0  0.05230  0.16169  0.29199  1.0000
  C   C25       1.0  0.04309  0.16644  0.27446  1.0000
  C   C26       1.0  0.02170  0.17536  0.27620  1.0000
  H   H21       1.0  0.01028  0.17967  0.32724  1.0000
  H   H22       1.0  0.04732  0.16269  0.32460  1.0000
  H   H23       1.0  0.05237  0.16275  0.25970  1.0000
  H   H24       1.0  0.01452  0.17859  0.26279  1.0000
  H   H25       1.0  0.08949  0.04791  0.46343  1.0000
  H   H26       1.0  0.01936  0.10625  0.41440  1.0000
  H   H27       1.0  0.01516  0.25371  0.34184  1.0000
  C   C27       1.0  0.10939  0.04702  0.33584  1.0000
  C   C28       1.0  0.12235  0.02723  0.33974  1.0000
  C   C29       1.0  0.13330  0.01719  0.32313  1.0000
  C   C30       1.0  0.13072  0.02644  0.30261  1.0000
  C   C31       1.0  0.11838  0.04665  0.29860  1.0000
  C   C32       1.0  0.10771  0.05696  0.31520  1.0000
  H   H28       1.0  0.12412  0.01971  0.35562  1.0000
  C   C33       1.0  0.03931  0.11071  0.29681  1.0000
  H   H29       1.0  0.11676  0.05418  0.28270  1.0000
  H   H30       1.0  0.09781  0.07234  0.31211  1.0000
  C   C34       1.0  0.01275  0.39413  0.02839  1.0000
  H   H31       1.0  0.00041  0.13538  0.03606  1.0000
  C   C35       1.0  0.00716  0.24898  0.04793  1.0000
  H   H32       1.0  0.03739  0.04225  0.16429  1.0000
  C   C36       1.0  0.01624  0.09777  0.32878  1.0000
  C   C37       1.0  0.13798  0.05370  0.37348  1.0000
  C   C38       1.0  0.15511  0.26794  0.13062  1.0000
  H   H33       1.0  0.18977  0.17558  0.38475  1.0000
  H   H34       1.0  0.99769  0.37300  0.05412  1.0000
  C   C39       1.0  0.12874  0.35055  0.99391  1.0000
  C   C40       1.0  0.14412  0.29622  0.09487  1.0000
  C   C41       1.0  0.09236  0.99501  0.48711  1.0000
  H   H35       1.0  0.02958  0.42757  0.07753  1.0000
  C   C42       1.0  0.13457  0.31415  0.01245  1.0000
  C   C43       1.0  0.12098  0.33313  0.00679  1.0000
  H   H36       1.0  0.10448  0.33450  0.01242  1.0000
  H   H37       1.0  0.01401  0.19257  0.04157  1.0000
  C   C44       1.0  0.15379  0.09719  0.38174  1.0000
  C   C45       1.0  0.15658  0.11794  0.37505  1.0000
  C   C46       1.0  0.08172  0.30224  0.18761  1.0000
  C   C47       1.0  0.00838  0.05095  0.44268  1.0000
  H   H38       1.0  0.14293  0.09231  0.37572  1.0000
  C   C48       1.0  0.99897  0.22933  0.36084  1.0000
  C   C49       1.0  0.02948  0.44768  0.99834  1.0000
  C   C50       1.0  0.00138  0.09499  0.25949  1.0000
  H   H39       1.0  0.16340  0.45884  0.03979  1.0000
  C   C51       1.0  0.08464  0.46940  0.10805  1.0000
  H   H40       1.0  0.12622  0.12397  0.41123  1.0000
  C   C52       1.0  0.12086  0.47214  0.09600  1.0000
  C   C53       1.0  0.10524  0.34756  0.13850  1.0000
  C   C54       1.0  0.10821  0.33025  0.12918  1.0000
  C   C55       1.0  0.09352  0.32886  0.11828  1.0000
  C   C56       1.0  0.07540  0.34444  0.11728  1.0000
  C   C57       1.0  0.07222  0.36138  0.12712  1.0000
  C   C58       1.0  0.08717  0.36312  0.13739  1.0000
  H   H41       1.0  0.12197  0.31800  0.13024  1.0000
  H   H42       1.0  0.09602  0.31560  0.11100  1.0000
  H   H43       1.0  0.05809  0.37324  0.12692  1.0000
  H   H44       1.0  0.08441  0.37625  0.14496  1.0000
  C   C59       1.0  0.02844  0.43084  0.15360  1.0000
  C   C60       1.0  0.02777  0.45196  0.15304  1.0000
  C   C61       1.0  0.04439  0.45777  0.15745  1.0000
  C   C62       1.0  0.06189  0.44254  0.16195  1.0000
  C   C63       1.0  0.06251  0.42142  0.16266  1.0000
  C   C64       1.0  0.04575  0.41555  0.15858  1.0000
  C   C65       1.0  0.00079  0.26469  0.23454  1.0000
  H   H45       1.0  0.01543  0.05725  0.46964  1.0000
  H   H46       1.0  0.07589  0.40955  0.16644  1.0000
  H   H47       1.0  0.04642  0.39923  0.15898  1.0000
  C   C66       1.0  0.05781  0.28842  0.13684  1.0000
  C   C67       1.0  0.06128  0.26652  0.14124  1.0000
  C   C68       1.0  0.05764  0.25565  0.16205  1.0000
  C   C69       1.0  0.05050  0.26671  0.17839  1.0000
  C   C70       1.0  0.04646  0.28882  0.17397  1.0000
  C   C71       1.0  0.05052  0.29952  0.15305  1.0000
  P   P1        1.0  0.03890  0.30309  0.19503  1.0000
  C   C72       1.0  0.02631  0.28689  0.21823  1.0000
  C   C73       1.0  0.06175  0.30969  0.19882  1.0000
  C   C74       1.0  0.05931  0.32441  0.21124  1.0000
  C   C75       1.0  0.03521  0.02198  0.21630  1.0000
  H   H48       1.0  0.03514  0.03985  0.10341  1.0000
  H   H49       1.0  0.19056  0.44236  0.06050  1.0000
  C   C76       1.0  0.15594  0.31226  0.00386  1.0000
  C   C77       1.0  0.03352  0.28172  0.23707  1.0000
  C   C78       1.0  0.02166  0.32807  0.18810  1.0000
  C   C79       1.0  0.03000  0.34474  0.17403  1.0000
  C   C80       1.0  0.01739  0.36461  0.16971  1.0000
  C   C81       1.0  0.01684  0.04724  0.13287  1.0000
  H   H50       1.0  0.11022  0.47922  0.15347  1.0000
  C   C82       1.0  0.17871  0.45187  0.03197  1.0000
  H   H51       1.0  0.06074  0.29703  0.12085  1.0000
  H   H52       1.0  0.06679  0.25804  0.12849  1.0000
  H   H53       1.0  0.06055  0.23863  0.16553  1.0000
  H   H54       1.0  0.04842  0.25792  0.19442  1.0000
  H   H55       1.0  0.04825  0.31645  0.14902  1.0000
  H   H56       1.0  0.04398  0.33081  0.21955  1.0000
  H   H57       1.0  0.11544  0.16136  0.98966  1.0000
  C   C83       1.0  0.16367  0.32955  0.99048  1.0000
  H   H58       1.0  0.17802  0.13772  0.44657  1.0000
  H   H59       1.0  0.00182  0.27709  0.10909  1.0000
  H   H60       1.0  0.04643  0.28777  0.23828  1.0000
  H   H61       1.0  0.04643  0.34262  0.16672  1.0000
  H   H62       1.0  0.02397  0.37740  0.15893  1.0000
  C   C84       1.0  0.18373  0.43088  0.18043  1.0000
  C   C85       1.0  0.05415  0.00800  0.36683  1.0000
  S   S25       1.0  0.06029  0.11106  0.48426  1.0000
  C   C86       1.0  0.14324  0.40773  0.00415  1.0000
  C   C87       1.0  0.15509  0.42246  0.00281  1.0000
  C   C88       1.0  0.00962  0.04089  0.30627  1.0000
  H   H63       1.0  0.13170  0.14324  0.43551  1.0000
  H   H64       1.0  0.13335  0.12566  0.47223  1.0000
  H   H65       1.0  0.01958  0.17684  0.36593  1.0000
  H   H66       1.0  0.14990  0.39110  0.00795  1.0000
  H   H67       1.0  0.17079  0.41700  0.00549  1.0000
  C   C89       1.0  0.13198  0.37211  0.07710  1.0000
  H   H68       1.0  0.07065  0.99817  0.28647  1.0000
  H   H69       1.0  0.13648  0.46608  0.08811  1.0000
  C   C90       1.0  0.13288  0.28042  0.10517  1.0000
  H   H70       1.0  0.13960  0.30690  0.08102  1.0000
  C   C91       1.0  0.09885  0.30969  0.18860  1.0000
  C   C92       1.0  0.08066  0.48681  0.11728  1.0000
  H   H71       1.0  0.15118  0.43292  0.19447  1.0000
  C   C93       1.0  0.00962  0.26133  0.13881  1.0000
  H   H72       1.0  0.11995  0.27914  0.09919  1.0000
  H   H73       1.0  0.07494  0.33028  0.00192  1.0000
  H   H74       1.0  0.11408  0.30469  0.17920  1.0000
  H   H75       1.0  0.06031  0.02326  0.18918  1.0000
  C   C94       1.0  0.13823  0.26640  0.12313  1.0000
  H   H76       1.0  0.16655  0.29752  0.00783  1.0000
  C   C95       1.0  0.03746  0.09486  0.28783  1.0000
  C   C96       1.0  0.14676  0.44400  0.99802  1.0000
  H   H77       1.0  0.13783  0.02850  0.40048  1.0000
  C   C97       1.0  0.18793  0.02723  0.30757  1.0000
  C   C98       1.0  0.12676  0.45060  0.99332  1.0000
  H   H78       1.0  0.00430  0.28165  0.20262  1.0000
  H   H79       1.0  0.16784  0.15378  0.41250  1.0000
  H   H80       1.0  0.11877  0.38503  0.04954  1.0000
  C   C99       1.0  0.07651  0.33178  0.21221  1.0000
  H   H81       1.0  0.04732  0.22878  0.32953  1.0000
  C   C100      1.0  0.00221  0.25444  0.16023  1.0000
  C   C101      1.0  0.00220  0.18924  0.41631  1.0000
  C   C102      1.0  0.17022  0.12460  0.38326  1.0000
  C   C103      1.0  0.01378  0.02764  0.22370  1.0000
  H   H82       1.0  0.06016  0.40495  0.02518  1.0000
  C   C104      1.0  0.05692  0.02257  0.37687  1.0000
  C   C105      1.0  0.14220  0.35694  0.04610  1.0000
  H   H83       1.0  0.00999  0.08459  0.39507  1.0000
  C   C106      1.0  0.16654  0.28360  0.12024  1.0000
  C   C107      1.0  0.00888  0.04328  0.18806  1.0000
  H   H84       1.0  0.10065  0.18855  0.01100  1.0000
  H   H85       1.0  0.07448  0.34366  0.22123  1.0000
  C   C108      1.0  0.00226  0.19429  0.01422  1.0000
  C   C109      1.0  0.12829  0.09612  0.46912  1.0000
  H   H86       1.0  0.00115  0.24882  0.26660  1.0000
  C   C110      1.0  0.14626  0.35600  0.08667  1.0000
  C   C111      1.0  0.16914  0.40067  0.05039  1.0000
  H   H87       1.0  0.00389  0.10429  0.10143  1.0000
  H   H88       1.0  0.09238  0.07501  0.48680  1.0000
  H   H89       1.0  0.03834  0.01758  0.30633  1.0000
  H   H90       1.0  0.05683  0.38067  0.05981  1.0000
  H   H91       1.0  0.14239  0.07677  0.34500  1.0000
  C   C112      1.0  0.11267  0.23882  0.00821  1.0000
  C   C113      1.0  0.15869  0.34025  0.07596  1.0000
  H   H92       1.0  0.02572  0.43958  0.03231  1.0000
  C   C114      1.0  0.04635  0.39822  0.03140  1.0000
  C   C115      1.0  0.00824  0.16270  0.04078  1.0000
  C   C116      1.0  0.00896  0.18390  0.03288  1.0000
  C   C117      1.0  0.00645  0.05863  0.42167  1.0000
  H   H93       1.0  0.01285  0.15477  0.05556  1.0000
  C   C118      1.0  0.00109  0.15180  0.02984  1.0000
  C   C119      1.0  0.13013  0.12701  0.44102  1.0000
  C   C120      1.0  0.04363  0.02743  0.19487  1.0000
  H   H94       1.0  0.01447  0.46386  0.14918  1.0000
  H   H95       1.0  0.00573  0.29551  0.15810  1.0000
  H   H96       1.0  0.04386  0.47409  0.15682  1.0000
  H   H97       1.0  0.05635  0.37944  0.98878  1.0000
  C   C121      1.0  0.99643  0.36822  0.17962  1.0000
  C   C122      1.0  0.08336  0.03558  0.27215  1.0000
  C   C123      1.0  0.08603  0.03240  0.25186  1.0000
  C   C124      1.0  0.06902  0.03808  0.24200  1.0000
  C   C125      1.0  0.04927  0.04675  0.25251  1.0000
  C   C126      1.0  0.04653  0.05020  0.27286  1.0000
  C   C127      1.0  0.06376  0.04461  0.28258  1.0000
  P   P2        1.0  0.02114  0.06114  0.28682  1.0000
  C   C128      1.0  0.02450  0.08067  0.29909  1.0000
  S   S26       1.0  0.03443  0.99439  0.27434  1.0000
  H   H98       1.0  0.17348  0.00962  0.38710  1.0000
  H   H99       1.0  0.03219  0.99270  0.36163  1.0000
  C   C129      1.0  0.09625  0.32452  0.20078  1.0000
  C   C130      1.0  0.06425  0.00927  0.46816  1.0000
  H   H100      1.0  0.14400  0.00240  0.32622  1.0000
  C   C131      1.0  0.01430  0.08192  0.31981  1.0000
  H   H101      1.0  0.16250  0.06699  0.40166  1.0000
  C   C132      1.0  0.02839  0.11243  0.31712  1.0000
  H   H102      1.0  0.14728  0.35581  0.10252  1.0000
  C   C133      1.0  0.99475  0.23459  0.06010  1.0000
  H   H103      1.0  0.17622  0.47673  0.06834  1.0000
  C   C134      1.0  0.12792  0.48653  0.17182  1.0000
  C   C135      1.0  0.18658  0.38855  0.03952  1.0000
  H   H104      1.0  0.09644  0.03052  0.27994  1.0000
  H   H105      1.0  0.10129  0.02534  0.24394  1.0000
  H   H106      1.0  0.07113  0.03558  0.22628  1.0000
  H   H107      1.0  0.03626  0.05065  0.24474  1.0000
  H   H108      1.0  0.06203  0.04690  0.29836  1.0000
  H   H109      1.0  0.00639  0.34802  0.10642  1.0000
  H   H110      1.0  0.00501  0.07065  0.32911  1.0000
  P   P3        1.0  0.17565  0.31836  0.08904  1.0000
  C   C136      1.0  0.16509  0.43862  0.19331  1.0000
  C   C137      1.0  0.16484  0.08298  0.39640  1.0000
  C   C138      1.0  0.16987  0.08281  0.30554  1.0000
  S   S27       1.0  0.18875  0.07385  0.42628  1.0000
  C   C139      1.0  0.18000  0.33483  0.14215  1.0000
  H   H111      1.0  0.00725  0.02333  0.24030  1.0000
  C   C140      1.0  0.10468  0.46216  0.09729  1.0000
  H   H112      1.0  0.00582  0.25569  0.03184  1.0000
  H   H113      1.0  0.01295  0.24537  0.17027  1.0000
  C   C141      1.0  0.14659  0.03476  0.38537  1.0000
  H   H114      1.0  0.12254  0.38424  0.08549  1.0000
  C   C142      1.0  0.15374  0.07756  0.29964  1.0000
  C   C143      1.0  0.14232  0.09216  0.28570  1.0000
  C   C144      1.0  0.14680  0.11219  0.27770  1.0000
  C   C145      1.0  0.16313  0.11743  0.28314  1.0000
  H   H115      1.0  0.10945  0.33088  0.20078  1.0000
  C   C146      1.0  0.11484  0.43587  0.99474  1.0000
  H   H116      1.0  0.07416  0.99882  0.42742  1.0000
  H   H117      1.0  0.15003  0.06214  0.30585  1.0000
  H   H118      1.0  0.12965  0.08812  0.28149  1.0000
  H   H119      1.0  0.13746  0.12370  0.26746  1.0000
  C   C147      1.0  0.17339  0.32719  0.12801  1.0000
  C   C148      1.0  0.07457  0.06485  0.40891  1.0000
  C   C149      1.0  0.06848  0.07876  0.42262  1.0000
  C   C150      1.0  0.07399  0.07259  0.44221  1.0000
  C   C151      1.0  0.08557  0.05254  0.44809  1.0000
  C   C152      1.0  0.09171  0.03840  0.43445  1.0000
  C   C153      1.0  0.08644  0.04477  0.41460  1.0000
  P   P4        1.0  0.10413  0.01181  0.44404  1.0000
  C   C154      1.0  0.01416  0.06314  0.45339  1.0000
  H   H120      1.0  0.04520  0.01343  0.22728  1.0000
  C   C155      1.0  0.04456  0.38452  0.05097  1.0000
  C   C156      1.0  0.12991  0.37257  0.05685  1.0000
  C   C157      1.0  0.99574  0.27263  0.12570  1.0000
  C   C158      1.0  0.02090  0.07271  0.10012  1.0000
  C   C159      1.0  0.13718  0.02984  0.44404  1.0000
  H   H121      1.0  0.03020  0.26390  0.26889  1.0000
  C   C160      1.0  0.15637  0.02946  0.44844  1.0000
  H   H122      1.0  0.07015  0.06984  0.39376  1.0000
  H   H123      1.0  0.05952  0.09434  0.41797  1.0000
  H   H124      1.0  0.06911  0.08323  0.45297  1.0000
  C   C161      1.0  0.12601  0.08509  0.45501  1.0000
  H   H125      1.0  0.09129  0.03447  0.40347  1.0000
  C   C162      1.0  0.00804  0.25961  0.25322  1.0000
  C   C163      1.0  0.12924  0.01137  0.44917  1.0000
  C   C164      1.0  0.12306  0.41440  0.00024  1.0000
  C   C165      1.0  0.01975  0.02956  0.39204  1.0000
  H   H126      1.0  0.12890  0.04455  0.43630  1.0000
  H   H127      1.0  0.02120  0.12671  0.47055  1.0000
  C   C166      1.0  0.02221  0.40168  0.10255  1.0000
  C   C167      1.0  0.01836  0.41764  0.08528  1.0000
  H   H128      1.0  0.17056  0.33514  0.15777  1.0000
  H   H129      1.0  0.00366  0.09020  0.18026  1.0000
  H   H130      1.0  0.01979  0.03108  0.14126  1.0000
  C   C168      1.0  0.00753  0.38916  0.11295  1.0000
  H   H131      1.0  0.07233  0.02578  0.37462  1.0000
  C   C169      1.0  0.03041  0.40319  0.02000  1.0000
  H   H132      1.0  0.07217  0.46135  0.10957  1.0000
  C   C170      1.0  0.16469  0.45285  0.20563  1.0000
  C   C171      1.0  0.15657  0.34086  0.05557  1.0000
  C   C172      1.0  0.99984  0.42105  0.07831  1.0000
  C   C173      1.0  0.00791  0.08844  0.11030  1.0000
  C   C174      1.0  0.01715  0.01483  0.38183  1.0000
  H   H133      1.0  0.12037  0.46713  0.98869  1.0000
  H   H134      1.0  0.18393  0.43736  0.12771  1.0000
  C   C175      1.0  0.03526  0.20135  0.34706  1.0000
  C   C176      1.0  0.16927  0.05142  0.34616  1.0000
  C   C177      1.0  0.16995  0.40561  0.06906  1.0000
  C   C178      1.0  0.00766  0.32052  0.13085  1.0000
  C   C179      1.0  0.12812  0.25050  0.00428  1.0000
  C   C180      1.0  0.18281  0.45114  0.01059  1.0000
  S   S28       1.0  0.14969  0.42442  0.07979  1.0000
  H   H135      1.0  0.03633  0.39944  0.10826  1.0000
  C   C181      1.0  0.00409  0.06304  0.14332  1.0000
  H   H136      1.0  0.17325  0.02564  0.31834  1.0000
  C   C182      1.0  0.11702  0.48932  0.10556  1.0000
  H   H137      1.0  0.01067  0.37721  0.12659  1.0000
  H   H138      1.0  0.08411  0.29133  0.17746  1.0000
  H   H139      1.0  0.00501  0.03578  0.45095  1.0000
  H   H140      1.0  0.17171  0.16748  0.46815  1.0000
  C   C183      1.0  0.01784  0.08315  0.44330  1.0000
  C   C184      1.0  0.17794  0.08990  0.40510  1.0000
  H   H141      1.0  0.12265  0.06216  0.37957  1.0000
  H   H142      1.0  0.04933  0.12163  0.28804  1.0000
  H   H143      1.0  0.11306  0.22477  0.02042  1.0000
  H   H144      1.0  0.02194  0.31232  0.12241  1.0000
  S   S29       1.0  0.18523  0.41117  0.16662  1.0000
  C   C185      1.0  0.04592  0.33718  0.99162  1.0000
  C   C186      1.0  0.02539  0.05211  0.11140  1.0000
  C   C187      1.0  0.14918  0.06195  0.35384  1.0000
  C   C188      1.0  0.00391  0.07342  0.26855  1.0000
  C   C189      1.0  0.05358  0.19182  0.05606  1.0000
  C   C190      1.0  0.05891  0.19838  0.07173  1.0000
  C   C191      1.0  0.06917  0.21516  0.06645  1.0000
  C   C192      1.0  0.07376  0.22571  0.04558  1.0000
  C   C193      1.0  0.06947  0.21853  0.02962  1.0000
  C   C194      1.0  0.05883  0.20185  0.03506  1.0000
  H   H145      1.0  0.00855  0.09856  0.34484  1.0000
  H   H146      1.0  0.15036  0.45812  0.21614  1.0000
  H   H147      1.0  0.05770  0.27539  0.00441  1.0000
  H   H148      1.0  0.17976  0.28440  0.12607  1.0000
  H   H149      1.0  0.11403  0.40288  0.00112  1.0000
  C   C195      1.0  0.02579  0.45202  0.01849  1.0000
  C   C196      1.0  0.03054  0.03810  0.18075  1.0000
  H   H150      1.0  0.15504  0.40652  0.04429  1.0000
  H   H151      1.0  0.03079  0.99436  0.44685  1.0000
  C   C197      1.0  0.99847  0.31102  0.15090  1.0000
  P   P5        1.0  0.03300  0.42108  0.99484  1.0000
  C   C198      1.0  0.18278  0.45985  0.20488  1.0000
  S   S30       1.0  0.18158  0.47664  0.22182  1.0000
  H   H152      1.0  0.04520  0.17912  0.06025  1.0000
  H   H153      1.0  0.05457  0.19089  0.08805  1.0000
  H   H154      1.0  0.07276  0.22061  0.07869  1.0000
  H   H155      1.0  0.08040  0.23957  0.04211  1.0000
  H   H156      1.0  0.05448  0.19670  0.02309  1.0000
  C   C199      1.0  0.16791  0.01062  0.45772  1.0000
  C   C200      1.0  0.03986  0.03334  0.38940  1.0000
  C   C201      1.0  0.17798  0.03264  0.35840  1.0000
  H   H157      1.0  0.18784  0.10693  0.30010  1.0000
  C   C202      1.0  0.04973  0.00525  0.48689  1.0000
  C   C203      1.0  0.00044  0.33181  0.19789  1.0000
  C   C204      1.0  0.13084  0.11704  0.46185  1.0000
  H   H158      1.0  0.13172  0.47035  0.17995  1.0000
  H   H159      1.0  0.99498  0.04446  0.26954  1.0000
  H   H160      1.0  0.00181  0.01175  0.38337  1.0000
  C   C205      1.0  0.01244  0.00498  0.32622  1.0000
  H   H161      1.0  0.12497  0.06874  0.46000  1.0000
  S   S31       1.0  0.03043  0.34145  0.01601  1.0000
  H   H162      1.0  0.06741  0.00000  0.35682  1.0000
  C   C206      1.0  0.18063  0.11070  0.39847  1.0000
  C   C207      1.0  0.12716  0.11612  0.42727  1.0000
  C   C208      1.0  0.02438  0.26813  0.25449  1.0000
  H   H163      1.0  0.14046  0.35708  0.03051  1.0000
  C   C209      1.0  0.01831  0.19367  0.36076  1.0000
  H   H164      1.0  0.16563  0.32866  0.04714  1.0000
  H   H165      1.0  0.09927  0.44109  0.99150  1.0000
  H   H166      1.0  0.00086  0.00391  0.47547  1.0000
  H   H167      1.0  0.12296  0.08677  0.42345  1.0000
  C   C210      1.0  0.99406  0.16224  0.01135  1.0000
  H   H168      1.0  0.02192  0.09276  0.45174  1.0000
  H   H169      1.0  0.10774  0.44852  0.09034  1.0000
  C   C211      1.0  0.99669  0.22591  0.08090  1.0000
  H   H170      1.0  0.18858  0.40129  0.09191  1.0000
  H   H171      1.0  0.16664  0.13295  0.27688  1.0000
  P   P6        1.0  0.07605  0.23118  0.00240  1.0000
  C   C212      1.0  0.02699  0.37551  0.05917  1.0000
  C   C213      1.0  0.02852  0.28227  0.99480  1.0000
  H   H172      1.0  0.00994  0.10488  0.26281  1.0000
  C   C214      1.0  0.08580  0.00397  0.46800  1.0000
  H   H173      1.0  0.18294  0.01023  0.46088  1.0000
  C   C215      1.0  0.03409  0.22296  0.34015  1.0000
  C   C216      1.0  0.04722  0.26916  0.99903  1.0000
  H   H174      1.0  0.13978  0.24598  0.01390  1.0000
  H   H175      1.0  0.18659  0.47176  0.10487  1.0000
  H   H176      1.0  0.17246  0.14062  0.37806  1.0000
  H   H177      1.0  0.02965  0.12495  0.32388  1.0000
  C   C217      1.0  0.99277  0.06120  0.26328  1.0000
  H   H178      1.0  0.00171  0.99691  0.41997  1.0000
  C   C218      1.0  0.01638  0.09075  0.42226  1.0000
  H   H179      1.0  0.01584  0.18940  0.40373  1.0000
  P   P7        1.0  0.18521  0.06305  0.32238  1.0000
  C   C219      1.0  0.00485  0.18555  0.43698  1.0000
  H   H180      1.0  0.99930  0.32281  0.05342  1.0000
  H   H181      1.0  0.01767  0.47606  0.03682  1.0000
  C   C220      1.0  0.99943  0.08365  0.13176  1.0000
  H   H182      1.0  0.11823  0.36543  0.99057  1.0000
  H   H183      1.0  0.02034  0.18289  0.44012  1.0000
  H   H184      1.0  0.02494  0.29849  0.99654  1.0000
  C   C221      1.0  0.01098  0.07844  0.41138  1.0000
  H   H185      1.0  0.15885  0.32172  0.13301  1.0000
  H   H186      1.0  0.00286  0.21076  0.00856  1.0000
  C   C222      1.0  0.17487  0.10270  0.29672  1.0000
  C   C223      1.0  0.17248  0.15601  0.48265  1.0000
  C   C224      1.0  0.99416  0.18368  0.00363  1.0000
  C   C225      1.0  0.18754  0.14768  0.43486  1.0000
  H   H187      1.0  0.15549  0.04298  0.48711  1.0000
  C   C226      1.0  0.05224  0.24828  0.99630  1.0000
  C   C227      1.0  0.03430  0.00401  0.36944  1.0000
  C   C228      1.0  0.02027  0.48936  0.00382  1.0000
  C   C229      1.0  0.09666  0.24557  0.99677  1.0000
  P   P8        1.0  0.16255  0.46287  0.99550  1.0000
  C   C230      1.0  0.99999  0.20759  0.36775  1.0000
  C   C231      1.0  0.14752  0.48548  0.00647  1.0000
  H   H188      1.0  0.12129  0.47094  0.02405  1.0000
  H   H189      1.0  0.99355  0.31956  0.20911  1.0000
  H   H190      1.0  0.18593  0.38482  0.02506  1.0000
  P   P9        1.0  0.99751  0.04360  0.40816  1.0000
  H   H191      1.0  0.18030  0.10086  0.33850  1.0000
  C   C232      1.0  0.18505  0.32727  0.10751  1.0000
  C   C233      1.0  0.18175  0.15666  0.41552  1.0000
  C   C234      1.0  0.12773  0.48498  0.01957  1.0000
  C   C235      1.0  0.09797  0.19175  0.99519  1.0000
  C   C236      1.0  0.18790  0.39749  0.07750  1.0000
  C   C237      1.0  0.03790  0.24048  0.99013  1.0000
  H   H192      1.0  0.18833  0.00124  0.29432  1.0000
  C   C238      1.0  0.19066  0.14067  0.48507  1.0000
  C   C239      1.0  0.11572  0.49165  0.15667  1.0000
  C   C240      1.0  0.08972  0.99213  0.42005  1.0000
  C   C241      1.0  0.14136  0.99235  0.45781  1.0000
  C   C242      1.0  0.06765  0.33154  0.98902  1.0000
  C   C243      1.0  0.16054  0.99206  0.46216  1.0000
  H   H193      1.0  0.08023  0.03408  0.63954  1.0000
  S   S32       1.0  0.14342  0.06412  0.73588  1.0000
  Fe  Fe13      1.0  0.13729  0.17098  0.82591  1.0000
  S   S33       1.0  0.11447  0.15053  0.84424  1.0000
  S   S34       1.0  0.16302  0.17947  0.83550  1.0000
  Fe  Fe14      1.0  0.11966  0.18120  0.78660  1.0000
  S   S35       1.0  0.09519  0.16171  0.80100  1.0000
  S   S36       1.0  0.12665  0.20156  0.75478  1.0000
  Fe  Fe15      1.0  0.09082  0.17581  0.82923  1.0000
  S   S37       1.0  0.05952  0.19142  0.84564  1.0000
  Fe  Fe16      1.0  0.12090  0.13800  0.81463  1.0000
  S   S38       1.0  0.12853  0.10288  0.81654  1.0000
  S   S39       1.0  0.11316  0.19715  0.81348  1.0000
  S   S40       1.0  0.14566  0.15651  0.79773  1.0000
  Fe  Fe17      1.0  0.15189  0.19168  0.60614  1.0000
  S   S41       1.0  0.12460  0.21540  0.59560  1.0000
  H   H194      1.0  0.11312  0.28844  0.96362  1.0000
  Fe  Fe18      1.0  0.12758  0.18087  0.65081  1.0000
  S   S42       1.0  0.09889  0.20420  0.64406  1.0000
  S   S43       1.0  0.12599  0.15887  0.68197  1.0000
  Fe  Fe19      1.0  0.10507  0.19151  0.61462  1.0000
  S   S44       1.0  0.08123  0.17484  0.61074  1.0000
  Fe  Fe20      1.0  0.12121  0.22549  0.62617  1.0000
  S   S45       1.0  0.11902  0.25912  0.62867  1.0000
  S   S46       1.0  0.13295  0.16717  0.62264  1.0000
  S   S47       1.0  0.14942  0.20283  0.63541  1.0000
  Fe  Fe21      1.0  0.02015  0.30658  0.92424  1.0000
  S   S48       1.0  0.03779  0.33071  0.90318  1.0000
  C   C244      1.0  0.16351  0.30579  0.54837  1.0000
  Fe  Fe22      1.0  0.05399  0.27019  0.91115  1.0000
  S   S49       1.0  0.07502  0.29125  0.88996  1.0000
  S   S50       1.0  0.06533  0.23533  0.91583  1.0000
  Fe  Fe23      1.0  0.06527  0.30969  0.91555  1.0000
  S   S51       1.0  0.08590  0.32107  0.92968  1.0000
  Fe  Fe24      1.0  0.04555  0.30993  0.87970  1.0000
  S   S52       1.0  0.04527  0.32033  0.84519  1.0000
  S   S53       1.0  0.04733  0.28659  0.93779  1.0000
  S   S54       1.0  0.02490  0.28772  0.89962  1.0000
  C   C245      1.0  0.19073  0.04335  0.59566  1.0000
  S   S55       1.0  0.04015  0.12581  0.53897  1.0000
  H   H195      1.0  0.13686  0.02891  0.90439  1.0000
  Fe  Fe25      1.0  0.03411  0.12332  0.50866  1.0000
  H   H196      1.0  0.05062  0.44015  0.85427  1.0000
  S   S56       1.0  0.03711  0.45080  0.76739  1.0000
  Fe  Fe26      1.0  0.01971  0.43920  0.79959  1.0000
  S   S57       1.0  0.03598  0.41825  0.82485  1.0000
  S   S58       1.0  0.00757  0.47087  0.80781  1.0000
  H   H197      1.0  0.03040  0.48898  0.70905  1.0000
  Fe  Fe27      1.0  0.18200  0.29489  0.69402  1.0000
  S   S59       1.0  0.16748  0.32924  0.68784  1.0000
  S   S60       1.0  0.16913  0.26711  0.69357  1.0000
  H   H198      1.0  0.13465  0.04587  0.52909  1.0000
  S   S61       1.0  0.15814  0.34783  0.74122  1.0000
  C   C246      1.0  0.15596  0.47625  0.70757  1.0000
  H   H199      1.0  0.16607  0.45959  0.88640  1.0000
  C   C247      1.0  0.04090  0.30374  0.70584  1.0000
  Fe  Fe28      1.0  0.14724  0.44730  0.81088  1.0000
  H   H200      1.0  0.01023  0.25265  0.84335  1.0000
  C   C248      1.0  0.17121  0.36241  0.75010  1.0000
  C   C249      1.0  0.15990  0.37758  0.76197  1.0000
  H   H201      1.0  0.12782  0.34673  0.95259  1.0000
  C   C250      1.0  0.09695  0.45934  0.80896  1.0000
  H   H202      1.0  0.14306  0.38015  0.76590  1.0000
  C   C251      1.0  0.07838  0.45334  0.81020  1.0000
  C   C252      1.0  0.06396  0.46604  0.79836  1.0000
  H   H203      1.0  0.07519  0.43861  0.82011  1.0000
  H   H204      1.0  0.04991  0.46088  0.79956  1.0000
  C   C253      1.0  0.04509  0.34723  0.83740  1.0000
  C   C254      1.0  0.05263  0.35694  0.84911  1.0000
  C   C255      1.0  0.05001  0.37880  0.84476  1.0000
  C   C256      1.0  0.03990  0.39099  0.82867  1.0000
  C   C257      1.0  0.03308  0.38131  0.81630  1.0000
  C   C258      1.0  0.03588  0.35931  0.82057  1.0000
  H   H205      1.0  0.06009  0.34765  0.86183  1.0000
  H   H206      1.0  0.05533  0.38631  0.85426  1.0000
  H   H207      1.0  0.02530  0.39077  0.80384  1.0000
  C   C259      1.0  0.18631  0.04246  0.49019  1.0000
  C   C260      1.0  0.07063  0.32821  0.95320  1.0000
  C   C261      1.0  0.04889  0.33399  0.95582  1.0000
  C   C262      1.0  0.09788  0.06222  0.49883  1.0000
  C   C263      1.0  0.12343  0.01329  0.59510  1.0000
  C   C264      1.0  0.08389  0.21522  0.96600  1.0000
  C   C265      1.0  0.08001  0.32744  0.96973  1.0000
  H   H208      1.0  0.04141  0.33465  0.94325  1.0000
  H   H209      1.0  0.17985  0.38608  0.69526  1.0000
  C   C266      1.0  0.11812  0.11189  0.54585  1.0000
  H   H210      1.0  0.09674  0.32313  0.96792  1.0000
  C   C267      1.0  0.06985  0.17747  0.58899  1.0000
  C   C268      1.0  0.05867  0.16235  0.58934  1.0000
  C   C269      1.0  0.04883  0.16402  0.57274  1.0000
  C   C270      1.0  0.04986  0.18103  0.55571  1.0000
  C   C271      1.0  0.17409  0.12798  0.52111  1.0000
  C   C272      1.0  0.07150  0.19410  0.57165  1.0000
  H   H211      1.0  0.05728  0.14947  0.60271  1.0000
  H   H212      1.0  0.03992  0.15250  0.57341  1.0000
  Fe  Fe29      1.0  0.00733  0.45528  0.75657  1.0000
  C   C273      1.0  0.13267  0.26174  0.64682  1.0000
  C   C274      1.0  0.13660  0.24539  0.66377  1.0000
  C   C275      1.0  0.14732  0.24769  0.67808  1.0000
  C   C276      1.0  0.15475  0.26601  0.67545  1.0000
  C   C277      1.0  0.15056  0.28261  0.65874  1.0000
  C   C278      1.0  0.13922  0.28058  0.64469  1.0000
  H   H213      1.0  0.13105  0.23106  0.66612  1.0000
  H   H214      1.0  0.15012  0.23510  0.69119  1.0000
  H   H215      1.0  0.15597  0.29692  0.65670  1.0000
  H   H216      1.0  0.13570  0.29357  0.63210  1.0000
  C   C279      1.0  0.06185  0.20464  0.86404  1.0000
  C   C280      1.0  0.07952  0.19871  0.87296  1.0000
  C   C281      1.0  0.08047  0.20823  0.88888  1.0000
  C   C282      1.0  0.06415  0.22432  0.89529  1.0000
  C   C283      1.0  0.04679  0.23077  0.88587  1.0000
  C   C284      1.0  0.04550  0.22067  0.87050  1.0000
  H   H217      1.0  0.09216  0.18630  0.86808  1.0000
  H   H218      1.0  0.09391  0.20314  0.89616  1.0000
  C   C285      1.0  0.05336  0.43298  0.86996  1.0000
  H   H219      1.0  0.03176  0.22509  0.86377  1.0000
  C   C286      1.0  0.12589  0.18973  0.73474  1.0000
  C   C287      1.0  0.11258  0.17584  0.73809  1.0000
  C   C288      1.0  0.11226  0.16666  0.72166  1.0000
  C   C289      1.0  0.12506  0.17161  0.70191  1.0000
  C   C290      1.0  0.13774  0.18610  0.69843  1.0000
  C   C291      1.0  0.13848  0.19478  0.71498  1.0000
  H   H220      1.0  0.10274  0.17196  0.75334  1.0000
  H   H221      1.0  0.10243  0.15544  0.72436  1.0000
  H   H222      1.0  0.14744  0.19007  0.68315  1.0000
  H   H223      1.0  0.14921  0.20494  0.71273  1.0000
  C   C292      1.0  0.13967  0.07487  0.75828  1.0000
  C   C293      1.0  0.15645  0.07452  0.76702  1.0000
  C   C294      1.0  0.15309  0.08386  0.78440  1.0000
  C   C295      1.0  0.13298  0.09369  0.79311  1.0000
  C   C296      1.0  0.11620  0.09400  0.78440  1.0000
  C   C297      1.0  0.11953  0.08455  0.76711  1.0000
  C   C298      1.0  0.01322  0.42098  0.98117  1.0000
  H   H224      1.0  0.16605  0.08309  0.79133  1.0000
  H   H225      1.0  0.10059  0.10117  0.79128  1.0000
  H   H226      1.0  0.10647  0.08487  0.76047  1.0000
  H   H227      1.0  0.13605  0.29252  0.59807  1.0000
  H   H228      1.0  0.03403  0.24296  0.89099  1.0000
  Fe  Fe30      1.0  0.17616  0.47408  0.78111  1.0000
  C   C299      1.0  0.09252  0.19974  0.95395  1.0000
  C   C300      1.0  0.17058  0.13826  0.85558  1.0000
  C   C301      1.0  0.00133  0.26832  0.84456  1.0000
  P   P10       1.0  0.13268  0.48739  0.91030  1.0000
  H   H229      1.0  0.03144  0.39607  0.96488  1.0000
  H   H230      1.0  0.15423  0.13879  0.85701  1.0000
  H   H231      1.0  0.17697  0.10551  0.87034  1.0000
  H   H232      1.0  0.06245  0.40509  0.92589  1.0000
  C   C302      1.0  0.11255  0.41234  0.78779  1.0000
  H   H233      1.0  0.13282  0.02725  0.71695  1.0000
  H   H234      1.0  0.09877  0.01669  0.57909  1.0000
  C   C303      1.0  0.08163  0.26365  0.81190  1.0000
  H   H235      1.0  0.12418  0.10975  0.55982  1.0000
  H   H236      1.0  0.04902  0.23884  0.74224  1.0000
  C   C304      1.0  0.01690  0.30605  0.73926  1.0000
  H   H237      1.0  0.16360  0.22791  0.57794  1.0000
  C   C305      1.0  0.17748  0.31794  0.83085  1.0000
  Fe  Fe31      1.0  0.02409  0.48253  0.77526  1.0000
  H   H238      1.0  0.14225  0.22090  0.78140  1.0000
  S   S62       1.0  0.11462  0.44262  0.82398  1.0000
  H   H239      1.0  0.04256  0.33904  0.66965  1.0000
  C   C306      1.0  0.14287  0.03879  0.81386  1.0000
  H   H240      1.0  0.14787  0.05048  0.92296  1.0000
  H   H241      1.0  0.04986  0.30385  0.73443  1.0000
  C   C307      1.0  0.16286  0.45147  0.90256  1.0000
  H   H242      1.0  0.10060  0.09029  0.70468  1.0000
  H   H243      1.0  0.07452  0.31371  0.75932  1.0000
  C   C308      1.0  0.10222  0.11767  0.50988  1.0000
  C   C309      1.0  0.11946  0.10141  0.51339  1.0000
  C   C310      1.0  0.12701  0.09827  0.53179  1.0000
  C   C311      1.0  0.08512  0.12225  0.70490  1.0000
  C   C312      1.0  0.07908  0.14219  0.69290  1.0000
  C   C313      1.0  0.07938  0.09996  0.61595  1.0000
  H   H244      1.0  0.14504  0.02217  0.78966  1.0000
  C   C314      1.0  0.02851  0.46451  0.98097  1.0000
  C   C315      1.0  0.11351  0.08164  0.60121  1.0000
  C   C316      1.0  0.12829  0.29175  0.75423  1.0000
  C   C317      1.0  0.13797  0.27739  0.74126  1.0000
  H   H245      1.0  0.13564  0.30450  0.75364  1.0000
  H   H246      1.0  0.15299  0.27868  0.73125  1.0000
  H   H247      1.0  0.12850  0.28124  0.54095  1.0000
  C   C318      1.0  0.02871  0.00896  0.61545  1.0000
  C   C319      1.0  0.15329  0.02543  0.79992  1.0000
  C   C320      1.0  0.00152  0.47092  0.92398  1.0000
  C   C321      1.0  0.15165  0.48807  0.72306  1.0000
  C   C322      1.0  0.03714  0.30460  0.72713  1.0000
  C   C323      1.0  0.10373  0.18031  0.96250  1.0000
  C   C324      1.0  0.14937  0.12322  0.59497  1.0000
  C   C325      1.0  0.00031  0.30647  0.73027  1.0000
  C   C326      1.0  0.04566  0.48055  0.71192  1.0000
  H   H248      1.0  0.16162  0.40118  0.77785  1.0000
  C   C327      1.0  0.05449  0.34118  0.63653  1.0000
  C   C328      1.0  0.04879  0.48419  0.85245  1.0000
  C   C329      1.0  0.17059  0.08318  0.49779  1.0000
  C   C330      1.0  0.05390  0.33170  0.65771  1.0000
  H   H249      1.0  0.04354  0.35561  0.63223  1.0000
  H   H250      1.0  0.17524  0.33702  0.94013  1.0000
  H   H251      1.0  0.12677  0.33230  0.59294  1.0000
  H   H252      1.0  0.08988  0.39676  0.81103  1.0000
  C   C331      1.0  0.09934  0.27364  0.76793  1.0000
  C   C332      1.0  0.06140  0.19593  0.55516  1.0000
  C   C333      1.0  0.16946  0.41947  0.92842  1.0000
  H   H253      1.0  0.15853  0.34418  0.64647  1.0000
  C   C334      1.0  0.16388  0.32999  0.61989  1.0000
  P   P11       1.0  0.12982  0.08312  0.49586  1.0000
  C   C335      1.0  0.16275  0.36872  0.85837  1.0000
  C   C336      1.0  0.14214  0.37950  0.85832  1.0000
  C   C337      1.0  0.13502  0.39865  0.86493  1.0000
  C   C338      1.0  0.14841  0.40690  0.87187  1.0000
  C   C339      1.0  0.02648  0.08213  0.63262  1.0000
  C   C340      1.0  0.03659  0.33882  0.97484  1.0000
  C   C341      1.0  0.05877  0.41225  0.97998  1.0000
  H   H254      1.0  0.16799  0.35389  0.85329  1.0000
  H   H255      1.0  0.13174  0.37320  0.85287  1.0000
  H   H256      1.0  0.11927  0.40735  0.86424  1.0000
  H   H257      1.0  0.14303  0.42193  0.87663  1.0000
  H   H258      1.0  0.17136  0.22352  0.82550  1.0000
  C   C342      1.0  0.02800  0.48174  0.85929  1.0000
  H   H259      1.0  0.07363  0.23126  0.67355  1.0000
  C   C343      1.0  0.09359  0.23901  0.71178  1.0000
  C   C344      1.0  0.08715  0.26081  0.70919  1.0000
  C   C345      1.0  0.07628  0.27224  0.69331  1.0000
  C   C346      1.0  0.07101  0.26136  0.68080  1.0000
  P   P12       1.0  0.06713  0.30031  0.69052  1.0000
  C   C347      1.0  0.08406  0.31199  0.69884  1.0000
  C   C348      1.0  0.06781  0.31282  0.66332  1.0000
  C   C349      1.0  0.08287  0.30415  0.64758  1.0000
  C   C350      1.0  0.08336  0.31352  0.62645  1.0000
  C   C351      1.0  0.10555  0.30368  0.69553  1.0000
  C   C352      1.0  0.11881  0.31240  0.70207  1.0000
  C   C353      1.0  0.11086  0.32985  0.71150  1.0000
  C   C354      1.0  0.08957  0.33880  0.71407  1.0000
  C   C355      1.0  0.07621  0.33002  0.70759  1.0000
  H   H260      1.0  0.10234  0.23033  0.72378  1.0000
  H   H261      1.0  0.09081  0.26867  0.71952  1.0000
  H   H262      1.0  0.06217  0.26968  0.66880  1.0000
  H   H263      1.0  0.09412  0.28999  0.65164  1.0000
  H   H264      1.0  0.09478  0.30626  0.61446  1.0000
  H   H265      1.0  0.13526  0.30536  0.69990  1.0000
  H   H266      1.0  0.12122  0.33649  0.71668  1.0000
  H   H267      1.0  0.08347  0.35259  0.72100  1.0000
  H   H268      1.0  0.05983  0.33735  0.70935  1.0000
  H   H269      1.0  0.07550  0.23032  0.95897  1.0000
  H   H270      1.0  0.01979  0.34306  0.97676  1.0000
  C   C356      1.0  0.06921  0.41518  0.87267  1.0000
  H   H271      1.0  0.13014  0.45529  0.94973  1.0000
  H   H272      1.0  0.00453  0.31271  0.80502  1.0000
  H   H273      1.0  0.00434  0.39683  0.94630  1.0000
  C   C357      1.0  0.18092  0.10711  0.81609  1.0000
  C   C358      1.0  0.15577  0.28276  0.80669  1.0000
  C   C359      1.0  0.16726  0.12961  0.58151  1.0000
  H   H274      1.0  0.14966  0.41904  0.95893  1.0000
  C   C360      1.0  0.01917  0.25361  0.98603  1.0000
  H   H275      1.0  0.18293  0.00731  0.78728  1.0000
  C   C361      1.0  0.10651  0.17633  0.98310  1.0000
  H   H276      1.0  0.11562  0.01708  0.54345  1.0000
  C   C362      1.0  0.14895  0.30016  0.79162  1.0000
  C   C363      1.0  0.12949  0.31335  0.79634  1.0000
  C   C364      1.0  0.11621  0.30867  0.81579  1.0000
  C   C365      1.0  0.12267  0.29115  0.83075  1.0000
  C   C366      1.0  0.14235  0.27827  0.82627  1.0000
  C   C367      1.0  0.17624  0.24990  0.78327  1.0000
  C   C368      1.0  0.15894  0.24019  0.78938  1.0000
  P   P13       1.0  0.18039  0.26501  0.80014  1.0000
  C   C369      1.0  0.09210  0.02849  0.62693  1.0000
  C   C370      1.0  0.12241  0.47150  0.74138  1.0000
  C   C371      1.0  0.13028  0.28624  0.57074  1.0000
  H   H277      1.0  0.03471  0.43672  0.92128  1.0000
  H   H278      1.0  0.08919  0.05713  0.66309  1.0000
  H   H279      1.0  0.06059  0.47505  0.86124  1.0000
  H   H280      1.0  0.18677  0.42448  0.89651  1.0000
  C   C372      1.0  0.15716  0.07184  0.49485  1.0000
  H   H281      1.0  0.15854  0.30346  0.77606  1.0000
  H   H282      1.0  0.12458  0.32699  0.78470  1.0000
  H   H283      1.0  0.10089  0.31857  0.81932  1.0000
  H   H284      1.0  0.11233  0.28753  0.84582  1.0000
  H   H285      1.0  0.14677  0.26459  0.83795  1.0000
  H   H286      1.0  0.14802  0.24166  0.80404  1.0000
  H   H287      1.0  0.06940  0.33916  0.60448  1.0000
  H   H288      1.0  0.03067  0.46161  0.96537  1.0000
  H   H289      1.0  0.15421  0.05774  0.64794  1.0000
  H   H290      1.0  0.08228  0.11997  0.72184  1.0000
  C   C373      1.0  0.00425  0.19349  0.95744  1.0000
  H   H291      1.0  0.17200  0.35776  0.90484  1.0000
  C   C374      1.0  0.11066  0.02963  0.53098  1.0000
  C   C375      1.0  0.12340  0.03370  0.70506  1.0000
  C   C376      1.0  0.03692  0.03849  0.64542  1.0000
  P   P14       1.0  0.05999  0.03199  0.60610  1.0000
  S   S63       1.0  0.18438  0.18461  0.58679  1.0000
  C   C377      1.0  0.02534  0.18927  0.95871  1.0000
  C   C378      1.0  0.04098  0.18589  0.94107  1.0000
  C   C379      1.0  0.03569  0.18665  0.92212  1.0000
  C   C380      1.0  0.01478  0.19153  0.92052  1.0000
  C   C381      1.0  0.09739  0.26315  0.98017  1.0000
  C   C382      1.0  0.09205  0.25150  0.85167  1.0000
  H   H292      1.0  0.13606  0.25003  0.73129  1.0000
  H   H293      1.0  0.09399  0.21146  0.70077  1.0000
  C   C383      1.0  0.10928  0.28959  0.76792  1.0000
  H   H294      1.0  0.13172  0.42939  0.76212  1.0000
  C   C384      1.0  0.09552  0.10540  0.69505  1.0000
  S   S64       1.0  0.17345  0.42258  0.82184  1.0000
  C   C385      1.0  0.99886  0.43719  0.87608  1.0000
  C   C386      1.0  0.00399  0.30523  0.70918  1.0000
  C   C387      1.0  0.13492  0.48565  0.73999  1.0000
  H   H295      1.0  0.11284  0.45936  0.85856  1.0000
  H   H296      1.0  0.05726  0.18286  0.94198  1.0000
  H   H297      1.0  0.04783  0.18378  0.90853  1.0000
  H   H298      1.0  0.01087  0.19258  0.90559  1.0000
  H   H299      1.0  0.11043  0.16842  0.95305  1.0000
  H   H300      1.0  0.14509  0.30994  0.96359  1.0000
  H   H301      1.0  0.11212  0.29031  0.68803  1.0000
  H   H302      1.0  0.10969  0.46953  0.75474  1.0000
  Fe  Fe32      1.0  0.00915  0.11668  0.55311  1.0000
  H   H303      1.0  0.16445  0.35974  0.57610  1.0000
  C   C388      1.0  0.17242  0.05925  0.89709  1.0000
  H   H304      1.0  0.16894  0.26880  0.60209  1.0000
  C   C389      1.0  0.16236  0.14126  0.74456  1.0000
  C   C390      1.0  0.14535  0.13181  0.74794  1.0000
  C   C391      1.0  0.14283  0.12287  0.73240  1.0000
  C   C392      1.0  0.15753  0.12292  0.71369  1.0000
  C   C393      1.0  0.17451  0.13247  0.71018  1.0000
  H   H305      1.0  0.04772  0.34606  0.75869  1.0000
  C   C394      1.0  0.10134  0.12838  0.54190  1.0000
  C   C395      1.0  0.17461  0.01716  0.79848  1.0000
  C   C396      1.0  0.11306  0.27459  0.97607  1.0000
  H   H306      1.0  0.13388  0.13172  0.76249  1.0000
  H   H307      1.0  0.12930  0.11618  0.73464  1.0000
  H   H308      1.0  0.15541  0.11583  0.70184  1.0000
  H   H309      1.0  0.06254  0.99823  0.56414  1.0000
  H   H310      1.0  0.05440  0.28356  0.82699  1.0000
  H   H311      1.0  0.01179  0.36325  0.87382  1.0000
  C   C397      1.0  0.12465  0.05356  0.69250  1.0000
  H   H312      1.0  0.00182  0.34812  0.84900  1.0000
  C   C398      1.0  0.04391  0.04796  0.62446  1.0000
  C   C399      1.0  0.03884  0.06990  0.61825  1.0000
  C   C400      1.0  0.06456  0.23113  0.79579  1.0000
  C   C401      1.0  0.15337  0.42825  0.94324  1.0000
  C   C402      1.0  0.15583  0.14277  0.51830  1.0000
  H   H313      1.0  0.15800  0.29861  0.52108  1.0000
  C   C403      1.0  0.17425  0.48970  0.95681  1.0000
  C   C404      1.0  0.18019  0.22720  0.57367  1.0000
  C   C405      1.0  0.06855  0.27215  0.82882  1.0000
  H   H314      1.0  0.00828  0.24757  0.98116  1.0000
  C   C406      1.0  0.99727  0.45589  0.88262  1.0000
  H   H315      1.0  0.11782  0.27811  0.57960  1.0000
  H   H316      1.0  0.17301  0.11760  0.66402  1.0000
  P   P15       1.0  0.11534  0.08734  0.66007  1.0000
  C   C407      1.0  0.07370  0.26598  0.84860  1.0000
  C   C408      1.0  0.05843  0.04627  0.57963  1.0000
  C   C409      1.0  0.07150  0.06063  0.56936  1.0000
  C   C410      1.0  0.06935  0.07302  0.54961  1.0000
  C   C411      1.0  0.05430  0.07099  0.53985  1.0000
  C   C412      1.0  0.04170  0.05629  0.54960  1.0000
  C   C413      1.0  0.04361  0.04407  0.56948  1.0000
  H   H317      1.0  0.17200  0.06692  0.76055  1.0000
  H   H318      1.0  0.00339  0.31109  0.86119  1.0000
  H   H319      1.0  0.99630  0.07181  0.56036  1.0000
  H   H320      1.0  0.04509  0.45423  0.69959  1.0000
  H   H321      1.0  0.04377  0.07767  0.60218  1.0000
  H   H322      1.0  0.13542  0.00673  0.58307  1.0000
  H   H323      1.0  0.17687  0.26047  0.56184  1.0000
  C   C414      1.0  0.11429  0.47326  0.86292  1.0000
  C   C415      1.0  0.17647  0.37724  0.86472  1.0000
  C   C416      1.0  0.15585  0.04903  0.90710  1.0000
  C   C417      1.0  0.05522  0.29442  0.78344  1.0000
  H   H324      1.0  0.11924  0.23140  0.83739  1.0000
  C   C418      1.0  0.15818  0.07151  0.65021  1.0000
  H   H325      1.0  0.09583  0.24666  0.86712  1.0000
  H   H326      1.0  0.08304  0.06256  0.57683  1.0000
  H   H327      1.0  0.07911  0.08443  0.54192  1.0000
  H   H328      1.0  0.05244  0.08081  0.52467  1.0000
  H   H329      1.0  0.03001  0.05477  0.54201  1.0000
  H   H330      1.0  0.14573  0.05529  0.83607  1.0000
  C   C419      1.0  0.19043  0.18058  0.68425  1.0000
  Fe  Fe33      1.0  0.02198  0.15861  0.53229  1.0000
  H   H331      1.0  0.04112  0.22429  0.98855  1.0000
  H   H332      1.0  0.10225  0.30036  0.77850  1.0000
  C   C420      1.0  0.12633  0.45983  0.72571  1.0000
  C   C421      1.0  0.14335  0.46221  0.70883  1.0000
  P   P16       1.0  0.10913  0.44255  0.72718  1.0000
  C   C422      1.0  0.10374  0.42713  0.75348  1.0000
  C   C423      1.0  0.08456  0.45783  0.72072  1.0000
  C   C424      1.0  0.12841  0.26125  0.74136  1.0000
  P   P17       1.0  0.02034  0.46410  0.88368  1.0000
  C   C425      1.0  0.08565  0.41868  0.76046  1.0000
  C   C426      1.0  0.08080  0.40763  0.78109  1.0000
  C   C427      1.0  0.09412  0.40463  0.79482  1.0000
  C   C428      1.0  0.11743  0.42347  0.76716  1.0000
  C   C429      1.0  0.12068  0.42517  0.70885  1.0000
  C   C430      1.0  0.12806  0.40363  0.71589  1.0000
  C   C431      1.0  0.13588  0.39026  0.70154  1.0000
  C   C432      1.0  0.13674  0.39827  0.68011  1.0000
  C   C433      1.0  0.12966  0.41972  0.67296  1.0000
  C   C434      1.0  0.12158  0.43310  0.68726  1.0000
  C   C435      1.0  0.10929  0.25917  0.75486  1.0000
  C   C436      1.0  0.08881  0.22836  0.69888  1.0000
  C   C437      1.0  0.05266  0.21774  0.77165  1.0000
  S   S65       1.0  0.03648  0.18450  0.53522  1.0000
  H   H333      1.0  0.14707  0.45325  0.69666  1.0000
  C   C438      1.0  0.18923  0.29096  0.59626  1.0000
  H   H334      1.0  0.08450  0.39107  0.89493  1.0000
  H   H335      1.0  0.07497  0.42101  0.75019  1.0000
  H   H336      1.0  0.06635  0.40195  0.78667  1.0000
  H   H337      1.0  0.12769  0.39701  0.73240  1.0000
  H   H338      1.0  0.14136  0.37364  0.70705  1.0000
  H   H339      1.0  0.14292  0.38784  0.66908  1.0000
  H   H340      1.0  0.13026  0.42595  0.65635  1.0000
  H   H341      1.0  0.11585  0.44966  0.68154  1.0000
  C   C439      1.0  0.14070  0.29444  0.58123  1.0000
  H   H342      1.0  0.06328  0.27233  0.86163  1.0000
  H   H343      1.0  0.06904  0.22845  0.81074  1.0000
  C   C440      1.0  0.15294  0.29774  0.53785  1.0000
  C   C441      1.0  0.12039  0.08038  0.61951  1.0000
  C   C442      1.0  0.16488  0.14844  0.56650  1.0000
  C   C443      1.0  0.14501  0.16020  0.56453  1.0000
  C   C444      1.0  0.12735  0.15315  0.57722  1.0000
  C   C445      1.0  0.12949  0.13476  0.59256  1.0000
  C   C446      1.0  0.09311  0.09173  0.59932  1.0000
  C   C447      1.0  0.17699  0.14197  0.72554  1.0000
  H   H344      1.0  0.14329  0.17497  0.55329  1.0000
  H   H345      1.0  0.11202  0.16237  0.57562  1.0000
  H   H346      1.0  0.11566  0.13003  0.60307  1.0000
  H   H347      1.0  0.14451  0.00992  0.61546  1.0000
  H   H348      1.0  0.07324  0.04604  0.50172  1.0000
  H   H349      1.0  0.12276  0.41025  0.79852  1.0000
  C   C448      1.0  0.18942  0.24853  0.76355  1.0000
  H   H350      1.0  0.17348  0.14216  0.61367  1.0000
  C   C449      1.0  0.05651  0.99588  0.50565  1.0000
  C   C450      1.0  0.99584  0.48230  0.93998  1.0000
  C   C451      1.0  0.05820  0.21499  0.79093  1.0000
  H   H351      1.0  0.12040  0.35615  0.64806  1.0000
  C   C452      1.0  0.15551  0.22849  0.77658  1.0000
  C   C453      1.0  0.05950  0.31311  0.76960  1.0000
  H   H352      1.0  0.99554  0.06629  0.50221  1.0000
  H   H353      1.0  0.18567  0.30999  0.78562  1.0000
  C   C454      1.0  0.15884  0.32977  0.82520  1.0000
  C   C455      1.0  0.14016  0.32993  0.84004  1.0000
  C   C456      1.0  0.14012  0.31830  0.86048  1.0000
  C   C457      1.0  0.15893  0.30722  0.86656  1.0000
  S   S66       1.0  0.99546  0.48841  0.76159  1.0000
  P   P18       1.0  0.15851  0.29295  0.89334  1.0000
  C   C458      1.0  0.18684  0.34776  0.90709  1.0000
  C   C459      1.0  0.14889  0.31035  0.91187  1.0000
  C   C460      1.0  0.13945  0.33153  0.90573  1.0000
  C   C461      1.0  0.13180  0.34455  0.92039  1.0000
  C   C462      1.0  0.13374  0.33666  0.94123  1.0000
  C   C463      1.0  0.14342  0.31578  0.94743  1.0000
  C   C464      1.0  0.15096  0.30263  0.93286  1.0000
  C   C465      1.0  0.14213  0.27426  0.89755  1.0000
  C   C466      1.0  0.12501  0.27312  0.91445  1.0000
  C   C467      1.0  0.11300  0.25799  0.91767  1.0000
  C   C468      1.0  0.11797  0.24404  0.90405  1.0000
  C   C469      1.0  0.13471  0.24538  0.88695  1.0000
  C   C470      1.0  0.14668  0.26052  0.88363  1.0000
  C   C471      1.0  0.99360  0.43444  0.98476  1.0000
  H   H354      1.0  0.15884  0.33863  0.80927  1.0000
  H   H355      1.0  0.12563  0.33885  0.83562  1.0000
  H   H356      1.0  0.12540  0.31817  0.87169  1.0000
  H   H357      1.0  0.02330  0.27571  0.85834  1.0000
  C   C472      1.0  0.15376  0.04386  0.82635  1.0000
  C   C473      1.0  0.07602  0.47761  0.72606  1.0000
  C   C474      1.0  0.18554  0.02229  0.81084  1.0000
  H   H358      1.0  0.15827  0.28642  0.93800  1.0000
  C   C475      1.0  0.08681  0.02620  0.60888  1.0000
  H   H359      1.0  0.12075  0.28390  0.92507  1.0000
  H   H360      1.0  0.09967  0.25724  0.93062  1.0000
  H   H361      1.0  0.10876  0.23225  0.90667  1.0000
  H   H362      1.0  0.13846  0.23457  0.87638  1.0000
  H   H363      1.0  0.15978  0.26124  0.87046  1.0000
  C   C476      1.0  0.15507  0.15684  0.49914  1.0000
  H   H364      1.0  0.16612  0.05367  0.57830  1.0000
  C   C477      1.0  0.09338  0.02954  0.52335  1.0000
  C   C478      1.0  0.02421  0.48523  0.98373  1.0000
  C   C479      1.0  0.18387  0.45252  0.95696  1.0000
  H   H365      1.0  0.13985  0.27777  0.98593  1.0000
  C   C480      1.0  0.09900  0.39748  0.95802  1.0000
  C   C481      1.0  0.09200  0.41892  0.95800  1.0000
  C   C482      1.0  0.07197  0.42632  0.96891  1.0000
  C   C483      1.0  0.13006  0.34793  0.63592  1.0000
  H   H366      1.0  0.16570  0.21847  0.74704  1.0000
  H   H367      1.0  0.17414  0.48965  0.88234  1.0000
  C   C484      1.0  0.99651  0.35947  0.87727  1.0000
  C   C485      1.0  0.11293  0.02299  0.62907  1.0000
  C   C486      1.0  0.18845  0.33576  0.92714  1.0000
  C   C487      1.0  0.08629  0.21118  0.98685  1.0000
  H   H368      1.0  0.16486  0.09918  0.50000  1.0000
  C   C488      1.0  0.17969  0.08762  0.82934  1.0000
  H   H369      1.0  0.18114  0.20178  0.85797  1.0000
  H   H370      1.0  0.11697  0.02403  0.64327  1.0000
  H   H371      1.0  0.11466  0.39169  0.94989  1.0000
  H   H372      1.0  0.10221  0.42977  0.94966  1.0000
  C   C489      1.0  0.17889  0.15625  0.84608  1.0000
  H   H373      1.0  0.10475  0.35037  0.62099  1.0000
  C   C490      1.0  0.12104  0.47146  0.88139  1.0000
  H   H374      1.0  0.01902  0.04340  0.67587  1.0000
  H   H375      1.0  0.04080  0.02160  0.65059  1.0000
  C   C491      1.0  0.05029  0.00808  0.61113  1.0000
  C   C492      1.0  0.00142  0.40745  0.95692  1.0000
  H   H376      1.0  0.16754  0.08687  0.84336  1.0000
  H   H377      1.0  0.10940  0.00669  0.71192  1.0000
  H   H378      1.0  0.17484  0.11742  0.53613  1.0000
  C   C493      1.0  0.02423  0.30369  0.69703  1.0000
  C   C494      1.0  0.10680  0.08905  0.63616  1.0000
  C   C495      1.0  0.12125  0.34460  0.62071  1.0000
  H   H379      1.0  0.12660  0.04611  0.81421  1.0000
  H   H380      1.0  0.13770  0.33822  0.88981  1.0000
  C   C496      1.0  0.15013  0.34890  0.98604  1.0000
  H   H381      1.0  0.17794  0.24760  0.90490  1.0000
  C   C497      1.0  0.18445  0.27908  0.89691  1.0000
  C   C498      1.0  0.09340  0.13124  0.52394  1.0000
  H   H382      1.0  0.08374  0.48423  0.73424  1.0000
  C   C499      1.0  0.11257  0.06218  0.67704  1.0000
  C   C500      1.0  0.06909  0.33198  0.62089  1.0000
  C   C501      1.0  0.04417  0.33154  0.76889  1.0000
  S   S67       1.0  0.18676  0.03758  0.69339  1.0000
  C   C502      1.0  0.05309  0.23680  0.75729  1.0000
  C   C503      1.0  0.17909  0.07135  0.64925  1.0000
  C   C504      1.0  0.15982  0.03520  0.87604  1.0000
  C   C505      1.0  0.17885  0.35409  0.56590  1.0000
  H   H383      1.0  0.01285  0.34588  0.78172  1.0000
  C   C506      1.0  0.10097  0.47843  0.79595  1.0000
  H   H384      1.0  0.07499  0.10456  0.64721  1.0000
  H   H385      1.0  0.16912  0.47799  0.69461  1.0000
  H   H386      1.0  0.07158  0.15535  0.70051  1.0000
  H   H387      1.0  0.14099  0.16856  0.49713  1.0000
  H   H388      1.0  0.08015  0.14386  0.52103  1.0000
  H   H389      1.0  0.11535  0.48320  0.79498  1.0000
  C   C507      1.0  0.15143  0.34098  0.63524  1.0000
  H   H390      1.0  0.06710  0.44292  0.96885  1.0000
  C   C508      1.0  0.14820  0.10557  0.65989  1.0000
  C   C509      1.0  0.01685  0.40716  0.96748  1.0000
  H   H391      1.0  0.08006  0.20583  0.57119  1.0000
  S   S68       1.0  0.15899  0.47412  0.81436  1.0000
  H   H392      1.0  0.12398  0.07478  0.58851  1.0000
  C   C510      1.0  0.10266  0.01882  0.59291  1.0000
  H   H393      1.0  0.09844  0.13176  0.64413  1.0000
  C   C511      1.0  0.09425  0.12864  0.66111  1.0000
  C   C512      1.0  0.08701  0.04579  0.50723  1.0000
  P   P19       1.0  0.17188  0.31343  0.58416  1.0000
  C   C513      1.0  0.07740  0.23953  0.68350  1.0000
  C   C514      1.0  0.99301  0.07500  0.59212  1.0000
  H   H394      1.0  0.11039  0.24243  0.80224  1.0000
  C   C515      1.0  0.07320  0.44951  0.71113  1.0000
  C   C516      1.0  0.09889  0.05076  0.67465  1.0000
  C   C517      1.0  0.02442  0.33143  0.78175  1.0000
  H   H395      1.0  0.07870  0.40910  0.85906  1.0000
  C   C518      1.0  0.00870  0.28130  0.85296  1.0000
  H   H396      1.0  0.09539  0.11981  0.49637  1.0000
  H   H397      1.0  0.13623  0.07261  0.62056  1.0000
  C   C519      1.0  0.13636  0.28792  0.54903  1.0000
  H   H398      1.0  0.02689  0.30217  0.68086  1.0000
  H   H399      1.0  0.15080  0.10945  0.60746  1.0000
  H   H400      1.0  0.03313  0.03337  0.57693  1.0000
  H   H401      1.0  0.08743  0.02186  0.68517  1.0000
  H   H402      1.0  0.99507  0.45712  0.92622  1.0000
  H   H403      1.0  0.17929  0.40322  0.87667  1.0000
  C   C520      1.0  0.11012  0.02222  0.70230  1.0000
  C   C521      1.0  0.18345  0.11942  0.86322  1.0000
  Fe  Fe34      1.0  0.18662  0.44978  0.82263  1.0000
  H   H404      1.0  0.01411  0.30662  0.75570  1.0000
  H   H405      1.0  0.06350  0.10766  0.61454  1.0000
  H   H406      1.0  0.19062  0.02680  0.59797  1.0000
  Fe  Fe35      1.0  0.17569  0.04559  0.72550  1.0000
  H   H407      1.0  0.13506  0.06218  0.69496  1.0000
  C   C522      1.0  0.10527  0.24307  0.83490  1.0000
  C   C523      1.0  0.10013  0.24922  0.81507  1.0000
  C   C524      1.0  0.13376  0.33407  0.60497  1.0000
  S   S69       1.0  0.16152  0.44951  0.77677  1.0000
  H   H408      1.0  0.13965  0.08528  0.53533  1.0000
  S   S70       1.0  0.01788  0.15679  0.50063  1.0000
  H   H409      1.0  0.07886  0.43398  0.70757  1.0000
  C   C525      1.0  0.01451  0.27452  0.98825  1.0000
  S   S71       1.0  0.15970  0.37128  0.97121  1.0000
  H   H410      1.0  0.06226  0.20913  0.54205  1.0000
  C   C526      1.0  0.17417  0.46895  0.96778  1.0000
  C   C527      1.0  0.18262  0.05753  0.87657  1.0000
  C   C528      1.0  0.03500  0.29427  0.79552  1.0000
  C   C529      1.0  0.17035  0.38951  0.76869  1.0000
  C   C530      1.0  0.09987  0.10839  0.67305  1.0000
  C   C531      1.0  0.16532  0.05165  0.49043  1.0000
  H   H411      1.0  0.08472  0.01709  0.53030  1.0000
  C   C532      1.0  0.99908  0.19511  0.93806  1.0000
  C   C533      1.0  0.09778  0.03078  0.68719  1.0000
  Fe  Fe36      1.0  0.17872  0.33076  0.71600  1.0000
  P   P20       1.0  0.07512  0.27069  0.78623  1.0000
  C   C534      1.0  0.08607  0.09838  0.63439  1.0000
  H   H412      1.0  0.08571  0.26829  0.97053  1.0000
  H   H413      1.0  0.08783  0.09323  0.58501  1.0000
  H   H414      1.0  0.17656  0.17937  0.75205  1.0000
  H   H415      1.0  0.09066  0.20282  0.93788  1.0000
  H   H416      1.0  0.18012  0.32786  0.98369  1.0000
  C   C535      1.0  0.01978  0.31276  0.79492  1.0000
  C   C536      1.0  0.07250  0.40513  0.89281  1.0000
  S   S72       1.0  0.00495  0.09685  0.58577  1.0000
  H   H417      1.0  0.16698  0.09125  0.57227  1.0000
  C   C537      1.0  0.14252  0.08869  0.65547  1.0000
  H   H418      1.0  0.09133  0.36677  0.96905  1.0000
  C   C538      1.0  0.14241  0.44888  0.93794  1.0000
  Fe  Fe37      1.0  0.18876  0.42691  0.78791  1.0000
  C   C539      1.0  0.12341  0.48939  0.88688  1.0000
  C   C540      1.0  0.08361  0.14536  0.67102  1.0000
  H   H419      1.0  0.10273  0.24593  0.75530  1.0000
  H   H420      1.0  0.03124  0.27995  0.80597  1.0000
  C   C541      1.0  0.14963  0.03692  0.89661  1.0000
  C   C542      1.0  0.18628  0.33248  0.56637  1.0000
  H   H421      1.0  0.12415  0.36071  0.91564  1.0000
  C   C543      1.0  0.04431  0.43101  0.90757  1.0000
  H   H422      1.0  0.06002  0.26750  0.75072  1.0000
  C   C544      1.0  0.06537  0.25019  0.78127  1.0000
  C   C545      1.0  0.12856  0.01522  0.61326  1.0000
  C   C546      1.0  0.17612  0.04586  0.86576  1.0000
  C   C547      1.0  0.01460  0.47787  0.90494  1.0000
  H   H423      1.0  0.07957  0.16095  0.66165  1.0000
  C   C548      1.0  0.17759  0.30675  0.85143  1.0000
  C   C549      1.0  0.06005  0.41304  0.91026  1.0000
  C   C550      1.0  0.05931  0.25301  0.76214  1.0000
  H   H424      1.0  0.15495  0.02558  0.86825  1.0000
  H   H425      1.0  0.01387  0.42737  0.87136  1.0000
  C   C551      1.0  0.12149  0.04598  0.52269  1.0000
  H   H426      1.0  0.16023  0.00133  0.68907  1.0000
  C   C552      1.0  0.16903  0.10501  0.65951  1.0000
  H   H427      1.0  0.16385  0.14791  0.75688  1.0000
  H   H428      1.0  0.13663  0.11885  0.66457  1.0000
  S   S73       1.0  0.99319  0.99886  0.55832  1.0000
  C   C553      1.0  0.17733  0.07982  0.58147  1.0000
  C   C554      1.0  0.15508  0.32605  0.60488  1.0000
  H   H429      1.0  0.09426  0.13889  0.55281  1.0000
  H   H430      1.0  0.12448  0.45606  0.89120  1.0000
  H   H431      1.0  0.05784  0.20019  0.80206  1.0000
  C   C555      1.0  0.18357  0.27123  0.60367  1.0000
  C   C556      1.0  0.18773  0.24570  0.56452  1.0000
  S   S74       1.0  0.00671  0.44442  0.72776  1.0000
  C   C557      1.0  0.18951  0.25700  0.90219  1.0000
  C   C558      1.0  0.11544  0.06221  0.50626  1.0000
  H   H432      1.0  0.04820  0.20499  0.76783  1.0000
  C   C559      1.0  0.18627  0.21660  0.85145  1.0000
  C   C560      1.0  0.16885  0.22698  0.75721  1.0000
  C   C561      1.0  0.14723  0.46084  0.91757  1.0000
  C   C562      1.0  0.15745  0.30426  0.57021  1.0000
  S   S75       1.0  0.00512  0.11040  0.52335  1.0000
  H   H433      1.0  0.18045  0.32486  0.61964  1.0000
  H   H434      1.0  0.01782  0.02381  0.61613  1.0000
  H   H435      1.0  0.17815  0.15442  0.55644  1.0000
  H   H436      1.0  0.18244  0.39558  0.65659  1.0000
  C   C563      1.0  0.04092  0.44117  0.88736  1.0000
  H   H437      1.0  0.02190  0.09898  0.62738  1.0000
  H   H438      1.0  0.17021  0.12100  0.82038  1.0000
  C   C564      1.0  0.19117  0.08622  0.58987  1.0000
  C   C565      1.0  0.05671  0.48892  0.72158  1.0000
  C   C566      1.0  0.02466  0.05079  0.65980  1.0000
  H   H439      1.0  0.14233  0.14362  0.53104  1.0000
  S   S76       1.0  0.18524  0.01248  0.74255  1.0000
  C   C567      1.0  0.08594  0.38343  0.96889  1.0000
  C   C568      1.0  0.18924  0.19966  0.66972  1.0000
  H   H440      1.0  0.17674  0.31261  0.53943  1.0000
  C   C569      1.0  0.99732  0.30158  0.85443  1.0000
  C   C570      1.0  0.12820  0.26849  0.98838  1.0000
  C   C571      1.0  0.17691  0.05851  0.58465  1.0000
  C   C572      1.0  0.17422  0.43111  0.90808  1.0000
  H   H441      1.0  0.19103  0.05777  0.64595  1.0000
  C   C573      1.0  0.05396  0.46090  0.70661  1.0000
  H   H442      1.0  0.02995  0.35177  0.81161  1.0000
  C   C574      1.0  0.18072  0.22911  0.83286  1.0000
  H   H443      1.0  0.18348  0.43638  0.96468  1.0000
  H   H444      1.0  0.17820  0.40363  0.93276  1.0000
  H   H445      1.0  0.00953  0.08212  0.66438  1.0000
  C   C575      1.0  0.01937  0.07261  0.65338  1.0000
  C   C576      1.0  0.16905  0.39627  0.87176  1.0000
  H   H446      1.0  0.02980  0.18864  0.97323  1.0000
  C   C577      1.0  0.17509  0.03520  0.82531  1.0000
  H   H447      1.0  0.18432  0.38536  0.55201  1.0000
  C   C578      1.0  0.06759  0.48519  0.78547  1.0000
  H   H448      1.0  0.18669  0.16743  0.68050  1.0000
  H   H449      1.0  0.17739  0.06864  0.90510  1.0000
  P   P21       1.0  0.18959  0.04398  0.83930  1.0000
  S   S77       1.0  0.19014  0.29605  0.72405  1.0000
  C   C579      1.0  0.18757  0.24814  0.82401  1.0000
  C   C580      1.0  0.18451  0.08801  0.65406  1.0000
  C   C581      1.0  0.18567  0.23714  0.75062  1.0000
  H   H450      1.0  0.18446  0.20113  0.65515  1.0000
  H   H451      1.0  0.00005  0.28473  0.98492  1.0000
  H   H452      1.0  0.18306  0.18219  0.78567  1.0000
  C   C582      1.0  0.18906  0.13486  0.61603  1.0000
  H   H453      1.0  0.18573  0.13219  0.69555  1.0000
  C   C583      1.0  0.06605  0.39070  0.98004  1.0000
  H   H454      1.0  0.18629  0.15162  0.64023  1.0000
  H   H455      1.0  0.04525  0.99263  0.52014  1.0000
  H   H456      1.0  0.13723  0.99678  0.66778  1.0000
  S   S78       1.0  0.99263  0.31692  0.94872  1.0000
  C   C584      1.0  0.19006  0.36875  0.55218  1.0000
  C   C585      1.0  0.19058  0.17000  0.75731  1.0000
  C   C586      1.0  0.08613  0.49150  0.78440  1.0000
  H   H457      1.0  0.14904  0.73052  0.23208  1.0000
  Fe  Fe38      1.0  0.03027  0.83178  0.36504  1.0000
  S   S79       1.0  0.02114  0.80929  0.35124  1.0000
  S   S80       1.0  0.04157  0.86033  0.34479  1.0000
  Fe  Fe39      1.0  0.02121  0.80663  0.40982  1.0000
  S   S81       1.0  0.01157  0.78210  0.39954  1.0000
  S   S82       1.0  0.01660  0.80159  0.44474  1.0000
  Fe  Fe40      1.0  0.03924  0.78461  0.37299  1.0000
  S   S83       1.0  0.06577  0.75799  0.36550  1.0000
  H   H458      1.0  0.10914  0.62043  0.11118  1.0000
  C   C587      1.0  0.14456  0.80555  0.33955  1.0000
  S   S84       1.0  0.05027  0.80723  0.38497  1.0000
  S   S85       1.0  0.00245  0.83382  0.39128  1.0000
  S   S86       1.0  0.09779  0.57818  0.01132  1.0000
  H   H459      1.0  0.00306  0.56542  0.09480  1.0000
  H   H460      1.0  0.99872  0.91740  0.35000  1.0000
  Fe  Fe41      1.0  0.13000  0.68221  0.09581  1.0000
  S   S87       1.0  0.16323  0.66465  0.09266  1.0000
  S   S88       1.0  0.10467  0.66583  0.09440  1.0000
  Fe  Fe42      1.0  0.14065  0.71907  0.10888  1.0000
  S   S89       1.0  0.17451  0.70391  0.10584  1.0000
  S   S90       1.0  0.12961  0.75069  0.11914  1.0000
  Fe  Fe43      1.0  0.17121  0.69611  0.07653  1.0000
  H   H461      1.0  0.99297  0.92987  0.46480  1.0000
  Fe  Fe44      1.0  0.16292  0.67435  0.12222  1.0000
  S   S91       1.0  0.17527  0.65244  0.14966  1.0000
  S   S92       1.0  0.13794  0.71348  0.07792  1.0000
  S   S93       1.0  0.12913  0.68968  0.12693  1.0000
  Fe  Fe45      1.0  0.12433  0.63623  0.29143  1.0000
  S   S94       1.0  0.15215  0.65076  0.27493  1.0000
  S   S95       1.0  0.12570  0.60193  0.29473  1.0000
  Fe  Fe46      1.0  0.09626  0.67681  0.30080  1.0000
  S   S96       1.0  0.12159  0.69475  0.28561  1.0000
  S   S97       1.0  0.06374  0.69435  0.31175  1.0000
  Fe  Fe47      1.0  0.12891  0.67658  0.26011  1.0000
  S   S98       1.0  0.13310  0.69589  0.22723  1.0000
  Fe  Fe48      1.0  0.14266  0.66760  0.30171  1.0000
  H   H462      1.0  0.14758  0.88562  0.48010  1.0000
  S   S99       1.0  0.10188  0.66051  0.27410  1.0000
  S   S100      1.0  0.11653  0.65106  0.31962  1.0000
  C   C588      1.0  0.99927  0.73804  0.21231  1.0000
  C   C589      1.0  0.15276  0.52016  0.31324  1.0000
  S   S101      1.0  0.16994  0.84004  0.16653  1.0000
  C   C590      1.0  0.09216  0.98051  0.40471  1.0000
  C   C591      1.0  0.10391  0.85426  0.36793  1.0000
  S   S102      1.0  0.15857  0.86155  0.21995  1.0000
  C   C592      1.0  0.99430  0.88148  0.31314  1.0000
  H   H463      1.0  0.10076  0.91970  0.41987  1.0000
  C   C593      1.0  0.09984  0.65642  0.21854  1.0000
  H   H464      1.0  0.01373  0.50664  0.06960  1.0000
  C   C594      1.0  0.11211  0.97235  0.39429  1.0000
  H   H465      1.0  0.08716  0.91054  0.39313  1.0000
  P   P22       1.0  0.03540  0.91759  0.47351  1.0000
  S   S103      1.0  0.13350  0.96556  0.32756  1.0000
  C   C595      1.0  0.16867  0.87605  0.23232  1.0000
  C   C596      1.0  0.15501  0.88763  0.24682  1.0000
  C   C597      1.0  0.16250  0.89924  0.25702  1.0000
  C   C598      1.0  0.00048  0.72592  0.37355  1.0000
  H   H466      1.0  0.02078  0.69763  0.42989  1.0000
  H   H467      1.0  0.13856  0.88755  0.25021  1.0000
  H   H468      1.0  0.10603  0.83871  0.31374  1.0000
  C   C599      1.0  0.08034  0.69436  0.19597  1.0000
  H   H469      1.0  0.99400  0.61915  0.48113  1.0000
  C   C600      1.0  0.12490  0.53104  0.25237  1.0000
  H   H470      1.0  0.10522  0.71917  0.19724  1.0000
  C   C601      1.0  0.10813  0.80877  0.35671  1.0000
  H   H471      1.0  0.04748  0.88774  0.37385  1.0000
  H   H472      1.0  0.16186  0.63273  0.33549  1.0000
  C   C602      1.0  0.17486  0.53201  0.11275  1.0000
  C   C603      1.0  0.01438  0.90359  0.47921  1.0000
  H   H473      1.0  0.11015  0.78391  0.17746  1.0000
  C   C604      1.0  0.12696  0.81571  0.35225  1.0000
  C   C605      1.0  0.06684  0.69885  0.15064  1.0000
  H   H474      1.0  0.12436  0.83219  0.27829  1.0000
  H   H475      1.0  0.06516  0.92339  0.30776  1.0000
  C   C606      1.0  0.13829  0.80956  0.48320  1.0000
  H   H476      1.0  0.04565  0.95715  0.44545  1.0000
  Fe  Fe49      1.0  0.00388  0.98434  0.28052  1.0000
  H   H477      1.0  0.17030  0.73837  0.04998  1.0000
  C   C607      1.0  0.14701  0.68349  0.20625  1.0000
  C   C608      1.0  0.14729  0.69516  0.18578  1.0000
  C   C609      1.0  0.15602  0.68547  0.16860  1.0000
  C   C610      1.0  0.16563  0.66433  0.17155  1.0000
  C   C611      1.0  0.16683  0.65284  0.19189  1.0000
  C   C612      1.0  0.15711  0.66230  0.20935  1.0000
  H   H478      1.0  0.14038  0.71169  0.18308  1.0000
  H   H479      1.0  0.15518  0.69433  0.15298  1.0000
  C   C613      1.0  0.12962  0.97567  0.39930  1.0000
  H   H480      1.0  0.15728  0.65322  0.22510  1.0000
  C   C614      1.0  0.14420  0.75782  0.13380  1.0000
  C   C615      1.0  0.14143  0.77894  0.13521  1.0000
  C   C616      1.0  0.15297  0.78476  0.14684  1.0000
  C   C617      1.0  0.16714  0.76941  0.15741  1.0000
  C   C618      1.0  0.16964  0.74836  0.15619  1.0000
  C   C619      1.0  0.15855  0.74269  0.14418  1.0000
  H   H481      1.0  0.13042  0.79083  0.12718  1.0000
  H   H482      1.0  0.15070  0.80102  0.14784  1.0000
  C   C620      1.0  0.17090  0.51164  0.11889  1.0000
  H   H483      1.0  0.16118  0.72657  0.14290  1.0000
  C   C621      1.0  0.10254  0.65650  0.07266  1.0000
  C   C622      1.0  0.14749  0.53324  0.21800  1.0000
  Fe  Fe50      1.0  0.04252  0.59757  0.99928  1.0000
  C   C623      1.0  0.09739  0.64198  0.03853  1.0000
  C   C624      1.0  0.08403  0.63833  0.05814  1.0000
  C   C625      1.0  0.08660  0.64557  0.07508  1.0000
  H   H484      1.0  0.03882  0.94957  0.28956  1.0000
  H   H485      1.0  0.07137  0.63046  0.06008  1.0000
  H   H486      1.0  0.07590  0.64306  0.09003  1.0000
  C   C626      1.0  0.02493  0.87559  0.32795  1.0000
  C   C627      1.0  0.00766  0.86875  0.32635  1.0000
  C   C628      1.0  0.15942  0.80886  0.48173  1.0000
  H   H487      1.0  0.16536  0.84991  0.36949  1.0000
  C   C629      1.0  0.01568  0.90771  0.30286  1.0000
  C   C630      1.0  0.02914  0.89485  0.31588  1.0000
  H   H488      1.0  0.00447  0.85375  0.33542  1.0000
  C   C631      1.0  0.05184  0.91511  0.44809  1.0000
  H   H489      1.0  0.01909  0.92254  0.29348  1.0000
  H   H490      1.0  0.04271  0.89988  0.31685  1.0000
  C   C632      1.0  0.06440  0.74064  0.35063  1.0000
  C   C633      1.0  0.04757  0.74370  0.34097  1.0000
  C   C634      1.0  0.04732  0.72937  0.32905  1.0000
  C   C635      1.0  0.06393  0.71215  0.32673  1.0000
  C   C636      1.0  0.08067  0.70918  0.33642  1.0000
  C   C637      1.0  0.08085  0.72336  0.34841  1.0000
  H   H491      1.0  0.03489  0.75709  0.34259  1.0000
  H   H492      1.0  0.03443  0.73172  0.32143  1.0000
  H   H493      1.0  0.09348  0.69589  0.33473  1.0000
  H   H494      1.0  0.09383  0.72095  0.35595  1.0000
  C   C638      1.0  0.08132  0.66805  0.22823  1.0000
  H   H495      1.0  0.12324  0.65501  0.19023  1.0000
  C   C639      1.0  0.04671  0.51647  0.08671  1.0000
  H   H496      1.0  0.11023  0.95197  0.25852  1.0000
  C   C640      1.0  0.09400  0.78263  0.46253  1.0000
  H   H497      1.0  0.07463  0.89852  0.34360  1.0000
  H   H498      1.0  0.13658  0.85274  0.31817  1.0000
  C   C641      1.0  0.04773  0.82285  0.44041  1.0000
  C   C642      1.0  0.03173  0.81342  0.45394  1.0000
  S   S104      1.0  0.06005  0.56452  0.99887  1.0000
  C   C643      1.0  0.06370  0.62338  0.26261  1.0000
  H   H499      1.0  0.09722  0.55501  0.25536  1.0000
  H   H500      1.0  0.05112  0.82267  0.42388  1.0000
  C   C644      1.0  0.01072  0.86990  0.43606  1.0000
  C   C645      1.0  0.02457  0.94509  0.47368  1.0000
  C   C646      1.0  0.16372  0.58151  0.23423  1.0000
  C   C647      1.0  0.15992  0.56653  0.25269  1.0000
  C   C648      1.0  0.14796  0.57282  0.27120  1.0000
  C   C649      1.0  0.14012  0.59412  0.27142  1.0000
  C   C650      1.0  0.14349  0.60910  0.25288  1.0000
  C   C651      1.0  0.15504  0.60274  0.23428  1.0000
  H   H501      1.0  0.16583  0.55010  0.25272  1.0000
  H   H502      1.0  0.14494  0.56120  0.28537  1.0000
  H   H503      1.0  0.13701  0.62555  0.25278  1.0000
  H   H504      1.0  0.15736  0.61430  0.21997  1.0000
  H   H505      1.0  0.06595  0.68276  0.12697  1.0000
  S   S105      1.0  0.10009  0.92775  0.32168  1.0000
  H   H506      1.0  0.03253  0.73844  0.40399  1.0000
  H   H507      1.0  0.05472  0.97373  0.23316  1.0000
  H   H508      1.0  0.15334  0.50870  0.24472  1.0000
  C   C652      1.0  0.14468  0.57788  0.12870  1.0000
  C   C653      1.0  0.13391  0.83843  0.40295  1.0000
  H   H509      1.0  0.99395  0.75880  0.37442  1.0000
  H   H510      1.0  0.05243  0.84301  0.27193  1.0000
  C   C654      1.0  0.06617  0.93975  0.30328  1.0000
  C   C655      1.0  0.02445  0.98214  0.45882  1.0000
  C   C656      1.0  0.03275  0.96096  0.45807  1.0000
  C   C657      1.0  0.14291  0.52296  0.23894  1.0000
  H   H511      1.0  0.05980  0.95787  0.48267  1.0000
  C   C658      1.0  0.99349  0.69527  0.48035  1.0000
  C   C659      1.0  0.00626  0.88622  0.41925  1.0000
  C   C660      1.0  0.02980  0.67831  0.47911  1.0000
  H   H512      1.0  0.14003  0.53852  0.05231  1.0000
  H   H513      1.0  0.15571  0.60974  0.05247  1.0000
  Fe  Fe51      1.0  0.16540  0.94668  0.33064  1.0000
  C   C661      1.0  0.11608  0.50264  0.02755  1.0000
  H   H514      1.0  0.09184  0.83456  0.39725  1.0000
  H   H515      1.0  0.08282  0.98120  0.24586  1.0000
  H   H516      1.0  0.08636  0.74340  0.13987  1.0000
  C   C662      1.0  0.07226  0.91873  0.44321  1.0000
  H   H517      1.0  0.12979  0.82120  0.47235  1.0000
  H   H518      1.0  0.09432  0.81612  0.36648  1.0000
  C   C663      1.0  0.14632  0.80426  0.39346  1.0000
  P   P23       1.0  0.18800  0.56646  0.11762  1.0000
  C   C664      1.0  0.04463  0.88731  0.25671  1.0000
  H   H519      1.0  0.02863  0.90718  0.43625  1.0000
  C   C665      1.0  0.04136  0.72634  0.19333  1.0000
  H   H520      1.0  0.19035  0.89852  0.42149  1.0000
  C   C666      1.0  0.05122  0.95455  0.29319  1.0000
  H   H521      1.0  0.02109  0.72516  0.47140  1.0000
  C   C667      1.0  0.00914  0.52033  0.05797  1.0000
  C   C668      1.0  0.16427  0.60778  0.99354  1.0000
  S   S106      1.0  0.99516  0.97304  0.25602  1.0000
  H   H522      1.0  0.09029  0.77948  0.31336  1.0000
  C   C669      1.0  0.02887  0.53714  0.14697  1.0000
  C   C670      1.0  0.18068  0.86838  0.31736  1.0000
  H   H523      1.0  0.13901  0.84016  0.43283  1.0000
  H   H524      1.0  0.09976  0.78795  0.47347  1.0000
  C   C671      1.0  0.06586  0.52196  0.14415  1.0000
  C   C672      1.0  0.04943  0.53611  0.13573  1.0000
  P   P24       1.0  0.09211  0.51891  0.12869  1.0000
  C   C673      1.0  0.09473  0.54294  0.10934  1.0000
  C   C674      1.0  0.11009  0.51258  0.14632  1.0000
  C   C675      1.0  0.11764  0.52820  0.15090  1.0000
  H   H525      1.0  0.14509  0.96963  0.39092  1.0000
  C   C676      1.0  0.08242  0.94610  0.30773  1.0000
  C   C677      1.0  0.18442  0.50627  0.15019  1.0000
  C   C678      1.0  0.10057  0.54261  0.08782  1.0000
  C   C679      1.0  0.10108  0.56134  0.07289  1.0000
  C   C680      1.0  0.09581  0.58055  0.07921  1.0000
  C   C681      1.0  0.08969  0.58113  0.10052  1.0000
  C   C682      1.0  0.08893  0.56244  0.11552  1.0000
  H   H526      1.0  0.16014  0.49317  0.29890  1.0000
  H   H527      1.0  0.19079  0.60861  0.16722  1.0000
  H   H528      1.0  0.13600  0.97775  0.46118  1.0000
  H   H529      1.0  0.12141  0.52302  0.26860  1.0000
  C   C683      1.0  0.17595  0.49866  0.13747  1.0000
  H   H530      1.0  0.17220  0.50324  0.99508  1.0000
  H   H531      1.0  0.07848  0.92243  0.45479  1.0000
  C   C684      1.0  0.18948  0.81382  0.08066  1.0000
  H   H532      1.0  0.14621  0.77239  0.26404  1.0000
  C   C685      1.0  0.02727  0.81370  0.47531  1.0000
  H   H533      1.0  0.11402  0.54435  0.14301  1.0000
  C   C686      1.0  0.15627  0.50315  0.00346  1.0000
  H   H534      1.0  0.18334  0.54811  0.36876  1.0000
  H   H535      1.0  0.10456  0.56102  0.05634  1.0000
  H   H536      1.0  0.09575  0.59499  0.06751  1.0000
  H   H537      1.0  0.08487  0.59616  0.10530  1.0000
  H   H538      1.0  0.08310  0.56329  0.13186  1.0000
  H   H539      1.0  0.02729  0.49931  0.11242  1.0000
  C   C687      1.0  0.15841  0.60864  0.03617  1.0000
  C   C688      1.0  0.18376  0.53970  0.12525  1.0000
  H   H540      1.0  0.06069  0.68721  0.16351  1.0000
  H   H541      1.0  0.09111  0.73876  0.10403  1.0000
  C   C689      1.0  0.03314  0.90088  0.21762  1.0000
  C   C690      1.0  0.01911  0.89306  0.23528  1.0000
  C   C691      1.0  0.05897  0.89489  0.23901  1.0000
  C   C692      1.0  0.05299  0.90181  0.21945  1.0000
  P   P25       1.0  0.08425  0.89741  0.24124  1.0000
  C   C693      1.0  0.08294  0.92383  0.24384  1.0000
  C   C694      1.0  0.09215  0.87906  0.26397  1.0000
  C   C695      1.0  0.08277  0.88312  0.28407  1.0000
  C   C696      1.0  0.09835  0.92812  0.25176  1.0000
  C   C697      1.0  0.09844  0.94878  0.25220  1.0000
  C   C698      1.0  0.08303  0.96526  0.24499  1.0000
  C   C699      1.0  0.06722  0.96105  0.23778  1.0000
  C   C700      1.0  0.06719  0.94045  0.23711  1.0000
  C   C701      1.0  0.10256  0.89210  0.21751  1.0000
  C   C702      1.0  0.10212  0.87515  0.20908  1.0000
  C   C703      1.0  0.11558  0.87148  0.19022  1.0000
  C   C704      1.0  0.12955  0.88472  0.17963  1.0000
  C   C705      1.0  0.13023  0.90147  0.18801  1.0000
  C   C706      1.0  0.11685  0.90515  0.20689  1.0000
  H   H542      1.0  0.02851  0.90653  0.20258  1.0000
  C   C707      1.0  0.17952  0.61299  0.00093  1.0000
  H   H543      1.0  0.06352  0.90830  0.20567  1.0000
  H   H544      1.0  0.07131  0.89740  0.28592  1.0000
  H   H545      1.0  0.11041  0.91558  0.25747  1.0000
  H   H546      1.0  0.00678  0.62491  0.03864  1.0000
  S   S107      1.0  0.16719  0.67520  0.31401  1.0000
  H   H547      1.0  0.09669  0.97223  0.30476  1.0000
  H   H548      1.0  0.05478  0.93766  0.23144  1.0000
  H   H549      1.0  0.09142  0.86474  0.21717  1.0000
  H   H550      1.0  0.11543  0.85822  0.18394  1.0000
  H   H551      1.0  0.14021  0.88176  0.16519  1.0000
  H   H552      1.0  0.14156  0.91127  0.18017  1.0000
  H   H553      1.0  0.11794  0.91803  0.21317  1.0000
  C   C708      1.0  0.04423  0.73087  0.41335  1.0000
  C   C709      1.0  0.05987  0.71435  0.40702  1.0000
  C   C710      1.0  0.07557  0.70497  0.41844  1.0000
  C   C711      1.0  0.07552  0.71198  0.43632  1.0000
  C   C712      1.0  0.05971  0.72844  0.44293  1.0000
  C   C713      1.0  0.04427  0.73813  0.43106  1.0000
  P   P26       1.0  0.06062  0.73863  0.46498  1.0000
  C   C714      1.0  0.07463  0.75998  0.45574  1.0000
  C   C715      1.0  0.07810  0.76985  0.43441  1.0000
  C   C716      1.0  0.08969  0.78573  0.42721  1.0000
  C   C717      1.0  0.09761  0.79213  0.44127  1.0000
  C   C718      1.0  0.15722  0.89589  0.46921  1.0000
  C   C719      1.0  0.18376  0.65337  0.32605  1.0000
  C   C720      1.0  0.16472  0.86462  0.31006  1.0000
  H   H554      1.0  0.06010  0.70926  0.39290  1.0000
  C   C721      1.0  0.11135  0.54931  0.24483  1.0000
  H   H555      1.0  0.08803  0.70473  0.44473  1.0000
  H   H556      1.0  0.03258  0.75159  0.43525  1.0000
  H   H557      1.0  0.01621  0.54776  0.14020  1.0000
  H   H558      1.0  0.07185  0.76546  0.42325  1.0000
  H   H559      1.0  0.09216  0.79332  0.41079  1.0000
  H   H560      1.0  0.10611  0.80480  0.43585  1.0000
  C   C722      1.0  0.09901  0.68263  0.18639  1.0000
  H   H561      1.0  0.14998  0.54720  0.32580  1.0000
  C   C723      1.0  0.02875  0.51446  0.10239  1.0000
  H   H562      1.0  0.16152  0.52689  0.20771  1.0000
  C   C724      1.0  0.08384  0.61171  0.26330  1.0000
  C   C725      1.0  0.09417  0.59930  0.24845  1.0000
  C   C726      1.0  0.08416  0.59812  0.23305  1.0000
  C   C727      1.0  0.06430  0.61068  0.23182  1.0000
  P   P27       1.0  0.09741  0.58229  0.21372  1.0000
  C   C728      1.0  0.10934  0.59985  0.19149  1.0000
  C   C729      1.0  0.11599  0.55992  0.22385  1.0000
  C   C730      1.0  0.13409  0.55162  0.21042  1.0000
  C   C731      1.0  0.09814  0.61194  0.17605  1.0000
  C   C732      1.0  0.10711  0.62649  0.15954  1.0000
  C   C733      1.0  0.12725  0.62905  0.15840  1.0000
  C   C734      1.0  0.13822  0.61737  0.17398  1.0000
  C   C735      1.0  0.12923  0.60302  0.19055  1.0000
  C   C736      1.0  0.07943  0.57056  0.20708  1.0000
  C   C737      1.0  0.06172  0.56562  0.22200  1.0000
  C   C738      1.0  0.04835  0.55552  0.21723  1.0000
  C   C739      1.0  0.05282  0.54984  0.19775  1.0000
  C   C740      1.0  0.07074  0.55411  0.18308  1.0000
  C   C741      1.0  0.08406  0.56440  0.18770  1.0000
  H   H563      1.0  0.09151  0.61235  0.27535  1.0000
  H   H564      1.0  0.10993  0.59064  0.24906  1.0000
  H   H565      1.0  0.05672  0.61081  0.21943  1.0000
  H   H566      1.0  0.13793  0.55925  0.19413  1.0000
  H   H567      1.0  0.11668  0.76129  0.22816  1.0000
  H   H568      1.0  0.08238  0.61041  0.17695  1.0000
  H   H569      1.0  0.09849  0.63597  0.14765  1.0000
  H   H570      1.0  0.13424  0.64035  0.14570  1.0000
  H   H571      1.0  0.15353  0.61975  0.17357  1.0000
  H   H572      1.0  0.13775  0.59462  0.20278  1.0000
  H   H573      1.0  0.05838  0.56922  0.23746  1.0000
  H   H574      1.0  0.18818  0.61782  0.02774  1.0000
  H   H575      1.0  0.04256  0.54182  0.19416  1.0000
  C   C742      1.0  0.16987  0.92840  0.45865  1.0000
  H   H576      1.0  0.09816  0.56716  0.17640  1.0000
  C   C743      1.0  0.14084  0.83017  0.42183  1.0000
  S   S108      1.0  0.15970  0.91879  0.32164  1.0000
  H   H577      1.0  0.01082  0.74738  0.23483  1.0000
  C   C744      1.0  0.15443  0.52844  0.05592  1.0000
  C   C745      1.0  0.15810  0.91487  0.47373  1.0000
  H   H578      1.0  0.15179  0.90801  0.26821  1.0000
  C   C746      1.0  0.10168  0.77168  0.17933  1.0000
  C   C747      1.0  0.01847  0.73712  0.48037  1.0000
  H   H579      1.0  0.15088  0.53494  0.00778  1.0000
  C   C748      1.0  0.07867  0.88480  0.35548  1.0000
  C   C749      1.0  0.03466  0.74702  0.47961  1.0000
  C   C750      1.0  0.04428  0.91002  0.43287  1.0000
  C   C751      1.0  0.09244  0.95091  0.46829  1.0000
  C   C752      1.0  0.07809  0.71088  0.11322  1.0000
  C   C753      1.0  0.00458  0.72959  0.19425  1.0000
  H   H580      1.0  0.15941  0.81030  0.33618  1.0000
  C   C754      1.0  0.14323  0.78891  0.33133  1.0000
  H   H581      1.0  0.18581  0.60280  0.35328  1.0000
  H   H582      1.0  0.07199  0.83943  0.43815  1.0000
  C   C755      1.0  0.04063  0.50916  0.17460  1.0000
  H   H583      1.0  0.10449  0.72468  0.46926  1.0000
  C   C756      1.0  0.01279  0.53201  0.10511  1.0000
  C   C757      1.0  0.15313  0.79606  0.41240  1.0000
  H   H584      1.0  0.99207  0.87975  0.37411  1.0000
  H   H585      1.0  0.17476  0.63656  0.19411  1.0000
  C   C758      1.0  0.99479  0.86056  0.44971  1.0000
  P   P28       1.0  0.12900  0.83662  0.36358  1.0000
  C   C759      1.0  0.18075  0.84605  0.04422  1.0000
  C   C760      1.0  0.14352  0.60279  0.02901  1.0000
  C   C761      1.0  0.03318  0.55371  0.07685  1.0000
  H   H586      1.0  0.00969  0.93371  0.40373  1.0000
  C   C762      1.0  0.18387  0.89909  0.25305  1.0000
  C   C763      1.0  0.12445  0.78204  0.33599  1.0000
  H   H587      1.0  0.10649  0.68838  0.17042  1.0000
  C   C764      1.0  0.17332  0.56623  0.34018  1.0000
  C   C765      1.0  0.17219  0.56097  0.36196  1.0000
  C   C766      1.0  0.15663  0.57248  0.37519  1.0000
  C   C767      1.0  0.14199  0.58911  0.36678  1.0000
  C   C768      1.0  0.14294  0.59426  0.34515  1.0000
  C   C769      1.0  0.15865  0.58300  0.33189  1.0000
  H   H588      1.0  0.07317  0.88469  0.47604  1.0000
  H   H589      1.0  0.17039  0.94344  0.46130  1.0000
  P   P29       1.0  0.06855  0.71912  0.18134  1.0000
  H   H590      1.0  0.12524  0.71680  0.32466  1.0000
  S   S109      1.0  0.17880  0.57420  0.21077  1.0000
  C   C770      1.0  0.13483  0.50220  0.17675  1.0000
  S   S110      1.0  0.07142  0.53779  0.05404  1.0000
  C   C771      1.0  0.02170  0.52348  0.03793  1.0000
  C   C772      1.0  0.16076  0.53432  0.31950  1.0000
  H   H591      1.0  0.16995  0.97745  0.46877  1.0000
  Fe  Fe52      1.0  0.18771  0.80676  0.17396  1.0000
  H   H592      1.0  0.05224  0.54577  0.12012  1.0000
  H   H593      1.0  0.14138  0.63138  0.08930  1.0000
  H   H594      1.0  0.15597  0.56855  0.39194  1.0000
  H   H595      1.0  0.12993  0.59806  0.37696  1.0000
  H   H596      1.0  0.13153  0.60696  0.33853  1.0000
  H   H597      1.0  0.15929  0.58729  0.31514  1.0000
  H   H598      1.0  0.05873  0.50277  0.08426  1.0000
  C   C773      1.0  0.99808  0.90117  0.30167  1.0000
  C   C774      1.0  0.14871  0.85007  0.34578  1.0000
  H   H599      1.0  0.10767  0.64204  0.22736  1.0000
  H   H600      1.0  0.05627  0.85626  0.40115  1.0000
  C   C775      1.0  0.17004  0.70733  0.24953  1.0000
  C   C776      1.0  0.14441  0.52097  0.01106  1.0000
  C   C777      1.0  0.14272  0.78199  0.06844  1.0000
  C   C778      1.0  0.13134  0.79039  0.05256  1.0000
  C   C779      1.0  0.13080  0.81122  0.04190  1.0000
  C   C780      1.0  0.14188  0.82356  0.04696  1.0000
  C   C781      1.0  0.15375  0.81504  0.06259  1.0000
  C   C782      1.0  0.15368  0.79432  0.07367  1.0000
  P   P30       1.0  0.16865  0.83081  0.06848  1.0000
  H   H601      1.0  0.04902  0.67815  0.44828  1.0000
  C   C783      1.0  0.15230  0.84764  0.08599  1.0000
  C   C784      1.0  0.16147  0.85715  0.09666  1.0000
  C   C785      1.0  0.14908  0.86964  0.11076  1.0000
  C   C786      1.0  0.12737  0.87280  0.11433  1.0000
  C   C787      1.0  0.11807  0.86342  0.10378  1.0000
  C   C788      1.0  0.13047  0.85085  0.08967  1.0000
  H   H602      1.0  0.05743  0.69569  0.22502  1.0000
  C   C789      1.0  0.12422  0.52077  0.02291  1.0000
  C   C790      1.0  0.09682  0.49692  0.11609  1.0000
  S   S111      1.0  0.04900  0.59848  0.03044  1.0000
  C   C791      1.0  0.17139  0.53717  0.05487  1.0000
  H   H603      1.0  0.05126  0.90431  0.40152  1.0000
  C   C792      1.0  0.18991  0.59071  0.14512  1.0000
  C   C793      1.0  0.08410  0.96720  0.30152  1.0000
  C   C794      1.0  0.07156  0.68692  0.21703  1.0000
  H   H604      1.0  0.10857  0.99148  0.48801  1.0000
  C   C795      1.0  0.16301  0.58368  0.11579  1.0000
  H   H605      1.0  0.14330  0.76577  0.07650  1.0000
  H   H606      1.0  0.12307  0.78066  0.04845  1.0000
  H   H607      1.0  0.12205  0.81771  0.02951  1.0000
  H   H608      1.0  0.14150  0.83962  0.03842  1.0000
  H   H609      1.0  0.16224  0.78753  0.08615  1.0000
  C   C796      1.0  0.17729  0.63433  0.33565  1.0000
  H   H610      1.0  0.15648  0.87673  0.11894  1.0000
  H   H611      1.0  0.11779  0.88249  0.12527  1.0000
  H   H612      1.0  0.10125  0.86581  0.10657  1.0000
  H   H613      1.0  0.12297  0.84357  0.08184  1.0000
  H   H614      1.0  0.04785  0.73724  0.21820  1.0000
  C   C797      1.0  0.08312  0.77658  0.17207  1.0000
  C   C798      1.0  0.13675  0.82555  0.38854  1.0000
  H   H615      1.0  0.09251  0.78641  0.35259  1.0000
  C   C799      1.0  0.12985  0.52301  0.16616  1.0000
  H   H616      1.0  0.12385  0.65567  0.02109  1.0000
  H   H617      1.0  0.09000  0.95717  0.45246  1.0000
  H   H618      1.0  0.16464  0.86890  0.29344  1.0000
  C   C800      1.0  0.14236  0.61632  0.10013  1.0000
  C   C801      1.0  0.99345  0.74301  0.38353  1.0000
  Fe  Fe53      1.0  0.99453  0.80932  0.37926  1.0000
  H   H619      1.0  0.17576  0.60861  0.09256  1.0000
  H   H620      1.0  0.13467  0.59791  0.00245  1.0000
  H   H621      1.0  0.16196  0.72047  0.31338  1.0000
  H   H622      1.0  0.15682  0.78114  0.32155  1.0000
  C   C802      1.0  0.08849  0.84872  0.38560  1.0000
  C   C803      1.0  0.16484  0.85394  0.35300  1.0000
  H   H623      1.0  0.14120  0.98987  0.41771  1.0000
  H   H624      1.0  0.13838  0.77598  0.19540  1.0000
  C   C804      1.0  0.11266  0.94254  0.47183  1.0000
  C   C805      1.0  0.06336  0.87885  0.37273  1.0000
  C   C806      1.0  0.09889  0.87261  0.35301  1.0000
  C   C807      1.0  0.02554  0.72378  0.18475  1.0000
  H   H625      1.0  0.03859  0.63252  0.24589  1.0000
  C   C808      1.0  0.17654  0.61347  0.02218  1.0000
  C   C809      1.0  0.14653  0.60214  0.00783  1.0000
  H   H626      1.0  0.15614  0.80275  0.44101  1.0000
  Fe  Fe54      1.0  0.14925  0.97752  0.29464  1.0000
  H   H627      1.0  0.02657  0.86429  0.43837  1.0000
  C   C810      1.0  0.07377  0.71756  0.48273  1.0000
  C   C811      1.0  0.02444  0.52354  0.16628  1.0000
  H   H628      1.0  0.17263  0.81475  0.11259  1.0000
  H   H629      1.0  0.12672  0.85493  0.39942  1.0000
  H   H630      1.0  0.07862  0.97819  0.40052  1.0000
  C   C812      1.0  0.00769  0.98758  0.47487  1.0000
  H   H631      1.0  0.11116  0.58657  0.13692  1.0000
  H   H632      1.0  0.14793  0.80990  0.19084  1.0000
  H   H633      1.0  0.17571  0.60091  0.14114  1.0000
  C   C813      1.0  0.07731  0.91197  0.40842  1.0000
  H   H634      1.0  0.13548  0.53501  0.16993  1.0000
  C   C814      1.0  0.09895  0.73508  0.19007  1.0000
  H   H635      1.0  0.16065  0.77968  0.41613  1.0000
  C   C815      1.0  0.18884  0.76096  0.03129  1.0000
  C   C816      1.0  0.09538  0.71450  0.48116  1.0000
  H   H636      1.0  0.01599  0.50543  0.00600  1.0000
  H   H637      1.0  0.03477  0.56887  0.06706  1.0000
  C   C817      1.0  0.18510  0.74058  0.03983  1.0000
  C   C818      1.0  0.18797  0.52678  0.14427  1.0000
  C   C819      1.0  0.12529  0.59103  0.12696  1.0000
  C   C820      1.0  0.05944  0.83230  0.44847  1.0000
  H   H638      1.0  0.14878  0.79396  0.38267  1.0000
  H   H639      1.0  0.07719  0.79260  0.16479  1.0000
  H   H640      1.0  0.11494  0.53448  0.02888  1.0000
  C   C821      1.0  0.08385  0.72788  0.11699  1.0000
  Fe  Fe55      1.0  0.06862  0.56643  0.02821  1.0000
  H   H641      1.0  0.99295  0.56910  0.01605  1.0000
  H   H642      1.0  0.07468  0.81476  0.25419  1.0000
  C   C822      1.0  0.08081  0.73974  0.18200  1.0000
  Fe  Fe56      1.0  0.07787  0.61038  0.01164  1.0000
  H   H643      1.0  0.11027  0.87751  0.33926  1.0000
  Fe  Fe57      1.0  0.17267  0.93331  0.28840  1.0000
  S   S112      1.0  0.01024  0.60709  0.99147  1.0000
  C   C823      1.0  0.01492  0.74077  0.22086  1.0000
  H   H644      1.0  0.10068  0.50231  0.03739  1.0000
  H   H645      1.0  0.13703  0.82918  0.22012  1.0000
  H   H646      1.0  0.07439  0.54905  0.16832  1.0000
  C   C824      1.0  0.01525  0.55175  0.09266  1.0000
  C   C825      1.0  0.06830  0.86098  0.38794  1.0000
  C   C826      1.0  0.10697  0.79193  0.34872  1.0000
  C   C827      1.0  0.06927  0.98193  0.29129  1.0000
  Fe  Fe58      1.0  0.12963  0.93959  0.31485  1.0000
  H   H647      1.0  0.12404  0.74694  0.19391  1.0000
  H   H648      1.0  0.04937  0.83990  0.30996  1.0000
  C   C828      1.0  0.11616  0.65976  0.05318  1.0000
  H   H649      1.0  0.12562  0.94251  0.45851  1.0000
  H   H650      1.0  0.14420  0.49813  0.18866  1.0000
  C   C829      1.0  0.16878  0.89002  0.45043  1.0000
  S   S113      1.0  0.17560  0.94678  0.36028  1.0000
  C   C830      1.0  0.06125  0.50835  0.16362  1.0000
  H   H651      1.0  0.09856  0.74070  0.30578  1.0000
  H   H652      1.0  0.00510  0.69240  0.37740  1.0000
  C   C831      1.0  0.08493  0.91716  0.42345  1.0000
  C   C832      1.0  0.16628  0.50386  0.30419  1.0000
  C   C833      1.0  0.01733  0.69398  0.44684  1.0000
  C   C834      1.0  0.15626  0.50667  0.06092  1.0000
  H   H653      1.0  0.16852  0.87502  0.44732  1.0000
  H   H654      1.0  0.17413  0.75421  0.21636  1.0000
  H   H655      1.0  0.12344  0.76891  0.32995  1.0000
  H   H656      1.0  0.17005  0.55405  0.05037  1.0000
  H   H657      1.0  0.02502  0.54333  0.00705  1.0000
  C   C835      1.0  0.05268  0.97570  0.28734  1.0000
  C   C836      1.0  0.04887  0.53602  0.07378  1.0000
  C   C837      1.0  0.00253  0.92362  0.37875  1.0000
  C   C838      1.0  0.01405  0.93285  0.38728  1.0000
  C   C839      1.0  0.03098  0.94132  0.37459  1.0000
  C   C840      1.0  0.03625  0.94105  0.35322  1.0000
  C   C841      1.0  0.02452  0.93237  0.34459  1.0000
  C   C842      1.0  0.00778  0.92360  0.35724  1.0000
  H   H658      1.0  0.14538  0.56326  0.14013  1.0000
  C   C843      1.0  0.10949  0.75096  0.18851  1.0000
  H   H659      1.0  0.03469  0.55176  0.22878  1.0000
  S   S114      1.0  0.14230  0.95313  0.28138  1.0000
  H   H660      1.0  0.07476  0.66267  0.24458  1.0000
  C   C844      1.0  0.06972  0.69629  0.13003  1.0000
  H   H661      1.0  0.05861  0.76457  0.16720  1.0000
  H   H662      1.0  0.02922  0.71747  0.17069  1.0000
  H   H663      1.0  0.11648  0.81402  0.25395  1.0000
  H   H664      1.0  0.10368  0.52812  0.08232  1.0000
  H   H665      1.0  0.01898  0.89242  0.40831  1.0000
  C   C845      1.0  0.03588  0.73501  0.21139  1.0000
  C   C846      1.0  0.12413  0.61013  0.11252  1.0000
  H   H666      1.0  0.03992  0.94828  0.38123  1.0000
  H   H667      1.0  0.04925  0.94778  0.34332  1.0000
  H   H668      1.0  0.02809  0.93273  0.32796  1.0000
  Fe  Fe59      1.0  0.17984  0.84499  0.19438  1.0000
  C   C847      1.0  0.07264  0.76068  0.17349  1.0000
  C   C848      1.0  0.08100  0.73049  0.13755  1.0000
  H   H669      1.0  0.15924  0.69684  0.25611  1.0000
  H   H670      1.0  0.12846  0.66817  0.05104  1.0000
  H   H671      1.0  0.04836  0.88243  0.27213  1.0000
  H   H672      1.0  0.00356  0.89270  0.23405  1.0000
  C   C849      1.0  0.14879  0.85555  0.32417  1.0000
  C   C850      1.0  0.03353  0.68297  0.45722  1.0000
  H   H673      1.0  0.06810  0.80812  0.33057  1.0000
  H   H674      1.0  0.18655  0.65504  0.03299  1.0000
  C   C851      1.0  0.08203  0.72582  0.25827  1.0000
  C   C852      1.0  0.06035  0.73101  0.26419  1.0000
  C   C853      1.0  0.05085  0.74968  0.27126  1.0000
  C   C854      1.0  0.06302  0.76320  0.27241  1.0000
  C   C855      1.0  0.08488  0.75801  0.26663  1.0000
  C   C856      1.0  0.09424  0.73910  0.25975  1.0000
  P   P31       1.0  0.10097  0.77475  0.26898  1.0000
  C   C857      1.0  0.11439  0.78671  0.24361  1.0000
  C   C858      1.0  0.08479  0.79530  0.28226  1.0000
  C   C859      1.0  0.07368  0.81323  0.27081  1.0000
  C   C860      1.0  0.06103  0.82928  0.28078  1.0000
  C   C861      1.0  0.05925  0.82750  0.30224  1.0000
  C   C862      1.0  0.06993  0.80957  0.31383  1.0000
  C   C863      1.0  0.08258  0.79342  0.30395  1.0000
  C   C864      1.0  0.12043  0.80590  0.24108  1.0000
  C   C865      1.0  0.13222  0.81448  0.22198  1.0000
  C   C866      1.0  0.13841  0.80374  0.20549  1.0000
  C   C867      1.0  0.13281  0.78457  0.20800  1.0000
  C   C868      1.0  0.12065  0.77617  0.22683  1.0000
  C   C869      1.0  0.12024  0.75854  0.28371  1.0000
  C   C870      1.0  0.14121  0.76065  0.27746  1.0000
  C   C871      1.0  0.15619  0.74707  0.28823  1.0000
  C   C872      1.0  0.15036  0.73141  0.30533  1.0000
  C   C873      1.0  0.12956  0.72936  0.31175  1.0000
  C   C874      1.0  0.11454  0.74284  0.30098  1.0000
  H   H675      1.0  0.08947  0.71113  0.25318  1.0000
  H   H676      1.0  0.05101  0.72018  0.26401  1.0000
  H   H677      1.0  0.03408  0.75340  0.27642  1.0000
  H   H678      1.0  0.05526  0.77731  0.27835  1.0000
  H   H679      1.0  0.11105  0.73430  0.25592  1.0000
  C   C875      1.0  0.11349  0.65267  0.03621  1.0000
  C   C876      1.0  0.02492  0.88614  0.25474  1.0000
  H   H680      1.0  0.11544  0.85742  0.24671  1.0000
  H   H681      1.0  0.18787  0.49637  0.16490  1.0000
  C   C877      1.0  0.99963  0.70563  0.38521  1.0000
  H   H682      1.0  0.17987  0.57132  0.07566  1.0000
  C   C878      1.0  0.10734  0.86064  0.26198  1.0000
  H   H683      1.0  0.08796  0.69250  0.41318  1.0000
  C   C879      1.0  0.05402  0.62308  0.24670  1.0000
  S   S115      1.0  0.18142  0.77528  0.17317  1.0000
  S   S116      1.0  0.07051  0.84211  0.48072  1.0000
  H   H684      1.0  0.03609  0.51236  0.03419  1.0000
  C   C880      1.0  0.08771  0.86856  0.30192  1.0000
  H   H685      1.0  0.07992  0.87158  0.31736  1.0000
  S   S117      1.0  0.09428  0.63437  0.01620  1.0000
  C   C881      1.0  0.10860  0.66369  0.19760  1.0000
  C   C882      1.0  0.18531  0.86546  0.04364  1.0000
  C   C883      1.0  0.18126  0.92256  0.43983  1.0000
  C   C884      1.0  0.05702  0.90841  0.41316  1.0000
  C   C885      1.0  0.07212  0.71620  0.15456  1.0000
  C   C886      1.0  0.05533  0.83181  0.47005  1.0000
  H   H686      1.0  0.12921  0.59949  0.03965  1.0000
  H   H687      1.0  0.01387  0.88036  0.26844  1.0000
  C   C887      1.0  0.19017  0.52411  0.05907  1.0000
  H   H688      1.0  0.08067  0.70866  0.09728  1.0000
  H   H689      1.0  0.17687  0.77441  0.03473  1.0000
  C   C888      1.0  0.10244  0.85005  0.29986  1.0000
  C   C889      1.0  0.11251  0.84626  0.27990  1.0000
  H   H690      1.0  0.05580  0.63293  0.27422  1.0000
  C   C890      1.0  0.16434  0.72630  0.23595  1.0000
  H   H691      1.0  0.11413  0.96374  0.38205  1.0000
  H   H692      1.0  0.13607  0.52214  0.31497  1.0000
  H   H693      1.0  0.18040  0.73631  0.16441  1.0000
  C   C891      1.0  0.16177  0.60330  0.10194  1.0000
  H   H694      1.0  0.08020  0.75928  0.48628  1.0000
  C   C892      1.0  0.07543  0.95108  0.48519  1.0000
  C   C893      1.0  0.15052  0.80904  0.42650  1.0000
  C   C894      1.0  0.18723  0.80930  0.10259  1.0000
  C   C895      1.0  0.18240  0.53219  0.31685  1.0000
  H   H695      1.0  0.99347  0.75088  0.44300  1.0000
  H   H696      1.0  0.17828  0.85468  0.09428  1.0000
  C   C896      1.0  0.01563  0.54096  0.02277  1.0000
  C   C897      1.0  0.99742  0.55560  0.02791  1.0000
  C   C898      1.0  0.99216  0.62057  0.04737  1.0000
  S   S118      1.0  0.17127  0.82820  0.46308  1.0000
  C   C899      1.0  0.99715  0.70021  0.45833  1.0000
  C   C900      1.0  0.17852  0.73955  0.22702  1.0000
  C   C901      1.0  0.18781  0.50156  0.30165  1.0000
  C   C902      1.0  0.18098  0.90325  0.43584  1.0000
  H   H697      1.0  0.99823  0.84767  0.46252  1.0000
  H   H698      1.0  0.19064  0.93286  0.42844  1.0000
  H   H699      1.0  0.00837  0.52365  0.17435  1.0000
  C   C903      1.0  0.03918  0.82261  0.48342  1.0000
  H   H700      1.0  0.18089  0.87223  0.05745  1.0000
  H   H701      1.0  0.00655  0.72839  0.35677  1.0000
  H   H702      1.0  0.17242  0.74834  0.28300  1.0000
  H   H703      1.0  0.18404  0.82268  0.02598  1.0000
  C   C904      1.0  0.18702  0.83778  0.02590  1.0000
  C   C905      1.0  0.08268  0.76654  0.46975  1.0000
  H   H704      1.0  0.16369  0.50600  0.10936  1.0000
  C   C906      1.0  0.18073  0.86306  0.33882  1.0000
  S   S119      1.0  0.18141  0.95934  0.29797  1.0000
  H   H705      1.0  0.17047  0.54184  0.09855  1.0000
  C   C907      1.0  0.99518  0.91379  0.47349  1.0000
  H   H706      1.0  0.18732  0.95844  0.39309  1.0000
  H   H707      1.0  0.18392  0.76222  0.10931  1.0000
  H   H708      1.0  0.14327  0.49992  0.06105  1.0000
  C   C908      1.0  0.19079  0.61746  0.34581  1.0000
  H   H709      1.0  0.12976  0.49658  0.10491  1.0000
  H   H710      1.0  0.02177  0.98934  0.32984  1.0000
  C   C909      1.0  0.17501  0.49356  0.06508  1.0000
  C   C910      1.0  0.12727  0.98719  0.41466  1.0000
  C   C911      1.0  0.18984  0.70156  0.25431  1.0000
  H   H711      1.0  0.01443  0.80719  0.48561  1.0000
  H   H712      1.0  0.18950  0.75622  0.07343  1.0000
  C   C912      1.0  0.99181  0.70242  0.40688  1.0000
  H   H713      1.0  0.07337  0.49636  0.16993  1.0000
  H   H714      1.0  0.03717  0.49798  0.18915  1.0000
  C   C913      1.0  0.18999  0.87606  0.22821  1.0000
  H   H715      1.0  0.99243  0.72761  0.18754  1.0000
  H   H716      1.0  0.99937  0.59163  0.03686  1.0000
  H   H717      1.0  0.04237  0.67001  0.48722  1.0000
  H   H718      1.0  0.06496  0.49206  0.12548  1.0000
  Fe  Fe60      1.0  0.09206  0.79013  0.54147  1.0000
  S   S120      1.0  0.09220  0.82458  0.53199  1.0000
  S   S121      1.0  0.12350  0.76881  0.53734  1.0000
  Fe  Fe61      1.0  0.04507  0.79669  0.55056  1.0000
  S   S122      1.0  0.04145  0.83181  0.54122  1.0000
  S   S123      1.0  0.01516  0.78424  0.56080  1.0000
  Fe  Fe62      1.0  0.06800  0.82546  0.51445  1.0000
  Fe  Fe63      1.0  0.99850  0.96385  0.56547  1.0000
  Fe  Fe64      1.0  0.06611  0.82771  0.55972  1.0000
  S   S124      1.0  0.06102  0.85254  0.57880  1.0000
  S   S125      1.0  0.06950  0.79074  0.52204  1.0000
  S   S126      1.0  0.06791  0.79291  0.57114  1.0000
  C   C914      1.0  0.05460  0.49837  0.83397  1.0000
  H   H719      1.0  0.11806  0.52335  0.87906  1.0000
  H   H720      1.0  0.00736  0.72191  0.71357  1.0000
  H   H721      1.0  0.09745  0.95902  0.66470  1.0000
  C   C915      1.0  0.11646  0.78642  0.62046  1.0000
  S   S127      1.0  0.01322  0.69777  0.54015  1.0000
  C   C916      1.0  0.00898  0.72390  0.68073  1.0000
  C   C917      1.0  0.04824  0.63193  0.76536  1.0000
  H   H722      1.0  0.00276  0.60095  0.67602  1.0000
  H   H723      1.0  0.05000  0.50389  0.72628  1.0000
  Fe  Fe65      1.0  0.12612  0.61016  0.82397  1.0000
  S   S128      1.0  0.12439  0.57730  0.82379  1.0000
  S   S129      1.0  0.15759  0.61716  0.82160  1.0000
  Fe  Fe66      1.0  0.08024  0.62725  0.82148  1.0000
  S   S130      1.0  0.07524  0.59574  0.82107  1.0000
  S   S131      1.0  0.05486  0.65632  0.81749  1.0000
  Fe  Fe67      1.0  0.09391  0.58364  0.84639  1.0000
  S   S132      1.0  0.08302  0.55960  0.87477  1.0000
  Fe  Fe68      1.0  0.10600  0.59260  0.79868  1.0000
  S   S133      1.0  0.11100  0.58350  0.76763  1.0000
  S   S134      1.0  0.09689  0.61561  0.84851  1.0000
  S   S135      1.0  0.10980  0.62505  0.79714  1.0000
  H   H724      1.0  0.04589  0.70560  0.49967  1.0000
  Fe  Fe69      1.0  0.14510  0.94473  0.62103  1.0000
  S   S136      1.0  0.15479  0.96020  0.58733  1.0000
  S   S137      1.0  0.13960  0.96544  0.64490  1.0000
  Fe  Fe70      1.0  0.13417  0.90834  0.60824  1.0000
  S   S138      1.0  0.14229  0.92195  0.57391  1.0000
  S   S139      1.0  0.12504  0.87641  0.61866  1.0000
  Fe  Fe71      1.0  0.17020  0.92783  0.58165  1.0000
  C   C918      1.0  0.14624  0.97292  0.51943  1.0000
  Fe  Fe72      1.0  0.12625  0.95282  0.58264  1.0000
  C   C919      1.0  0.17018  0.79367  0.49591  1.0000
  S   S140      1.0  0.16332  0.91253  0.61588  1.0000
  S   S141      1.0  0.11530  0.93895  0.61643  1.0000
  H   H725      1.0  0.14403  0.60743  0.76475  1.0000
  C   C920      1.0  0.02338  0.78601  0.61075  1.0000
  C   C921      1.0  0.18566  0.49379  0.93629  1.0000
  C   C922      1.0  0.18979  0.75467  0.58078  1.0000
  H   H726      1.0  0.12796  0.52866  0.92144  1.0000
  S   S142      1.0  0.17976  0.50201  0.75492  1.0000
  C   C923      1.0  0.01642  0.69511  0.61701  1.0000
  C   C924      1.0  0.14087  0.90076  0.51898  1.0000
  H   H727      1.0  0.13571  0.98551  0.52639  1.0000
  C   C925      1.0  0.06834  0.95448  0.66089  1.0000
  H   H728      1.0  0.03604  0.66507  0.69060  1.0000
  C   C926      1.0  0.01584  0.90005  0.73396  1.0000
  C   C927      1.0  0.15412  0.89624  0.53327  1.0000
  C   C928      1.0  0.08440  0.83185  0.68019  1.0000
  C   C929      1.0  0.02984  0.61251  0.74472  1.0000
  C   C930      1.0  0.17341  0.93970  0.50256  1.0000
  H   H729      1.0  0.06009  0.81793  0.65927  1.0000
  C   C931      1.0  0.15697  0.96829  0.65924  1.0000
  H   H730      1.0  0.06429  0.59970  0.88494  1.0000
  H   H731      1.0  0.06693  0.95562  0.61167  1.0000
  H   H732      1.0  0.11334  0.75843  0.58611  1.0000
  C   C932      1.0  0.00843  0.62999  0.81423  1.0000
  C   C933      1.0  0.07779  0.99081  0.50573  1.0000
  C   C934      1.0  0.16886  0.50314  0.88956  1.0000
  C   C935      1.0  0.05066  0.95316  0.56061  1.0000
  C   C936      1.0  0.07045  0.94021  0.55992  1.0000
  C   C937      1.0  0.08721  0.94788  0.56153  1.0000
  C   C938      1.0  0.08437  0.96881  0.56293  1.0000
  H   H733      1.0  0.00760  0.51726  0.81984  1.0000
  C   C939      1.0  0.04784  0.97404  0.56228  1.0000
  H   H734      1.0  0.07283  0.92417  0.55826  1.0000
  H   H735      1.0  0.10239  0.93766  0.56131  1.0000
  H   H736      1.0  0.04450  0.52075  0.80762  1.0000
  H   H737      1.0  0.09968  0.50673  0.97923  1.0000
  C   C940      1.0  0.00379  0.59218  0.97661  1.0000
  C   C941      1.0  0.03097  0.76189  0.49212  1.0000
  C   C942      1.0  0.13060  0.56112  0.76467  1.0000
  C   C943      1.0  0.13468  0.54529  0.78201  1.0000
  C   C944      1.0  0.14970  0.52701  0.77914  1.0000
  C   C945      1.0  0.16094  0.52473  0.75901  1.0000
  C   C946      1.0  0.15730  0.54088  0.74177  1.0000
  C   C947      1.0  0.14202  0.55895  0.74459  1.0000
  H   H738      1.0  0.12608  0.54701  0.79758  1.0000
  H   H739      1.0  0.15275  0.51494  0.79255  1.0000
  H   H740      1.0  0.16615  0.53936  0.72621  1.0000
  H   H741      1.0  0.13930  0.57143  0.73126  1.0000
  C   C948      1.0  0.08971  0.56254  0.89733  1.0000
  C   C949      1.0  0.10525  0.57360  0.89522  1.0000
  C   C950      1.0  0.11052  0.57617  0.91308  1.0000
  C   C951      1.0  0.10053  0.56766  0.93318  1.0000
  C   C952      1.0  0.08452  0.55704  0.93542  1.0000
  C   C953      1.0  0.07921  0.55436  0.91747  1.0000
  H   H742      1.0  0.11353  0.57986  0.87981  1.0000
  H   H743      1.0  0.12259  0.58458  0.91138  1.0000
  H   H744      1.0  0.07666  0.55047  0.95092  1.0000
  H   H745      1.0  0.06694  0.54606  0.91918  1.0000
  C   C954      1.0  0.16771  0.60790  0.84460  1.0000
  C   C955      1.0  0.15455  0.60395  0.86425  1.0000
  C   C956      1.0  0.16305  0.59606  0.88234  1.0000
  H   H746      1.0  0.13785  0.60716  0.86553  1.0000
  H   H747      1.0  0.15299  0.59326  0.89753  1.0000
  C   C957      1.0  0.06254  0.70372  0.49801  1.0000
  H   H748      1.0  0.00797  0.55951  0.71687  1.0000
  C   C958      1.0  0.99258  0.56847  0.95348  1.0000
  C   C959      1.0  0.16455  0.98809  0.68141  1.0000
  C   C960      1.0  0.02638  0.63289  0.81891  1.0000
  C   C961      1.0  0.03207  0.65251  0.81227  1.0000
  C   C962      1.0  0.01948  0.66930  0.80118  1.0000
  C   C963      1.0  0.99900  0.74199  0.49347  1.0000
  C   C964      1.0  0.15159  0.98550  0.66925  1.0000
  H   H749      1.0  0.03558  0.62000  0.82792  1.0000
  H   H750      1.0  0.02376  0.68454  0.79608  1.0000
  C   C965      1.0  0.06802  0.89008  0.49072  1.0000
  H   H751      1.0  0.06361  0.67728  0.52392  1.0000
  C   C966      1.0  0.02153  0.75110  0.63189  1.0000
  C   C967      1.0  0.09706  0.50307  0.96543  1.0000
  H   H752      1.0  0.99905  0.81263  0.65694  1.0000
  C   C968      1.0  0.08084  0.85869  0.58745  1.0000
  C   C969      1.0  0.08088  0.87986  0.58599  1.0000
  C   C970      1.0  0.09489  0.88557  0.59476  1.0000
  C   C971      1.0  0.10836  0.87002  0.60591  1.0000
  C   C972      1.0  0.10807  0.84879  0.60769  1.0000
  C   C973      1.0  0.09471  0.84311  0.59808  1.0000
  H   H753      1.0  0.06978  0.89183  0.57825  1.0000
  H   H754      1.0  0.09482  0.90197  0.59343  1.0000
  H   H755      1.0  0.11821  0.83675  0.61656  1.0000
  H   H756      1.0  0.09445  0.82675  0.59968  1.0000
  C   C974      1.0  0.01523  0.75962  0.55608  1.0000
  C   C975      1.0  0.03348  0.74721  0.54690  1.0000
  C   C976      1.0  0.03273  0.72816  0.54232  1.0000
  C   C977      1.0  0.01384  0.72125  0.54710  1.0000
  C   C978      1.0  0.17808  0.83032  0.54433  1.0000
  C   C979      1.0  0.99636  0.75270  0.56099  1.0000
  H   H757      1.0  0.04810  0.75241  0.54303  1.0000
  H   H758      1.0  0.04687  0.71880  0.53507  1.0000
  C   C980      1.0  0.16798  0.55367  0.84136  1.0000
  C   C981      1.0  0.05621  0.97045  0.61308  1.0000
  C   C982      1.0  0.13805  0.78199  0.51456  1.0000
  H   H759      1.0  0.00267  0.69107  0.62819  1.0000
  H   H760      1.0  0.12861  0.63578  0.98079  1.0000
  H   H761      1.0  0.08706  0.88060  0.65055  1.0000
  C   C983      1.0  0.02955  0.81342  0.65987  1.0000
  H   H762      1.0  0.01861  0.79871  0.59828  1.0000
  H   H763      1.0  0.16606  0.90510  0.53105  1.0000
  H   H764      1.0  0.18966  0.52088  0.79789  1.0000
  C   C984      1.0  0.07329  0.50120  0.94486  1.0000
  H   H765      1.0  0.16148  0.56305  0.85330  1.0000
  H   H766      1.0  0.02342  0.49821  0.97041  1.0000
  H   H767      1.0  0.00781  0.89408  0.66619  1.0000
  C   C985      1.0  0.09019  0.49561  0.92895  1.0000
  C   C986      1.0  0.12767  0.79618  0.49956  1.0000
  H   H768      1.0  0.14990  0.53014  0.85681  1.0000
  C   C987      1.0  0.01044  0.83910  0.63516  1.0000
  H   H769      1.0  0.06425  0.71050  0.57523  1.0000
  C   C988      1.0  0.13828  0.95868  0.51328  1.0000
  C   C989      1.0  0.03849  0.78744  0.62077  1.0000
  C   C990      1.0  0.11592  0.93429  0.49238  1.0000
  C   C991      1.0  0.04532  0.77069  0.63623  1.0000
  H   H770      1.0  0.12157  0.96042  0.51593  1.0000
  H   H771      1.0  0.03250  0.50187  0.88795  1.0000
  C   C992      1.0  0.09516  0.92643  0.67386  1.0000
  H   H772      1.0  0.04845  0.68211  0.57231  1.0000
  H   H773      1.0  0.08710  0.49332  0.91478  1.0000
  H   H774      1.0  0.06536  0.94329  0.51870  1.0000
  H   H775      1.0  0.02447  0.87868  0.55528  1.0000
  C   C993      1.0  0.18933  0.60391  0.84316  1.0000
  H   H776      1.0  0.15566  0.60506  0.92826  1.0000
  C   C994      1.0  0.99571  0.73346  0.55678  1.0000
  H   H777      1.0  0.12969  0.49599  0.95163  1.0000
  H   H778      1.0  0.12377  0.54615  0.70082  1.0000
  C   C995      1.0  0.07671  0.50501  0.96305  1.0000
  C   C996      1.0  0.03704  0.75251  0.64165  1.0000
  H   H779      1.0  0.14098  0.80259  0.61706  1.0000
  C   C997      1.0  0.00154  0.66637  0.79637  1.0000
  H   H780      1.0  0.08071  0.98726  0.60704  1.0000
  C   C998      1.0  0.16730  0.60099  0.73743  1.0000
  H   H781      1.0  0.00375  0.76700  0.60777  1.0000
  C   C999      1.0  0.01124  0.88196  0.56783  1.0000
  H   H782      1.0  0.05014  0.62642  0.85663  1.0000
  C   C1000     1.0  0.02500  0.68443  0.60049  1.0000
  H   H783      1.0  0.04509  0.80146  0.61629  1.0000
  H   H784      1.0  0.18669  0.57537  0.82204  1.0000
  H   H785      1.0  0.02630  0.86440  0.61702  1.0000
  H   H786      1.0  0.00524  0.92756  0.67852  1.0000
  C   C1001     1.0  0.02695  0.84998  0.62874  1.0000
  C   C1002     1.0  0.01304  0.49416  0.84769  1.0000
  C   C1003     1.0  0.01358  0.56684  0.95381  1.0000
  H   H787      1.0  0.13820  0.80579  0.54947  1.0000
  C   C1004     1.0  0.05301  0.85694  0.69065  1.0000
  H   H788      1.0  0.16764  0.76929  0.52390  1.0000
  C   C1005     1.0  0.18114  0.64512  0.95253  1.0000
  H   H789      1.0  0.05718  0.77170  0.64387  1.0000
  H   H790      1.0  0.11470  0.58273  0.70656  1.0000
  C   C1006     1.0  0.02278  0.69253  0.70408  1.0000
  C   C1007     1.0  0.13513  0.79304  0.61009  1.0000
  H   H791      1.0  0.01389  0.64508  0.86281  1.0000
  H   H792      1.0  0.04302  0.73948  0.65323  1.0000
  C   C1008     1.0  0.15595  0.53964  0.90591  1.0000
  H   H793      1.0  0.02983  0.68301  0.65535  1.0000
  P   P32       1.0  0.01168  0.72714  0.63812  1.0000
  H   H794      1.0  0.12202  0.69622  0.49402  1.0000
  C   C1009     1.0  0.07261  0.68749  0.51185  1.0000
  C   C1010     1.0  0.12597  0.88836  0.52244  1.0000
  C   C1011     1.0  0.09678  0.53712  0.72296  1.0000
  C   C1012     1.0  0.10967  0.55124  0.71174  1.0000
  C   C1013     1.0  0.08677  0.57827  0.72959  1.0000
  C   C1014     1.0  0.07366  0.56422  0.74078  1.0000
  C   C1015     1.0  0.07881  0.54362  0.73734  1.0000
  P   P33       1.0  0.05094  0.57189  0.76022  1.0000
  C   C1016     1.0  0.05616  0.56160  0.78638  1.0000
  C   C1017     1.0  0.04444  0.60023  0.75683  1.0000
  C   C1018     1.0  0.04149  0.56799  0.80370  1.0000
  C   C1019     1.0  0.04558  0.56073  0.82395  1.0000
  C   C1020     1.0  0.06458  0.54746  0.82700  1.0000
  C   C1021     1.0  0.07944  0.54139  0.80981  1.0000
  C   C1022     1.0  0.07528  0.54840  0.78959  1.0000
  C   C1023     1.0  0.02987  0.56213  0.75633  1.0000
  C   C1024     1.0  0.01712  0.55122  0.77326  1.0000
  H   H795      1.0  0.99587  0.52018  0.56555  1.0000
  H   H796      1.0  0.15431  0.83566  0.59234  1.0000
  C   C1025     1.0  0.01044  0.55735  0.73262  1.0000
  C   C1026     1.0  0.02655  0.56487  0.73594  1.0000
  H   H797      1.0  0.10079  0.52107  0.72072  1.0000
  C   C1027     1.0  0.16138  0.53512  0.84328  1.0000
  H   H798      1.0  0.06904  0.53251  0.74603  1.0000
  H   H799      1.0  0.02240  0.60546  0.73669  1.0000
  H   H800      1.0  0.02711  0.57895  0.80149  1.0000
  C   C1028     1.0  0.11101  0.51097  0.85587  1.0000
  H   H801      1.0  0.06798  0.54238  0.84264  1.0000
  H   H802      1.0  0.09436  0.53151  0.81202  1.0000
  H   H803      1.0  0.08731  0.54397  0.77652  1.0000
  H   H804      1.0  0.01963  0.54826  0.78903  1.0000
  H   H805      1.0  0.16378  0.53903  0.95429  1.0000
  H   H806      1.0  0.17392  0.98114  0.52254  1.0000
  S   S143      1.0  0.06947  0.61265  0.98053  1.0000
  H   H807      1.0  0.03651  0.57275  0.72257  1.0000
  H   H808      1.0  0.15756  0.61051  0.72658  1.0000
  C   C1029     1.0  0.18281  0.97319  0.68406  1.0000
  H   H809      1.0  0.11037  0.92131  0.67803  1.0000
  H   H810      1.0  0.11601  0.89105  0.51137  1.0000
  H   H811      1.0  0.00207  0.59670  0.77837  1.0000
  H   H812      1.0  0.03760  0.86003  0.70036  1.0000
  H   H813      1.0  0.99806  0.50987  0.94923  1.0000
  C   C1030     1.0  0.04006  0.62245  0.87174  1.0000
  C   C1031     1.0  0.14961  0.50622  0.90374  1.0000
  C   C1032     1.0  0.10853  0.77403  0.61181  1.0000
  H   H814      1.0  0.03017  0.92410  0.51676  1.0000
  C   C1033     1.0  0.18130  0.95385  0.50890  1.0000
  C   C1034     1.0  0.12366  0.87252  0.54042  1.0000
  C   C1035     1.0  0.13640  0.86868  0.55483  1.0000
  H   H815      1.0  0.02837  0.66063  0.75352  1.0000
  H   H816      1.0  0.06267  0.97104  0.65524  1.0000
  C   C1036     1.0  0.02510  0.69182  0.66775  1.0000
  C   C1037     1.0  0.99832  0.90187  0.56656  1.0000
  C   C1038     1.0  0.00745  0.86624  0.58559  1.0000
  H   H817      1.0  0.09174  0.86694  0.50448  1.0000
  C   C1039     1.0  0.09229  0.84784  0.66486  1.0000
  C   C1040     1.0  0.06132  0.87326  0.67596  1.0000
  C   C1041     1.0  0.07855  0.87976  0.50696  1.0000
  H   H818      1.0  0.02565  0.68459  0.71952  1.0000
  H   H819      1.0  0.11240  0.86275  0.54311  1.0000
  H   H820      1.0  0.00712  0.68112  0.50759  1.0000
  C   C1042     1.0  0.15180  0.88030  0.55116  1.0000
  H   H821      1.0  0.04884  0.90547  0.54514  1.0000
  C   C1043     1.0  0.17185  0.58668  0.77319  1.0000
  H   H822      1.0  0.18407  0.92654  0.49665  1.0000
  H   H823      1.0  0.09401  0.64316  0.93338  1.0000
  C   C1044     1.0  0.03974  0.51034  0.82231  1.0000
  C   C1045     1.0  0.11754  0.50921  0.87445  1.0000
  H   H824      1.0  0.03045  0.79933  0.67206  1.0000
  C   C1046     1.0  0.04804  0.60728  0.88768  1.0000
  H   H825      1.0  0.06550  0.60123  0.77587  1.0000
  H   H826      1.0  0.01784  0.85098  0.58646  1.0000
  C   C1047     1.0  0.14740  0.82990  0.52374  1.0000
  C   C1048     1.0  0.01263  0.71361  0.70067  1.0000
  Fe  Fe73      1.0  0.08723  0.57944  0.98202  1.0000
  C   C1049     1.0  0.17548  0.95368  0.66147  1.0000
  H   H827      1.0  0.04916  0.72961  0.60407  1.0000
  C   C1050     1.0  0.08295  0.91179  0.67588  1.0000
  C   C1051     1.0  0.06358  0.91836  0.66974  1.0000
  C   C1052     1.0  0.05622  0.93986  0.66258  1.0000
  P   P34       1.0  0.04693  0.90006  0.67319  1.0000
  C   C1053     1.0  0.02699  0.90489  0.69602  1.0000
  C   C1054     1.0  0.03655  0.90458  0.64993  1.0000
  C   C1055     1.0  0.04856  0.91142  0.63017  1.0000
  C   C1056     1.0  0.04071  0.91471  0.61208  1.0000
  C   C1057     1.0  0.02094  0.91113  0.61347  1.0000
  C   C1058     1.0  0.00905  0.90389  0.63304  1.0000
  C   C1059     1.0  0.01698  0.90022  0.65121  1.0000
  C   C1060     1.0  0.03096  0.89579  0.71621  1.0000
  H   H828      1.0  0.03166  0.87404  0.49406  1.0000
  C   C1061     1.0  0.02099  0.99081  0.61821  1.0000
  H   H829      1.0  0.16929  0.65030  0.96542  1.0000
  H   H830      1.0  0.18649  0.50980  0.92832  1.0000
  C   C1062     1.0  0.15951  0.78020  0.51233  1.0000
  C   C1063     1.0  0.01897  0.50832  0.82919  1.0000
  H   H831      1.0  0.09677  0.65080  0.96671  1.0000
  H   H832      1.0  0.08874  0.89546  0.68224  1.0000
  H   H833      1.0  0.04105  0.94535  0.65840  1.0000
  H   H834      1.0  0.06407  0.91407  0.62864  1.0000
  H   H835      1.0  0.04998  0.92002  0.59690  1.0000
  H   H836      1.0  0.01496  0.91385  0.59932  1.0000
  H   H837      1.0  0.18650  0.79275  0.49474  1.0000
  C   C1064     1.0  0.03317  0.64391  0.75395  1.0000
  H   H838      1.0  0.04582  0.88559  0.71825  1.0000
  C   C1065     1.0  0.10965  0.49295  0.84995  1.0000
  H   H839      1.0  0.16450  0.50871  0.82951  1.0000
  H   H840      1.0  0.00440  0.61470  0.81908  1.0000
  C   C1066     1.0  0.99687  0.91378  0.73168  1.0000
  C   C1067     1.0  0.11946  0.76792  0.59301  1.0000
  H   H841      1.0  0.05836  0.82388  0.70458  1.0000
  C   C1068     1.0  0.10960  0.64073  0.95835  1.0000
  H   H842      1.0  0.10804  0.79114  0.63506  1.0000
  C   C1069     1.0  0.14310  0.52494  0.91148  1.0000
  H   H843      1.0  0.99200  0.65472  0.65385  1.0000
  H   H844      1.0  0.11119  0.79750  0.50098  1.0000
  C   C1070     1.0  0.05113  0.70595  0.58714  1.0000
  H   H845      1.0  0.08912  0.50629  0.77452  1.0000
  C   C1071     1.0  0.14893  0.81635  0.54309  1.0000
  C   C1072     1.0  0.14590  0.78741  0.59089  1.0000
  C   C1073     1.0  0.00319  0.50063  0.93713  1.0000
  C   C1074     1.0  0.19049  0.54891  0.80778  1.0000
  H   H846      1.0  0.01894  0.89288  0.74951  1.0000
  C   C1075     1.0  0.01930  0.63299  0.87539  1.0000
  C   C1076     1.0  0.18463  0.59127  0.88085  1.0000
  C   C1077     1.0  0.02414  0.63425  0.74343  1.0000
  H   H847      1.0  0.05751  0.85072  0.63206  1.0000
  C   C1078     1.0  0.04249  0.71678  0.60357  1.0000
  H   H848      1.0  0.16193  0.87702  0.56223  1.0000
  H   H849      1.0  0.17975  0.94032  0.65395  1.0000
  H   H850      1.0  0.08362  0.59402  0.73246  1.0000
  C   C1079     1.0  0.06465  0.83635  0.69293  1.0000
  H   H851      1.0  0.10176  0.67237  0.52138  1.0000
  C   C1080     1.0  0.09874  0.93468  0.50923  1.0000
  H   H852      1.0  0.05535  0.63941  0.77346  1.0000
  H   H853      1.0  0.10749  0.84444  0.65475  1.0000
  C   C1081     1.0  0.01495  0.76794  0.61623  1.0000
  C   C1082     1.0  0.00983  0.68451  0.49063  1.0000
  C   C1083     1.0  0.99311  0.92350  0.71164  1.0000
  C   C1084     1.0  0.08071  0.86841  0.66259  1.0000
  C   C1085     1.0  0.99310  0.65566  0.95247  1.0000
  C   C1086     1.0  0.03519  0.60223  0.90725  1.0000
  H   H854      1.0  0.00655  0.65816  0.95672  1.0000
  C   C1087     1.0  0.03473  0.97161  0.61681  1.0000
  C   C1088     1.0  0.02878  0.68159  0.68772  1.0000
  C   C1089     1.0  0.17499  0.53631  0.89192  1.0000
  H   H855      1.0  0.10096  0.92856  0.52519  1.0000
  C   C1090     1.0  0.05387  0.61021  0.76680  1.0000
  C   C1091     1.0  0.04229  0.68991  0.58551  1.0000
  H   H856      1.0  0.00839  0.65554  0.92039  1.0000
  C   C1092     1.0  0.99773  0.54671  0.74958  1.0000
  H   H857      1.0  0.04153  0.59050  0.91962  1.0000
  C   C1093     1.0  0.01536  0.71313  0.66406  1.0000
  C   C1094     1.0  0.01176  0.82096  0.65112  1.0000
  C   C1095     1.0  0.99597  0.64670  0.80301  1.0000
  H   H858      1.0  0.15108  0.55382  0.91224  1.0000
  H   H859      1.0  0.10702  0.52638  0.84617  1.0000
  C   C1096     1.0  0.04476  0.84233  0.63741  1.0000
  C   C1097     1.0  0.04616  0.82395  0.65281  1.0000
  H   H860      1.0  0.16090  0.85286  0.49901  1.0000
  H   H861      1.0  0.09392  0.76917  0.61959  1.0000
  C   C1098     1.0  0.17958  0.80847  0.59210  1.0000
  C   C1099     1.0  0.15186  0.94210  0.50451  1.0000
  C   C1100     1.0  0.13817  0.77439  0.58272  1.0000
  H   H862      1.0  0.09353  0.81596  0.68206  1.0000
  H   H863      1.0  0.13559  0.82976  0.51564  1.0000
  S   S144      1.0  0.04864  0.50118  0.77129  1.0000
  C   C1101     1.0  0.05055  0.90638  0.49376  1.0000
  P   P35       1.0  0.14185  0.92307  0.49725  1.0000
  C   C1102     1.0  0.10455  0.57185  0.71493  1.0000
  H   H864      1.0  0.12370  0.62064  0.91407  1.0000
  C   C1103     1.0  0.01437  0.61269  0.91102  1.0000
  C   C1104     1.0  0.16158  0.84309  0.51439  1.0000
  C   C1105     1.0  0.16773  0.97047  0.51730  1.0000
  H   H865      1.0  0.02869  0.95772  0.61831  1.0000
  C   C1106     1.0  0.17776  0.58012  0.96421  1.0000
  C   C1107     1.0  0.06480  0.98205  0.56285  1.0000
  C   C1108     1.0  0.01689  0.88251  0.48991  1.0000
  H   H866      1.0  0.13466  0.85628  0.56854  1.0000
  H   H867      1.0  0.16566  0.50283  0.96383  1.0000
  C   C1109     1.0  0.08787  0.94775  0.66636  1.0000
  C   C1110     1.0  0.14272  0.61467  0.93701  1.0000
  H   H868      1.0  0.16550  0.58569  0.78982  1.0000
  S   S145      1.0  0.11048  0.56802  0.95481  1.0000
  H   H869      1.0  0.02209  0.52182  0.91628  1.0000
  C   C1111     1.0  0.07858  0.94293  0.50561  1.0000
  H   H870      1.0  0.99316  0.60825  0.51948  1.0000
  H   H871      1.0  0.07912  0.87695  0.53943  1.0000
  C   C1112     1.0  0.17710  0.83782  0.60819  1.0000
  H   H872      1.0  0.18865  0.67575  0.93980  1.0000
  H   H873      1.0  0.01246  0.64356  0.73453  1.0000
  C   C1113     1.0  0.07155  0.88536  0.52654  1.0000
  C   C1114     1.0  0.05428  0.90149  0.52977  1.0000
  C   C1115     1.0  0.04371  0.91195  0.51353  1.0000
  C   C1116     1.0  0.12474  0.62366  0.92879  1.0000
  S   S146      1.0  0.02988  0.94285  0.55919  1.0000
  C   C1117     1.0  0.18741  0.59039  0.73001  1.0000
  C   C1118     1.0  0.02496  0.71150  0.61857  1.0000
  C   C1119     1.0  0.15963  0.59925  0.75899  1.0000
  C   C1120     1.0  0.00627  0.62829  0.89515  1.0000
  C   C1121     1.0  0.99544  0.75695  0.50569  1.0000
  C   C1122     1.0  0.10542  0.69826  0.49507  1.0000
  C   C1123     1.0  0.12758  0.63178  0.96657  1.0000
  C   C1124     1.0  0.00756  0.95080  0.48955  1.0000
  C   C1125     1.0  0.17336  0.54746  0.95832  1.0000
  H   H874      1.0  0.00902  0.77803  0.51486  1.0000
  H   H875      1.0  0.04312  0.76951  0.49232  1.0000
  H   H876      1.0  0.03542  0.57727  0.96533  1.0000
  C   C1126     1.0  0.99919  0.97194  0.49006  1.0000
  C   C1127     1.0  0.14394  0.61797  0.95642  1.0000
  H   H877      1.0  0.02565  0.55668  0.94487  1.0000
  C   C1128     1.0  0.10807  0.63648  0.93959  1.0000
  C   C1129     1.0  0.00111  0.54359  0.76988  1.0000
  H   H878      1.0  0.14933  0.57503  0.95888  1.0000
  H   H879      1.0  0.07074  0.49968  0.82833  1.0000
  H   H880      1.0  0.14640  0.76958  0.56808  1.0000
  C   C1130     1.0  0.16465  0.81616  0.55332  1.0000
  C   C1131     1.0  0.18146  0.51808  0.88377  1.0000
  C   C1132     1.0  0.16525  0.56825  0.96049  1.0000
  H   H881      1.0  0.00159  0.91427  0.55306  1.0000
  H   H882      1.0  0.05752  0.50327  0.94275  1.0000
  C   C1133     1.0  0.01917  0.57851  0.96543  1.0000
  C   C1134     1.0  0.17657  0.84368  0.52495  1.0000
  H   H883      1.0  0.16884  0.85299  0.61177  1.0000
  C   C1135     1.0  0.09403  0.68480  0.51046  1.0000
  H   H884      1.0  0.00074  0.93894  0.50160  1.0000
  H   H885      1.0  0.03434  0.56593  0.83721  1.0000
  H   H886      1.0  0.00236  0.85579  0.50368  1.0000
  C   C1136     1.0  0.06400  0.98859  0.61032  1.0000
  H   H887      1.0  0.01788  0.67230  0.59897  1.0000
  H   H888      1.0  0.00111  0.74026  0.67833  1.0000
  C   C1137     1.0  0.01144  0.76686  0.50499  1.0000
  C   C1138     1.0  0.16889  0.82795  0.59714  1.0000
  H   H889      1.0  0.18466  0.54798  0.88721  1.0000
  C   C1139     1.0  0.18483  0.62435  0.94984  1.0000
  H   H890      1.0  0.00480  0.60902  0.92652  1.0000
  C   C1140     1.0  0.01666  0.50740  0.91848  1.0000
  C   C1141     1.0  0.16954  0.52319  0.82777  1.0000
  H   H891      1.0  0.03576  0.82246  0.50004  1.0000
  H   H892      1.0  0.03269  0.98408  0.56325  1.0000
  P   P36       1.0  0.16776  0.60731  0.96615  1.0000
  C   C1142     1.0  0.18240  0.56055  0.82366  1.0000
  S   S147      1.0  0.10515  0.97850  0.56491  1.0000
  P   P37       1.0  0.16939  0.79671  0.57652  1.0000
  H   H893      1.0  0.00812  0.57592  0.88617  1.0000
  C   C1143     1.0  0.00820  0.91929  0.69387  1.0000
  H   H894      1.0  0.18710  0.85445  0.51821  1.0000
  C   C1144     1.0  0.18396  0.53010  0.80994  1.0000
  H   H895      1.0  0.13183  0.49458  0.75220  1.0000
  H   H896      1.0  0.17922  0.75210  0.59585  1.0000
  H   H897      1.0  0.06359  0.51002  0.97506  1.0000
  H   H898      1.0  0.99157  0.53488  0.78296  1.0000
  C   C1145     1.0  0.02240  0.49606  0.90241  1.0000
  H   H899      1.0  0.99374  0.90108  0.63403  1.0000
  H   H900      1.0  0.00433  0.99174  0.62103  1.0000
  H   H901      1.0  0.16137  0.49898  0.72209  1.0000
  H   H902      1.0  0.08308  0.98353  0.52027  1.0000
  C   C1146     1.0  0.00024  0.87207  0.49547  1.0000
  C   C1147     1.0  0.99409  0.65407  0.93192  1.0000
  C   C1148     1.0  0.11401  0.49717  0.94969  1.0000
  H   H903      1.0  0.99690  0.49272  0.85261  1.0000
  H   H904      1.0  0.10500  0.49415  0.83538  1.0000
  C   C1149     1.0  0.11071  0.49366  0.93119  1.0000
  C   C1150     1.0  0.18820  0.95601  0.67402  1.0000
  C   C1151     1.0  0.18866  0.77483  0.56795  1.0000
  H   H905      1.0  0.19023  0.83056  0.55195  1.0000
  C   C1152     1.0  0.99633  0.57680  0.87750  1.0000
  H   H906      1.0  0.99701  0.60874  0.86124  1.0000
  H   H907      1.0  0.99190  0.67938  0.78780  1.0000
  C   C1153     1.0  0.23207  0.48234  0.04162  1.0000
  H   H908      1.0  0.20362  0.33808  0.05290  1.0000
  C   C1154     1.0  0.19816  0.34298  0.13585  1.0000
  H   H909      1.0  0.35092  0.48663  0.22683  1.0000
  C   C1155     1.0  0.22546  0.11191  0.46394  1.0000
  H   H910      1.0  0.25166  0.05959  0.34204  1.0000
  H   H911      1.0  0.32318  0.15819  0.44070  1.0000
  H   H912      1.0  0.21630  0.43212  0.16954  1.0000
  H   H913      1.0  0.26222  0.07298  0.48509  1.0000
  H   H914      1.0  0.21980  0.38052  0.07232  1.0000
  C   C1156     1.0  0.20848  0.32122  0.05433  1.0000
  C   C1157     1.0  0.34243  0.45292  0.35987  1.0000
  H   H915      1.0  0.24537  0.11000  0.48524  1.0000
  S   S148      1.0  0.22799  0.37026  0.03160  1.0000
  Fe  Fe74      1.0  0.21173  0.04474  0.41894  1.0000
  S   S149      1.0  0.24044  0.04550  0.39332  1.0000
  C   C1158     1.0  0.39062  0.25086  0.46213  1.0000
  Fe  Fe75      1.0  0.23438  0.01521  0.38943  1.0000
  P   P38       1.0  0.21323  0.13923  0.46381  1.0000
  Fe  Fe76      1.0  0.25730  0.02555  0.41866  1.0000
  S   S150      1.0  0.28740  0.02797  0.42628  1.0000
  S   S151      1.0  0.20422  0.01642  0.41298  1.0000
  S   S152      1.0  0.22888  0.02643  0.44444  1.0000
  Fe  Fe77      1.0  0.31648  0.10626  0.47678  1.0000
  H   H916      1.0  0.33345  0.48448  0.34341  1.0000
  S   S153      1.0  0.30170  0.10922  0.44908  1.0000
  H   H917      1.0  0.31068  0.11671  0.99846  1.0000
  S   S154      1.0  0.23678  0.00554  0.35882  1.0000
  C   C1159     1.0  0.31892  0.99639  0.38291  1.0000
  C   C1160     1.0  0.22674  0.42206  0.09171  1.0000
  C   C1161     1.0  0.33265  0.21698  0.47454  1.0000
  H   H918      1.0  0.26216  0.47529  0.05036  1.0000
  C   C1162     1.0  0.24453  0.06953  0.46424  1.0000
  C   C1163     1.0  0.28858  0.02002  0.36014  1.0000
  H   H919      1.0  0.29864  0.04710  0.36258  1.0000
  H   H920      1.0  0.22562  0.48253  0.99290  1.0000
  P   P39       1.0  0.31044  0.22649  0.46211  1.0000
  C   C1164     1.0  0.23123  0.15275  0.46819  1.0000
  C   C1165     1.0  0.34128  0.48388  0.37287  1.0000
  H   H921      1.0  0.23783  0.40803  0.08815  1.0000
  C   C1166     1.0  0.31768  0.18786  0.45013  1.0000
  C   C1167     1.0  0.37930  0.47715  0.31249  1.0000
  H   H922      1.0  0.34941  0.47728  0.40341  1.0000
  H   H923      1.0  0.22343  0.35041  0.11026  1.0000
  C   C1168     1.0  0.31272  0.28891  0.44599  1.0000
  C   C1169     1.0  0.20965  0.34358  0.11535  1.0000
  C   C1170     1.0  0.39008  0.48239  0.23698  1.0000
  H   H924      1.0  0.32610  0.24254  0.41716  1.0000
  C   C1171     1.0  0.31932  0.48884  0.24346  1.0000
  H   H925      1.0  0.25852  0.13596  0.44975  1.0000
  H   H926      1.0  0.24529  0.28536  0.03005  1.0000
  H   H927      1.0  0.22818  0.04602  0.32871  1.0000
  C   C1172     1.0  0.20297  0.07316  0.33121  1.0000
  C   C1173     1.0  0.33994  0.35074  0.48662  1.0000
  S   S155      1.0  0.37005  0.40763  0.46287  1.0000
  C   C1174     1.0  0.22004  0.10061  0.45190  1.0000
  S   S156      1.0  0.34795  0.08787  0.48232  1.0000
  C   C1175     1.0  0.29441  0.20392  0.41864  1.0000
  C   C1176     1.0  0.32471  0.27542  0.41397  1.0000
  H   H928      1.0  0.30923  0.30186  0.45406  1.0000
  H   H929      1.0  0.22511  0.42404  0.04405  1.0000
  C   C1177     1.0  0.19415  0.16890  0.39985  1.0000
  H   H930      1.0  0.34071  0.08844  0.98884  1.0000
  C   C1178     1.0  0.21773  0.43115  0.01351  1.0000
  C   C1179     1.0  0.22959  0.08798  0.34731  1.0000
  C   C1180     1.0  0.20178  0.43815  0.17936  1.0000
  H   H931      1.0  0.31462  0.48348  0.23180  1.0000
  C   C1181     1.0  0.34741  0.47075  0.39107  1.0000
  C   C1182     1.0  0.28589  0.22818  0.48069  1.0000
  S   S157      1.0  0.23981  0.48902  0.22084  1.0000
  C   C1183     1.0  0.37700  0.26974  0.43119  1.0000
  C   C1184     1.0  0.30425  0.18274  0.42210  1.0000
  H   H932      1.0  0.34063  0.44594  0.34776  1.0000
  H   H933      1.0  0.28508  0.21002  0.40669  1.0000
  C   C1185     1.0  0.33846  0.47480  0.35743  1.0000
  H   H934      1.0  0.22388  0.05852  0.29053  1.0000
  H   H935      1.0  0.22611  0.99300  0.32565  1.0000
  H   H936      1.0  0.22204  0.18154  0.39130  1.0000
  C   C1186     1.0  0.20559  0.15126  0.43889  1.0000
  H   H937      1.0  0.23258  0.42237  0.00660  1.0000
  H   H938      1.0  0.20857  0.10778  0.44224  1.0000
  C   C1187     1.0  0.32529  0.34083  0.48355  1.0000
  H   H939      1.0  0.22183  0.00423  0.26913  1.0000
  C   C1188     1.0  0.20508  0.38197  0.04701  1.0000
  C   C1189     1.0  0.26923  0.24517  0.47716  1.0000
  C   C1190     1.0  0.35619  0.29723  0.47479  1.0000
  C   C1191     1.0  0.31587  0.17473  0.43783  1.0000
  H   H940      1.0  0.22573  0.07121  0.44225  1.0000
  C   C1192     1.0  0.29058  0.05077  0.43288  1.0000
  C   C1193     1.0  0.28148  0.07102  0.42357  1.0000
  C   C1194     1.0  0.28503  0.08878  0.42861  1.0000
  C   C1195     1.0  0.29746  0.08650  0.44322  1.0000
  C   C1196     1.0  0.30636  0.06626  0.45269  1.0000
  C   C1197     1.0  0.30314  0.04853  0.44734  1.0000
  H   H941      1.0  0.27185  0.07299  0.41235  1.0000
  H   H942      1.0  0.27802  0.10434  0.42125  1.0000
  H   H943      1.0  0.31601  0.06426  0.46390  1.0000
  H   H944      1.0  0.31037  0.03297  0.45452  1.0000
  C   C1198     1.0  0.22526  0.03127  0.27869  1.0000
  C   C1199     1.0  0.35113  0.44894  0.39352  1.0000
  C   C1200     1.0  0.22967  0.07961  0.45197  1.0000
  H   H945      1.0  0.28330  0.15209  0.45809  1.0000
  Fe  Fe78      1.0  0.22443  0.99808  0.43587  1.0000
  S   S158      1.0  0.32071  0.13508  0.48537  1.0000
  H   H946      1.0  0.36508  0.27328  0.42203  1.0000
  C   C1201     1.0  0.26677  0.15686  0.46414  1.0000
  C   C1202     1.0  0.19789  0.04343  0.30679  1.0000
  C   C1203     1.0  0.21807  0.16343  0.42298  1.0000
  H   H947      1.0  0.37448  0.46462  0.32508  1.0000
  C   C1204     1.0  0.21357  0.43218  0.03463  1.0000
  C   C1205     1.0  0.23838  0.17758  0.48488  1.0000
  C   C1206     1.0  0.21644  0.04559  0.29200  1.0000
  C   C1207     1.0  0.25001  0.08057  0.47631  1.0000
  H   H948      1.0  0.34657  0.36231  0.47404  1.0000
  H   H949      1.0  0.32075  0.34470  0.46852  1.0000
  H   H950      1.0  0.38343  0.19101  0.46557  1.0000
  C   C1208     1.0  0.25396  0.47731  0.03787  1.0000
  H   H951      1.0  0.32557  0.02616  0.38272  1.0000
  C   C1209     1.0  0.21526  0.01512  0.27965  1.0000
  C   C1210     1.0  0.32189  0.25543  0.42534  1.0000
  C   C1211     1.0  0.30859  0.20937  0.44615  1.0000
  H   H952      1.0  0.28239  0.47081  0.01506  1.0000
  C   C1212     1.0  0.22600  0.31312  0.04034  1.0000
  H   H953      1.0  0.27658  0.02904  0.35160  1.0000
  C   C1213     1.0  0.22091  0.27787  0.05680  1.0000
  H   H954      1.0  0.23962  0.03293  0.26738  1.0000
  C   C1214     1.0  0.37319  0.30498  0.47559  1.0000
  C   C1215     1.0  0.19622  0.43854  0.11390  1.0000
  C   C1216     1.0  0.25526  0.47658  0.00176  1.0000
  H   H955      1.0  0.23977  0.09359  0.35374  1.0000
  H   H956      1.0  0.23477  0.32370  0.02853  1.0000
  H   H957      1.0  0.36309  0.47186  0.29140  1.0000
  H   H958      1.0  0.33060  0.27792  0.39715  1.0000
  H   H959      1.0  0.19555  0.27501  0.08318  1.0000
  H   H960      1.0  0.19254  0.02688  0.48679  1.0000
  H   H961      1.0  0.32600  0.18107  0.46283  1.0000
  C   C1217     1.0  0.19746  0.30769  0.07019  1.0000
  C   C1218     1.0  0.20311  0.33586  0.10119  1.0000
  H   H962      1.0  0.35615  0.43887  0.40747  1.0000
  H   H963      1.0  0.35280  0.20278  0.44896  1.0000
  C   C1219     1.0  0.34002  0.49056  0.24076  1.0000
  H   H964      1.0  0.23232  0.16605  0.42541  1.0000
  C   C1220     1.0  0.25262  0.14758  0.45959  1.0000
  H   H965      1.0  0.20921  0.40542  0.11971  1.0000
  C   C1221     1.0  0.22300  0.06132  0.33287  1.0000
  Fe  Fe79      1.0  0.22311  0.36758  0.00063  1.0000
  C   C1222     1.0  0.21418  0.45990  0.08330  1.0000
  S   S159      1.0  0.38191  0.12622  0.48589  1.0000
  H   H966      1.0  0.21753  0.48228  0.11203  1.0000
  C   C1223     1.0  0.23631  0.06886  0.34066  1.0000
  C   C1224     1.0  0.22866  0.44169  0.07878  1.0000
  C   C1225     1.0  0.22191  0.48409  0.02529  1.0000
  C   C1226     1.0  0.31632  0.01828  0.37747  1.0000
  H   H967      1.0  0.32213  0.30770  0.41549  1.0000
  C   C1227     1.0  0.26549  0.47458  0.01797  1.0000
  C   C1228     1.0  0.23205  0.29149  0.04135  1.0000
  H   H968      1.0  0.25226  0.05333  0.46388  1.0000
  H   H969      1.0  0.21206  0.33702  0.08533  1.0000
  H   H970      1.0  0.24149  0.44248  0.06541  1.0000
  C   C1229     1.0  0.37300  0.48127  0.29338  1.0000
  C   C1230     1.0  0.31371  0.25224  0.44704  1.0000
  S   S160      1.0  0.20696  0.34315  0.99874  1.0000
  H   H971      1.0  0.34701  0.30497  0.46292  1.0000
  C   C1231     1.0  0.21062  0.42053  0.10940  1.0000
  C   C1232     1.0  0.20949  0.09956  0.34623  1.0000
  C   C1233     1.0  0.35155  0.20632  0.46410  1.0000
  C   C1234     1.0  0.30973  0.26901  0.45738  1.0000
  C   C1235     1.0  0.32002  0.29218  0.42428  1.0000
  H   H972      1.0  0.28843  0.23346  0.42806  1.0000
  H   H973      1.0  0.20294  0.34941  0.14669  1.0000
  C   C1236     1.0  0.20556  0.38583  0.06636  1.0000
  C   C1237     1.0  0.34894  0.44000  0.37783  1.0000
  H   H974      1.0  0.27108  0.25801  0.46382  1.0000
  C   C1238     1.0  0.37517  0.25551  0.45037  1.0000
  H   H975      1.0  0.35249  0.42305  0.37961  1.0000
  C   C1239     1.0  0.20379  0.28590  0.07129  1.0000
  H   H976      1.0  0.30265  0.17239  0.41285  1.0000
  H   H977      1.0  0.20777  0.17254  0.48736  1.0000
  C   C1240     1.0  0.19610  0.09204  0.33852  1.0000
  C   C1241     1.0  0.29646  0.21717  0.43069  1.0000
  H   H978      1.0  0.21535  0.45791  0.19075  1.0000
  H   H979      1.0  0.36167  0.24825  0.45626  1.0000
  H   H980      1.0  0.30413  0.26679  0.47424  1.0000
  C   C1242     1.0  0.30105  0.03011  0.36622  1.0000
  C   C1243     1.0  0.29102  0.99818  0.36569  1.0000
  C   C1244     1.0  0.20254  0.44074  0.00148  1.0000
  P   P40       1.0  0.21709  0.48548  0.06742  1.0000
  S   S161      1.0  0.25421  0.99534  0.41210  1.0000
  C   C1245     1.0  0.36913  0.20006  0.47318  1.0000
  C   C1246     1.0  0.19651  0.01327  0.29395  1.0000
  H   H981      1.0  0.22556  0.26109  0.05754  1.0000
  H   H982      1.0  0.20508  0.48738  0.02777  1.0000
  H   H983      1.0  0.19374  0.02482  0.35296  1.0000
  S   S162      1.0  0.39004  0.45006  0.47869  1.0000
  C   C1247     1.0  0.21232  0.17224  0.40356  1.0000
  H   H984      1.0  0.27078  0.17880  0.48046  1.0000
  C   C1248     1.0  0.19786  0.45808  0.10089  1.0000
  C   C1249     1.0  0.20128  0.45277  0.19136  1.0000
  H   H985      1.0  0.20409  0.11420  0.35171  1.0000
  C   C1250     1.0  0.24052  0.10165  0.47618  1.0000
  C   C1251     1.0  0.25970  0.17182  0.47680  1.0000
  C   C1252     1.0  0.19413  0.44264  0.04382  1.0000
  H   H986      1.0  0.38906  0.23991  0.47701  1.0000
  H   H987      1.0  0.38759  0.35675  0.40979  1.0000
  H   H988      1.0  0.30419  0.48922  0.40068  1.0000
  H   H989      1.0  0.19841  0.48922  0.29425  1.0000
  Fe  Fe80      1.0  0.38219  0.37681  0.48284  1.0000
  C   C1253     1.0  0.22417  0.16806  0.48067  1.0000
  C   C1254     1.0  0.23350  0.48124  0.00546  1.0000
  H   H990      1.0  0.37699  0.31895  0.46455  1.0000
  H   H991      1.0  0.23718  0.25911  0.48858  1.0000
  C   C1255     1.0  0.21595  0.34059  0.53880  1.0000
  Fe  Fe81      1.0  0.35463  0.03501  0.67316  1.0000
  S   S163      1.0  0.33481  0.04343  0.53068  1.0000
  C   C1256     1.0  0.22250  0.11234  0.60664  1.0000
  Fe  Fe82      1.0  0.27723  0.28005  0.57087  1.0000
  S   S164      1.0  0.28118  0.29038  0.59844  1.0000
  C   C1257     1.0  0.24516  0.03185  0.77017  1.0000
  H   H992      1.0  0.23118  0.05038  0.83841  1.0000
  H   H993      1.0  0.29726  0.99563  0.89559  1.0000
  C   C1258     1.0  0.28161  0.05798  0.65962  1.0000
  C   C1259     1.0  0.26967  0.36368  0.73814  1.0000
  Fe  Fe83      1.0  0.29874  0.08002  0.84629  1.0000
  S   S165      1.0  0.30693  0.09644  0.81273  1.0000
  S   S166      1.0  0.32276  0.06141  0.86547  1.0000
  Fe  Fe84      1.0  0.25269  0.09549  0.84818  1.0000
  S   S167      1.0  0.25660  0.11391  0.81511  1.0000
  Fe  Fe85      1.0  0.28029  0.08544  0.80752  1.0000
  S   S168      1.0  0.28217  0.07776  0.77618  1.0000
  Fe  Fe86      1.0  0.28257  0.12331  0.82299  1.0000
  S   S169      1.0  0.29066  0.15501  0.81197  1.0000
  S   S170      1.0  0.27442  0.06609  0.84020  1.0000
  S   S171      1.0  0.27634  0.10780  0.85690  1.0000
  Fe  Fe87      1.0  0.30205  0.27327  0.86614  1.0000
  S   S172      1.0  0.27229  0.27403  0.85676  1.0000
  S   S173      1.0  0.30713  0.29560  0.88322  1.0000
  Fe  Fe88      1.0  0.32776  0.24089  0.84091  1.0000
  S   S174      1.0  0.30079  0.23912  0.82838  1.0000
  S   S175      1.0  0.36067  0.22246  0.83594  1.0000
  Fe  Fe89      1.0  0.29231  0.27397  0.82464  1.0000
  S   S176      1.0  0.28118  0.29243  0.79543  1.0000
  Fe  Fe90      1.0  0.28281  0.23893  0.86145  1.0000
  S   S177      1.0  0.26044  0.21677  0.87486  1.0000
  S   S178      1.0  0.32129  0.27599  0.83351  1.0000
  S   S179      1.0  0.31051  0.23811  0.87440  1.0000
  H   H994      1.0  0.20607  0.19520  0.72181  1.0000
  Fe  Fe91      1.0  0.23377  0.33628  0.97236  1.0000
  S   S180      1.0  0.21847  0.35914  0.94746  1.0000
  S   S181      1.0  0.24605  0.30238  0.97015  1.0000
  Fe  Fe92      1.0  0.23309  0.38259  0.95375  1.0000
  S   S182      1.0  0.24562  0.40563  0.92583  1.0000
  Fe  Fe93      1.0  0.19284  0.36758  0.97406  1.0000
  H   H995      1.0  0.25033  0.04475  0.70704  1.0000
  S   S183      1.0  0.20498  0.05574  0.72476  1.0000
  C   C1260     1.0  0.24676  0.22910  0.50795  1.0000
  S   S184      1.0  0.20619  0.40002  0.77207  1.0000
  H   H996      1.0  0.26875  0.44297  0.78909  1.0000
  H   H997      1.0  0.31510  0.39150  0.54612  1.0000
  S   S185      1.0  0.24899  0.28700  0.71798  1.0000
  H   H998      1.0  0.32414  0.46058  0.74243  1.0000
  Fe  Fe94      1.0  0.34482  0.33880  0.67882  1.0000
  S   S186      1.0  0.32818  0.36796  0.69122  1.0000
  S   S187      1.0  0.32886  0.32186  0.66478  1.0000
  H   H999      1.0  0.37423  0.21577  0.62258  1.0000
  C   C1261     1.0  0.19928  0.21530  0.69321  1.0000
  Fe  Fe95      1.0  0.34905  0.35537  0.71460  1.0000
  S   S188      1.0  0.33855  0.35751  0.74850  1.0000
  Fe  Fe96      1.0  0.35504  0.38206  0.67060  1.0000
  C   C1262     1.0  0.31851  0.11738  0.98217  1.0000
  S   S189      1.0  0.36375  0.32492  0.70393  1.0000
  S   S190      1.0  0.36986  0.35407  0.65605  1.0000
  C   C1263     1.0  0.27111  0.29691  0.70351  1.0000
  C   C1264     1.0  0.28628  0.29816  0.71365  1.0000
  C   C1265     1.0  0.30376  0.30663  0.70207  1.0000
  C   C1266     1.0  0.30655  0.31273  0.68020  1.0000
  C   C1267     1.0  0.29163  0.31081  0.67013  1.0000
  C   C1268     1.0  0.27362  0.30358  0.68183  1.0000
  H   H1000     1.0  0.28424  0.29300  0.73049  1.0000
  H   H1001     1.0  0.31520  0.30806  0.70998  1.0000
  H   H1002     1.0  0.29387  0.31519  0.65324  1.0000
  H   H1003     1.0  0.26201  0.30235  0.67405  1.0000
  C   C1269     1.0  0.30314  0.36841  0.95931  1.0000
  H   H1004     1.0  0.22019  0.36774  0.74872  1.0000
  C   C1270     1.0  0.21211  0.15966  0.78342  1.0000
  C   C1271     1.0  0.33194  0.22221  0.49365  1.0000
  H   H1005     1.0  0.32686  0.35201  0.91378  1.0000
  H   H1006     1.0  0.37224  0.41470  0.68193  1.0000
  H   H1007     1.0  0.31467  0.05643  0.65486  1.0000
  H   H1008     1.0  0.28111  0.06363  0.64319  1.0000
  H   H1009     1.0  0.24980  0.33217  0.71946  1.0000
  C   C1272     1.0  0.24699  0.46687  0.94236  1.0000
  C   C1273     1.0  0.24446  0.44913  0.95826  1.0000
  C   C1274     1.0  0.24401  0.43022  0.95330  1.0000
  C   C1275     1.0  0.24637  0.42901  0.93236  1.0000
  C   C1276     1.0  0.24958  0.44656  0.91641  1.0000
  C   C1277     1.0  0.24985  0.46550  0.92141  1.0000
  H   H1010     1.0  0.28262  0.36708  0.51378  1.0000
  H   H1011     1.0  0.24195  0.41657  0.96565  1.0000
  H   H1012     1.0  0.25152  0.44560  0.90021  1.0000
  H   H1013     1.0  0.32182  0.33913  0.95201  1.0000
  Fe  Fe97      1.0  0.21732  0.04422  0.69451  1.0000
  H   H1014     1.0  0.21805  0.08733  0.55342  1.0000
  C   C1278     1.0  0.29670  0.31090  0.78254  1.0000
  C   C1279     1.0  0.30358  0.31381  0.76078  1.0000
  C   C1280     1.0  0.31643  0.32818  0.75024  1.0000
  C   C1281     1.0  0.32241  0.33965  0.76152  1.0000
  C   C1282     1.0  0.31555  0.33676  0.78330  1.0000
  C   C1283     1.0  0.30283  0.32223  0.79388  1.0000
  H   H1015     1.0  0.29937  0.30458  0.75212  1.0000
  H   H1016     1.0  0.32165  0.33039  0.73340  1.0000
  H   H1017     1.0  0.32018  0.34568  0.79193  1.0000
  H   H1018     1.0  0.29768  0.31984  0.81076  1.0000
  C   C1284     1.0  0.29094  0.29656  0.90790  1.0000
  C   C1285     1.0  0.28905  0.31367  0.91701  1.0000
  C   C1286     1.0  0.27532  0.31548  0.93623  1.0000
  C   C1287     1.0  0.26418  0.29968  0.94681  1.0000
  C   C1288     1.0  0.26668  0.28211  0.93809  1.0000
  C   C1289     1.0  0.27981  0.28071  0.91843  1.0000
  H   H1019     1.0  0.29787  0.32577  0.90897  1.0000
  H   H1020     1.0  0.27341  0.32907  0.94290  1.0000
  H   H1021     1.0  0.25779  0.27007  0.94619  1.0000
  H   H1022     1.0  0.28128  0.26746  0.91142  1.0000
  C   C1290     1.0  0.36989  0.21270  0.81274  1.0000
  C   C1291     1.0  0.29258  0.99357  0.67492  1.0000
  C   C1292     1.0  0.22946  0.11688  0.62254  1.0000
  H   H1023     1.0  0.30867  0.00663  0.72555  1.0000
  C   C1293     1.0  0.36595  0.20956  0.77886  1.0000
  C   C1294     1.0  0.35730  0.21584  0.79820  1.0000
  S   S191      1.0  0.29934  0.09402  0.50896  1.0000
  C   C1295     1.0  0.21685  0.00633  0.64838  1.0000
  C   C1296     1.0  0.28024  0.45072  0.79071  1.0000
  H   H1024     1.0  0.34118  0.22378  0.80147  1.0000
  C   C1297     1.0  0.26740  0.06027  0.77453  1.0000
  C   C1298     1.0  0.26438  0.04264  0.79042  1.0000
  C   C1299     1.0  0.25351  0.02832  0.78812  1.0000
  C   C1300     1.0  0.25940  0.06357  0.75643  1.0000
  H   H1025     1.0  0.27085  0.03981  0.80420  1.0000
  H   H1026     1.0  0.25145  0.01455  0.80030  1.0000
  H   H1027     1.0  0.26193  0.07699  0.74391  1.0000
  C   C1301     1.0  0.28249  0.16945  0.83195  1.0000
  C   C1302     1.0  0.26186  0.17221  0.84329  1.0000
  C   C1303     1.0  0.25500  0.18631  0.85709  1.0000
  C   C1304     1.0  0.26901  0.19691  0.86011  1.0000
  C   C1305     1.0  0.28991  0.19272  0.85002  1.0000
  C   C1306     1.0  0.29650  0.17956  0.83551  1.0000
  H   H1028     1.0  0.25095  0.16445  0.84049  1.0000
  H   H1029     1.0  0.23882  0.18937  0.86491  1.0000
  H   H1030     1.0  0.30103  0.19994  0.85313  1.0000
  H   H1031     1.0  0.31241  0.17742  0.82687  1.0000
  C   C1307     1.0  0.26425  0.04735  0.69556  1.0000
  C   C1308     1.0  0.36305  0.09883  0.88053  1.0000
  C   C1309     1.0  0.34644  0.10947  0.87049  1.0000
  C   C1310     1.0  0.33393  0.09819  0.86574  1.0000
  C   C1311     1.0  0.33790  0.07622  0.87121  1.0000
  C   C1312     1.0  0.35445  0.06566  0.88126  1.0000
  C   C1313     1.0  0.36709  0.07689  0.88574  1.0000
  H   H1032     1.0  0.34326  0.12646  0.86634  1.0000
  H   H1033     1.0  0.32125  0.10655  0.85788  1.0000
  H   H1034     1.0  0.35752  0.04871  0.88549  1.0000
  S   S192      1.0  0.37879  0.11314  0.88610  1.0000
  H   H1035     1.0  0.35870  0.08990  0.95183  1.0000
  C   C1314     1.0  0.26142  0.31040  0.60760  1.0000
  C   C1315     1.0  0.24708  0.32307  0.59550  1.0000
  C   C1316     1.0  0.34977  0.21651  0.50232  1.0000
  C   C1317     1.0  0.22778  0.33903  0.62517  1.0000
  C   C1318     1.0  0.24284  0.32731  0.63669  1.0000
  C   C1319     1.0  0.25964  0.31306  0.62791  1.0000
  P   P41       1.0  0.19966  0.15334  0.72110  1.0000
  H   H1036     1.0  0.24126  0.32891  0.65262  1.0000
  H   H1037     1.0  0.27090  0.30353  0.63710  1.0000
  C   C1320     1.0  0.36161  0.27057  0.50579  1.0000
  C   C1321     1.0  0.34678  0.03335  0.55246  1.0000
  H   H1038     1.0  0.19547  0.06550  0.86901  1.0000
  H   H1039     1.0  0.27534  0.00418  0.95966  1.0000
  C   C1322     1.0  0.22024  0.28011  0.89634  1.0000
  H   H1040     1.0  0.27420  0.36320  0.80460  1.0000
  H   H1041     1.0  0.37584  0.27027  0.64474  1.0000
  C   C1323     1.0  0.24907  0.10689  0.68564  1.0000
  C   C1324     1.0  0.35160  0.26450  0.68299  1.0000
  C   C1325     1.0  0.36135  0.24391  0.68061  1.0000
  H   H1042     1.0  0.21572  0.38266  0.89314  1.0000
  P   P42       1.0  0.35616  0.23313  0.66096  1.0000
  C   C1326     1.0  0.32951  0.24203  0.65750  1.0000
  C   C1327     1.0  0.21499  0.00430  0.84662  1.0000
  H   H1043     1.0  0.19517  0.12355  0.78644  1.0000
  H   H1044     1.0  0.39048  0.11009  0.66985  1.0000
  C   C1328     1.0  0.32027  0.99330  0.75403  1.0000
  C   C1329     1.0  0.36522  0.38824  0.56120  1.0000
  C   C1330     1.0  0.32468  0.24214  0.63840  1.0000
  C   C1331     1.0  0.30420  0.24926  0.63536  1.0000
  C   C1332     1.0  0.28840  0.25642  0.65135  1.0000
  C   C1333     1.0  0.29289  0.25546  0.67075  1.0000
  C   C1334     1.0  0.31334  0.24819  0.67388  1.0000
  C   C1335     1.0  0.36051  0.20484  0.66926  1.0000
  C   C1336     1.0  0.34462  0.19525  0.68306  1.0000
  C   C1337     1.0  0.34804  0.17340  0.68991  1.0000
  C   C1338     1.0  0.36730  0.16095  0.68291  1.0000
  H   H1045     1.0  0.21660  0.32519  0.76878  1.0000
  S   S193      1.0  0.24619  0.49074  0.94887  1.0000
  C   C1339     1.0  0.28776  0.46549  0.58415  1.0000
  H   H1046     1.0  0.21103  0.41253  0.63374  1.0000
  H   H1047     1.0  0.25217  0.47907  0.90909  1.0000
  C   C1340     1.0  0.28827  0.36622  0.52772  1.0000
  H   H1048     1.0  0.33675  0.23707  0.62570  1.0000
  H   H1049     1.0  0.30066  0.24993  0.62035  1.0000
  H   H1050     1.0  0.27268  0.26276  0.64866  1.0000
  H   H1051     1.0  0.28051  0.26050  0.68336  1.0000
  H   H1052     1.0  0.31647  0.24763  0.68898  1.0000
  H   H1053     1.0  0.32966  0.20465  0.68872  1.0000
  H   H1054     1.0  0.33582  0.16614  0.70075  1.0000
  H   H1055     1.0  0.36995  0.14403  0.68811  1.0000
  C   C1341     1.0  0.20788  0.45027  0.72892  1.0000
  H   H1056     1.0  0.23020  0.33536  0.52811  1.0000
  C   C1342     1.0  0.28791  0.13957  0.75907  1.0000
  C   C1343     1.0  0.28106  0.13188  0.74517  1.0000
  C   C1344     1.0  0.27123  0.14582  0.72968  1.0000
  C   C1345     1.0  0.26805  0.16748  0.72819  1.0000
  C   C1346     1.0  0.27569  0.17540  0.74155  1.0000
  C   C1347     1.0  0.28523  0.16122  0.75729  1.0000
  P   P43       1.0  0.27155  0.20331  0.74045  1.0000
  C   C1348     1.0  0.29552  0.21235  0.73631  1.0000
  C   C1349     1.0  0.31489  0.19832  0.73563  1.0000
  C   C1350     1.0  0.33305  0.20569  0.73342  1.0000
  C   C1351     1.0  0.33202  0.22704  0.73177  1.0000
  C   C1352     1.0  0.31287  0.24113  0.73223  1.0000
  C   C1353     1.0  0.29468  0.23386  0.73438  1.0000
  C   C1354     1.0  0.25914  0.21858  0.71907  1.0000
  C   C1355     1.0  0.31938  0.41694  0.72840  1.0000
  C   C1356     1.0  0.24199  0.23508  0.72226  1.0000
  H   H1057     1.0  0.28291  0.11511  0.74673  1.0000
  H   H1058     1.0  0.26546  0.13977  0.71926  1.0000
  H   H1059     1.0  0.25913  0.17773  0.71701  1.0000
  H   H1060     1.0  0.31614  0.18171  0.73699  1.0000
  H   H1061     1.0  0.34797  0.19482  0.73325  1.0000
  H   H1062     1.0  0.34609  0.23260  0.73026  1.0000
  H   H1063     1.0  0.31211  0.25771  0.73096  1.0000
  H   H1064     1.0  0.27991  0.24501  0.73483  1.0000
  H   H1065     1.0  0.28080  0.21205  0.77756  1.0000
  C   C1357     1.0  0.22627  0.14582  0.77163  1.0000
  C   C1358     1.0  0.33719  0.33078  0.52227  1.0000
  H   H1066     1.0  0.33275  0.02959  0.91651  1.0000
  H   H1067     1.0  0.32955  0.26751  0.58065  1.0000
  H   H1068     1.0  0.28197  0.48091  0.86538  1.0000
  H   H1069     1.0  0.24499  0.10957  0.62528  1.0000
  H   H1070     1.0  0.25537  0.20130  0.96557  1.0000
  C   C1359     1.0  0.22777  0.39207  0.83956  1.0000
  C   C1360     1.0  0.28999  0.16002  0.54285  1.0000
  C   C1361     1.0  0.34645  0.36410  0.87181  1.0000
  C   C1362     1.0  0.24239  0.41395  0.85307  1.0000
  C   C1363     1.0  0.23941  0.40753  0.83610  1.0000
  C   C1364     1.0  0.22361  0.33509  0.89475  1.0000
  C   C1365     1.0  0.19321  0.06937  0.82385  1.0000
  H   H1071     1.0  0.35090  0.00170  0.54859  1.0000
  C   C1366     1.0  0.29672  0.39641  0.92951  1.0000
  H   H1072     1.0  0.26419  0.47445  0.98631  1.0000
  S   S194      1.0  0.37097  0.00294  0.66732  1.0000
  H   H1073     1.0  0.23172  0.22963  0.51864  1.0000
  S   S195      1.0  0.26581  0.25060  0.57431  1.0000
  H   H1074     1.0  0.23984  0.31334  0.91755  1.0000
  H   H1075     1.0  0.23761  0.33523  0.88271  1.0000
  H   H1076     1.0  0.23798  0.08286  0.71086  1.0000
  C   C1367     1.0  0.36450  0.01500  0.58802  1.0000
  H   H1077     1.0  0.25029  0.42679  0.85039  1.0000
  H   H1078     1.0  0.24534  0.41517  0.82022  1.0000
  H   H1079     1.0  0.22516  0.38809  0.82605  1.0000
  C   C1368     1.0  0.34595  0.34561  0.50601  1.0000
  C   C1369     1.0  0.36824  0.20526  0.49222  1.0000
  H   H1080     1.0  0.27289  0.23168  0.95539  1.0000
  H   H1081     1.0  0.26215  0.17102  0.56438  1.0000
  S   S196      1.0  0.28072  0.13966  0.53894  1.0000
  H   H1082     1.0  0.38596  0.21753  0.68903  1.0000
  C   C1370     1.0  0.31688  0.32558  0.49974  1.0000
  H   H1083     1.0  0.25515  0.26367  0.77072  1.0000
  C   C1371     1.0  0.28301  0.04404  0.70217  1.0000
  C   C1372     1.0  0.31083  0.00149  0.66986  1.0000
  H   H1084     1.0  0.26051  0.19900  0.52435  1.0000
  H   H1085     1.0  0.25688  0.47187  0.80782  1.0000
  S   S197      1.0  0.23934  0.05923  0.66674  1.0000
  C   C1373     1.0  0.30135  0.04685  0.68751  1.0000
  H   H1086     1.0  0.31824  0.42833  0.90043  1.0000
  C   C1374     1.0  0.32301  0.03069  0.82595  1.0000
  H   H1087     1.0  0.23225  0.28890  0.89414  1.0000
  H   H1088     1.0  0.32003  0.04336  0.83413  1.0000
  C   C1375     1.0  0.32437  0.44993  0.73272  1.0000
  H   H1089     1.0  0.38289  0.40426  0.85431  1.0000
  Fe  Fe98      1.0  0.30592  0.12107  0.51804  1.0000
  H   H1090     1.0  0.38708  0.10112  0.53002  1.0000
  C   C1376     1.0  0.31512  0.35524  0.94569  1.0000
  C   C1377     1.0  0.27183  0.04564  0.89845  1.0000
  C   C1378     1.0  0.33644  0.99937  0.93815  1.0000
  C   C1379     1.0  0.22499  0.32269  0.91459  1.0000
  C   C1380     1.0  0.29145  0.03104  0.92612  1.0000
  H   H1091     1.0  0.20656  0.16939  0.83725  1.0000
  S   S198      1.0  0.36429  0.35737  0.51060  1.0000
  H   H1092     1.0  0.23588  0.41018  0.88662  1.0000
  H   H1093     1.0  0.21089  0.30935  0.55277  1.0000
  C   C1381     1.0  0.36143  0.11675  0.81654  1.0000
  C   C1382     1.0  0.34931  0.13665  0.81830  1.0000
  C   C1383     1.0  0.35846  0.15227  0.82026  1.0000
  C   C1384     1.0  0.31802  0.36268  0.92396  1.0000
  H   H1094     1.0  0.24180  0.05239  0.74057  1.0000
  C   C1385     1.0  0.20494  0.32588  0.55272  1.0000
  C   C1386     1.0  0.19223  0.39368  0.68518  1.0000
  C   C1387     1.0  0.22027  0.46921  0.86665  1.0000
  S   S199      1.0  0.23136  0.01379  0.76774  1.0000
  H   H1095     1.0  0.35811  0.04255  0.92775  1.0000
  C   C1388     1.0  0.38115  0.42161  0.66724  1.0000
  C   C1389     1.0  0.20832  0.29323  0.59906  1.0000
  H   H1096     1.0  0.21760  0.05690  0.79984  1.0000
  C   C1390     1.0  0.20883  0.09046  0.79141  1.0000
  H   H1097     1.0  0.21605  0.24619  0.85995  1.0000
  H   H1098     1.0  0.32063  0.41163  0.81170  1.0000
  H   H1099     1.0  0.38110  0.31017  0.52706  1.0000
  H   H1100     1.0  0.35419  0.10470  0.81517  1.0000
  H   H1101     1.0  0.33281  0.13994  0.81823  1.0000
  H   H1102     1.0  0.34923  0.16785  0.82111  1.0000
  C   C1391     1.0  0.20861  0.36199  0.53862  1.0000
  C   C1392     1.0  0.36708  0.13605  0.97915  1.0000
  C   C1393     1.0  0.34555  0.10224  0.95587  1.0000
  H   H1103     1.0  0.19546  0.23655  0.73524  1.0000
  H   H1104     1.0  0.38579  0.16394  0.89366  1.0000
  H   H1105     1.0  0.35036  0.40521  0.60730  1.0000
  H   H1106     1.0  0.33683  0.44674  0.68108  1.0000
  H   H1107     1.0  0.31935  0.15288  0.52187  1.0000
  H   H1108     1.0  0.27825  0.36291  0.74998  1.0000
  C   C1394     1.0  0.31866  0.43038  0.74165  1.0000
  C   C1395     1.0  0.30988  0.16307  0.53229  1.0000
  C   C1396     1.0  0.38874  0.13333  0.97475  1.0000
  C   C1397     1.0  0.37992  0.19224  0.66271  1.0000
  C   C1398     1.0  0.29878  0.01210  0.91885  1.0000
  C   C1399     1.0  0.36374  0.07080  0.71514  1.0000
  C   C1400     1.0  0.35327  0.08316  0.69944  1.0000
  C   C1401     1.0  0.36297  0.09741  0.68330  1.0000
  H   H1109     1.0  0.38632  0.16040  0.82214  1.0000
  C   C1402     1.0  0.27759  0.17340  0.55618  1.0000
  H   H1110     1.0  0.20227  0.01671  0.80847  1.0000
  C   C1403     1.0  0.35879  0.05960  0.81555  1.0000
  H   H1111     1.0  0.27361  0.43055  0.75271  1.0000
  S   S200      1.0  0.29982  0.31200  0.49521  1.0000
  C   C1404     1.0  0.20987  0.24666  0.90409  1.0000
  H   H1112     1.0  0.28519  0.05101  0.54720  1.0000
  C   C1405     1.0  0.25748  0.40547  0.76834  1.0000
  C   C1406     1.0  0.25391  0.34626  0.72078  1.0000
  H   H1113     1.0  0.35635  0.05934  0.72726  1.0000
  H   H1114     1.0  0.33800  0.08092  0.69936  1.0000
  H   H1115     1.0  0.35510  0.10644  0.67074  1.0000
  C   C1407     1.0  0.31872  0.01017  0.64903  1.0000
  P   P44       1.0  0.31141  0.39231  0.88752  1.0000
  H   H1116     1.0  0.21388  0.22963  0.90772  1.0000
  C   C1408     1.0  0.30235  0.42048  0.88017  1.0000
  C   C1409     1.0  0.30827  0.43431  0.88906  1.0000
  H   H1117     1.0  0.31889  0.00090  0.68206  1.0000
  H   H1118     1.0  0.35678  0.25731  0.51738  1.0000
  C   C1410     1.0  0.28208  0.45054  0.86020  1.0000
  C   C1411     1.0  0.28925  0.42883  0.86561  1.0000
  C   C1412     1.0  0.36453  0.17191  0.95937  1.0000
  H   H1119     1.0  0.33312  0.01587  0.64500  1.0000
  H   H1120     1.0  0.38305  0.16408  0.58618  1.0000
  C   C1413     1.0  0.37010  0.22325  0.89162  1.0000
  H   H1121     1.0  0.37735  0.38859  0.54712  1.0000
  C   C1414     1.0  0.29642  0.37884  0.87863  1.0000
  C   C1415     1.0  0.30131  0.37653  0.85765  1.0000
  C   C1416     1.0  0.29057  0.36502  0.85104  1.0000
  C   C1417     1.0  0.27474  0.35594  0.86526  1.0000
  C   C1418     1.0  0.26945  0.35863  0.88603  1.0000
  C   C1419     1.0  0.28018  0.37008  0.89269  1.0000
  H   H1122     1.0  0.37206  0.42307  0.52054  1.0000
  H   H1123     1.0  0.28408  0.39902  0.96173  1.0000
  H   H1124     1.0  0.20187  0.34676  0.73706  1.0000
  P   P45       1.0  0.20311  0.36343  0.86476  1.0000
  C   C1420     1.0  0.37931  0.25571  0.75740  1.0000
  C   C1421     1.0  0.37858  0.04856  0.78346  1.0000
  H   H1125     1.0  0.31357  0.38343  0.84650  1.0000
  H   H1126     1.0  0.29461  0.36286  0.83500  1.0000
  H   H1127     1.0  0.26671  0.34675  0.86015  1.0000
  H   H1128     1.0  0.25723  0.35167  0.89725  1.0000
  H   H1129     1.0  0.27588  0.37180  0.90891  1.0000
  C   C1422     1.0  0.30115  0.42609  0.64179  1.0000
  C   C1423     1.0  0.25144  0.99791  0.84818  1.0000
  C   C1424     1.0  0.20820  0.35820  0.82374  1.0000
  H   H1130     1.0  0.20128  0.99817  0.84792  1.0000
  C   C1425     1.0  0.28512  0.19011  0.55861  1.0000
  C   C1426     1.0  0.38068  0.26047  0.63318  1.0000
  C   C1427     1.0  0.25754  0.38655  0.78301  1.0000
  H   H1131     1.0  0.37776  0.01967  0.95455  1.0000
  C   C1428     1.0  0.24783  0.12847  0.67804  1.0000
  C   C1429     1.0  0.23389  0.14277  0.68946  1.0000
  C   C1430     1.0  0.38037  0.23186  0.55728  1.0000
  S   S201      1.0  0.25132  0.35885  0.97600  1.0000
  H   H1132     1.0  0.35477  0.18665  0.95374  1.0000
  H   H1133     1.0  0.38099  0.13598  0.61824  1.0000
  H   H1134     1.0  0.37260  0.29823  0.57927  1.0000
  H   H1135     1.0  0.21569  0.04631  0.49369  1.0000
  C   C1431     1.0  0.27392  0.41589  0.76410  1.0000
  C   C1432     1.0  0.37151  0.04359  0.82713  1.0000
  C   C1433     1.0  0.30522  0.19293  0.54812  1.0000
  C   C1434     1.0  0.26960  0.06668  0.59402  1.0000
  Fe  Fe99      1.0  0.29361  0.24352  0.54904  1.0000
  H   H1136     1.0  0.25736  0.13411  0.66310  1.0000
  H   H1137     1.0  0.23288  0.15940  0.68307  1.0000
  H   H1138     1.0  0.25142  0.30211  0.76142  1.0000
  H   H1139     1.0  0.29760  0.10702  0.56787  1.0000
  H   H1140     1.0  0.30322  0.38175  0.79756  1.0000
  C   C1435     1.0  0.37962  0.14794  0.82082  1.0000
  H   H1141     1.0  0.20690  0.01163  0.66218  1.0000
  H   H1142     1.0  0.21633  0.07485  0.60705  1.0000
  C   C1436     1.0  0.36218  0.06203  0.79378  1.0000
  H   H1143     1.0  0.23292  0.18920  0.49471  1.0000
  H   H1144     1.0  0.35197  0.07423  0.78497  1.0000
  H   H1145     1.0  0.24273  0.45010  0.97441  1.0000
  S   S202      1.0  0.38312  0.04227  0.67836  1.0000
  C   C1437     1.0  0.26797  0.19501  0.61544  1.0000
  C   C1438     1.0  0.25007  0.19059  0.61223  1.0000
  C   C1439     1.0  0.24899  0.16984  0.61340  1.0000
  C   C1440     1.0  0.26590  0.15351  0.61747  1.0000
  C   C1441     1.0  0.28429  0.15788  0.61983  1.0000
  C   C1442     1.0  0.28494  0.17872  0.61943  1.0000
  P   P46       1.0  0.30653  0.13688  0.62427  1.0000
  C   C1443     1.0  0.30504  0.12875  0.65229  1.0000
  C   C1444     1.0  0.30821  0.11569  0.61147  1.0000
  C   C1445     1.0  0.31834  0.09512  0.61904  1.0000
  C   C1446     1.0  0.31970  0.07888  0.60894  1.0000
  C   C1447     1.0  0.31194  0.08318  0.59071  1.0000
  C   C1448     1.0  0.30296  0.10372  0.58240  1.0000
  C   C1449     1.0  0.30119  0.11997  0.59261  1.0000
  C   C1450     1.0  0.29884  0.10993  0.66358  1.0000
  C   C1451     1.0  0.29894  0.10336  0.68501  1.0000
  C   C1452     1.0  0.30474  0.11575  0.69544  1.0000
  C   C1453     1.0  0.31025  0.13486  0.68452  1.0000
  C   C1454     1.0  0.31038  0.14137  0.66302  1.0000
  C   C1455     1.0  0.33056  0.14599  0.61246  1.0000
  C   C1456     1.0  0.34845  0.13661  0.62097  1.0000
  C   C1457     1.0  0.36720  0.14337  0.61169  1.0000
  H   H1146     1.0  0.21535  0.35615  0.79118  1.0000
  C   C1458     1.0  0.35074  0.16832  0.58486  1.0000
  C   C1459     1.0  0.33198  0.16156  0.59403  1.0000
  H   H1147     1.0  0.26891  0.21115  0.61424  1.0000
  H   H1148     1.0  0.23716  0.20326  0.60850  1.0000
  H   H1149     1.0  0.23516  0.16652  0.61063  1.0000
  H   H1150     1.0  0.26481  0.13756  0.61822  1.0000
  H   H1151     1.0  0.29875  0.18252  0.62161  1.0000
  H   H1152     1.0  0.32553  0.09159  0.63249  1.0000
  H   H1153     1.0  0.32705  0.06294  0.61498  1.0000
  H   H1154     1.0  0.31313  0.07060  0.58284  1.0000
  H   H1155     1.0  0.29470  0.13586  0.58548  1.0000
  H   H1156     1.0  0.29380  0.10027  0.65601  1.0000
  H   H1157     1.0  0.29459  0.08856  0.69358  1.0000
  H   H1158     1.0  0.30513  0.11032  0.71196  1.0000
  H   H1159     1.0  0.31463  0.14446  0.69271  1.0000
  H   H1160     1.0  0.31500  0.15607  0.65468  1.0000
  H   H1161     1.0  0.34814  0.12375  0.63446  1.0000
  C   C1460     1.0  0.20477  0.11840  0.86084  1.0000
  C   C1461     1.0  0.37338  0.24180  0.63653  1.0000
  C   C1462     1.0  0.20917  0.24518  0.55890  1.0000
  H   H1162     1.0  0.31873  0.16840  0.58654  1.0000
  C   C1463     1.0  0.26307  0.21192  0.51125  1.0000
  C   C1464     1.0  0.37301  0.30422  0.81177  1.0000
  C   C1465     1.0  0.36059  0.32434  0.80701  1.0000
  C   C1466     1.0  0.34594  0.33312  0.82290  1.0000
  C   C1467     1.0  0.34333  0.32179  0.84356  1.0000
  C   C1468     1.0  0.35569  0.30187  0.84846  1.0000
  C   C1469     1.0  0.35580  0.28472  0.78208  1.0000
  C   C1470     1.0  0.34584  0.27428  0.77329  1.0000
  C   C1471     1.0  0.35757  0.26003  0.76075  1.0000
  C   C1472     1.0  0.22234  0.14360  0.75297  1.0000
  H   H1163     1.0  0.29131  0.33480  0.57556  1.0000
  C   C1473     1.0  0.38045  0.37252  0.85586  1.0000
  H   H1164     1.0  0.22421  0.24793  0.78686  1.0000
  H   H1165     1.0  0.36175  0.33300  0.79091  1.0000
  H   H1166     1.0  0.33616  0.34843  0.81906  1.0000
  H   H1167     1.0  0.33132  0.32813  0.85575  1.0000
  H   H1168     1.0  0.35321  0.29289  0.86443  1.0000
  H   H1169     1.0  0.34638  0.29579  0.79164  1.0000
  H   H1170     1.0  0.32901  0.27690  0.77652  1.0000
  H   H1171     1.0  0.34974  0.25193  0.75413  1.0000
  C   C1474     1.0  0.36590  0.11033  0.55732  1.0000
  C   C1475     1.0  0.23221  0.48401  0.86532  1.0000
  C   C1476     1.0  0.25018  0.43855  0.71153  1.0000
  H   H1172     1.0  0.33924  0.24958  0.92908  1.0000
  H   H1173     1.0  0.25935  0.09575  0.67659  1.0000
  H   H1174     1.0  0.31987  0.47929  0.79867  1.0000
  C   C1477     1.0  0.22525  0.25820  0.90099  1.0000
  C   C1478     1.0  0.28963  0.00377  0.63829  1.0000
  S   S203      1.0  0.19829  0.44969  0.85116  1.0000
  C   C1479     1.0  0.24805  0.04960  0.75443  1.0000
  C   C1480     1.0  0.35538  0.47941  0.59854  1.0000
  H   H1175     1.0  0.24109  0.25010  0.90219  1.0000
  H   H1176     1.0  0.27288  0.06246  0.92127  1.0000
  S   S204      1.0  0.20980  0.33764  0.69771  1.0000
  C   C1481     1.0  0.26282  0.15439  0.90268  1.0000
  C   C1482     1.0  0.26739  0.13390  0.89935  1.0000
  C   C1483     1.0  0.28603  0.12043  0.90329  1.0000
  C   C1484     1.0  0.29983  0.12728  0.91111  1.0000
  C   C1485     1.0  0.29503  0.14769  0.91510  1.0000
  C   C1486     1.0  0.27678  0.16146  0.91003  1.0000
  P   P47       1.0  0.31307  0.15641  0.92505  1.0000
  C   C1487     1.0  0.32208  0.13523  0.94549  1.0000
  C   C1488     1.0  0.33435  0.16223  0.90365  1.0000
  C   C1489     1.0  0.35427  0.16040  0.90739  1.0000
  C   C1490     1.0  0.37039  0.16597  0.89078  1.0000
  C   C1491     1.0  0.36663  0.17383  0.87048  1.0000
  C   C1492     1.0  0.34674  0.17606  0.86678  1.0000
  C   C1493     1.0  0.33068  0.17018  0.88325  1.0000
  C   C1494     1.0  0.31187  0.13422  0.96661  1.0000
  H   H1177     1.0  0.21163  0.15019  0.56271  1.0000
  C   C1495     1.0  0.33890  0.11896  0.94025  1.0000
  C   C1496     1.0  0.30059  0.18012  0.93514  1.0000
  C   C1497     1.0  0.31037  0.19747  0.92946  1.0000
  C   C1498     1.0  0.30036  0.21598  0.93672  1.0000
  H   H1178     1.0  0.33483  0.99861  0.74730  1.0000
  H   H1179     1.0  0.21289  0.30827  0.59380  1.0000
  C   C1499     1.0  0.28066  0.18168  0.94823  1.0000
  H   H1180     1.0  0.24863  0.16500  0.89912  1.0000
  H   H1181     1.0  0.25664  0.12864  0.89331  1.0000
  H   H1182     1.0  0.28995  0.10474  0.90002  1.0000
  H   H1183     1.0  0.31433  0.11670  0.91371  1.0000
  H   H1184     1.0  0.27334  0.17775  0.91140  1.0000
  H   H1185     1.0  0.20294  0.44384  0.92831  1.0000
  C   C1500     1.0  0.29392  0.38897  0.95121  1.0000
  C   C1501     1.0  0.20725  0.39732  0.69393  1.0000
  H   H1186     1.0  0.34368  0.18267  0.85116  1.0000
  H   H1187     1.0  0.31536  0.17209  0.88009  1.0000
  C   C1502     1.0  0.33534  0.10140  0.97679  1.0000
  H   H1188     1.0  0.34687  0.11905  0.92408  1.0000
  H   H1189     1.0  0.32557  0.19701  0.91915  1.0000
  H   H1190     1.0  0.30778  0.22943  0.93196  1.0000
  H   H1191     1.0  0.33815  0.15741  0.97493  1.0000
  H   H1192     1.0  0.37332  0.34207  0.85985  1.0000
  H   H1193     1.0  0.27263  0.16870  0.95251  1.0000
  C   C1503     1.0  0.32568  0.29742  0.61272  1.0000
  C   C1504     1.0  0.34597  0.29012  0.60259  1.0000
  C   C1505     1.0  0.35697  0.30399  0.58738  1.0000
  C   C1506     1.0  0.34769  0.32525  0.58245  1.0000
  C   C1507     1.0  0.32736  0.33281  0.59287  1.0000
  C   C1508     1.0  0.31628  0.31852  0.60759  1.0000
  P   P48       1.0  0.31477  0.36009  0.58620  1.0000
  C   C1509     1.0  0.29318  0.36579  0.60765  1.0000
  C   C1510     1.0  0.33387  0.37614  0.58215  1.0000
  C   C1511     1.0  0.33424  0.38648  0.59775  1.0000
  H   H1194     1.0  0.21604  0.03780  0.61156  1.0000
  H   H1195     1.0  0.33657  0.35259  0.87678  1.0000
  S   S205      1.0  0.20487  0.35331  0.63810  1.0000
  C   C1512     1.0  0.34944  0.37732  0.56377  1.0000
  C   C1513     1.0  0.27288  0.37433  0.60404  1.0000
  C   C1514     1.0  0.25594  0.37614  0.62093  1.0000
  C   C1515     1.0  0.25908  0.36955  0.64151  1.0000
  C   C1516     1.0  0.27923  0.36156  0.64523  1.0000
  C   C1517     1.0  0.29621  0.35971  0.62841  1.0000
  C   C1518     1.0  0.30466  0.36269  0.56309  1.0000
  C   C1519     1.0  0.29353  0.34789  0.56251  1.0000
  C   C1520     1.0  0.30702  0.37960  0.54599  1.0000
  H   H1196     1.0  0.31691  0.28679  0.62430  1.0000
  H   H1197     1.0  0.35292  0.27362  0.60614  1.0000
  C   C1521     1.0  0.21625  0.48391  0.83084  1.0000
  H   H1198     1.0  0.35640  0.33551  0.57034  1.0000
  H   H1199     1.0  0.30021  0.32347  0.61498  1.0000
  H   H1200     1.0  0.32267  0.38586  0.61215  1.0000
  H   H1201     1.0  0.28865  0.41207  0.92375  1.0000
  H   H1202     1.0  0.20788  0.20150  0.79624  1.0000
  H   H1203     1.0  0.34741  0.45201  0.53532  1.0000
  H   H1204     1.0  0.34960  0.36956  0.55144  1.0000
  H   H1205     1.0  0.26992  0.37886  0.58829  1.0000
  H   H1206     1.0  0.24022  0.38169  0.61810  1.0000
  H   H1207     1.0  0.24582  0.36994  0.65453  1.0000
  H   H1208     1.0  0.28169  0.35593  0.66118  1.0000
  H   H1209     1.0  0.31163  0.35259  0.63161  1.0000
  H   H1210     1.0  0.33976  0.27364  0.67423  1.0000
  C   C1522     1.0  0.23290  0.20717  0.80694  1.0000
  S   S206      1.0  0.33602  0.10342  0.52752  1.0000
  C   C1523     1.0  0.30062  0.05400  0.66621  1.0000
  C   C1524     1.0  0.23985  0.27364  0.77385  1.0000
  C   C1525     1.0  0.37471  0.42399  0.64849  1.0000
  C   C1526     1.0  0.20007  0.15549  0.84450  1.0000
  S   S207      1.0  0.35904  0.05073  0.63932  1.0000
  S   S208      1.0  0.32470  0.04175  0.69650  1.0000
  C   C1527     1.0  0.26342  0.05432  0.67435  1.0000
  S   S209      1.0  0.35327  0.41369  0.64862  1.0000
  C   C1528     1.0  0.25578  0.20697  0.76581  1.0000
  C   C1529     1.0  0.19159  0.07387  0.49764  1.0000
  H   H1211     1.0  0.27158  0.45691  0.84934  1.0000
  P   P49       1.0  0.35258  0.48245  0.55702  1.0000
  C   C1530     1.0  0.26471  0.21041  0.78102  1.0000
  H   H1212     1.0  0.28424  0.41868  0.85863  1.0000
  H   H1213     1.0  0.31579  0.02162  0.78123  1.0000
  C   C1531     1.0  0.38209  0.20977  0.92458  1.0000
  H   H1214     1.0  0.34911  0.22021  0.51727  1.0000
  H   H1215     1.0  0.38012  0.06859  0.89297  1.0000
  C   C1532     1.0  0.23397  0.40475  0.87353  1.0000
  H   H1216     1.0  0.38179  0.20034  0.49932  1.0000
  C   C1533     1.0  0.27406  0.37807  0.79350  1.0000
  H   H1217     1.0  0.29880  0.14629  0.97125  1.0000
  H   H1218     1.0  0.28327  0.03904  0.71872  1.0000
  C   C1534     1.0  0.19891  0.22280  0.86125  1.0000
  C   C1535     1.0  0.26732  0.21465  0.69872  1.0000
  H   H1219     1.0  0.26039  0.21294  0.81316  1.0000
  C   C1536     1.0  0.23773  0.29539  0.76862  1.0000
  C   C1537     1.0  0.23743  0.10649  0.53060  1.0000
  H   H1220     1.0  0.22950  0.13581  0.85003  1.0000
  H   H1221     1.0  0.34574  0.06302  0.55986  1.0000
  H   H1222     1.0  0.20531  0.48046  0.91030  1.0000
  C   C1538     1.0  0.28521  0.34979  0.54498  1.0000
  H   H1223     1.0  0.26547  0.08071  0.60048  1.0000
  C   C1539     1.0  0.37482  0.16201  0.52863  1.0000
  H   H1224     1.0  0.30054  0.36256  0.97615  1.0000
  H   H1225     1.0  0.28123  0.20273  0.69568  1.0000
  C   C1540     1.0  0.19983  0.25448  0.83435  1.0000
  C   C1541     1.0  0.25323  0.21070  0.80141  1.0000
  C   C1542     1.0  0.23249  0.24669  0.70556  1.0000
  Fe  Fe100     1.0  0.21544  0.02216  0.74000  1.0000
  C   C1543     1.0  0.31747  0.17946  0.53496  1.0000
  C   C1544     1.0  0.30160  0.44437  0.78253  1.0000
  H   H1226     1.0  0.22724  0.31971  0.86207  1.0000
  H   H1227     1.0  0.31766  0.23063  0.50194  1.0000
  C   C1545     1.0  0.24007  0.24203  0.68558  1.0000
  H   H1228     1.0  0.29495  0.12874  0.77153  1.0000
  H   H1229     1.0  0.29032  0.16693  0.76842  1.0000
  C   C1546     1.0  0.22228  0.26480  0.78298  1.0000
  H   H1230     1.0  0.20555  0.11560  0.50704  1.0000
  H   H1231     1.0  0.27431  0.08344  0.56177  1.0000
  H   H1232     1.0  0.29613  0.03295  0.93964  1.0000
  C   C1547     1.0  0.36837  0.15919  0.59363  1.0000
  C   C1548     1.0  0.35179  0.39918  0.86861  1.0000
  H   H1233     1.0  0.34624  0.41513  0.87099  1.0000
  H   H1234     1.0  0.33242  0.45007  0.77951  1.0000
  C   C1549     1.0  0.25742  0.22591  0.68218  1.0000
  C   C1550     1.0  0.20105  0.19613  0.70755  1.0000
  C   C1551     1.0  0.21216  0.34861  0.84388  1.0000
  C   C1552     1.0  0.37295  0.09015  0.59077  1.0000
  C   C1553     1.0  0.29214  0.01005  0.90145  1.0000
  H   H1235     1.0  0.19614  0.30752  0.89093  1.0000
  Fe  Fe101     1.0  0.35080  0.11548  0.49408  1.0000
  C   C1554     1.0  0.21604  0.25647  0.61568  1.0000
  C   C1555     1.0  0.20517  0.07078  0.60067  1.0000
  C   C1556     1.0  0.36732  0.35805  0.86221  1.0000
  S   S210      1.0  0.25928  0.29906  0.54643  1.0000
  C   C1557     1.0  0.38724  0.20075  0.77395  1.0000
  H   H1236     1.0  0.26350  0.22251  0.66661  1.0000
  C   C1558     1.0  0.27468  0.06818  0.57227  1.0000
  C   C1559     1.0  0.19939  0.05347  0.49403  1.0000
  H   H1237     1.0  0.23979  0.22543  0.55809  1.0000
  C   C1560     1.0  0.35523  0.02688  0.93483  1.0000
  C   C1561     1.0  0.23395  0.31843  0.82981  1.0000
  Fe  Fe102     1.0  0.38723  0.34293  0.68220  1.0000
  C   C1562     1.0  0.35301  0.01159  0.55799  1.0000
  H   H1238     1.0  0.23312  0.10241  0.59649  1.0000
  Fe  Fe103     1.0  0.25070  0.26866  0.54727  1.0000
  C   C1563     1.0  0.35496  0.15530  0.97141  1.0000
  H   H1239     1.0  0.35647  0.21272  0.76728  1.0000
  C   C1564     1.0  0.37771  0.23317  0.69105  1.0000
  S   S211      1.0  0.22117  0.09433  0.86853  1.0000
  C   C1565     1.0  0.21306  0.13649  0.85163  1.0000
  H   H1240     1.0  0.26667  0.43411  0.70507  1.0000
  H   H1241     1.0  0.25517  0.12907  0.51014  1.0000
  H   H1242     1.0  0.20867  0.31361  0.94636  1.0000
  H   H1243     1.0  0.36893  0.08739  0.60768  1.0000
  C   C1566     1.0  0.38272  0.11248  0.81667  1.0000
  C   C1567     1.0  0.33843  0.38479  0.87494  1.0000
  H   H1244     1.0  0.35741  0.15459  0.92305  1.0000
  C   C1568     1.0  0.28073  0.04993  0.56406  1.0000
  H   H1245     1.0  0.26658  0.04610  0.62435  1.0000
  H   H1246     1.0  0.21861  0.34662  0.59529  1.0000
  S   S212      1.0  0.37514  0.00214  0.61024  1.0000
  H   H1247     1.0  0.22170  0.13451  0.64709  1.0000
  S   S213      1.0  0.22985  0.01123  0.70968  1.0000
  H   H1248     1.0  0.27556  0.20059  0.56874  1.0000
  C   C1569     1.0  0.22318  0.22595  0.56250  1.0000
  H   H1249     1.0  0.20202  0.08252  0.49989  1.0000
  C   C1570     1.0  0.27078  0.20017  0.95557  1.0000
  H   H1250     1.0  0.22638  0.19232  0.57317  1.0000
  C   C1571     1.0  0.36629  0.01402  0.94993  1.0000
  C   C1572     1.0  0.22166  0.27609  0.60871  1.0000
  C   C1573     1.0  0.20452  0.15575  0.74557  1.0000
  C   C1574     1.0  0.27064  0.04701  0.60752  1.0000
  C   C1575     1.0  0.29048  0.38861  0.78944  1.0000
  H   H1251     1.0  0.23794  0.15699  0.53037  1.0000
  C   C1576     1.0  0.35870  0.03692  0.58239  1.0000
  C   C1577     1.0  0.23111  0.32875  0.80970  1.0000
  C   C1578     1.0  0.22283  0.11378  0.71636  1.0000
  C   C1579     1.0  0.35859  0.26640  0.55796  1.0000
  H   H1252     1.0  0.23308  0.13207  0.74470  1.0000
  H   H1253     1.0  0.27379  0.02521  0.87783  1.0000
  C   C1580     1.0  0.30181  0.40535  0.65272  1.0000
  S   S214      1.0  0.30648  0.27125  0.54785  1.0000
  H   H1254     1.0  0.37154  0.22265  0.87534  1.0000
  C   C1581     1.0  0.29044  0.40766  0.77477  1.0000
  C   C1582     1.0  0.38323  0.17039  0.66930  1.0000
  C   C1583     1.0  0.20193  0.12053  0.60388  1.0000
  H   H1255     1.0  0.31468  0.01804  0.61723  1.0000
  H   H1256     1.0  0.30460  0.43411  0.59413  1.0000
  C   C1584     1.0  0.28158  0.03020  0.57754  1.0000
  H   H1257     1.0  0.22648  0.24314  0.62289  1.0000
  P   P50       1.0  0.31094  0.42205  0.76980  1.0000
  C   C1585     1.0  0.20902  0.99664  0.63684  1.0000
  C   C1586     1.0  0.27696  0.02861  0.59938  1.0000
  H   H1258     1.0  0.34600  0.06988  0.82363  1.0000
  C   C1587     1.0  0.35182  0.23834  0.92194  1.0000
  Fe  Fe104     1.0  0.33096  0.07756  0.51531  1.0000
  C   C1588     1.0  0.19146  0.12697  0.50457  1.0000
  C   C1589     1.0  0.24868  0.36515  0.70691  1.0000
  H   H1259     1.0  0.37911  0.36783  0.80389  1.0000
  C   C1590     1.0  0.27875  0.02678  0.89131  1.0000
  H   H1260     1.0  0.23926  0.32147  0.79645  1.0000
  C   C1591     1.0  0.21781  0.34836  0.80675  1.0000
  H   H1261     1.0  0.37591  0.04975  0.50506  1.0000
  C   C1592     1.0  0.22448  0.32820  0.84687  1.0000
  C   C1593     1.0  0.26396  0.38276  0.72462  1.0000
  H   H1262     1.0  0.36207  0.16943  0.53934  1.0000
  H   H1263     1.0  0.34335  0.24880  0.89163  1.0000
  C   C1594     1.0  0.21635  0.13085  0.63485  1.0000
  C   C1595     1.0  0.19988  0.29053  0.89448  1.0000
  C   C1596     1.0  0.26654  0.41517  0.67222  1.0000
  C   C1597     1.0  0.37027  0.46030  0.54751  1.0000
  H   H1264     1.0  0.28209  0.49018  0.81300  1.0000
  H   H1265     1.0  0.26156  0.05865  0.89047  1.0000
  C   C1598     1.0  0.21560  0.20724  0.57096  1.0000
  H   H1266     1.0  0.33266  0.18204  0.52637  1.0000
  C   C1599     1.0  0.37725  0.43172  0.52913  1.0000
  C   C1600     1.0  0.28758  0.47747  0.80444  1.0000
  H   H1267     1.0  0.33504  0.22880  0.59302  1.0000
  C   C1601     1.0  0.36560  0.22420  0.93385  1.0000
  C   C1602     1.0  0.33292  0.01061  0.83451  1.0000
  C   C1603     1.0  0.32541  0.45535  0.57824  1.0000
  H   H1268     1.0  0.33925  0.44334  0.58024  1.0000
  C   C1604     1.0  0.34065  0.01949  0.92866  1.0000
  C   C1605     1.0  0.32576  0.42294  0.70665  1.0000
  H   H1269     1.0  0.23995  0.13623  0.77732  1.0000
  C   C1606     1.0  0.23175  0.03363  0.84131  1.0000
  C   C1607     1.0  0.21815  0.13808  0.55348  1.0000
  S   S215      1.0  0.31572  0.21259  0.55184  1.0000
  H   H1270     1.0  0.23258  0.25109  0.67271  1.0000
  C   C1608     1.0  0.21446  0.43470  0.71695  1.0000
  H   H1271     1.0  0.35167  0.18050  0.57075  1.0000
  H   H1272     1.0  0.23643  0.27805  0.61060  1.0000
  H   H1273     1.0  0.36116  0.04670  0.59168  1.0000
  H   H1274     1.0  0.31546  0.40158  0.73489  1.0000
  H   H1275     1.0  0.36811  0.04175  0.84402  1.0000
  H   H1276     1.0  0.24486  0.37837  0.78606  1.0000
  H   H1277     1.0  0.26416  0.02542  0.84329  1.0000
  C   C1609     1.0  0.25041  0.01954  0.84428  1.0000
  C   C1610     1.0  0.30579  0.45012  0.58630  1.0000
  C   C1611     1.0  0.27818  0.04776  0.91585  1.0000
  C   C1612     1.0  0.35801  0.27409  0.69568  1.0000
  Fe  Fe105     1.0  0.19853  0.00509  0.71038  1.0000
  H   H1278     1.0  0.24394  0.30299  0.83197  1.0000
  C   C1613     1.0  0.19405  0.20789  0.57655  1.0000
  C   C1614     1.0  0.34385  0.25754  0.57420  1.0000
  C   C1615     1.0  0.32279  0.32078  0.51911  1.0000
  C   C1616     1.0  0.28262  0.21146  0.49774  1.0000
  C   C1617     1.0  0.33079  0.45584  0.71094  1.0000
  C   C1618     1.0  0.24351  0.45412  0.72355  1.0000
  H   H1279     1.0  0.24469  0.41203  0.76015  1.0000
  Fe  Fe106     1.0  0.37777  0.01939  0.63357  1.0000
  H   H1280     1.0  0.28601  0.01631  0.57080  1.0000
  C   C1619     1.0  0.30813  0.01146  0.63332  1.0000
  H   H1281     1.0  0.34146  0.32706  0.53742  1.0000
  H   H1282     1.0  0.30511  0.46658  0.89102  1.0000
  H   H1283     1.0  0.21736  0.45770  0.88103  1.0000
  H   H1284     1.0  0.21475  0.16063  0.79834  1.0000
  H   H1285     1.0  0.26812  0.33095  0.74726  1.0000
  H   H1286     1.0  0.19189  0.31750  0.81927  1.0000
  C   C1620     1.0  0.26425  0.34557  0.73647  1.0000
  H   H1287     1.0  0.34758  0.11654  0.58682  1.0000
  H   H1288     1.0  0.25471  0.46167  0.72616  1.0000
  C   C1621     1.0  0.36190  0.00247  0.57559  1.0000
  H   H1289     1.0  0.22813  0.20067  0.76005  1.0000
  S   S216      1.0  0.20612  0.39314  0.97854  1.0000
  C   C1622     1.0  0.35409  0.23789  0.90083  1.0000
  C   C1623     1.0  0.34700  0.23579  0.58138  1.0000
  H   H1290     1.0  0.36808  0.20615  0.57878  1.0000
  C   C1624     1.0  0.30097  0.45601  0.88370  1.0000
  Fe  Fe107     1.0  0.28790  0.28840  0.52340  1.0000
  C   C1625     1.0  0.20499  0.04951  0.60343  1.0000
  H   H1291     1.0  0.35030  0.38829  0.82632  1.0000
  Fe  Fe108     1.0  0.22061  0.30262  0.70407  1.0000
  H   H1292     1.0  0.21934  0.25948  0.70809  1.0000
  C   C1626     1.0  0.20737  0.32277  0.93076  1.0000
  C   C1627     1.0  0.20335  0.37067  0.75225  1.0000
  C   C1628     1.0  0.25294  0.38374  0.70923  1.0000
  H   H1293     1.0  0.24108  0.36511  0.69463  1.0000
  H   H1294     1.0  0.31603  0.30966  0.53188  1.0000
  S   S217      1.0  0.21781  0.26868  0.54642  1.0000
  S   S218      1.0  0.38641  0.07425  0.98720  1.0000
  Fe  Fe109     1.0  0.19966  0.33306  0.67032  1.0000
  C   C1629     1.0  0.33304  0.40558  0.78030  1.0000
  C   C1630     1.0  0.36084  0.10658  0.57909  1.0000
  S   S219      1.0  0.37434  0.37205  0.69521  1.0000
  H   H1295     1.0  0.33554  0.47078  0.70412  1.0000
  H   H1296     1.0  0.23623  0.23939  0.73744  1.0000
  H   H1297     1.0  0.24318  0.01677  0.65133  1.0000
  C   C1631     1.0  0.36633  0.37844  0.79734  1.0000
  S   S220      1.0  0.27786  0.25946  0.52193  1.0000
  H   H1298     1.0  0.20284  0.42736  0.71498  1.0000
  C   C1632     1.0  0.37764  0.28046  0.77874  1.0000
  C   C1633     1.0  0.22371  0.20414  0.79186  1.0000
  C   C1634     1.0  0.34953  0.39414  0.76770  1.0000
  C   C1635     1.0  0.33332  0.40319  0.80159  1.0000
  C   C1636     1.0  0.28936  0.48610  0.57393  1.0000
  C   C1637     1.0  0.30896  0.38342  0.91565  1.0000
  C   C1638     1.0  0.37682  0.25353  0.54909  1.0000
  C   C1639     1.0  0.32066  0.01822  0.79609  1.0000
  C   C1640     1.0  0.34989  0.04613  0.56448  1.0000
  H   H1299     1.0  0.35507  0.14923  0.51668  1.0000
  C   C1641     1.0  0.21238  0.46903  0.84936  1.0000
  S   S221      1.0  0.20494  0.45165  0.78956  1.0000
  H   H1300     1.0  0.32669  0.41239  0.69650  1.0000
  H   H1301     1.0  0.34963  0.39537  0.75134  1.0000
  C   C1642     1.0  0.19521  0.10852  0.79702  1.0000
  C   C1643     1.0  0.36198  0.48830  0.57730  1.0000
  C   C1644     1.0  0.28062  0.21730  0.94982  1.0000
  H   H1302     1.0  0.27256  0.46142  0.59037  1.0000
  H   H1303     1.0  0.38072  0.43627  0.61512  1.0000
  C   C1645     1.0  0.38813  0.03017  0.81685  1.0000
  C   C1646     1.0  0.33149  0.44235  0.69793  1.0000
  C   C1647     1.0  0.23515  0.20389  0.77136  1.0000
  H   H1304     1.0  0.21012  0.48398  0.81746  1.0000
  H   H1305     1.0  0.21285  0.10779  0.73093  1.0000
  H   H1306     1.0  0.28569  0.38379  0.67650  1.0000
  H   H1307     1.0  0.30177  0.39368  0.51472  1.0000
  C   C1648     1.0  0.36334  0.44822  0.53746  1.0000
  C   C1649     1.0  0.36599  0.38051  0.77624  1.0000
  H   H1308     1.0  0.21711  0.47182  0.74172  1.0000
  C   C1650     1.0  0.22087  0.13549  0.70843  1.0000
  H   H1309     1.0  0.26818  0.39663  0.72625  1.0000
  C   C1651     1.0  0.31586  0.45481  0.78547  1.0000
  C   C1652     1.0  0.23023  0.33752  0.60429  1.0000
  H   H1310     1.0  0.35853  0.47632  0.63035  1.0000
  H   H1311     1.0  0.35066  0.29011  0.69700  1.0000
  H   H1312     1.0  0.37830  0.37138  0.76642  1.0000
  C   C1653     1.0  0.23693  0.09958  0.70498  1.0000
  H   H1313     1.0  0.22443  0.20661  0.82298  1.0000
  H   H1314     1.0  0.31592  0.39358  0.64976  1.0000
  C   C1654     1.0  0.22395  0.40631  0.68108  1.0000
  C   C1655     1.0  0.19637  0.14030  0.63116  1.0000
  C   C1656     1.0  0.22498  0.41222  0.65931  1.0000
  C   C1657     1.0  0.38324  0.09924  0.68275  1.0000
  C   C1658     1.0  0.30884  0.47131  0.79635  1.0000
  C   C1659     1.0  0.24282  0.12621  0.52375  1.0000
  C   C1660     1.0  0.31712  0.03454  0.80670  1.0000
  H   H1315     1.0  0.25202  0.44797  0.66395  1.0000
  H   H1316     1.0  0.29508  0.19797  0.50047  1.0000
  H   H1317     1.0  0.33767  0.00785  0.84935  1.0000
  H   H1318     1.0  0.24860  0.32138  0.57965  1.0000
  C   C1661     1.0  0.37080  0.15060  0.51580  1.0000
  C   C1662     1.0  0.20237  0.27757  0.78704  1.0000
  C   C1663     1.0  0.22185  0.10276  0.54846  1.0000
  H   H1319     1.0  0.35537  0.28320  0.55182  1.0000
  H   H1320     1.0  0.20366  0.21282  0.87535  1.0000
  P   P51       1.0  0.19285  0.11370  0.58391  1.0000
  C   C1664     1.0  0.35004  0.38986  0.80999  1.0000
  P   P52       1.0  0.24455  0.40858  0.69251  1.0000
  H   H1321     1.0  0.20622  0.39244  0.71072  1.0000
  H   H1322     1.0  0.30973  0.05021  0.80001  1.0000
  C   C1665     1.0  0.29913  0.38113  0.52824  1.0000
  H   H1323     1.0  0.24563  0.09398  0.52226  1.0000
  C   C1666     1.0  0.37050  0.29309  0.83267  1.0000
  C   C1667     1.0  0.27334  0.46718  0.80155  1.0000
  C   C1668     1.0  0.21808  0.30832  0.77270  1.0000
  C   C1669     1.0  0.23307  0.14202  0.53514  1.0000
  H   H1324     1.0  0.27705  0.33805  0.54447  1.0000
  C   C1670     1.0  0.34996  0.39758  0.59504  1.0000
  C   C1671     1.0  0.32715  0.47591  0.56751  1.0000
  H   H1325     1.0  0.37755  0.40718  0.57461  1.0000
  C   C1672     1.0  0.26583  0.43594  0.66087  1.0000
  C   C1673     1.0  0.22243  0.38918  0.87710  1.0000
  C   C1674     1.0  0.21915  0.38270  0.86011  1.0000
  C   C1675     1.0  0.38406  0.20926  0.90341  1.0000
  C   C1676     1.0  0.28312  0.44137  0.64575  1.0000
  H   H1326     1.0  0.28271  0.45747  0.63732  1.0000
  H   H1327     1.0  0.21726  0.37333  0.52792  1.0000
  H   H1328     1.0  0.34448  0.46898  0.60324  1.0000
  S   S222      1.0  0.21356  0.29848  0.67476  1.0000
  C   C1677     1.0  0.20987  0.40857  0.65059  1.0000
  H   H1329     1.0  0.31479  0.43035  0.63053  1.0000
  H   H1330     1.0  0.35622  0.12301  0.54853  1.0000
  H   H1331     1.0  0.37900  0.17837  0.85758  1.0000
  C   C1678     1.0  0.23568  0.42875  0.70803  1.0000
  H   H1332     1.0  0.38124  0.05037  0.76658  1.0000
  H   H1333     1.0  0.23773  0.41895  0.64891  1.0000
  C   C1679     1.0  0.28462  0.39988  0.66793  1.0000
  H   H1334     1.0  0.21983  0.09146  0.77654  1.0000
  C   C1680     1.0  0.30536  0.99811  0.74161  1.0000
  C   C1681     1.0  0.22237  0.45992  0.73225  1.0000
  C   C1682     1.0  0.36542  0.22301  0.57317  1.0000
  C   C1683     1.0  0.20442  0.34720  0.89056  1.0000
  H   H1335     1.0  0.20524  0.26912  0.82810  1.0000
  H   H1336     1.0  0.23852  0.48382  0.87857  1.0000
  C   C1684     1.0  0.28789  0.46411  0.86927  1.0000
  C   C1685     1.0  0.20773  0.07090  0.80476  1.0000
  C   C1686     1.0  0.19626  0.17864  0.70336  1.0000
  C   C1687     1.0  0.37962  0.23012  0.62062  1.0000
  C   C1688     1.0  0.23760  0.00875  0.64243  1.0000
  C   C1689     1.0  0.36329  0.48356  0.61402  1.0000
  C   C1690     1.0  0.36540  0.39852  0.57674  1.0000
  H   H1337     1.0  0.20192  0.22901  0.69693  1.0000
  H   H1338     1.0  0.20228  0.25660  0.75773  1.0000
  H   H1339     1.0  0.31724  0.99918  0.58640  1.0000
  C   C1691     1.0  0.37440  0.26345  0.70582  1.0000
  P   P53       1.0  0.27776  0.00348  0.61726  1.0000
  C   C1692     1.0  0.20578  0.24167  0.85263  1.0000
  C   C1693     1.0  0.21198  0.11862  0.55999  1.0000
  C   C1694     1.0  0.38572  0.43419  0.62968  1.0000
  C   C1695     1.0  0.37268  0.39305  0.85908  1.0000
  H   H1340     1.0  0.36328  0.22441  0.95034  1.0000
  C   C1696     1.0  0.38933  0.26589  0.76633  1.0000
  H   H1341     1.0  0.37944  0.27747  0.83690  1.0000
  C   C1697     1.0  0.25087  0.00073  0.62526  1.0000
  C   C1698     1.0  0.21400  0.02607  0.84208  1.0000
  H   H1342     1.0  0.20063  0.08746  0.65415  1.0000
  H   H1343     1.0  0.20631  0.43949  0.98527  1.0000
  C   C1699     1.0  0.28228  0.99421  0.65913  1.0000
  C   C1700     1.0  0.38636  0.16931  0.95497  1.0000
  C   C1701     1.0  0.19618  0.47728  0.92609  1.0000
  C   C1702     1.0  0.19428  0.17178  0.77625  1.0000
  C   C1703     1.0  0.37885  0.27817  0.50657  1.0000
  C   C1704     1.0  0.33669  0.99424  0.82387  1.0000
  H   H1344     1.0  0.19200  0.23203  0.66329  1.0000
  C   C1705     1.0  0.38409  0.24288  0.70372  1.0000
  C   C1706     1.0  0.38414  0.07229  0.71442  1.0000
  C   C1707     1.0  0.19698  0.25406  0.61320  1.0000
  C   C1708     1.0  0.38330  0.09784  0.54702  1.0000
  C   C1709     1.0  0.19360  0.21703  0.67423  1.0000
  C   C1710     1.0  0.19491  0.45667  0.93628  1.0000
  C   C1711     1.0  0.36312  0.99356  0.95850  1.0000
  C   C1712     1.0  0.19296  0.35889  0.74547  1.0000
  C   C1713     1.0  0.33023  0.99786  0.80476  1.0000
  H   H1345     1.0  0.38397  0.05441  0.53701  1.0000
  Fe  Fe110     1.0  0.38889  0.05573  0.64396  1.0000
  C   C1714     1.0  0.39059  0.20201  0.80856  1.0000
  H   H1346     1.0  0.37977  0.27133  0.71499  1.0000
  C   C1715     1.0  0.20045  0.29951  0.78209  1.0000
  H   H1347     1.0  0.19254  0.23888  0.61844  1.0000
  C   C1716     1.0  0.19365  0.39910  0.66348  1.0000
  H   H1348     1.0  0.36061  0.48611  0.51089  1.0000
  H   H1349     1.0  0.19226  0.29769  0.85527  1.0000
  H   H1350     1.0  0.27422  0.99667  0.74054  1.0000
  H   H1351     1.0  0.37173  0.99472  0.78844  1.0000
  C   C1717     1.0  0.38472  0.29527  0.49119  1.0000
  H   H1352     1.0  0.38842  0.24409  0.74830  1.0000
  H   H1353     1.0  0.38868  0.31071  0.74620  1.0000
  C   C1718     1.0  0.35032  0.28011  0.48997  1.0000
  H   H1354     1.0  0.19299  0.99466  0.64156  1.0000
  C   C1719     1.0  0.28605  0.99234  0.74998  1.0000
  C   C1720     1.0  0.24984  0.24573  0.49094  1.0000
  H   H1355     1.0  0.19838  0.37372  0.82091  1.0000
  H   H1356     1.0  0.19151  0.45476  0.73582  1.0000
  C   C1721     1.0  0.19215  0.38611  0.76368  1.0000
  C   C1722     1.0  0.38703  0.14090  0.50184  1.0000
  C   C1723     1.0  0.39036  0.05439  0.50420  1.0000
  C   C1724     1.0  0.39054  0.07768  0.58065  1.0000
  H   H1357     1.0  0.33670  0.27457  0.48974  1.0000
  H   H1358     1.0  0.35983  0.12313  0.98859  1.0000
  C   C1725     1.0  0.39128  0.45564  0.54904  1.0000
  H   H1359     1.0  0.39046  0.25077  0.81673  1.0000
  P   P54       1.0  0.39098  0.29270  0.79079  1.0000
  C   C1726     1.0  0.30898  0.49133  0.56566  1.0000
  S   S223      1.0  0.23427  0.54098  0.21442  1.0000
  H   H1360     1.0  0.28177  0.57510  0.01680  1.0000
  H   H1361     1.0  0.31582  0.71998  0.40851  1.0000
  P   P55       1.0  0.37267  0.50128  0.25168  1.0000
  C   C1727     1.0  0.25321  0.74148  0.13564  1.0000
  H   H1362     1.0  0.20100  0.59420  0.31418  1.0000
  C   C1728     1.0  0.22031  0.98861  0.35932  1.0000
  Fe  Fe111     1.0  0.24140  0.51710  0.19429  1.0000
  Fe  Fe112     1.0  0.23499  0.85804  0.44871  1.0000
  C   C1729     1.0  0.27883  0.71899  0.10181  1.0000
  S   S224      1.0  0.24154  0.88689  0.42457  1.0000
  Fe  Fe113     1.0  0.24838  0.81063  0.45999  1.0000
  S   S225      1.0  0.26941  0.78130  0.45066  1.0000
  S   S226      1.0  0.22814  0.83182  0.43837  1.0000
  H   H1363     1.0  0.29055  0.68763  0.11822  1.0000
  Fe  Fe114     1.0  0.33749  0.77931  0.34230  1.0000
  S   S227      1.0  0.31359  0.76599  0.33489  1.0000
  S   S228      1.0  0.33067  0.80188  0.36388  1.0000
  Fe  Fe115     1.0  0.37213  0.76187  0.30911  1.0000
  S   S229      1.0  0.35142  0.74749  0.29825  1.0000
  H   H1364     1.0  0.23827  0.67384  0.33938  1.0000
  Fe  Fe116     1.0  0.32810  0.77749  0.30129  1.0000
  S   S230      1.0  0.30863  0.79292  0.27684  1.0000
  Fe  Fe117     1.0  0.33903  0.73723  0.33258  1.0000
  S   S231      1.0  0.33550  0.70378  0.34603  1.0000
  S   S232      1.0  0.35016  0.79291  0.30883  1.0000
  S   S233      1.0  0.36163  0.74946  0.34333  1.0000
  Fe  Fe118     1.0  0.28940  0.59334  0.29790  1.0000
  S   S234      1.0  0.28631  0.57505  0.33095  1.0000
  S   S235      1.0  0.29331  0.58055  0.26876  1.0000
  Fe  Fe119     1.0  0.28540  0.63444  0.31184  1.0000
  S   S236      1.0  0.28127  0.61947  0.34612  1.0000
  S   S237      1.0  0.28581  0.66876  0.29941  1.0000
  Fe  Fe120     1.0  0.30749  0.59407  0.33518  1.0000
  S   S238      1.0  0.33565  0.57832  0.34988  1.0000
  Fe  Fe121     1.0  0.26062  0.60223  0.33856  1.0000
  S   S239      1.0  0.31279  0.61010  0.30124  1.0000
  S   S240      1.0  0.26251  0.61937  0.30516  1.0000
  C   C1730     1.0  0.34606  0.85861  0.44547  1.0000
  S   S241      1.0  0.27691  0.80576  0.06396  1.0000
  C   C1731     1.0  0.26945  0.88927  0.15920  1.0000
  S   S242      1.0  0.33843  0.61134  0.04958  1.0000
  C   C1732     1.0  0.24403  0.67115  0.35365  1.0000
  C   C1733     1.0  0.32780  0.55247  0.10690  1.0000
  C   C1734     1.0  0.38809  0.84012  0.30482  1.0000
  Fe  Fe122     1.0  0.22366  0.82119  0.18247  1.0000
  S   S243      1.0  0.20910  0.85535  0.17522  1.0000
  S   S244      1.0  0.25403  0.81193  0.19325  1.0000
  H   H1365     1.0  0.32366  0.68243  0.09249  1.0000
  Fe  Fe123     1.0  0.35544  0.83704  0.13705  1.0000
  S   S245      1.0  0.36084  0.86597  0.14380  1.0000
  S   S246      1.0  0.32941  0.83757  0.12191  1.0000
  H   H1366     1.0  0.21093  0.64092  0.05716  1.0000
  H   H1367     1.0  0.21250  0.51384  0.30561  1.0000
  Fe  Fe124     1.0  0.36588  0.84483  0.17457  1.0000
  S   S247      1.0  0.35262  0.85735  0.20419  1.0000
  C   C1735     1.0  0.31406  0.59171  0.42069  1.0000
  S   S248      1.0  0.35833  0.81657  0.16855  1.0000
  C   C1736     1.0  0.34410  0.96310  0.03945  1.0000
  C   C1737     1.0  0.21794  0.56031  0.14191  1.0000
  H   H1368     1.0  0.27767  0.73974  0.99347  1.0000
  H   H1369     1.0  0.21403  0.88733  0.23513  1.0000
  C   C1738     1.0  0.27420  0.82044  0.17324  1.0000
  C   C1739     1.0  0.27462  0.82054  0.15237  1.0000
  C   C1740     1.0  0.29138  0.82624  0.13655  1.0000
  C   C1741     1.0  0.30771  0.83196  0.14154  1.0000
  C   C1742     1.0  0.30672  0.83288  0.16229  1.0000
  C   C1743     1.0  0.29021  0.82676  0.17818  1.0000
  H   H1370     1.0  0.26225  0.81582  0.14849  1.0000
  H   H1371     1.0  0.29166  0.82631  0.12047  1.0000
  H   H1372     1.0  0.31848  0.83862  0.16611  1.0000
  H   H1373     1.0  0.28982  0.82715  0.19423  1.0000
  C   C1744     1.0  0.21057  0.66089  0.00550  1.0000
  C   C1745     1.0  0.20883  0.57342  0.05387  1.0000
  C   C1746     1.0  0.34268  0.79628  0.42260  1.0000
  C   C1747     1.0  0.20063  0.72317  0.03545  1.0000
  C   C1748     1.0  0.30984  0.54669  0.10559  1.0000
  H   H1374     1.0  0.26568  0.63247  0.45684  1.0000
  H   H1375     1.0  0.26783  0.56157  0.20438  1.0000
  C   C1749     1.0  0.25388  0.67209  0.16877  1.0000
  C   C1750     1.0  0.25785  0.82411  0.07681  1.0000
  C   C1751     1.0  0.25845  0.82457  0.09729  1.0000
  C   C1752     1.0  0.24296  0.83816  0.10850  1.0000
  C   C1753     1.0  0.22640  0.85093  0.09959  1.0000
  C   C1754     1.0  0.22620  0.85120  0.07875  1.0000
  C   C1755     1.0  0.24192  0.83779  0.06735  1.0000
  H   H1376     1.0  0.27074  0.81414  0.10461  1.0000
  H   H1377     1.0  0.24377  0.83875  0.12411  1.0000
  H   H1378     1.0  0.21364  0.86130  0.07163  1.0000
  H   H1379     1.0  0.24138  0.83767  0.05150  1.0000
  C   C1756     1.0  0.32009  0.81161  0.25692  1.0000
  C   C1757     1.0  0.33145  0.82405  0.26137  1.0000
  C   C1758     1.0  0.34121  0.83831  0.24513  1.0000
  C   C1759     1.0  0.33989  0.83988  0.22435  1.0000
  C   C1760     1.0  0.32819  0.82776  0.21993  1.0000
  C   C1761     1.0  0.31813  0.81384  0.23626  1.0000
  H   H1380     1.0  0.33272  0.82267  0.27731  1.0000
  H   H1381     1.0  0.35023  0.84769  0.24859  1.0000
  H   H1382     1.0  0.32649  0.82942  0.20403  1.0000
  H   H1383     1.0  0.30887  0.80473  0.23295  1.0000
  C   C1762     1.0  0.32280  0.69395  0.33205  1.0000
  C   C1763     1.0  0.31486  0.70673  0.31475  1.0000
  C   C1764     1.0  0.30410  0.69870  0.30428  1.0000
  C   C1765     1.0  0.30121  0.67794  0.31114  1.0000
  C   C1766     1.0  0.30971  0.66503  0.32802  1.0000
  C   C1767     1.0  0.32032  0.67306  0.33856  1.0000
  H   H1384     1.0  0.31671  0.72287  0.30963  1.0000
  H   H1385     1.0  0.29786  0.70866  0.29101  1.0000
  H   H1386     1.0  0.30770  0.64900  0.33332  1.0000
  H   H1387     1.0  0.32639  0.66315  0.35196  1.0000
  H   H1388     1.0  0.30955  0.77891  0.46735  1.0000
  H   H1389     1.0  0.22376  0.64994  0.37155  1.0000
  C   C1768     1.0  0.37173  0.90197  0.06406  1.0000
  C   C1769     1.0  0.19851  0.59537  0.15979  1.0000
  C   C1770     1.0  0.28600  0.61638  0.40597  1.0000
  C   C1771     1.0  0.35343  0.89545  0.06453  1.0000
  H   H1390     1.0  0.23260  0.65063  0.17959  1.0000
  C   C1772     1.0  0.26008  0.66320  0.39009  1.0000
  C   C1773     1.0  0.30389  0.85743  0.46681  1.0000
  C   C1774     1.0  0.21771  0.98542  0.34040  1.0000
  C   C1775     1.0  0.28524  0.78711  0.42578  1.0000
  C   C1776     1.0  0.28691  0.80788  0.41647  1.0000
  C   C1777     1.0  0.30077  0.81231  0.39729  1.0000
  C   C1778     1.0  0.31254  0.79604  0.38713  1.0000
  C   C1779     1.0  0.31036  0.77531  0.39605  1.0000
  C   C1780     1.0  0.29685  0.77083  0.41551  1.0000
  H   H1391     1.0  0.27789  0.82043  0.42433  1.0000
  H   H1392     1.0  0.30246  0.82832  0.39037  1.0000
  H   H1393     1.0  0.31949  0.76272  0.38821  1.0000
  H   H1394     1.0  0.29554  0.75478  0.42275  1.0000
  C   C1781     1.0  0.23424  0.90993  0.43462  1.0000
  C   C1782     1.0  0.22802  0.90909  0.45622  1.0000
  C   C1783     1.0  0.22281  0.92760  0.46405  1.0000
  C   C1784     1.0  0.22340  0.94706  0.45034  1.0000
  C   C1785     1.0  0.22959  0.94791  0.42873  1.0000
  C   C1786     1.0  0.23503  0.92936  0.42088  1.0000
  H   H1395     1.0  0.22751  0.89415  0.46689  1.0000
  H   H1396     1.0  0.30505  0.63827  0.43578  1.0000
  H   H1397     1.0  0.23024  0.96283  0.41808  1.0000
  H   H1398     1.0  0.23966  0.93006  0.40417  1.0000
  C   C1787     1.0  0.36121  0.60531  0.39201  1.0000
  C   C1788     1.0  0.37004  0.58522  0.38795  1.0000
  C   C1789     1.0  0.36219  0.57744  0.37470  1.0000
  C   C1790     1.0  0.34527  0.58943  0.36571  1.0000
  C   C1791     1.0  0.33659  0.60967  0.36954  1.0000
  C   C1792     1.0  0.34482  0.61770  0.38235  1.0000
  H   H1399     1.0  0.24506  0.51574  0.05153  1.0000
  H   H1400     1.0  0.36908  0.56187  0.37166  1.0000
  H   H1401     1.0  0.32342  0.61904  0.36288  1.0000
  H   H1402     1.0  0.33803  0.63327  0.38537  1.0000
  H   H1403     1.0  0.38052  0.50013  0.36792  1.0000
  Fe  Fe125     1.0  0.27284  0.80233  0.03290  1.0000
  C   C1793     1.0  0.26719  0.55237  0.28819  1.0000
  C   C1794     1.0  0.27877  0.56186  0.26939  1.0000
  C   C1795     1.0  0.27928  0.55602  0.25065  1.0000
  C   C1796     1.0  0.26795  0.54115  0.25061  1.0000
  H   H1404     1.0  0.26681  0.55661  0.30275  1.0000
  H   H1405     1.0  0.28868  0.56281  0.23614  1.0000
  H   H1406     1.0  0.26890  0.53634  0.23623  1.0000
  H   H1407     1.0  0.32829  0.60335  0.43941  1.0000
  C   C1797     1.0  0.29602  0.96480  0.42720  1.0000
  C   C1798     1.0  0.35539  0.58806  0.05834  1.0000
  C   C1799     1.0  0.30451  0.49476  0.26070  1.0000
  C   C1800     1.0  0.24390  0.65370  0.38988  1.0000
  H   H1408     1.0  0.20017  0.89089  0.02495  1.0000
  S   S249      1.0  0.26560  0.77211  0.03111  1.0000
  Fe  Fe126     1.0  0.33823  0.61539  0.01544  1.0000
  C   C1801     1.0  0.34567  0.75762  0.03160  1.0000
  C   C1802     1.0  0.36053  0.73890  0.03245  1.0000
  H   H1409     1.0  0.28813  0.85624  0.99527  1.0000
  C   C1803     1.0  0.36957  0.74524  0.06257  1.0000
  C   C1804     1.0  0.35487  0.76427  0.06159  1.0000
  C   C1805     1.0  0.34251  0.77005  0.04634  1.0000
  P   P56       1.0  0.35066  0.78037  0.08065  1.0000
  C   C1806     1.0  0.33486  0.76959  0.10504  1.0000
  C   C1807     1.0  0.33169  0.77844  0.12266  1.0000
  C   C1808     1.0  0.32075  0.76948  0.14208  1.0000
  C   C1809     1.0  0.31337  0.75129  0.14416  1.0000
  C   C1810     1.0  0.31649  0.74234  0.12670  1.0000
  C   C1811     1.0  0.32704  0.75154  0.10714  1.0000
  C   C1812     1.0  0.33852  0.80685  0.06971  1.0000
  C   C1813     1.0  0.31916  0.81665  0.08005  1.0000
  C   C1814     1.0  0.30958  0.83684  0.07122  1.0000
  H   H1410     1.0  0.33637  0.76237  0.01965  1.0000
  H   H1411     1.0  0.25948  0.52180  0.10799  1.0000
  C   C1815     1.0  0.33208  0.78241  0.43828  1.0000
  H   H1412     1.0  0.29802  0.58499  0.40015  1.0000
  H   H1413     1.0  0.33033  0.78410  0.04576  1.0000
  C   C1816     1.0  0.33216  0.97350  0.02429  1.0000
  H   H1414     1.0  0.33774  0.79230  0.12136  1.0000
  H   H1415     1.0  0.31805  0.77674  0.15545  1.0000
  H   H1416     1.0  0.30497  0.74435  0.15921  1.0000
  H   H1417     1.0  0.31058  0.72837  0.12823  1.0000
  H   H1418     1.0  0.32923  0.74442  0.09380  1.0000
  H   H1419     1.0  0.31111  0.80857  0.09465  1.0000
  H   H1420     1.0  0.29450  0.84413  0.07923  1.0000
  H   H1421     1.0  0.33536  0.51043  0.28383  1.0000
  H   H1422     1.0  0.32269  0.98902  0.02514  1.0000
  H   H1423     1.0  0.20779  0.50813  0.34495  1.0000
  H   H1424     1.0  0.33578  0.83196  0.99660  1.0000
  H   H1425     1.0  0.28073  0.68416  0.37135  1.0000
  P   P57       1.0  0.32276  0.85142  0.44366  1.0000
  C   C1817     1.0  0.31405  0.86598  0.41992  1.0000
  C   C1818     1.0  0.29617  0.86243  0.41572  1.0000
  C   C1819     1.0  0.28982  0.87249  0.39687  1.0000
  C   C1820     1.0  0.30118  0.88632  0.38206  1.0000
  C   C1821     1.0  0.31917  0.88982  0.38601  1.0000
  C   C1822     1.0  0.32571  0.87956  0.40481  1.0000
  H   H1426     1.0  0.28198  0.88095  0.45020  1.0000
  H   H1427     1.0  0.28707  0.85184  0.42704  1.0000
  H   H1428     1.0  0.27590  0.86958  0.39398  1.0000
  H   H1429     1.0  0.29605  0.89416  0.36755  1.0000
  H   H1430     1.0  0.32817  0.90029  0.37440  1.0000
  H   H1431     1.0  0.33999  0.88198  0.40728  1.0000
  C   C1823     1.0  0.29022  0.55681  0.11491  1.0000
  H   H1432     1.0  0.38216  0.69772  0.47886  1.0000
  C   C1824     1.0  0.32622  0.56853  0.11730  1.0000
  C   C1825     1.0  0.30659  0.57863  0.12685  1.0000
  C   C1826     1.0  0.28859  0.57286  0.12535  1.0000
  P   P58       1.0  0.30414  0.60052  0.13879  1.0000
  C   C1827     1.0  0.29658  0.62355  0.11961  1.0000
  C   C1828     1.0  0.28631  0.59851  0.16386  1.0000
  C   C1829     1.0  0.27960  0.61576  0.17380  1.0000
  C   C1830     1.0  0.26795  0.61364  0.19438  1.0000
  C   C1831     1.0  0.26330  0.59417  0.20530  1.0000
  C   C1832     1.0  0.28185  0.57895  0.17506  1.0000
  C   C1833     1.0  0.31045  0.62789  0.10038  1.0000
  C   C1834     1.0  0.30524  0.64589  0.08545  1.0000
  C   C1835     1.0  0.28580  0.65927  0.08921  1.0000
  C   C1836     1.0  0.27148  0.65449  0.10785  1.0000
  C   C1837     1.0  0.27677  0.63664  0.12303  1.0000
  C   C1838     1.0  0.32833  0.60027  0.14554  1.0000
  C   C1839     1.0  0.33865  0.61724  0.13748  1.0000
  H   H1433     1.0  0.37993  0.70080  0.43418  1.0000
  H   H1434     1.0  0.35949  0.78341  0.25922  1.0000
  H   H1435     1.0  0.26013  0.72020  0.30470  1.0000
  C   C1840     1.0  0.33625  0.58332  0.16039  1.0000
  H   H1436     1.0  0.27635  0.55186  0.11451  1.0000
  H   H1437     1.0  0.34034  0.57297  0.11780  1.0000
  H   H1438     1.0  0.27334  0.58055  0.13255  1.0000
  H   H1439     1.0  0.28403  0.63063  0.16587  1.0000
  H   H1440     1.0  0.26313  0.62685  0.20211  1.0000
  H   H1441     1.0  0.28801  0.56501  0.16838  1.0000
  H   H1442     1.0  0.32542  0.61740  0.09692  1.0000
  H   H1443     1.0  0.31631  0.64919  0.07083  1.0000
  H   H1444     1.0  0.28175  0.67321  0.07759  1.0000
  H   H1445     1.0  0.25620  0.66452  0.11036  1.0000
  H   H1446     1.0  0.26526  0.63298  0.13713  1.0000
  H   H1447     1.0  0.33281  0.63076  0.12637  1.0000
  P   P59       1.0  0.37233  0.92963  0.05760  1.0000
  C   C1841     1.0  0.28311  0.58250  0.02882  1.0000
  H   H1448     1.0  0.38045  0.84439  0.31982  1.0000
  H   H1449     1.0  0.32866  0.57000  0.16678  1.0000
  C   C1842     1.0  0.32123  0.77739  0.19933  1.0000
  C   C1843     1.0  0.30281  0.77722  0.21450  1.0000
  C   C1844     1.0  0.30073  0.75954  0.23051  1.0000
  C   C1845     1.0  0.31646  0.74150  0.23060  1.0000
  C   C1846     1.0  0.33464  0.74118  0.21480  1.0000
  C   C1847     1.0  0.33730  0.75960  0.19973  1.0000
  P   P60       1.0  0.35549  0.71831  0.21526  1.0000
  C   C1848     1.0  0.20921  0.57872  0.26054  1.0000
  C   C1849     1.0  0.34681  0.69682  0.23518  1.0000
  C   C1850     1.0  0.35475  0.68917  0.25365  1.0000
  C   C1851     1.0  0.34728  0.67297  0.26900  1.0000
  C   C1852     1.0  0.33215  0.66399  0.26592  1.0000
  C   C1853     1.0  0.32395  0.67163  0.24776  1.0000
  C   C1854     1.0  0.33133  0.68790  0.23235  1.0000
  C   C1855     1.0  0.31867  0.78936  0.45579  1.0000
  H   H1450     1.0  0.26432  0.95805  0.38849  1.0000
  H   H1451     1.0  0.23965  0.57545  0.03562  1.0000
  C   C1856     1.0  0.29904  0.59649  0.40840  1.0000
  H   H1452     1.0  0.33344  0.76656  0.43637  1.0000
  C   C1857     1.0  0.36374  0.70908  0.19081  1.0000
  S   S250      1.0  0.19495  0.81106  0.20332  1.0000
  C   C1858     1.0  0.22709  0.91085  0.35912  1.0000
  C   C1859     1.0  0.31036  0.50253  0.27523  1.0000
  C   C1860     1.0  0.28708  0.93425  0.42158  1.0000
  C   C1861     1.0  0.34261  0.92796  0.39710  1.0000
  H   H1453     1.0  0.32323  0.79150  0.18753  1.0000
  H   H1454     1.0  0.29041  0.79108  0.21435  1.0000
  H   H1455     1.0  0.28695  0.75990  0.24297  1.0000
  H   H1456     1.0  0.31448  0.72810  0.24331  1.0000
  H   H1457     1.0  0.35183  0.76027  0.18832  1.0000
  H   H1458     1.0  0.36670  0.69547  0.25646  1.0000
  H   H1459     1.0  0.35295  0.66760  0.28352  1.0000
  H   H1460     1.0  0.32645  0.65140  0.27788  1.0000
  H   H1461     1.0  0.31176  0.66497  0.24581  1.0000
  H   H1462     1.0  0.32479  0.69375  0.21837  1.0000
  H   H1463     1.0  0.32469  0.57661  0.42189  1.0000
  H   H1464     1.0  0.21167  0.87560  0.99294  1.0000
  C   C1862     1.0  0.33111  0.50408  0.27268  1.0000
  H   H1465     1.0  0.26415  0.53047  0.06911  1.0000
  H   H1466     1.0  0.35882  0.73355  0.25105  1.0000
  H   H1467     1.0  0.36520  0.58626  0.27083  1.0000
  H   H1468     1.0  0.20889  0.66987  0.31893  1.0000
  C   C1863     1.0  0.23811  0.57259  0.06858  1.0000
  H   H1469     1.0  0.23720  0.49219  0.36277  1.0000
  H   H1470     1.0  0.22862  0.68317  0.41976  1.0000
  H   H1471     1.0  0.19951  0.68411  0.45049  1.0000
  C   C1864     1.0  0.20170  0.74973  0.08232  1.0000
  H   H1472     1.0  0.33245  0.69010  0.39059  1.0000
  C   C1865     1.0  0.20316  0.65371  0.02688  1.0000
  H   H1473     1.0  0.20938  0.66519  0.11103  1.0000
  C   C1866     1.0  0.21395  0.67278  0.45176  1.0000
  H   H1474     1.0  0.31334  0.54025  0.30225  1.0000
  C   C1867     1.0  0.23478  0.64441  0.47250  1.0000
  C   C1868     1.0  0.32691  0.82410  0.44231  1.0000
  H   H1475     1.0  0.36698  0.91853  0.02019  1.0000
  C   C1869     1.0  0.23208  0.86496  0.27802  1.0000
  H   H1476     1.0  0.27205  0.69600  0.15498  1.0000
  S   S251      1.0  0.26775  0.51712  0.16595  1.0000
  C   C1870     1.0  0.27495  0.93724  0.34504  1.0000
  C   C1871     1.0  0.29359  0.70016  0.10487  1.0000
  H   H1477     1.0  0.26693  0.93301  0.33517  1.0000
  C   C1872     1.0  0.30924  0.51898  0.15724  1.0000
  C   C1873     1.0  0.25795  0.75616  0.21893  1.0000
  C   C1874     1.0  0.27239  0.74834  0.20242  1.0000
  C   C1875     1.0  0.27411  0.72772  0.20046  1.0000
  C   C1876     1.0  0.26143  0.71492  0.21507  1.0000
  C   C1877     1.0  0.24725  0.72258  0.23199  1.0000
  C   C1878     1.0  0.24555  0.74333  0.23376  1.0000
  P   P61       1.0  0.23034  0.70657  0.25070  1.0000
  C   C1879     1.0  0.25937  0.66907  0.25727  1.0000
  C   C1880     1.0  0.22955  0.71015  0.27669  1.0000
  C   C1881     1.0  0.21132  0.70957  0.29236  1.0000
  C   C1882     1.0  0.21067  0.71300  0.31218  1.0000
  C   C1883     1.0  0.22815  0.71711  0.31654  1.0000
  C   C1884     1.0  0.24641  0.71749  0.30117  1.0000
  C   C1885     1.0  0.24719  0.71391  0.28138  1.0000
  H   H1478     1.0  0.25639  0.77223  0.22031  1.0000
  H   H1479     1.0  0.28200  0.75846  0.19107  1.0000
  H   H1480     1.0  0.28506  0.72173  0.18749  1.0000
  H   H1481     1.0  0.26270  0.69913  0.21308  1.0000
  H   H1482     1.0  0.23442  0.74971  0.24644  1.0000
  H   H1483     1.0  0.28211  0.64032  0.26236  1.0000
  H   H1484     1.0  0.26648  0.67718  0.26463  1.0000
  C   C1886     1.0  0.20349  0.58955  0.29934  1.0000
  H   H1485     1.0  0.25982  0.69553  0.43149  1.0000
  C   C1887     1.0  0.36785  0.63877  0.32297  1.0000
  H   H1486     1.0  0.21948  0.92403  0.36669  1.0000
  H   H1487     1.0  0.26166  0.71390  0.26987  1.0000
  C   C1888     1.0  0.28494  0.85271  0.31933  1.0000
  C   C1889     1.0  0.29942  0.84624  0.33258  1.0000
  P   P62       1.0  0.25761  0.85230  0.33014  1.0000
  C   C1890     1.0  0.25519  0.83039  0.35213  1.0000
  C   C1891     1.0  0.24612  0.87601  0.34033  1.0000
  C   C1892     1.0  0.22794  0.88949  0.33475  1.0000
  C   C1893     1.0  0.20409  0.79802  0.11185  1.0000
  H   H1488     1.0  0.23872  0.74892  0.00454  1.0000
  C   C1894     1.0  0.24498  0.89742  0.36498  1.0000
  C   C1895     1.0  0.25455  0.88015  0.35553  1.0000
  C   C1896     1.0  0.26970  0.81129  0.35199  1.0000
  C   C1897     1.0  0.26837  0.79482  0.36952  1.0000
  C   C1898     1.0  0.25246  0.79716  0.38717  1.0000
  C   C1899     1.0  0.23756  0.81583  0.38714  1.0000
  C   C1900     1.0  0.23887  0.83240  0.36970  1.0000
  C   C1901     1.0  0.24507  0.84994  0.31028  1.0000
  C   C1902     1.0  0.23910  0.83110  0.31124  1.0000
  C   C1903     1.0  0.22947  0.82937  0.29582  1.0000
  C   C1904     1.0  0.25363  0.52023  0.07840  1.0000
  H   H1489     1.0  0.33000  0.88993  0.44990  1.0000
  C   C1905     1.0  0.24148  0.86684  0.29346  1.0000
  H   H1490     1.0  0.29469  0.84013  0.34922  1.0000
  H   H1491     1.0  0.34451  0.96719  0.35341  1.0000
  C   C1906     1.0  0.19853  0.73370  0.23142  1.0000
  C   C1907     1.0  0.23775  0.50191  0.11220  1.0000
  H   H1492     1.0  0.28228  0.80924  0.33852  1.0000
  H   H1493     1.0  0.27995  0.78035  0.36965  1.0000
  H   H1494     1.0  0.25182  0.78459  0.40097  1.0000
  H   H1495     1.0  0.22518  0.81758  0.40081  1.0000
  H   H1496     1.0  0.22730  0.84682  0.37018  1.0000
  H   H1497     1.0  0.24193  0.81764  0.32375  1.0000
  H   H1498     1.0  0.22496  0.81479  0.29663  1.0000
  S   S252      1.0  0.34505  0.64552  0.99498  1.0000
  C   C1908     1.0  0.27361  0.95117  0.37529  1.0000
  C   C1909     1.0  0.28583  0.96059  0.44823  1.0000
  H   H1499     1.0  0.29123  0.85695  0.24873  1.0000
  C   C1910     1.0  0.36893  0.95733  0.08359  1.0000
  C   C1911     1.0  0.21991  0.65160  0.10575  1.0000
  H   H1500     1.0  0.36530  0.62956  0.13706  1.0000
  Fe  Fe127     1.0  0.24595  0.79260  0.00844  1.0000
  H   H1501     1.0  0.36094  0.85532  0.99047  1.0000
  H   H1502     1.0  0.32780  0.53721  0.40293  1.0000
  C   C1912     1.0  0.20928  0.97876  0.37826  1.0000
  C   C1913     1.0  0.34506  0.94415  0.00660  1.0000
  H   H1503     1.0  0.38345  0.50047  0.20699  1.0000
  S   S253      1.0  0.38067  0.55333  0.13436  1.0000
  C   C1914     1.0  0.34825  0.93041  0.09804  1.0000
  H   H1504     1.0  0.22536  0.56838  0.33142  1.0000
  H   H1505     1.0  0.30968  0.51669  0.14183  1.0000
  S   S254      1.0  0.21797  0.81387  0.15413  1.0000
  H   H1506     1.0  0.29107  0.88636  0.21832  1.0000
  C   C1915     1.0  0.25133  0.64374  0.45513  1.0000
  P   P63       1.0  0.27070  0.65726  0.41347  1.0000
  C   C1916     1.0  0.30841  0.52398  0.19739  1.0000
  S   S255      1.0  0.20743  0.85907  0.47542  1.0000
  H   H1507     1.0  0.23567  0.87698  0.13632  1.0000
  H   H1508     1.0  0.21041  0.80793  0.05144  1.0000
  H   H1509     1.0  0.38985  0.77195  0.02491  1.0000
  C   C1917     1.0  0.25638  0.53163  0.26936  1.0000
  C   C1918     1.0  0.21971  0.94647  0.17564  1.0000
  C   C1919     1.0  0.27567  0.69397  0.42262  1.0000
  C   C1920     1.0  0.23357  0.73363  0.10515  1.0000
  H   H1510     1.0  0.19662  0.96025  0.19968  1.0000
  H   H1511     1.0  0.30058  0.87825  0.11310  1.0000
  H   H1512     1.0  0.34136  0.53959  0.24046  1.0000
  H   H1513     1.0  0.36138  0.69224  0.41148  1.0000
  C   C1921     1.0  0.23928  0.75505  0.16775  1.0000
  C   C1922     1.0  0.23643  0.72979  0.08495  1.0000
  C   C1923     1.0  0.33549  0.94576  0.38257  1.0000
  H   H1514     1.0  0.29867  0.50771  0.28822  1.0000
  C   C1924     1.0  0.35970  0.54253  0.31145  1.0000
  C   C1925     1.0  0.35725  0.53246  0.33261  1.0000
  C   C1926     1.0  0.22983  0.57395  0.05118  1.0000
  C   C1927     1.0  0.27615  0.94336  0.45590  1.0000
  H   H1515     1.0  0.26810  0.86961  0.36062  1.0000
  H   H1516     1.0  0.23155  0.71289  0.01804  1.0000
  C   C1928     1.0  0.33255  0.96400  0.00795  1.0000
  C   C1929     1.0  0.37651  0.72627  0.22110  1.0000
  H   H1517     1.0  0.36942  0.53110  0.34081  1.0000
  C   C1930     1.0  0.26837  0.64818  0.25586  1.0000
  H   H1518     1.0  0.34045  0.93433  0.17137  1.0000
  H   H1519     1.0  0.26750  0.94058  0.47197  1.0000
  C   C1931     1.0  0.37546  0.68166  0.41542  1.0000
  H   H1520     1.0  0.20333  0.53105  0.05769  1.0000
  H   H1521     1.0  0.34345  0.96029  0.13363  1.0000
  C   C1932     1.0  0.38131  0.73091  0.47064  1.0000
  C   C1933     1.0  0.30727  0.94040  0.17305  1.0000
  H   H1522     1.0  0.36818  0.97731  0.10433  1.0000
  H   H1523     1.0  0.38352  0.80033  0.26778  1.0000
  S   S256      1.0  0.19681  0.51687  0.24292  1.0000
  H   H1524     1.0  0.20074  0.86713  0.21721  1.0000
  H   H1525     1.0  0.30918  0.55862  0.03754  1.0000
  H   H1526     1.0  0.22772  0.71957  0.33195  1.0000
  H   H1527     1.0  0.20923  0.74415  0.22390  1.0000
  C   C1934     1.0  0.20449  0.56950  0.09163  1.0000
  H   H1528     1.0  0.33192  0.92161  0.41080  1.0000
  C   C1935     1.0  0.19944  0.57297  0.13617  1.0000
  C   C1936     1.0  0.38711  0.51413  0.39016  1.0000
  C   C1937     1.0  0.34844  0.95477  0.11901  1.0000
  H   H1529     1.0  0.19764  0.70610  0.28961  1.0000
  C   C1938     1.0  0.22660  0.56528  0.15634  1.0000
  H   H1530     1.0  0.30771  0.87973  0.00184  1.0000
  H   H1531     1.0  0.22556  0.54638  0.13552  1.0000
  H   H1532     1.0  0.24067  0.55540  0.16094  1.0000
  C   C1939     1.0  0.35748  0.53409  0.41036  1.0000
  C   C1940     1.0  0.25218  0.76972  0.16044  1.0000
  C   C1941     1.0  0.26512  0.77077  0.14056  1.0000
  C   C1942     1.0  0.26569  0.75670  0.12820  1.0000
  C   C1943     1.0  0.31241  0.69709  0.09025  1.0000
  C   C1944     1.0  0.31659  0.71272  0.07246  1.0000
  C   C1945     1.0  0.30205  0.73151  0.06932  1.0000
  C   C1946     1.0  0.28330  0.73469  0.08392  1.0000
  H   H1533     1.0  0.25174  0.78067  0.16998  1.0000
  H   H1534     1.0  0.27463  0.78261  0.13462  1.0000
  H   H1535     1.0  0.27569  0.75813  0.11279  1.0000
  H   H1536     1.0  0.33103  0.71023  0.06096  1.0000
  H   H1537     1.0  0.30518  0.74357  0.05538  1.0000
  H   H1538     1.0  0.27215  0.74935  0.08101  1.0000
  C   C1947     1.0  0.32728  0.52172  0.16203  1.0000
  C   C1948     1.0  0.31595  0.81015  0.45778  1.0000
  H   H1539     1.0  0.28483  0.97119  0.45836  1.0000
  C   C1949     1.0  0.36437  0.62025  0.29799  1.0000
  C   C1950     1.0  0.35700  0.62689  0.31705  1.0000
  C   C1951     1.0  0.37834  0.69015  0.18985  1.0000
  C   C1952     1.0  0.32704  0.92756  0.17309  1.0000
  H   H1540     1.0  0.37430  0.65927  0.39811  1.0000
  C   C1953     1.0  0.36238  0.63146  0.23349  1.0000
  C   C1954     1.0  0.34533  0.63000  0.22617  1.0000
  C   C1955     1.0  0.33525  0.61313  0.23527  1.0000
  C   C1956     1.0  0.34254  0.59748  0.25133  1.0000
  C   C1957     1.0  0.25632  0.53707  0.28818  1.0000
  H   H1541     1.0  0.36728  0.73450  0.48229  1.0000
  H   H1542     1.0  0.26950  0.56410  0.38260  1.0000
  C   C1958     1.0  0.24135  0.67930  0.24931  1.0000
  H   H1543     1.0  0.34302  0.54433  0.10005  1.0000
  H   H1544     1.0  0.34152  0.52179  0.15021  1.0000
  C   C1959     1.0  0.23977  0.74097  0.15544  1.0000
  C   C1960     1.0  0.35635  0.72053  0.17263  1.0000
  H   H1545     1.0  0.35585  0.61077  0.29410  1.0000
  H   H1546     1.0  0.34277  0.62285  0.32711  1.0000
  H   H1547     1.0  0.36208  0.64397  0.33777  1.0000
  C   C1961     1.0  0.37836  0.56747  0.21247  1.0000
  C   C1962     1.0  0.22318  0.79091  0.09932  1.0000
  H   H1548     1.0  0.21447  0.61000  0.24698  1.0000
  H   H1549     1.0  0.33982  0.64206  0.21358  1.0000
  H   H1550     1.0  0.32185  0.61201  0.22990  1.0000
  S   S257      1.0  0.25107  0.82307  0.01237  1.0000
  H   H1551     1.0  0.25480  0.59223  0.22147  1.0000
  C   C1963     1.0  0.22376  0.74662  0.01430  1.0000
  H   H1552     1.0  0.31125  0.53400  0.09780  1.0000
  Fe  Fe128     1.0  0.20566  0.49576  0.21953  1.0000
  C   C1964     1.0  0.24809  0.69909  0.13782  1.0000
  H   H1553     1.0  0.23277  0.64002  0.33586  1.0000
  C   C1965     1.0  0.28178  0.87489  0.22003  1.0000
  C   C1966     1.0  0.29073  0.51894  0.17244  1.0000
  H   H1554     1.0  0.34284  0.91702  0.09687  1.0000
  C   C1967     1.0  0.24573  0.65287  0.01151  1.0000
  C   C1968     1.0  0.23838  0.64585  0.03302  1.0000
  C   C1969     1.0  0.21704  0.64593  0.04061  1.0000
  P   P64       1.0  0.25664  0.63741  0.05029  1.0000
  C   C1970     1.0  0.27308  0.61226  0.04628  1.0000
  C   C1971     1.0  0.27121  0.65829  0.04339  1.0000
  C   C1972     1.0  0.29308  0.65407  0.03824  1.0000
  C   C1973     1.0  0.30402  0.67039  0.03305  1.0000
  C   C1974     1.0  0.29325  0.69110  0.03271  1.0000
  C   C1975     1.0  0.27150  0.69562  0.03689  1.0000
  C   C1976     1.0  0.26053  0.67934  0.04199  1.0000
  C   C1977     1.0  0.28873  0.60266  0.05793  1.0000
  C   C1978     1.0  0.30124  0.58312  0.05521  1.0000
  H   H1555     1.0  0.36276  0.72915  0.02111  1.0000
  C   C1979     1.0  0.37359  0.73306  0.23993  1.0000
  C   C1980     1.0  0.27021  0.60188  0.03183  1.0000
  C   C1981     1.0  0.24321  0.63538  0.07757  1.0000
  C   C1982     1.0  0.22961  0.65297  0.08459  1.0000
  C   C1983     1.0  0.27581  0.51211  0.40536  1.0000
  C   C1984     1.0  0.38607  0.68641  0.42836  1.0000
  C   C1985     1.0  0.23648  0.61497  0.11324  1.0000
  C   C1986     1.0  0.24609  0.61620  0.09210  1.0000
  H   H1556     1.0  0.25107  0.90021  0.37722  1.0000
  H   H1557     1.0  0.26216  0.65306  0.00535  1.0000
  H   H1558     1.0  0.37376  0.54848  0.30363  1.0000
  H   H1559     1.0  0.30187  0.63831  0.03803  1.0000
  H   H1560     1.0  0.32091  0.66699  0.02913  1.0000
  H   H1561     1.0  0.30180  0.70370  0.02853  1.0000
  H   H1562     1.0  0.26316  0.71182  0.03554  1.0000
  H   H1563     1.0  0.24374  0.68335  0.04420  1.0000
  H   H1564     1.0  0.29155  0.61043  0.06892  1.0000
  H   H1565     1.0  0.31360  0.57619  0.06391  1.0000
  H   H1566     1.0  0.22932  0.73000  0.16129  1.0000
  C   C1987     1.0  0.37083  0.94382  0.36194  1.0000
  H   H1567     1.0  0.22612  0.66769  0.07382  1.0000
  C   C1988     1.0  0.25008  0.87975  0.13832  1.0000
  C   C1989     1.0  0.29051  0.52103  0.19264  1.0000
  H   H1568     1.0  0.25564  0.60205  0.08740  1.0000
  C   C1990     1.0  0.34401  0.54508  0.30047  1.0000
  S   S258      1.0  0.34900  0.52777  0.18875  1.0000
  H   H1569     1.0  0.24467  0.93000  0.15527  1.0000
  C   C1991     1.0  0.19628  0.87616  0.02516  1.0000
  C   C1992     1.0  0.23189  0.66033  0.99783  1.0000
  H   H1570     1.0  0.37977  0.58280  0.20275  1.0000
  C   C1993     1.0  0.29662  0.93506  0.33998  1.0000
  C   C1994     1.0  0.35844  0.57015  0.05005  1.0000
  H   H1571     1.0  0.30892  0.52216  0.33947  1.0000
  C   C1995     1.0  0.27702  0.93009  0.44264  1.0000
  Fe  Fe129     1.0  0.29162  0.77256  0.00289  1.0000
  C   C1996     1.0  0.25780  0.86138  0.20824  1.0000
  H   H1572     1.0  0.25077  0.72046  0.07786  1.0000
  C   C1997     1.0  0.36524  0.84430  0.44443  1.0000
  C   C1998     1.0  0.21870  0.90697  0.34390  1.0000
  C   C1999     1.0  0.27042  0.57687  0.19565  1.0000
  H   H1573     1.0  0.26745  0.87218  0.10871  1.0000
  C   C2000     1.0  0.23596  0.65765  0.37172  1.0000
  H   H1574     1.0  0.35052  0.57060  0.03785  1.0000
  C   C2001     1.0  0.37513  0.77996  0.08710  1.0000
  P   P65       1.0  0.25393  0.72298  0.11996  1.0000
  C   C2002     1.0  0.32043  0.84703  0.32437  1.0000
  C   C2003     1.0  0.28742  0.88651  0.14335  1.0000
  H   H1575     1.0  0.21628  0.63171  0.13653  1.0000
  C   C2004     1.0  0.29187  0.86058  0.29787  1.0000
  C   C2005     1.0  0.20837  0.76398  0.01916  1.0000
  H   H1576     1.0  0.38723  0.56739  0.33401  1.0000
  S   S259      1.0  0.36074  0.59501  0.99473  1.0000
  C   C2006     1.0  0.25935  0.68956  0.15381  1.0000
  H   H1577     1.0  0.30545  0.92910  0.32610  1.0000
  C   C2007     1.0  0.23046  0.67214  0.43436  1.0000
  H   H1578     1.0  0.28140  0.86568  0.28710  1.0000
  C   C2008     1.0  0.31909  0.84732  0.05182  1.0000
  H   H1579     1.0  0.28710  0.92393  0.41157  1.0000
  C   C2009     1.0  0.26348  0.94527  0.36268  1.0000
  C   C2010     1.0  0.21968  0.72624  0.02199  1.0000
  S   S260      1.0  0.20813  0.52212  0.19158  1.0000
  C   C2011     1.0  0.22555  0.57046  0.08867  1.0000
  H   H1580     1.0  0.24783  0.52939  0.30276  1.0000
  H   H1581     1.0  0.32355  0.93950  0.34810  1.0000
  C   C2012     1.0  0.36910  0.85944  0.07770  1.0000
  H   H1582     1.0  0.23979  0.78809  0.06807  1.0000
  H   H1583     1.0  0.23644  0.78280  0.10636  1.0000
  C   C2013     1.0  0.22509  0.79399  0.07768  1.0000
  Fe  Fe130     1.0  0.23107  0.51340  0.24097  1.0000
  S   S261      1.0  0.24314  0.51186  0.26990  1.0000
  C   C2014     1.0  0.20834  0.80541  0.06831  1.0000
  H   H1584     1.0  0.27656  0.52033  0.20466  1.0000
  C   C2015     1.0  0.32684  0.52425  0.18215  1.0000
  H   H1585     1.0  0.23895  0.60024  0.12432  1.0000
  C   C2016     1.0  0.37474  0.52736  0.23670  1.0000
  C   C2017     1.0  0.30810  0.84735  0.48674  1.0000
  C   C2018     1.0  0.25926  0.63716  0.24683  1.0000
  S   S262      1.0  0.22868  0.59817  0.35691  1.0000
  C   C2019     1.0  0.35681  0.54289  0.23388  1.0000
  C   C2020     1.0  0.32573  0.53778  0.31069  1.0000
  H   H1586     1.0  0.36365  0.60117  0.08037  1.0000
  H   H1587     1.0  0.21282  0.95677  0.16287  1.0000
  C   C2021     1.0  0.21731  0.63837  0.33593  1.0000
  C   C2022     1.0  0.25990  0.68087  0.35383  1.0000
  C   C2023     1.0  0.27014  0.87632  0.20496  1.0000
  H   H1588     1.0  0.34375  0.97083  0.05185  1.0000
  S   S263      1.0  0.31129  0.61709  0.00131  1.0000
  C   C2024     1.0  0.34783  0.81738  0.05001  1.0000
  H   H1589     1.0  0.36770  0.84319  0.08374  1.0000
  C   C2025     1.0  0.36222  0.94001  0.08133  1.0000
  H   H1590     1.0  0.22857  0.75490  0.18280  1.0000
  H   H1591     1.0  0.33776  0.86935  0.07254  1.0000
  C   C2026     1.0  0.28681  0.70934  0.42130  1.0000
  C   C2027     1.0  0.35213  0.87427  0.07141  1.0000
  C   C2028     1.0  0.34006  0.81706  0.42456  1.0000
  H   H1592     1.0  0.30532  0.95723  0.17131  1.0000
  H   H1593     1.0  0.27478  0.61972  0.39608  1.0000
  H   H1594     1.0  0.31288  0.66323  0.39243  1.0000
  C   C2029     1.0  0.30729  0.70791  0.40983  1.0000
  H   H1595     1.0  0.38410  0.68101  0.20366  1.0000
  C   C2030     1.0  0.19580  0.51558  0.30805  1.0000
  H   H1596     1.0  0.25358  0.55244  0.35063  1.0000
  H   H1597     1.0  0.21950  0.67606  0.23223  1.0000
  C   C2031     1.0  0.21113  0.59867  0.26137  1.0000
  C   C2032     1.0  0.37389  0.50998  0.37945  1.0000
  H   H1598     1.0  0.24664  0.94739  0.36636  1.0000
  H   H1599     1.0  0.38360  0.71793  0.04897  1.0000
  C   C2033     1.0  0.26796  0.87721  0.12262  1.0000
  C   C2034     1.0  0.38244  0.62583  0.28435  1.0000
  H   H1600     1.0  0.19379  0.68681  0.26507  1.0000
  S   S264      1.0  0.21653  0.97008  0.46049  1.0000
  C   C2035     1.0  0.22064  0.73809  0.07354  1.0000
  H   H1601     1.0  0.20336  0.84146  0.99369  1.0000
  H   H1602     1.0  0.21250  0.93695  0.22880  1.0000
  H   H1603     1.0  0.38411  0.76325  0.45898  1.0000
  S   S265      1.0  0.20547  0.86552  0.11499  1.0000
  H   H1604     1.0  0.34590  0.55282  0.28409  1.0000
  H   H1605     1.0  0.38915  0.52918  0.41400  1.0000
  C   C2036     1.0  0.24651  0.91753  0.18795  1.0000
  H   H1606     1.0  0.31458  0.88002  0.17990  1.0000
  C   C2037     1.0  0.37895  0.56879  0.08162  1.0000
  C   C2038     1.0  0.22736  0.49297  0.10233  1.0000
  C   C2039     1.0  0.23768  0.93117  0.17142  1.0000
  H   H1607     1.0  0.36658  0.82850  0.44248  1.0000
  H   H1608     1.0  0.26584  0.62069  0.24657  1.0000
  C   C2040     1.0  0.38002  0.49696  0.27671  1.0000
  C   C2041     1.0  0.30822  0.52017  0.38266  1.0000
  C   C2042     1.0  0.23001  0.49757  0.08033  1.0000
  H   H1609     1.0  0.20234  0.79481  0.12872  1.0000
  H   H1610     1.0  0.33988  0.90680  0.06029  1.0000
  H   H1611     1.0  0.24397  0.90974  0.22171  1.0000
  H   H1612     1.0  0.24591  0.88157  0.29222  1.0000
  C   C2043     1.0  0.35867  0.56278  0.22165  1.0000
  H   H1613     1.0  0.26239  0.66508  0.18130  1.0000
  H   H1614     1.0  0.20472  0.91730  0.33945  1.0000
  C   C2044     1.0  0.36226  0.96448  0.10245  1.0000
  C   C2045     1.0  0.21485  0.53935  0.33587  1.0000
  C   C2046     1.0  0.20845  0.60404  0.28076  1.0000
  H   H1615     1.0  0.22302  0.58598  0.17730  1.0000
  C   C2047     1.0  0.36401  0.71345  0.15374  1.0000
  H   H1616     1.0  0.28840  0.49373  0.26251  1.0000
  C   C2048     1.0  0.30683  0.94093  0.35257  1.0000
  H   H1617     1.0  0.27009  0.83032  0.25380  1.0000
  C   C2049     1.0  0.34478  0.87879  0.44868  1.0000
  C   C2050     1.0  0.37104  0.55130  0.05825  1.0000
  C   C2051     1.0  0.28787  0.63167  0.41589  1.0000
  H   H1618     1.0  0.36968  0.64489  0.22653  1.0000
  H   H1619     1.0  0.24838  0.83332  0.22806  1.0000
  C   C2052     1.0  0.24762  0.52118  0.35749  1.0000
  C   C2053     1.0  0.36373  0.91824  0.39407  1.0000
  H   H1620     1.0  0.33068  0.93021  0.12957  1.0000
  C   C2054     1.0  0.23287  0.66843  0.23930  1.0000
  C   C2055     1.0  0.27876  0.95768  0.99448  1.0000
  C   C2056     1.0  0.38556  0.79874  0.25177  1.0000
  C   C2057     1.0  0.38409  0.76243  0.10083  1.0000
  H   H1621     1.0  0.27950  0.72246  0.42906  1.0000
  H   H1622     1.0  0.26622  0.69124  0.33979  1.0000
  H   H1623     1.0  0.22317  0.73554  0.05782  1.0000
  C   C2058     1.0  0.24400  0.54265  0.34881  1.0000
  H   H1624     1.0  0.36273  0.78006  0.22268  1.0000
  C   C2059     1.0  0.35976  0.59866  0.25843  1.0000
  H   H1625     1.0  0.34493  0.73499  0.17274  1.0000
  C   C2060     1.0  0.19752  0.88750  0.23852  1.0000
  Fe  Fe131     1.0  0.20096  0.84728  0.14834  1.0000
  H   H1626     1.0  0.33489  0.58429  0.25820  1.0000
  C   C2061     1.0  0.21094  0.61941  0.34569  1.0000
  C   C2062     1.0  0.26974  0.84336  0.24042  1.0000
  H   H1627     1.0  0.22955  0.87806  0.26509  1.0000
  H   H1628     1.0  0.25439  0.57297  0.06664  1.0000
  C   C2063     1.0  0.30307  0.62672  0.42817  1.0000
  C   C2064     1.0  0.34973  0.95356  0.36490  1.0000
  C   C2065     1.0  0.27716  0.54776  0.38663  1.0000
  H   H1629     1.0  0.30800  0.52601  0.21295  1.0000
  C   C2066     1.0  0.34620  0.49780  0.25561  1.0000
  C   C2067     1.0  0.29865  0.57318  0.04047  1.0000
  C   C2068     1.0  0.25102  0.51539  0.10025  1.0000
  C   C2069     1.0  0.21429  0.74489  0.11411  1.0000
  H   H1630     1.0  0.30217  0.88865  0.14493  1.0000
  C   C2070     1.0  0.23125  0.69081  0.13703  1.0000
  C   C2071     1.0  0.32326  0.52762  0.33182  1.0000
  C   C2072     1.0  0.21954  0.93528  0.21278  1.0000
  H   H1631     1.0  0.27484  0.94186  0.17559  1.0000
  H   H1632     1.0  0.21256  0.66732  0.15155  1.0000
  C   C2073     1.0  0.20272  0.86761  0.00712  1.0000
  H   H1633     1.0  0.30275  0.97866  0.42169  1.0000
  C   C2074     1.0  0.35650  0.94305  0.03837  1.0000
  C   C2075     1.0  0.19618  0.57129  0.07397  1.0000
  H   H1634     1.0  0.38511  0.68955  0.13814  1.0000
  H   H1635     1.0  0.24852  0.86204  0.19712  1.0000
  C   C2076     1.0  0.23712  0.66397  0.16786  1.0000
  H   H1636     1.0  0.33158  0.84134  0.33459  1.0000
  C   C2077     1.0  0.23459  0.50881  0.35585  1.0000
  C   C2078     1.0  0.25762  0.84501  0.22591  1.0000
  H   H1637     1.0  0.23766  0.64295  0.40364  1.0000
  H   H1638     1.0  0.38281  0.57558  0.39513  1.0000
  H   H1639     1.0  0.30675  0.55277  0.36744  1.0000
  C   C2079     1.0  0.21610  0.65892  0.47083  1.0000
  C   C2080     1.0  0.36248  0.88464  0.45063  1.0000
  H   H1640     1.0  0.19298  0.86618  0.34453  1.0000
  C   C2081     1.0  0.38614  0.64396  0.30974  1.0000
  H   H1641     1.0  0.36919  0.90458  0.40537  1.0000
  S   S266      1.0  0.30078  0.80089  0.00655  1.0000
  C   C2082     1.0  0.38098  0.55050  0.07439  1.0000
  C   C2083     1.0  0.20372  0.65534  0.32639  1.0000
  C   C2084     1.0  0.20441  0.71456  0.24507  1.0000
  C   C2085     1.0  0.26809  0.67678  0.37187  1.0000
  C   C2086     1.0  0.29627  0.95197  0.41353  1.0000
  C   C2087     1.0  0.37889  0.52606  0.40568  1.0000
  C   C2088     1.0  0.37783  0.92618  0.37653  1.0000
  C   C2089     1.0  0.35708  0.93374  0.02169  1.0000
  H   H1642     1.0  0.27004  0.94987  0.00894  1.0000
  C   C2090     1.0  0.29824  0.54130  0.37796  1.0000
  H   H1643     1.0  0.20332  0.65948  0.48433  1.0000
  C   C2091     1.0  0.28166  0.85840  0.23757  1.0000
  H   H1644     1.0  0.38781  0.56879  0.09280  1.0000
  C   C2092     1.0  0.31282  0.86163  0.28980  1.0000
  C   C2093     1.0  0.35690  0.61687  0.14381  1.0000
  H   H1645     1.0  0.19671  0.71200  0.32430  1.0000
  H   H1646     1.0  0.20192  0.97069  0.32577  1.0000
  C   C2094     1.0  0.19568  0.96602  0.37832  1.0000
  C   C2095     1.0  0.35424  0.58322  0.16694  1.0000
  C   C2096     1.0  0.32714  0.85458  0.30299  1.0000
  C   C2097     1.0  0.22588  0.84633  0.27926  1.0000
  C   C2098     1.0  0.24158  0.64735  0.23844  1.0000
  S   S267      1.0  0.25781  0.83690  0.46793  1.0000
  C   C2099     1.0  0.22781  0.55169  0.33794  1.0000
  H   H1647     1.0  0.34474  0.57432  0.21884  1.0000
  C   C2100     1.0  0.33900  0.52486  0.34301  1.0000
  H   H1648     1.0  0.31805  0.86738  0.27317  1.0000
  C   C2101     1.0  0.30554  0.67580  0.40087  1.0000
  C   C2102     1.0  0.21060  0.94848  0.19633  1.0000
  C   C2103     1.0  0.38157  0.87038  0.44940  1.0000
  C   C2104     1.0  0.28497  0.67704  0.41240  1.0000
  H   H1649     1.0  0.31144  0.86280  0.04483  1.0000
  H   H1650     1.0  0.34555  0.84579  0.02625  1.0000
  S   S268      1.0  0.36986  0.61505  0.40958  1.0000
  C   C2105     1.0  0.24928  0.65759  0.43590  1.0000
  C   C2106     1.0  0.28570  0.87292  0.46529  1.0000
  H   H1651     1.0  0.34346  0.85460  0.29654  1.0000
  H   H1652     1.0  0.34782  0.82780  0.41191  1.0000
  C   C2107     1.0  0.34133  0.93784  0.11675  1.0000
  C   C2108     1.0  0.31667  0.69108  0.39975  1.0000
  S   S269      1.0  0.21311  0.78961  0.01059  1.0000
  C   C2109     1.0  0.33827  0.83764  0.04128  1.0000
  P   P66       1.0  0.26987  0.89794  0.18247  1.0000
  C   C2110     1.0  0.22584  0.67333  0.15200  1.0000
  C   C2111     1.0  0.36564  0.58731  0.07415  1.0000
  C   C2112     1.0  0.24294  0.51164  0.06847  1.0000
  H   H1653     1.0  0.36242  0.80986  0.04137  1.0000
  H   H1654     1.0  0.22194  0.69791  0.12517  1.0000
  H   H1655     1.0  0.20289  0.54894  0.27782  1.0000
  C   C2113     1.0  0.35236  0.51839  0.38371  1.0000
  C   C2114     1.0  0.29688  0.50560  0.39658  1.0000
  C   C2115     1.0  0.38738  0.62777  0.04033  1.0000
  H   H1656     1.0  0.26038  0.51421  0.36563  1.0000
  C   C2116     1.0  0.19850  0.75300  0.10262  1.0000
  H   H1657     1.0  0.21844  0.84506  0.26727  1.0000
  H   H1658     1.0  0.37690  0.74886  0.10714  1.0000
  C   C2117     1.0  0.34425  0.53051  0.39927  1.0000
  H   H1659     1.0  0.21142  0.74779  0.12978  1.0000
  C   C2118     1.0  0.37231  0.73263  0.04807  1.0000
  C   C2119     1.0  0.28658  0.88071  0.12509  1.0000
  C   C2120     1.0  0.31608  0.60682  0.43055  1.0000
  H   H1660     1.0  0.21109  0.98107  0.39291  1.0000
  C   C2121     1.0  0.20385  0.97290  0.34043  1.0000
  S   S270      1.0  0.19416  0.91257  0.26636  1.0000
  H   H1661     1.0  0.37680  0.87039  0.28661  1.0000
  H   H1662     1.0  0.35882  0.72262  0.13958  1.0000
  H   H1663     1.0  0.32326  0.97212  0.99627  1.0000
  H   H1664     1.0  0.35128  0.54345  0.42232  1.0000
  H   H1665     1.0  0.24956  0.53820  0.40691  1.0000
  P   P67       1.0  0.30819  0.95805  0.38595  1.0000
  C   C2122     1.0  0.32957  0.90590  0.17525  1.0000
  C   C2123     1.0  0.25078  0.88573  0.15653  1.0000
  H   H1666     1.0  0.36061  0.56964  0.17777  1.0000
  H   H1667     1.0  0.34492  0.89597  0.17523  1.0000
  C   C2124     1.0  0.31232  0.89695  0.17781  1.0000
  H   H1668     1.0  0.26905  0.91710  0.44850  1.0000
  C   C2125     1.0  0.29540  0.94893  0.37042  1.0000
  C   C2126     1.0  0.29232  0.90970  0.17807  1.0000
  H   H1669     1.0  0.36133  0.90016  0.45334  1.0000
  C   C2127     1.0  0.23741  0.91983  0.20867  1.0000
  C   C2128     1.0  0.28998  0.93156  0.17549  1.0000
  H   H1670     1.0  0.21867  0.92683  0.48075  1.0000
  C   C2129     1.0  0.20114  0.56955  0.29871  1.0000
  C   C2130     1.0  0.26593  0.53316  0.40030  1.0000
  H   H1671     1.0  0.25853  0.60892  0.02238  1.0000
  C   C2131     1.0  0.21806  0.51790  0.34540  1.0000
  H   H1672     1.0  0.38695  0.93306  0.13904  1.0000
  C   C2132     1.0  0.38294  0.85023  0.44631  1.0000
  H   H1673     1.0  0.23250  0.56964  0.10165  1.0000
  S   S271      1.0  0.31759  0.74526  0.99732  1.0000
  Fe  Fe132     1.0  0.20256  0.83071  0.46695  1.0000
  C   C2133     1.0  0.21678  0.58264  0.16546  1.0000
  P   P68       1.0  0.33527  0.51205  0.37051  1.0000
  H   H1674     1.0  0.30399  0.93089  0.99194  1.0000
  C   C2134     1.0  0.37885  0.69480  0.15289  1.0000
  C   C2135     1.0  0.36465  0.59989  0.15857  1.0000
  H   H1675     1.0  0.37826  0.81128  0.06955  1.0000
  H   H1676     1.0  0.22044  0.88652  0.32377  1.0000
  H   H1677     1.0  0.35217  0.79117  0.40848  1.0000
  Fe  Fe133     1.0  0.37779  0.52788  0.16304  1.0000
  H   H1678     1.0  0.23445  0.63888  0.23144  1.0000
  H   H1679     1.0  0.37901  0.59941  0.16313  1.0000
  C   C2136     1.0  0.20437  0.56417  0.27908  1.0000
  C   C2137     1.0  0.36964  0.61583  0.24979  1.0000
  H   H1680     1.0  0.37275  0.53726  0.05241  1.0000
  H   H1681     1.0  0.37480  0.63822  0.03332  1.0000
  C   C2138     1.0  0.37182  0.78912  0.24699  1.0000
  S   S272      1.0  0.38985  0.56110  0.44508  1.0000
  S   S273      1.0  0.38877  0.82637  0.12241  1.0000
  C   C2139     1.0  0.22361  0.63270  0.12011  1.0000
  H   H1682     1.0  0.20987  0.61953  0.28150  1.0000
  H   H1683     1.0  0.23667  0.88779  0.16844  1.0000
  H   H1684     1.0  0.37896  0.73996  0.07444  1.0000
  H   H1685     1.0  0.30473  0.81528  0.47102  1.0000
  C   C2140     1.0  0.38283  0.66312  0.40775  1.0000
  H   H1686     1.0  0.36080  0.51648  0.48158  1.0000
  Fe  Fe134     1.0  0.20080  0.54282  0.21488  1.0000
  H   H1687     1.0  0.21114  0.57453  0.24553  1.0000
  H   H1688     1.0  0.38029  0.64234  0.06702  1.0000
  C   C2141     1.0  0.37369  0.78714  0.22640  1.0000
  H   H1689     1.0  0.37519  0.69752  0.98939  1.0000
  H   H1690     1.0  0.34559  0.93680  0.99381  1.0000
  H   H1691     1.0  0.38733  0.63840  0.37051  1.0000
  H   H1692     1.0  0.23587  0.49801  0.12917  1.0000
  H   H1693     1.0  0.38759  0.74424  0.25924  1.0000
  C   C2142     1.0  0.27181  0.87796  0.48347  1.0000
  H   H1694     1.0  0.26712  0.50080  0.41604  1.0000
  C   C2143     1.0  0.19268  0.96322  0.35941  1.0000
  C   C2144     1.0  0.30598  0.98618  0.37743  1.0000
  H   H1695     1.0  0.25776  0.88985  0.48232  1.0000
  C   C2145     1.0  0.19799  0.84846  0.00748  1.0000
  H   H1696     1.0  0.25590  0.98657  0.99267  1.0000
  H   H1697     1.0  0.19972  0.66743  0.99503  1.0000
  P   P69       1.0  0.19317  0.55149  0.32289  1.0000
  C   C2146     1.0  0.19205  0.50220  0.06448  1.0000
  H   H1698     1.0  0.19272  0.87586  0.30637  1.0000
  H   H1699     1.0  0.28077  0.99094  0.36116  1.0000
  C   C2147     1.0  0.39079  0.74710  0.45751  1.0000
  H   H1700     1.0  0.38177  0.95002  0.34835  1.0000
  C   C2148     1.0  0.38599  0.68313  0.17095  1.0000
  C   C2149     1.0  0.38979  0.73924  0.24461  1.0000
  C   C2150     1.0  0.38597  0.85470  0.28613  1.0000
  C   C2151     1.0  0.39045  0.63004  0.05934  1.0000
  H   H1701     1.0  0.33050  0.98755  0.39207  1.0000
  C   C2152     1.0  0.38478  0.79736  0.07972  1.0000
  H   H1702     1.0  0.37968  0.96512  0.07098  1.0000
  H   H1703     1.0  0.20238  0.57463  0.04034  1.0000
  S   S274      1.0  0.19703  0.69758  0.04781  1.0000
  H   H1704     1.0  0.19362  0.61683  0.99028  1.0000
  H   H1705     1.0  0.38789  0.89740  0.13417  1.0000
  C   C2153     1.0  0.38744  0.86574  0.07700  1.0000
  H   H1706     1.0  0.23648  0.63372  0.48730  1.0000
  C   C2154     1.0  0.38873  0.88693  0.07039  1.0000
  S   S275      1.0  0.22235  0.80771  0.48808  1.0000
  C   C2155     1.0  0.38986  0.71007  0.46873  1.0000
  H   H1707     1.0  0.39068  0.84659  0.21390  1.0000
  C   C2156     1.0  0.38994  0.79387  0.21074  1.0000
  H   H1708     1.0  0.19363  0.53254  0.15481  1.0000
  C   C2157     1.0  0.38675  0.68312  0.98890  1.0000
  H   H1709     1.0  0.32220  0.83559  0.48827  1.0000
  H   H1710     1.0  0.35285  0.55258  0.48829  1.0000
  H   H1711     1.0  0.30545  0.80975  0.93448  1.0000
  H   H1712     1.0  0.20257  0.83617  0.62259  1.0000
  P   P70       1.0  0.31586  0.99039  0.93228  1.0000
  H   H1713     1.0  0.32397  0.94820  0.95908  1.0000
  H   H1714     1.0  0.28193  0.60800  0.98327  1.0000
  C   C2158     1.0  0.23224  0.71053  0.93046  1.0000
  H   H1715     1.0  0.19605  0.51581  0.87251  1.0000
  C   C2159     1.0  0.30213  0.94448  0.60508  1.0000
  H   H1716     1.0  0.22829  0.76312  0.52709  1.0000
  H   H1717     1.0  0.35286  0.98764  0.89841  1.0000
  S   S276      1.0  0.22993  0.83646  0.52756  1.0000
  H   H1718     1.0  0.36661  0.98556  0.57976  1.0000
  H   H1719     1.0  0.33827  0.81797  0.93643  1.0000
  H   H1720     1.0  0.26656  0.97740  0.77723  1.0000
  H   H1721     1.0  0.29691  0.84391  0.52023  1.0000
  H   H1722     1.0  0.34632  0.63299  0.87759  1.0000
  C   C2160     1.0  0.22196  0.57504  0.79105  1.0000
  Fe  Fe135     1.0  0.22963  0.83612  0.49419  1.0000
  H   H1723     1.0  0.20786  0.57922  0.97027  1.0000
  S   S277      1.0  0.28871  0.84307  0.95751  1.0000
  H   H1724     1.0  0.19797  0.95175  0.50759  1.0000
  C   C2161     1.0  0.27193  0.62315  0.88562  1.0000
  H   H1725     1.0  0.20531  0.72212  0.58413  1.0000
  C   C2162     1.0  0.24274  0.57899  0.81383  1.0000
  S   S278      1.0  0.34196  0.62718  0.95477  1.0000
  C   C2163     1.0  0.29791  0.94700  0.98492  1.0000
  Fe  Fe136     1.0  0.33415  0.59866  0.97880  1.0000
  S   S279      1.0  0.32198  0.57124  0.97593  1.0000
  S   S280      1.0  0.38935  0.88441  0.92934  1.0000
  C   C2164     1.0  0.32625  0.66408  0.91364  1.0000
  C   C2165     1.0  0.29969  0.86288  0.98274  1.0000
  S   S281      1.0  0.37915  0.93343  0.93636  1.0000
  Fe  Fe137     1.0  0.37067  0.90269  0.95412  1.0000
  C   C2166     1.0  0.20619  0.65356  0.92042  1.0000
  Fe  Fe138     1.0  0.25299  0.52671  0.87299  1.0000
  S   S282      1.0  0.22557  0.52418  0.89960  1.0000
  S   S283      1.0  0.25354  0.51562  0.84372  1.0000
  Fe  Fe139     1.0  0.27226  0.54996  0.89464  1.0000
  S   S284      1.0  0.24598  0.54941  0.92262  1.0000
  S   S285      1.0  0.29745  0.56761  0.89196  1.0000
  Fe  Fe140     1.0  0.24893  0.51617  0.92003  1.0000
  Fe  Fe141     1.0  0.22528  0.55758  0.89935  1.0000
  H   H1726     1.0  0.37773  0.98148  0.83927  1.0000
  S   S286      1.0  0.27687  0.51582  0.89349  1.0000
  S   S287      1.0  0.25120  0.56097  0.87132  1.0000
  H   H1727     1.0  0.21537  0.56995  0.73816  1.0000
  C   C2167     1.0  0.23657  0.49854  0.84661  1.0000
  C   C2168     1.0  0.34862  0.93427  0.80872  1.0000
  C   C2169     1.0  0.31885  0.79718  0.93668  1.0000
  C   C2170     1.0  0.34655  0.54242  0.52191  1.0000
  C   C2171     1.0  0.22543  0.53817  0.77276  1.0000
  H   H1728     1.0  0.38848  0.81968  0.86659  1.0000
  H   H1729     1.0  0.27539  0.49804  0.57229  1.0000
  C   C2172     1.0  0.26498  0.64314  0.89067  1.0000
  H   H1730     1.0  0.33294  0.74398  0.94424  1.0000
  C   C2173     1.0  0.38770  0.82411  0.95575  1.0000
  C   C2174     1.0  0.33346  0.95273  0.81055  1.0000
  H   H1731     1.0  0.34367  0.80392  0.97672  1.0000
  C   C2175     1.0  0.19976  0.57788  0.74417  1.0000
  C   C2176     1.0  0.36104  0.97474  0.77438  1.0000
  C   C2177     1.0  0.31259  0.98411  0.59134  1.0000
  H   H1732     1.0  0.23482  0.62334  0.77644  1.0000
  H   H1733     1.0  0.24733  0.63029  0.84542  1.0000
  C   C2178     1.0  0.34765  0.91623  0.82458  1.0000
  C   C2179     1.0  0.30919  0.95693  0.96620  1.0000
  C   C2180     1.0  0.22321  0.59545  0.77953  1.0000
  C   C2181     1.0  0.37670  0.50120  0.57183  1.0000
  H   H1734     1.0  0.20226  0.53206  0.75940  1.0000
  H   H1735     1.0  0.21401  0.66498  0.90880  1.0000
  C   C2182     1.0  0.31072  0.87620  0.98641  1.0000
  H   H1736     1.0  0.27355  0.69230  0.89432  1.0000
  S   S288      1.0  0.19456  0.58018  0.90382  1.0000
  C   C2183     1.0  0.31724  0.77638  0.93891  1.0000
  C   C2184     1.0  0.27692  0.62582  0.95296  1.0000
  C   C2185     1.0  0.35140  0.50467  0.53516  1.0000
  H   H1737     1.0  0.23441  0.97352  0.85256  1.0000
  H   H1738     1.0  0.20026  0.52198  0.95866  1.0000
  C   C2186     1.0  0.25688  0.61213  0.93640  1.0000
  C   C2187     1.0  0.28918  0.96158  0.61324  1.0000
  H   H1739     1.0  0.28574  0.63717  0.95300  1.0000
  H   H1740     1.0  0.25238  0.98603  0.59958  1.0000
  C   C2188     1.0  0.36661  0.96272  0.75876  1.0000
  C   C2189     1.0  0.31479  0.57101  0.95252  1.0000
  C   C2190     1.0  0.32070  0.58480  0.93369  1.0000
  C   C2191     1.0  0.31543  0.58350  0.91519  1.0000
  C   C2192     1.0  0.30368  0.56892  0.91551  1.0000
  C   C2193     1.0  0.29738  0.55545  0.93445  1.0000
  C   C2194     1.0  0.30315  0.55633  0.95281  1.0000
  H   H1741     1.0  0.32973  0.59611  0.93326  1.0000
  H   H1742     1.0  0.32066  0.59368  0.90055  1.0000
  H   H1743     1.0  0.28854  0.54399  0.93484  1.0000
  H   H1744     1.0  0.29864  0.54554  0.96729  1.0000
  C   C2195     1.0  0.30323  0.85864  0.96269  1.0000
  C   C2196     1.0  0.31818  0.86729  0.94648  1.0000
  C   C2197     1.0  0.32966  0.88010  0.95031  1.0000
  C   C2198     1.0  0.32575  0.88474  0.97023  1.0000
  P   P71       1.0  0.20768  0.55926  0.78425  1.0000
  C   C2199     1.0  0.19374  0.53799  0.96077  1.0000
  H   H1745     1.0  0.32094  0.86396  0.93099  1.0000
  H   H1746     1.0  0.34124  0.88668  0.93780  1.0000
  C   C2200     1.0  0.30036  0.69454  0.97542  1.0000
  C   C2201     1.0  0.35483  0.81389  0.97383  1.0000
  H   H1747     1.0  0.24986  0.61269  0.92355  1.0000
  H   H1748     1.0  0.22330  0.72517  0.93487  1.0000
  P   P72       1.0  0.33535  0.97671  0.79102  1.0000
  H   H1749     1.0  0.33035  0.93392  0.58375  1.0000
  C   C2202     1.0  0.21754  0.76069  0.54210  1.0000
  C   C2203     1.0  0.21827  0.52753  0.76146  1.0000
  H   H1750     1.0  0.36132  0.93369  0.79523  1.0000
  H   H1751     1.0  0.22173  0.54195  0.96746  1.0000
  H   H1752     1.0  0.34242  0.52803  0.55458  1.0000
  C   C2204     1.0  0.28461  0.71105  0.98186  1.0000
  C   C2205     1.0  0.31386  0.64009  0.89241  1.0000
  C   C2206     1.0  0.21970  0.86071  0.53553  1.0000
  C   C2207     1.0  0.21994  0.87966  0.52093  1.0000
  C   C2208     1.0  0.21381  0.89879  0.52781  1.0000
  C   C2209     1.0  0.20619  0.89917  0.54915  1.0000
  C   C2210     1.0  0.20482  0.88027  0.56366  1.0000
  C   C2211     1.0  0.21202  0.86106  0.55690  1.0000
  H   H1753     1.0  0.22567  0.87949  0.50445  1.0000
  H   H1754     1.0  0.21514  0.91333  0.51665  1.0000
  H   H1755     1.0  0.33102  0.67307  0.92224  1.0000
  H   H1756     1.0  0.21180  0.84644  0.56826  1.0000
  H   H1757     1.0  0.38002  0.94947  0.82645  1.0000
  C   C2212     1.0  0.34615  0.52524  0.53877  1.0000
  H   H1758     1.0  0.30564  0.96691  0.83042  1.0000
  H   H1759     1.0  0.21580  0.98172  0.61046  1.0000
  H   H1760     1.0  0.20746  0.78419  0.59436  1.0000
  C   C2213     1.0  0.23164  0.51097  0.75275  1.0000
  H   H1761     1.0  0.37229  0.98328  0.96962  1.0000
  C   C2214     1.0  0.20593  0.54935  0.96559  1.0000
  S   S289      1.0  0.19928  0.97534  0.69973  1.0000
  H   H1762     1.0  0.23144  0.50991  0.81508  1.0000
  C   C2215     1.0  0.29394  0.85212  0.50486  1.0000
  H   H1763     1.0  0.26596  0.98707  0.85027  1.0000
  H   H1764     1.0  0.30443  0.95215  0.92838  1.0000
  C   C2216     1.0  0.29673  0.97636  0.78317  1.0000
  S   S290      1.0  0.33932  0.90130  0.97525  1.0000
  H   H1765     1.0  0.29429  0.67060  0.92922  1.0000
  C   C2217     1.0  0.31878  0.95432  0.91724  1.0000
  C   C2218     1.0  0.38657  0.96077  0.74604  1.0000
  H   H1766     1.0  0.23041  0.55150  0.81781  1.0000
  H   H1767     1.0  0.27560  0.51055  0.76857  1.0000
  H   H1768     1.0  0.20261  0.79308  0.53843  1.0000
  H   H1769     1.0  0.24671  0.67436  0.88187  1.0000
  C   C2219     1.0  0.28176  0.98145  0.77073  1.0000
  C   C2220     1.0  0.33749  0.80174  0.93786  1.0000
  C   C2221     1.0  0.35176  0.53927  0.50132  1.0000
  C   C2222     1.0  0.23371  0.99029  0.84942  1.0000
  C   C2223     1.0  0.35542  0.95941  0.88771  1.0000
  C   C2224     1.0  0.27579  0.86741  0.50323  1.0000
  H   H1770     1.0  0.19953  0.60704  0.82798  1.0000
  H   H1771     1.0  0.22058  0.62828  0.90380  1.0000
  C   C2225     1.0  0.19783  0.59516  0.86120  1.0000
  C   C2226     1.0  0.22189  0.98936  0.61929  1.0000
  C   C2227     1.0  0.32636  0.71100  0.97996  1.0000
  S   S291      1.0  0.29423  0.67236  0.97121  1.0000
  C   C2228     1.0  0.25243  0.63398  0.85783  1.0000
  H   H1772     1.0  0.22172  0.80172  0.61388  1.0000
  C   C2229     1.0  0.22833  0.49860  0.82949  1.0000
  C   C2230     1.0  0.26839  0.62715  0.93561  1.0000
  C   C2231     1.0  0.32856  0.93934  0.90483  1.0000
  C   C2232     1.0  0.37329  0.81134  0.95853  1.0000
  C   C2233     1.0  0.30129  0.97768  0.95671  1.0000
  C   C2234     1.0  0.38399  0.80826  0.90005  1.0000
  H   H1773     1.0  0.28193  0.61091  0.89457  1.0000
  H   H1774     1.0  0.30400  0.93489  0.85815  1.0000
  C   C2235     1.0  0.19805  0.57041  0.96714  1.0000
  H   H1775     1.0  0.34637  0.97029  0.95929  1.0000
  C   C2236     1.0  0.20685  0.80892  0.60940  1.0000
  C   C2237     1.0  0.19865  0.79899  0.59834  1.0000
  Fe  Fe142     1.0  0.27850  0.81881  0.98569  1.0000
  H   H1776     1.0  0.21457  0.69133  0.95578  1.0000
  C   C2238     1.0  0.37560  0.98513  0.77676  1.0000
  P   P73       1.0  0.27188  0.64827  0.91293  1.0000
  C   C2239     1.0  0.24582  0.65410  0.86234  1.0000
  C   C2240     1.0  0.33483  0.64146  0.88860  1.0000
  C   C2241     1.0  0.26560  0.61856  0.86938  1.0000
  H   H1777     1.0  0.36731  0.81025  0.90193  1.0000
  H   H1778     1.0  0.35940  0.90205  0.82309  1.0000
  C   C2242     1.0  0.22735  0.69142  0.94227  1.0000
  C   C2243     1.0  0.25214  0.65872  0.87862  1.0000
  H   H1779     1.0  0.36573  0.75157  0.94660  1.0000
  H   H1780     1.0  0.30955  0.63066  0.88404  1.0000
  H   H1781     1.0  0.35493  0.92997  0.88091  1.0000
  H   H1782     1.0  0.22988  0.72748  0.54974  1.0000
  H   H1783     1.0  0.25269  0.72558  0.90407  1.0000
  C   C2244     1.0  0.32122  0.69504  0.97367  1.0000
  C   C2245     1.0  0.25960  0.51528  0.76654  1.0000
  C   C2246     1.0  0.20994  0.63292  0.91766  1.0000
  H   H1784     1.0  0.35548  0.95492  0.75637  1.0000
  H   H1785     1.0  0.22582  0.50302  0.74405  1.0000
  C   C2247     1.0  0.19942  0.61831  0.93240  1.0000
  C   C2248     1.0  0.29893  0.65054  0.90708  1.0000
  C   C2249     1.0  0.32023  0.94720  0.58997  1.0000
  H   H1786     1.0  0.34452  0.97878  0.83063  1.0000
  C   C2250     1.0  0.32551  0.96698  0.58320  1.0000
  C   C2251     1.0  0.33159  0.91646  0.84237  1.0000
  C   C2252     1.0  0.28199  0.98829  0.96648  1.0000
  H   H1787     1.0  0.29284  0.96817  0.79921  1.0000
  C   C2253     1.0  0.35639  0.51893  0.49757  1.0000
  C   C2254     1.0  0.25608  0.67258  0.91973  1.0000
  H   H1788     1.0  0.30262  0.77281  0.93857  1.0000
  C   C2255     1.0  0.20459  0.73765  0.57422  1.0000
  H   H1789     1.0  0.26877  0.98706  0.66330  1.0000
  C   C2256     1.0  0.25475  0.59564  0.95378  1.0000
  C   C2257     1.0  0.26368  0.59422  0.97074  1.0000
  C   C2258     1.0  0.27454  0.60942  0.97041  1.0000
  H   H1790     1.0  0.24681  0.58356  0.95370  1.0000
  C   C2259     1.0  0.33434  0.76012  0.94214  1.0000
  H   H1791     1.0  0.23567  0.66607  0.85330  1.0000
  C   C2260     1.0  0.24400  0.59924  0.80228  1.0000
  H   H1792     1.0  0.20231  0.94444  0.67597  1.0000
  C   C2261     1.0  0.23157  0.56703  0.80842  1.0000
  H   H1793     1.0  0.32205  0.92561  0.90690  1.0000
  H   H1794     1.0  0.25230  0.53961  0.78396  1.0000
  C   C2262     1.0  0.30535  0.66257  0.91763  1.0000
  C   C2263     1.0  0.31069  0.72694  0.98738  1.0000
  H   H1795     1.0  0.19908  0.88042  0.58018  1.0000
  H   H1796     1.0  0.25028  0.57253  0.82710  1.0000
  H   H1797     1.0  0.34366  0.55819  0.52471  1.0000
  H   H1798     1.0  0.26843  0.71073  0.98319  1.0000
  C   C2264     1.0  0.34834  0.98624  0.95259  1.0000
  H   H1799     1.0  0.21450  0.59177  0.85992  1.0000
  C   C2265     1.0  0.29401  0.98167  0.60597  1.0000
  C   C2266     1.0  0.38334  0.83959  0.96760  1.0000
  C   C2267     1.0  0.19609  0.82833  0.61429  1.0000
  C   C2268     1.0  0.24880  0.71076  0.91312  1.0000
  H   H1800     1.0  0.23532  0.65782  0.94640  1.0000
  C   C2269     1.0  0.31617  0.98219  0.77489  1.0000
  H   H1801     1.0  0.38330  0.77422  0.98714  1.0000
  C   C2270     1.0  0.35471  0.78544  0.94137  1.0000
  C   C2271     1.0  0.31645  0.93473  0.84433  1.0000
  H   H1802     1.0  0.35731  0.65418  0.89655  1.0000
  C   C2272     1.0  0.20280  0.77774  0.54862  1.0000
  C   C2273     1.0  0.34592  0.97425  0.90033  1.0000
  H   H1803     1.0  0.37366  0.67318  0.96796  1.0000
  H   H1804     1.0  0.23783  0.66626  0.98143  1.0000
  C   C2274     1.0  0.35041  0.82963  0.98539  1.0000
  S   S292      1.0  0.27142  0.79019  0.97987  1.0000
  H   H1805     1.0  0.34250  0.71088  0.97929  1.0000
  C   C2275     1.0  0.38584  0.66930  0.97684  1.0000
  H   H1806     1.0  0.33344  0.68295  0.96766  1.0000
  H   H1807     1.0  0.25243  0.60858  0.80671  1.0000
  H   H1808     1.0  0.28652  0.98674  0.69107  1.0000
  H   H1809     1.0  0.33977  0.96898  0.57183  1.0000
  H   H1810     1.0  0.26285  0.58096  0.98380  1.0000
  H   H1811     1.0  0.27085  0.60291  0.86595  1.0000
  C   C2276     1.0  0.32776  0.97156  0.91552  1.0000
  C   C2277     1.0  0.38447  0.50539  0.58734  1.0000
  H   H1812     1.0  0.20204  0.60261  0.92963  1.0000
  H   H1813     1.0  0.21554  0.60224  0.76638  1.0000
  C   C2278     1.0  0.25228  0.50476  0.75536  1.0000
  C   C2279     1.0  0.34103  0.65341  0.89923  1.0000
  C   C2280     1.0  0.23920  0.67248  0.93694  1.0000
  H   H1814     1.0  0.33085  0.90245  0.85463  1.0000
  H   H1815     1.0  0.27557  0.95902  0.62541  1.0000
  C   C2281     1.0  0.21843  0.74065  0.55486  1.0000
  H   H1816     1.0  0.38443  0.49926  0.62035  1.0000
  Fe  Fe143     1.0  0.32040  0.64517  0.97845  1.0000
  C   C2282     1.0  0.35298  0.76456  0.94349  1.0000
  Fe  Fe144     1.0  0.36622  0.62551  0.97312  1.0000
  C   C2283     1.0  0.26062  0.69188  0.90769  1.0000
  C   C2284     1.0  0.23416  0.60751  0.78519  1.0000
  C   C2285     1.0  0.24626  0.53190  0.77523  1.0000
  H   H1817     1.0  0.39076  0.95175  0.73378  1.0000
  H   H1818     1.0  0.26470  0.87095  0.51730  1.0000
  C   C2286     1.0  0.27082  0.97832  0.98529  1.0000
  C   C2287     1.0  0.35630  0.50167  0.51437  1.0000
  H   H1819     1.0  0.30992  0.50734  0.55775  1.0000
  C   C2288     1.0  0.37790  0.49646  0.60841  1.0000
  S   S293      1.0  0.19990  0.92325  0.55745  1.0000
  H   H1820     1.0  0.36974  0.96111  0.87643  1.0000
  C   C2289     1.0  0.19192  0.57565  0.76590  1.0000
  C   C2290     1.0  0.31737  0.95280  0.82852  1.0000
  H   H1821     1.0  0.29825  0.92905  0.61066  1.0000
  P   P74       1.0  0.37871  0.79133  0.94325  1.0000
  C   C2291     1.0  0.36456  0.84265  0.98207  1.0000
  C   C2292     1.0  0.34697  0.94181  0.89017  1.0000
  H   H1822     1.0  0.38244  0.50780  0.55554  1.0000
  C   C2293     1.0  0.28981  0.72739  0.98776  1.0000
  H   H1823     1.0  0.19338  0.59183  0.71329  1.0000
  H   H1824     1.0  0.26260  0.49184  0.74872  1.0000
  C   C2294     1.0  0.24268  0.99159  0.61337  1.0000
  C   C2295     1.0  0.19191  0.65962  0.93793  1.0000
  S   S294      1.0  0.48457  0.00192  0.05977  1.0000
  Fe  Fe145     1.0  0.47522  0.44047  0.29923  1.0000
  S   S295      1.0  0.48220  0.45271  0.32412  1.0000
  S   S296      1.0  0.47945  0.40554  0.30467  1.0000
  Fe  Fe146     1.0  0.45149  0.47468  0.32233  1.0000
  C   C2296     1.0  0.42427  0.01768  0.99676  1.0000
  S   S297      1.0  0.44358  0.46121  0.29883  1.0000
  S   S298      1.0  0.49188  0.46166  0.27236  1.0000
  C   C2297     1.0  0.41406  0.44879  0.23554  1.0000
  H   H1825     1.0  0.57168  0.00704  0.12824  1.0000
  H   H1826     1.0  0.54358  0.40890  0.25012  1.0000
  C   C2298     1.0  0.52562  0.48697  0.23462  1.0000
  C   C2299     1.0  0.40428  0.47108  0.20376  1.0000
  H   H1827     1.0  0.51798  0.28901  0.43908  1.0000
  H   H1828     1.0  0.58484  0.16679  0.34912  1.0000
  H   H1829     1.0  0.54481  0.39272  0.46403  1.0000
  Fe  Fe147     1.0  0.42762  0.37843  0.46348  1.0000
  P   P75       1.0  0.57941  0.24320  0.46469  1.0000
  S   S299      1.0  0.46132  0.36391  0.46411  1.0000
  C   C2300     1.0  0.54203  0.45164  0.31676  1.0000
  C   C2301     1.0  0.55801  0.20675  0.39691  1.0000
  C   C2302     1.0  0.58444  0.20011  0.46676  1.0000
  S   S300      1.0  0.41979  0.40941  0.44220  1.0000
  H   H1830     1.0  0.58428  0.38823  0.36806  1.0000
  C   C2303     1.0  0.45948  0.29529  0.47849  1.0000
  C   C2304     1.0  0.40061  0.43989  0.39872  1.0000
  S   S301      1.0  0.43400  0.00747  0.08086  1.0000
  C   C2305     1.0  0.51616  0.48642  0.20244  1.0000
  Fe  Fe148     1.0  0.46273  0.01282  0.08787  1.0000
  S   S302      1.0  0.46167  0.04378  0.09527  1.0000
  C   C2306     1.0  0.44622  0.44174  0.48780  1.0000
  Fe  Fe149     1.0  0.53120  0.11651  0.02671  1.0000
  S   S303      1.0  0.50257  0.14036  0.03611  1.0000
  S   S304      1.0  0.53989  0.08339  0.04483  1.0000
  H   H1831     1.0  0.54688  0.18359  0.28081  1.0000
  H   H1832     1.0  0.55479  0.32780  0.13897  1.0000
  Fe  Fe150     1.0  0.52405  0.16325  0.02602  1.0000
  S   S305      1.0  0.52157  0.18659  0.04604  1.0000
  Fe  Fe151     1.0  0.50008  0.14711  0.00228  1.0000
  Fe  Fe152     1.0  0.39501  0.39595  0.43687  1.0000
  S   S306      1.0  0.55291  0.13893  0.01908  1.0000
  H   H1833     1.0  0.55131  0.47607  0.34480  1.0000
  Fe  Fe153     1.0  0.56779  0.33267  0.34773  1.0000
  S   S307      1.0  0.55292  0.30603  0.34915  1.0000
  S   S308      1.0  0.56883  0.36069  0.32156  1.0000
  S   S309      1.0  0.56747  0.28587  0.39472  1.0000
  C   C2307     1.0  0.55857  0.17354  0.33464  1.0000
  Fe  Fe154     1.0  0.54052  0.30866  0.38290  1.0000
  S   S310      1.0  0.50731  0.30686  0.39753  1.0000
  S   S311      1.0  0.55286  0.33713  0.38038  1.0000
  C   C2308     1.0  0.58282  0.43976  0.22421  1.0000
  C   C2309     1.0  0.54443  0.13379  0.43064  1.0000
  C   C2310     1.0  0.52827  0.00429  0.99969  1.0000
  H   H1834     1.0  0.52439  0.12135  0.18094  1.0000
  H   H1835     1.0  0.56171  0.47529  0.18199  1.0000
  S   S312      1.0  0.58349  0.24083  0.10467  1.0000
  H   H1836     1.0  0.58417  0.03276  0.20805  1.0000
  H   H1837     1.0  0.58732  0.44082  0.20742  1.0000
  C   C2311     1.0  0.58650  0.08563  0.23396  1.0000
  H   H1838     1.0  0.57770  0.32026  0.48614  1.0000
  C   C2312     1.0  0.47575  0.04955  0.02226  1.0000
  P   P76       1.0  0.56930  0.18180  0.38898  1.0000
  H   H1839     1.0  0.54511  0.30617  0.25683  1.0000
  C   C2313     1.0  0.40160  0.42349  0.38898  1.0000
  S   S313      1.0  0.57421  0.21158  0.29193  1.0000
  H   H1840     1.0  0.58344  0.18953  0.19919  1.0000
  H   H1841     1.0  0.51653  0.47851  0.19016  1.0000
  H   H1842     1.0  0.41289  0.45320  0.43528  1.0000
  H   H1843     1.0  0.53329  0.47965  0.24764  1.0000
  H   H1844     1.0  0.52739  0.30648  0.15009  1.0000
  H   H1845     1.0  0.40186  0.06401  0.02591  1.0000
  H   H1846     1.0  0.54466  0.20353  0.17930  1.0000
  H   H1847     1.0  0.40017  0.05683  0.47080  1.0000
  C   C2314     1.0  0.40409  0.05828  0.48493  1.0000
  H   H1848     1.0  0.55353  0.11560  0.45940  1.0000
  H   H1849     1.0  0.55036  0.26204  0.43689  1.0000
  H   H1850     1.0  0.49641  0.09183  0.99320  1.0000
  H   H1851     1.0  0.54352  0.08487  0.09538  1.0000
  C   C2315     1.0  0.55506  0.34081  0.46888  1.0000
  H   H1852     1.0  0.50301  0.26372  0.38493  1.0000
  C   C2316     1.0  0.58101  0.22508  0.30760  1.0000
  C   C2317     1.0  0.56675  0.24150  0.31605  1.0000
  C   C2318     1.0  0.57282  0.25218  0.32829  1.0000
  H   H1853     1.0  0.57434  0.41283  0.39259  1.0000
  H   H1854     1.0  0.55104  0.24581  0.31337  1.0000
  H   H1855     1.0  0.56178  0.26465  0.33498  1.0000
  C   C2319     1.0  0.56347  0.34224  0.43131  1.0000
  C   C2320     1.0  0.55011  0.34901  0.44905  1.0000
  H   H1856     1.0  0.55950  0.34859  0.41608  1.0000
  H   H1857     1.0  0.53588  0.36041  0.44740  1.0000
  Fe  Fe155     1.0  0.46094  0.48387  0.27470  1.0000
  C   C2321     1.0  0.56024  0.21405  0.06247  1.0000
  C   C2322     1.0  0.54261  0.20717  0.06148  1.0000
  C   C2323     1.0  0.54438  0.19309  0.04860  1.0000
  C   C2324     1.0  0.56404  0.18533  0.03729  1.0000
  C   C2325     1.0  0.43123  0.01738  0.01466  1.0000
  H   H1858     1.0  0.55862  0.22531  0.07204  1.0000
  H   H1859     1.0  0.52747  0.21314  0.07037  1.0000
  H   H1860     1.0  0.56562  0.17432  0.02750  1.0000
  C   C2326     1.0  0.48645  0.08256  0.00511  1.0000
  C   C2327     1.0  0.48370  0.05448  0.08187  1.0000
  C   C2328     1.0  0.48143  0.07628  0.07545  1.0000
  C   C2329     1.0  0.49859  0.08517  0.06400  1.0000
  C   C2330     1.0  0.51830  0.07242  0.05959  1.0000
  C   C2331     1.0  0.52082  0.05064  0.06697  1.0000
  C   C2332     1.0  0.50345  0.04161  0.07765  1.0000
  H   H1861     1.0  0.46624  0.08629  0.07887  1.0000
  H   H1862     1.0  0.49648  0.10191  0.05881  1.0000
  H   H1863     1.0  0.53612  0.04074  0.06402  1.0000
  H   H1864     1.0  0.50535  0.02478  0.08293  1.0000
  C   C2333     1.0  0.55919  0.07597  0.12157  1.0000
  P   P77       1.0  0.54127  0.44943  0.21967  1.0000
  H   H1865     1.0  0.54247  0.19752  0.24399  1.0000
  C   C2334     1.0  0.56453  0.22985  0.99298  1.0000
  H   H1866     1.0  0.58311  0.31959  0.15862  1.0000
  H   H1867     1.0  0.42797  0.03358  0.03946  1.0000
  H   H1868     1.0  0.54232  0.11055  0.21056  1.0000
  H   H1869     1.0  0.55046  0.08941  0.12831  1.0000
  S   S314      1.0  0.52534  0.48816  0.29209  1.0000
  C   C2335     1.0  0.57374  0.32646  0.47087  1.0000
  C   C2336     1.0  0.55735  0.39772  0.46750  1.0000
  C   C2337     1.0  0.55673  0.28106  0.18692  1.0000
  C   C2338     1.0  0.47416  0.34931  0.44454  1.0000
  C   C2339     1.0  0.46283  0.34203  0.43423  1.0000
  C   C2340     1.0  0.47319  0.32930  0.41962  1.0000
  C   C2341     1.0  0.49497  0.32431  0.41467  1.0000
  C   C2342     1.0  0.50641  0.33221  0.42442  1.0000
  C   C2343     1.0  0.49599  0.34435  0.43964  1.0000
  H   H1870     1.0  0.44604  0.34582  0.43778  1.0000
  H   H1871     1.0  0.46431  0.32331  0.41219  1.0000
  H   H1872     1.0  0.52326  0.32823  0.42099  1.0000
  H   H1873     1.0  0.50484  0.34964  0.44783  1.0000
  C   C2344     1.0  0.41833  0.45888  0.36602  1.0000
  C   C2345     1.0  0.40872  0.45762  0.38721  1.0000
  H   H1874     1.0  0.40080  0.46053  0.26377  1.0000
  C   C2346     1.0  0.48349  0.49052  0.35962  1.0000
  C   C2347     1.0  0.41058  0.42501  0.36761  1.0000
  C   C2348     1.0  0.41927  0.44248  0.35626  1.0000
  C   C2349     1.0  0.55501  0.31510  0.15263  1.0000
  C   C2350     1.0  0.56925  0.41677  0.48664  1.0000
  H   H1875     1.0  0.42668  0.44318  0.33999  1.0000
  C   C2351     1.0  0.52004  0.29526  0.46820  1.0000
  C   C2352     1.0  0.56657  0.05635  0.09407  1.0000
  C   C2353     1.0  0.45697  0.47207  0.20484  1.0000
  H   H1876     1.0  0.53001  0.18282  0.32322  1.0000
  C   C2354     1.0  0.55066  0.17304  0.26997  1.0000
  H   H1877     1.0  0.53871  0.15396  0.40159  1.0000
  H   H1878     1.0  0.45852  0.46612  0.23764  1.0000
  H   H1879     1.0  0.45896  0.45572  0.20440  1.0000
  H   H1880     1.0  0.55724  0.37836  0.35644  1.0000
  C   C2355     1.0  0.50377  0.39426  0.31143  1.0000
  C   C2356     1.0  0.50665  0.37459  0.32490  1.0000
  C   C2357     1.0  0.52645  0.36486  0.32915  1.0000
  C   C2358     1.0  0.54356  0.37425  0.31901  1.0000
  C   C2359     1.0  0.54058  0.39420  0.30606  1.0000
  C   C2360     1.0  0.52057  0.40444  0.30268  1.0000
  H   H1881     1.0  0.49357  0.36691  0.33206  1.0000
  H   H1882     1.0  0.52856  0.34973  0.33967  1.0000
  H   H1883     1.0  0.55375  0.40163  0.29855  1.0000
  H   H1884     1.0  0.51831  0.41979  0.29254  1.0000
  C   C2361     1.0  0.55429  0.21401  0.99366  1.0000
  H   H1885     1.0  0.52731  0.44697  0.31930  1.0000
  C   C2362     1.0  0.40248  0.48758  0.46761  1.0000
  C   C2363     1.0  0.58048  0.46321  0.31009  1.0000
  C   C2364     1.0  0.56425  0.47262  0.46993  1.0000
  C   C2365     1.0  0.57086  0.21839  0.47223  1.0000
  H   H1886     1.0  0.53206  0.12558  0.43223  1.0000
  C   C2366     1.0  0.54508  0.26956  0.45022  1.0000
  C   C2367     1.0  0.47107  0.09256  0.01968  1.0000
  H   H1887     1.0  0.52181  0.03994  0.03004  1.0000
  S   S315      1.0  0.45160  0.99701  0.02203  1.0000
  C   C2368     1.0  0.53982  0.27550  0.27301  1.0000
  H   H1888     1.0  0.57785  0.09846  0.16040  1.0000
  H   H1889     1.0  0.58195  0.13420  0.45572  1.0000
  C   C2369     1.0  0.57193  0.29351  0.18074  1.0000
  H   H1890     1.0  0.49851  0.45158  0.21569  1.0000
  S   S316      1.0  0.51850  0.17267  0.99301  1.0000
  H   H1891     1.0  0.41137  0.41243  0.35995  1.0000
  C   C2370     1.0  0.55612  0.22524  0.38148  1.0000
  Fe  Fe156     1.0  0.58113  0.31436  0.38923  1.0000
  C   C2371     1.0  0.58400  0.06515  0.24362  1.0000
  C   C2372     1.0  0.55551  0.48260  0.35585  1.0000
  C   C2373     1.0  0.46900  0.27851  0.46836  1.0000
  C   C2374     1.0  0.55091  0.26532  0.23313  1.0000
  H   H1892     1.0  0.54630  0.00061  0.09336  1.0000
  C   C2375     1.0  0.44318  0.42190  0.48800  1.0000
  H   H1893     1.0  0.56718  0.49147  0.29037  1.0000
  C   C2376     1.0  0.40775  0.05089  0.01803  1.0000
  H   H1894     1.0  0.53574  0.27940  0.28842  1.0000
  C   C2377     1.0  0.54510  0.29064  0.25517  1.0000
  H   H1895     1.0  0.53655  0.24331  0.28482  1.0000
  C   C2378     1.0  0.57099  0.31048  0.16372  1.0000
  H   H1896     1.0  0.56657  0.22575  0.18266  1.0000
  C   C2379     1.0  0.52265  0.02383  0.00575  1.0000
  H   H1897     1.0  0.56112  0.14560  0.29244  1.0000
  C   C2380     1.0  0.57252  0.13867  0.44389  1.0000
  H   H1898     1.0  0.58876  0.16296  0.42517  1.0000
  H   H1899     1.0  0.43026  0.48101  0.41113  1.0000
  H   H1900     1.0  0.52990  0.26059  0.41222  1.0000
  H   H1901     1.0  0.39562  0.29003  0.40863  1.0000
  C   C2381     1.0  0.58733  0.32014  0.45307  1.0000
  H   H1902     1.0  0.44658  0.08873  0.04714  1.0000
  C   C2382     1.0  0.54919  0.27384  0.48345  1.0000
  C   C2383     1.0  0.45673  0.47790  0.22356  1.0000
  C   C2384     1.0  0.57247  0.43598  0.26775  1.0000
  C   C2385     1.0  0.52263  0.24234  0.21728  1.0000
  S   S317      1.0  0.42864  0.48119  0.35185  1.0000
  C   C2386     1.0  0.58541  0.04359  0.12269  1.0000
  C   C2387     1.0  0.39245  0.48876  0.31522  1.0000
  C   C2388     1.0  0.40941  0.03469  0.98927  1.0000
  H   H1903     1.0  0.58177  0.46765  0.39570  1.0000
  C   C2389     1.0  0.55653  0.12816  0.44595  1.0000
  C   C2390     1.0  0.56411  0.34022  0.25978  1.0000
  C   C2391     1.0  0.54838  0.34745  0.24796  1.0000
  C   C2392     1.0  0.52738  0.34908  0.25800  1.0000
  C   C2393     1.0  0.52192  0.34369  0.27987  1.0000
  C   C2394     1.0  0.53745  0.33664  0.29170  1.0000
  C   C2395     1.0  0.55843  0.33518  0.28177  1.0000
  P   P78       1.0  0.55916  0.25808  0.20776  1.0000
  C   C2396     1.0  0.51816  0.21526  0.20191  1.0000
  C   C2397     1.0  0.57801  0.39000  0.45850  1.0000
  C   C2398     1.0  0.44132  0.30871  0.47326  1.0000
  H   H1904     1.0  0.58890  0.07955  0.19373  1.0000
  C   C2399     1.0  0.57637  0.15486  0.42654  1.0000
  H   H1905     1.0  0.39643  0.32094  0.43042  1.0000
  H   H1906     1.0  0.56856  0.43427  0.28461  1.0000
  H   H1907     1.0  0.54718  0.23399  0.25007  1.0000
  C   C2400     1.0  0.56173  0.44333  0.23437  1.0000
  C   C2401     1.0  0.40783  0.26059  0.45488  1.0000
  H   H1908     1.0  0.39735  0.48543  0.33002  1.0000
  C   C2402     1.0  0.45300  0.48755  0.18714  1.0000
  C   C2403     1.0  0.56141  0.46070  0.17808  1.0000
  C   C2404     1.0  0.45813  0.08108  0.03555  1.0000
  H   H1909     1.0  0.55219  0.35165  0.23102  1.0000
  H   H1910     1.0  0.51530  0.35481  0.24884  1.0000
  H   H1911     1.0  0.50564  0.34539  0.28772  1.0000
  H   H1912     1.0  0.53325  0.33257  0.30865  1.0000
  C   C2405     1.0  0.57251  0.47793  0.38474  1.0000
  C   C2406     1.0  0.55649  0.26397  0.46615  1.0000
  C   C2407     1.0  0.55231  0.47169  0.45620  1.0000
  H   H1913     1.0  0.48223  0.39723  0.26031  1.0000
  H   H1914     1.0  0.44053  0.45523  0.47646  1.0000
  C   C2408     1.0  0.46049  0.27528  0.45282  1.0000
  C   C2409     1.0  0.44278  0.28935  0.44667  1.0000
  C   C2410     1.0  0.43302  0.30578  0.45743  1.0000
  P   P79       1.0  0.43254  0.28642  0.42534  1.0000
  C   C2411     1.0  0.40968  0.27500  0.43567  1.0000
  C   C2412     1.0  0.42555  0.31219  0.40914  1.0000
  C   C2413     1.0  0.43858  0.31907  0.38994  1.0000
  C   C2414     1.0  0.43336  0.33939  0.37826  1.0000
  C   C2415     1.0  0.40691  0.32583  0.41593  1.0000
  H   H1915     1.0  0.57729  0.06350  0.14551  1.0000
  C   C2416     1.0  0.58170  0.04156  0.10373  1.0000
  H   H1916     1.0  0.48303  0.26804  0.47258  1.0000
  H   H1917     1.0  0.58484  0.28981  0.18871  1.0000
  H   H1918     1.0  0.58872  0.32670  0.20736  1.0000
  C   C2417     1.0  0.58114  0.99517  0.13794  1.0000
  S   S318      1.0  0.40472  0.36382  0.45613  1.0000
  C   C2418     1.0  0.45190  0.26952  0.40961  1.0000
  C   C2419     1.0  0.44675  0.25329  0.40349  1.0000
  C   C2420     1.0  0.46192  0.24072  0.39094  1.0000
  C   C2421     1.0  0.53734  0.18219  0.33597  1.0000
  C   C2422     1.0  0.56830  0.17317  0.35075  1.0000
  C   C2423     1.0  0.47237  0.27280  0.40306  1.0000
  C   C2424     1.0  0.56458  0.47658  0.30032  1.0000
  C   C2425     1.0  0.49376  0.40664  0.25182  1.0000
  H   H1919     1.0  0.43410  0.32191  0.48094  1.0000
  H   H1920     1.0  0.46799  0.26197  0.44549  1.0000
  H   H1921     1.0  0.41930  0.31677  0.45334  1.0000
  H   H1922     1.0  0.45307  0.30920  0.38408  1.0000
  H   H1923     1.0  0.44379  0.34483  0.36382  1.0000
  H   H1924     1.0  0.45646  0.20398  0.48709  1.0000
  H   H1925     1.0  0.58867  0.24014  0.23671  1.0000
  P   P80       1.0  0.59131  0.33627  0.24684  1.0000
  C   C2426     1.0  0.57996  0.48430  0.46277  1.0000
  H   H1926     1.0  0.56099  0.46479  0.48626  1.0000
  H   H1927     1.0  0.56209  0.22465  0.36506  1.0000
  C   C2427     1.0  0.52572  0.19030  0.35356  1.0000
  H   H1928     1.0  0.41966  0.25678  0.46421  1.0000
  H   H1929     1.0  0.43109  0.25029  0.40826  1.0000
  H   H1930     1.0  0.53959  0.00862  0.05188  1.0000
  C   C2428     1.0  0.52828  0.41371  0.24627  1.0000
  C   C2429     1.0  0.53450  0.13085  0.18242  1.0000
  H   H1931     1.0  0.47652  0.28521  0.40766  1.0000
  C   C2430     1.0  0.56468  0.13828  0.26224  1.0000
  C   C2431     1.0  0.56232  0.14603  0.24131  1.0000
  C   C2432     1.0  0.55407  0.16749  0.23495  1.0000
  P   P81       1.0  0.57213  0.12898  0.22251  1.0000
  C   C2433     1.0  0.52657  0.02515  0.02479  1.0000
  C   C2434     1.0  0.56965  0.10261  0.23632  1.0000
  H   H1932     1.0  0.56111  0.40856  0.16345  1.0000
  H   H1933     1.0  0.42433  0.22566  0.99653  1.0000
  C   C2435     1.0  0.56494  0.06152  0.25639  1.0000
  C   C2436     1.0  0.54825  0.07841  0.25935  1.0000
  C   C2437     1.0  0.55058  0.09890  0.24934  1.0000
  C   C2438     1.0  0.42272  0.48279  0.42692  1.0000
  H   H1934     1.0  0.54515  0.25880  0.37503  1.0000
  C   C2439     1.0  0.56806  0.39428  0.37409  1.0000
  C   C2440     1.0  0.51364  0.40116  0.25640  1.0000
  H   H1935     1.0  0.53990  0.46289  0.46182  1.0000
  C   C2441     1.0  0.55773  0.13715  0.20144  1.0000
  C   C2442     1.0  0.56054  0.15536  0.18610  1.0000
  C   C2443     1.0  0.55061  0.16115  0.16905  1.0000
  C   C2444     1.0  0.53751  0.14896  0.16725  1.0000
  H   H1936     1.0  0.55523  0.42362  0.33674  1.0000
  H   H1937     1.0  0.56765  0.16763  0.32080  1.0000
  H   H1938     1.0  0.57183  0.12200  0.26745  1.0000
  H   H1939     1.0  0.55240  0.17409  0.21896  1.0000
  C   C2445     1.0  0.58154  0.19272  0.03771  1.0000
  C   C2446     1.0  0.40147  0.46369  0.24708  1.0000
  H   H1940     1.0  0.56321  0.04564  0.26419  1.0000
  H   H1941     1.0  0.53352  0.07563  0.26941  1.0000
  H   H1942     1.0  0.53748  0.11186  0.25161  1.0000
  H   H1943     1.0  0.57021  0.33000  0.29132  1.0000
  C   C2447     1.0  0.48854  0.42466  0.23689  1.0000
  H   H1944     1.0  0.52621  0.19639  0.38321  1.0000
  C   C2448     1.0  0.40172  0.34609  0.40419  1.0000
  H   H1945     1.0  0.58760  0.32899  0.05772  1.0000
  H   H1946     1.0  0.50927  0.19706  0.35452  1.0000
  H   H1947     1.0  0.55338  0.17498  0.15706  1.0000
  H   H1948     1.0  0.52984  0.15349  0.15399  1.0000
  C   C2449     1.0  0.58638  0.24549  0.20403  1.0000
  C   C2450     1.0  0.40266  0.46939  0.46103  1.0000
  Fe  Fe157     1.0  0.49607  0.47589  0.29731  1.0000
  S   S319      1.0  0.46923  0.15052  0.99322  1.0000
  C   C2451     1.0  0.52702  0.47631  0.21869  1.0000
  H   H1949     1.0  0.42815  0.18707  0.00187  1.0000
  H   H1950     1.0  0.57731  0.46938  0.14601  1.0000
  C   C2452     1.0  0.39188  0.48609  0.21517  1.0000
  H   H1951     1.0  0.46612  0.40368  0.34862  1.0000
  H   H1952     1.0  0.55083  0.19401  0.43043  1.0000
  S   S320      1.0  0.44847  0.48086  0.16537  1.0000
  C   C2453     1.0  0.55528  0.07351  0.10299  1.0000
  H   H1953     1.0  0.58231  0.22459  0.42837  1.0000
  H   H1954     1.0  0.45785  0.22828  0.38622  1.0000
  C   C2454     1.0  0.48225  0.24437  0.38427  1.0000
  C   C2455     1.0  0.53972  0.22727  0.42362  1.0000
  C   C2456     1.0  0.53660  0.00743  0.03722  1.0000
  H   H1955     1.0  0.45278  0.49151  0.37908  1.0000
  C   C2457     1.0  0.42263  0.03374  0.02563  1.0000
  H   H1956     1.0  0.43309  0.06775  0.46889  1.0000
  C   C2458     1.0  0.55218  0.44529  0.19326  1.0000
  H   H1957     1.0  0.39322  0.43912  0.41508  1.0000
  C   C2459     1.0  0.52677  0.28490  0.45140  1.0000
  H   H1958     1.0  0.55607  0.24325  0.99992  1.0000
  H   H1959     1.0  0.57165  0.45279  0.37055  1.0000
  H   H1960     1.0  0.51598  0.25363  0.22736  1.0000
  H   H1961     1.0  0.57701  0.43610  0.13662  1.0000
  H   H1962     1.0  0.45080  0.05063  0.04953  1.0000
  C   C2460     1.0  0.54606  0.25005  0.25120  1.0000
  C   C2461     1.0  0.46048  0.05959  0.03685  1.0000
  C   C2462     1.0  0.54022  0.25524  0.27100  1.0000
  C   C2463     1.0  0.42264  0.06438  0.48389  1.0000
  H   H1963     1.0  0.49395  0.23487  0.37432  1.0000
  C   C2464     1.0  0.54831  0.18091  0.24921  1.0000
  H   H1964     1.0  0.56350  0.05450  0.07964  1.0000
  H   H1965     1.0  0.42525  0.44109  0.20482  1.0000
  H   H1966     1.0  0.51744  0.38765  0.26852  1.0000
  H   H1967     1.0  0.58077  0.36724  0.27406  1.0000
  H   H1968     1.0  0.49427  0.23062  0.22421  1.0000
  H   H1969     1.0  0.51486  0.48462  0.34187  1.0000
  C   C2465     1.0  0.51020  0.22942  0.21542  1.0000
  C   C2466     1.0  0.52286  0.43240  0.23194  1.0000
  C   C2467     1.0  0.55295  0.41129  0.48139  1.0000
  C   C2468     1.0  0.54045  0.28606  0.17596  1.0000
  C   C2469     1.0  0.50345  0.47837  0.35489  1.0000
  C   C2470     1.0  0.53966  0.30300  0.15885  1.0000
  H   H1970     1.0  0.57102  0.16475  0.18687  1.0000
  H   H1971     1.0  0.41108  0.36879  0.37657  1.0000
  C   C2471     1.0  0.57777  0.18098  0.47252  1.0000
  C   C2472     1.0  0.56127  0.42309  0.16755  1.0000
  H   H1972     1.0  0.58067  0.29774  0.27688  1.0000
  C   C2473     1.0  0.53538  0.18991  0.36974  1.0000
  C   C2474     1.0  0.54463  0.12487  0.19937  1.0000
  H   H1973     1.0  0.47740  0.03287  0.02355  1.0000
  C   C2475     1.0  0.57963  0.20725  0.05015  1.0000
  C   C2476     1.0  0.55670  0.44131  0.25629  1.0000
  H   H1974     1.0  0.50848  0.20543  0.20023  1.0000
  H   H1975     1.0  0.40564  0.47408  0.18692  1.0000
  C   C2477     1.0  0.54529  0.47086  0.30375  1.0000
  C   C2478     1.0  0.50301  0.43753  0.22697  1.0000
  H   H1976     1.0  0.50616  0.30756  0.46881  1.0000
  Fe  Fe158     1.0  0.58113  0.28570  0.36064  1.0000
  C   C2479     1.0  0.39425  0.27936  0.42376  1.0000
  C   C2480     1.0  0.40155  0.05152  0.99953  1.0000
  C   C2481     1.0  0.53787  0.24556  0.40807  1.0000
  C   C2482     1.0  0.53851  0.21409  0.19020  1.0000
  C   C2483     1.0  0.55064  0.28564  0.23527  1.0000
  C   C2484     1.0  0.55788  0.43839  0.32667  1.0000
  C   C2485     1.0  0.41288  0.46698  0.44066  1.0000
  H   H1977     1.0  0.40776  0.47019  0.39488  1.0000
  C   C2486     1.0  0.55102  0.22683  0.19217  1.0000
  H   H1978     1.0  0.42298  0.43452  0.24334  1.0000
  H   H1979     1.0  0.54059  0.44366  0.26463  1.0000
  H   H1980     1.0  0.52859  0.27670  0.18022  1.0000
  C   C2487     1.0  0.56240  0.40823  0.38774  1.0000
  C   C2488     1.0  0.57020  0.43861  0.15244  1.0000
  C   C2489     1.0  0.55275  0.38864  0.36748  1.0000
  C   C2490     1.0  0.53169  0.39667  0.37458  1.0000
  C   C2491     1.0  0.52584  0.41089  0.38812  1.0000
  C   C2492     1.0  0.54137  0.41665  0.39462  1.0000
  P   P82       1.0  0.49890  0.42260  0.39675  1.0000
  C   C2493     1.0  0.48159  0.40936  0.39092  1.0000
  C   C2494     1.0  0.49600  0.42053  0.42457  1.0000
  C   C2495     1.0  0.50109  0.40064  0.43726  1.0000
  C   C2496     1.0  0.50134  0.39867  0.45836  1.0000
  C   C2497     1.0  0.49686  0.41660  0.46687  1.0000
  C   C2498     1.0  0.49184  0.43650  0.45435  1.0000
  C   C2499     1.0  0.49136  0.43850  0.43325  1.0000
  C   C2500     1.0  0.46806  0.39840  0.40686  1.0000
  C   C2501     1.0  0.45415  0.38922  0.40170  1.0000
  C   C2502     1.0  0.45354  0.39102  0.38076  1.0000
  C   C2503     1.0  0.46684  0.40198  0.36486  1.0000
  C   C2504     1.0  0.48081  0.41107  0.36991  1.0000
  C   C2505     1.0  0.49334  0.44947  0.38272  1.0000
  C   C2506     1.0  0.50846  0.45796  0.36647  1.0000
  H   H1981     1.0  0.54682  0.05481  0.00133  1.0000
  C   C2507     1.0  0.47318  0.46164  0.38706  1.0000
  C   C2508     1.0  0.41531  0.45241  0.21391  1.0000
  H   H1982     1.0  0.43522  0.42017  0.47667  1.0000
  H   H1983     1.0  0.53324  0.22811  0.43995  1.0000
  H   H1984     1.0  0.52029  0.39174  0.36925  1.0000
  H   H1985     1.0  0.53720  0.42777  0.40488  1.0000
  H   H1986     1.0  0.50508  0.38664  0.43070  1.0000
  H   H1987     1.0  0.50515  0.38319  0.46803  1.0000
  H   H1988     1.0  0.46946  0.10916  0.01895  1.0000
  H   H1989     1.0  0.48818  0.45039  0.46101  1.0000
  H   H1990     1.0  0.48773  0.45405  0.42378  1.0000
  H   H1991     1.0  0.46787  0.39713  0.42324  1.0000
  H   H1992     1.0  0.44351  0.38103  0.41393  1.0000
  H   H1993     1.0  0.44246  0.38426  0.37690  1.0000
  C   C2509     1.0  0.55066  0.21710  0.48392  1.0000
  H   H1994     1.0  0.49113  0.41939  0.35740  1.0000
  H   H1995     1.0  0.52392  0.44874  0.36225  1.0000
  H   H1996     1.0  0.54585  0.41398  0.19948  1.0000
  H   H1997     1.0  0.46107  0.45510  0.39896  1.0000
  C   C2510     1.0  0.57428  0.06113  0.13137  1.0000
  C   C2511     1.0  0.54983  0.20792  0.41811  1.0000
  C   C2512     1.0  0.48743  0.26048  0.39030  1.0000
  C   C2513     1.0  0.55865  0.15167  0.27652  1.0000
  H   H1998     1.0  0.55485  0.29760  0.22173  1.0000
  C   C2514     1.0  0.48904  0.06087  0.00641  1.0000
  H   H1999     1.0  0.47308  0.42895  0.23341  1.0000
  C   C2515     1.0  0.54330  0.24090  0.20589  1.0000
  C   C2516     1.0  0.58203  0.32764  0.43334  1.0000
  C   C2517     1.0  0.55247  0.42630  0.18796  1.0000
  C   C2518     1.0  0.54630  0.24456  0.38705  1.0000
  C   C2519     1.0  0.57033  0.45737  0.15772  1.0000
  H   H2000     1.0  0.57782  0.03026  0.17424  1.0000
  C   C2520     1.0  0.56426  0.16062  0.41109  1.0000
  H   H2001     1.0  0.49713  0.41501  0.48321  1.0000
  Fe  Fe159     1.0  0.39573  0.41888  0.46948  1.0000
  C   C2521     1.0  0.54825  0.14995  0.41325  1.0000
  C   C2522     1.0  0.57706  0.44422  0.32349  1.0000
  C   C2523     1.0  0.55679  0.18139  0.36842  1.0000
  H   H2002     1.0  0.54609  0.48223  0.42512  1.0000
  C   C2524     1.0  0.41498  0.35291  0.38542  1.0000
  C   C2525     1.0  0.55598  0.48256  0.43534  1.0000
  C   C2526     1.0  0.56684  0.46946  0.37057  1.0000
  H   H2003     1.0  0.39500  0.48932  0.48347  1.0000
  Fe  Fe160     1.0  0.45638  0.99422  0.05439  1.0000
  C   C2527     1.0  0.46840  0.48221  0.37575  1.0000
  C   C2528     1.0  0.55756  0.17992  0.48396  1.0000
  H   H2004     1.0  0.53798  0.21499  0.00128  1.0000
  H   H2005     1.0  0.58886  0.48539  0.47354  1.0000
  H   H2006     1.0  0.57005  0.48220  0.24256  1.0000
  C   C2529     1.0  0.53136  0.28988  0.48412  1.0000
  H   H2007     1.0  0.58101  0.37920  0.44807  1.0000
  S   S321      1.0  0.52731  0.12173  0.99355  1.0000
  S   S322      1.0  0.58972  0.19651  0.15437  1.0000
  C   C2530     1.0  0.58996  0.40920  0.47752  1.0000
  H   H2008     1.0  0.59034  0.02832  0.09652  1.0000
  H   H2009     1.0  0.59008  0.24839  0.17051  1.0000
  H   H2010     1.0  0.58838  0.16693  0.46840  1.0000
  H   H2011     1.0  0.47102  0.03550  0.98952  1.0000
  P   P83       1.0  0.51042  0.04708  0.98947  1.0000
  H   H2012     1.0  0.59129  0.27781  0.47482  1.0000
  C   C2531     1.0  0.42127  0.19747  0.98907  1.0000
  S   S323      1.0  0.39171  0.40109  0.40350  1.0000
  H   H2013     1.0  0.53692  0.41699  0.48857  1.0000
  H   H2014     1.0  0.56808  0.10102  0.94883  1.0000
  C   C2532     1.0  0.45037  0.04577  0.81401  1.0000
  H   H2015     1.0  0.55516  0.48517  0.59521  1.0000
  C   C2533     1.0  0.41227  0.32574  0.77756  1.0000
  C   C2534     1.0  0.42749  0.06654  0.50214  1.0000
  C   C2535     1.0  0.48904  0.02324  0.94138  1.0000
  Fe  Fe161     1.0  0.45270  0.47370  0.57026  1.0000
  C   C2536     1.0  0.40440  0.31783  0.53850  1.0000
  S   S324      1.0  0.49389  0.00075  0.78825  1.0000
  S   S325      1.0  0.55405  0.13441  0.87811  1.0000
  H   H2016     1.0  0.54936  0.32938  0.72043  1.0000
  H   H2017     1.0  0.53061  0.03909  0.94734  1.0000
  C   C2537     1.0  0.42070  0.01150  0.71380  1.0000
  S   S326      1.0  0.57197  0.15219  0.95877  1.0000
  Fe  Fe162     1.0  0.43276  0.20202  0.74196  1.0000
  S   S327      1.0  0.44619  0.20897  0.76612  1.0000
  C   C2538     1.0  0.54057  0.09110  0.94764  1.0000
  Fe  Fe163     1.0  0.47278  0.20324  0.70923  1.0000
  S   S328      1.0  0.48950  0.20968  0.73087  1.0000
  S   S329      1.0  0.48998  0.20084  0.67640  1.0000
  Fe  Fe164     1.0  0.47437  0.18553  0.75510  1.0000
  S   S330      1.0  0.48966  0.16121  0.77939  1.0000
  Fe  Fe165     1.0  0.45991  0.23240  0.73979  1.0000
  S   S331      1.0  0.46170  0.26383  0.74416  1.0000
  S   S332      1.0  0.46013  0.17688  0.73268  1.0000
  S   S333      1.0  0.44415  0.22778  0.71629  1.0000
  Fe  Fe166     1.0  0.42804  0.18077  0.55220  1.0000
  S   S334      1.0  0.46075  0.16854  0.53648  1.0000
  C   C2539     1.0  0.39919  0.19599  0.78925  1.0000
  Fe  Fe167     1.0  0.44240  0.18784  0.58957  1.0000
  S   S335      1.0  0.47598  0.17498  0.57713  1.0000
  S   S336      1.0  0.42892  0.19735  0.62085  1.0000
  Fe  Fe168     1.0  0.46915  0.19463  0.54623  1.0000
  S   S337      1.0  0.48972  0.21679  0.52522  1.0000
  Fe  Fe169     1.0  0.46406  0.15041  0.56890  1.0000
  S   S338      1.0  0.47653  0.11548  0.57655  1.0000
  S   S339      1.0  0.43598  0.20864  0.55912  1.0000
  S   S340      1.0  0.43098  0.16175  0.58419  1.0000
  S   S341      1.0  0.52540  0.33064  0.55113  1.0000
  C   C2540     1.0  0.42091  0.14150  0.77378  1.0000
  C   C2541     1.0  0.43806  0.17332  0.84051  1.0000
  P   P84       1.0  0.39918  0.19075  0.94033  1.0000
  S   S342      1.0  0.52285  0.43388  0.58153  1.0000
  H   H2018     1.0  0.52502  0.00263  0.98538  1.0000
  H   H2019     1.0  0.45839  0.45964  0.50250  1.0000
  S   S343      1.0  0.46380  0.44315  0.59082  1.0000
  C   C2542     1.0  0.55719  0.09067  0.95658  1.0000
  C   C2543     1.0  0.53346  0.46756  0.53319  1.0000
  H   H2020     1.0  0.58678  0.49051  0.64622  1.0000
  C   C2544     1.0  0.42871  0.11052  0.67943  1.0000
  H   H2021     1.0  0.54346  0.09293  0.89813  1.0000
  S   S344      1.0  0.48220  0.48537  0.56442  1.0000
  H   H2022     1.0  0.39812  0.11830  0.98067  1.0000
  C   C2545     1.0  0.57723  0.45646  0.59064  1.0000
  C   C2546     1.0  0.55750  0.46973  0.59183  1.0000
  C   C2547     1.0  0.54064  0.46287  0.58911  1.0000
  C   C2548     1.0  0.54362  0.44289  0.58487  1.0000
  C   C2549     1.0  0.56348  0.43000  0.58293  1.0000
  H   H2023     1.0  0.41980  0.19941  0.49870  1.0000
  C   C2550     1.0  0.39508  0.16434  0.52741  1.0000
  C   C2551     1.0  0.48179  0.03369  0.97485  1.0000
  H   H2024     1.0  0.56591  0.41481  0.57908  1.0000
  C   C2552     1.0  0.50867  0.48227  0.51039  1.0000
  C   C2553     1.0  0.49532  0.23345  0.53868  1.0000
  C   C2554     1.0  0.48791  0.23176  0.56032  1.0000
  C   C2555     1.0  0.49300  0.24463  0.57097  1.0000
  C   C2556     1.0  0.50547  0.25937  0.56012  1.0000
  C   C2557     1.0  0.51266  0.26126  0.53844  1.0000
  C   C2558     1.0  0.50749  0.24845  0.52772  1.0000
  H   H2025     1.0  0.47842  0.22039  0.56895  1.0000
  H   H2026     1.0  0.48756  0.24283  0.58775  1.0000
  H   H2027     1.0  0.51298  0.25014  0.51096  1.0000
  C   C2559     1.0  0.47309  0.20012  0.66079  1.0000
  C   C2560     1.0  0.45189  0.20084  0.66937  1.0000
  C   C2561     1.0  0.43849  0.20008  0.65691  1.0000
  C   C2562     1.0  0.44621  0.19850  0.63585  1.0000
  C   C2563     1.0  0.46747  0.19754  0.62732  1.0000
  C   C2564     1.0  0.48090  0.19826  0.63982  1.0000
  H   H2028     1.0  0.44578  0.20201  0.68559  1.0000
  H   H2029     1.0  0.42214  0.20074  0.66368  1.0000
  H   H2030     1.0  0.47355  0.19642  0.61107  1.0000
  H   H2031     1.0  0.49734  0.19739  0.63321  1.0000
  C   C2565     1.0  0.44936  0.28375  0.72624  1.0000
  C   C2566     1.0  0.43176  0.28150  0.72038  1.0000
  C   C2567     1.0  0.42280  0.29708  0.70510  1.0000
  C   C2568     1.0  0.43197  0.31447  0.69519  1.0000
  C   C2569     1.0  0.44945  0.31676  0.70114  1.0000
  C   C2570     1.0  0.45777  0.30171  0.71708  1.0000
  H   H2032     1.0  0.42499  0.26784  0.72766  1.0000
  C   C2571     1.0  0.45294  0.11248  0.53203  1.0000
  H   H2033     1.0  0.45643  0.33025  0.69347  1.0000
  H   H2034     1.0  0.47122  0.30354  0.72170  1.0000
  C   C2572     1.0  0.55679  0.16473  0.77611  1.0000
  C   C2573     1.0  0.54471  0.15627  0.79512  1.0000
  C   C2574     1.0  0.52408  0.15512  0.79605  1.0000
  C   C2575     1.0  0.51542  0.16277  0.77808  1.0000
  C   C2576     1.0  0.52754  0.17111  0.75911  1.0000
  C   C2577     1.0  0.54823  0.17199  0.75812  1.0000
  H   H2035     1.0  0.55125  0.15067  0.80906  1.0000
  H   H2036     1.0  0.51484  0.14833  0.81068  1.0000
  H   H2037     1.0  0.52122  0.17630  0.74506  1.0000
  H   H2038     1.0  0.55773  0.17814  0.74341  1.0000
  C   C2578     1.0  0.55837  0.14150  0.89980  1.0000
  C   C2579     1.0  0.54295  0.14143  0.91811  1.0000
  C   C2580     1.0  0.54700  0.14489  0.93625  1.0000
  C   C2581     1.0  0.56641  0.14868  0.93601  1.0000
  H   H2039     1.0  0.47617  0.00223  0.84255  1.0000
  H   H2040     1.0  0.49829  0.47972  0.50189  1.0000
  H   H2041     1.0  0.52796  0.13844  0.91836  1.0000
  H   H2042     1.0  0.53516  0.14460  0.95044  1.0000
  H   H2043     1.0  0.42020  0.13572  0.48964  1.0000
  S   S345      1.0  0.39949  0.19783  0.74820  1.0000
  C   C2582     1.0  0.41855  0.09086  0.61384  1.0000
  C   C2583     1.0  0.41746  0.10701  0.59614  1.0000
  C   C2584     1.0  0.43563  0.11306  0.58346  1.0000
  C   C2585     1.0  0.45498  0.10353  0.58873  1.0000
  C   C2586     1.0  0.45634  0.08606  0.60534  1.0000
  C   C2587     1.0  0.43807  0.07959  0.61783  1.0000
  H   H2044     1.0  0.46441  0.05226  0.53596  1.0000
  H   H2045     1.0  0.43450  0.12582  0.57005  1.0000
  H   H2046     1.0  0.47130  0.07847  0.60941  1.0000
  H   H2047     1.0  0.43901  0.06699  0.63141  1.0000
  S   S346      1.0  0.55070  0.35425  0.58444  1.0000
  H   H2048     1.0  0.46366  0.19850  0.96686  1.0000
  H   H2049     1.0  0.44437  0.14208  0.89526  1.0000
  C   C2588     1.0  0.55514  0.02786  0.68722  1.0000
  Fe  Fe170     1.0  0.40274  0.07715  0.95348  1.0000
  C   C2589     1.0  0.46636  0.03251  0.82353  1.0000
  C   C2590     1.0  0.39660  0.02257  0.86925  1.0000
  H   H2050     1.0  0.39717  0.03828  0.86016  1.0000
  S   S347      1.0  0.39508  0.06421  0.92940  1.0000
  H   H2051     1.0  0.53853  0.10171  0.93298  1.0000
  H   H2052     1.0  0.54001  0.03367  0.71789  1.0000
  C   C2591     1.0  0.52635  0.07805  0.95770  1.0000
  C   C2592     1.0  0.40622  0.20211  0.95859  1.0000
  C   C2593     1.0  0.43587  0.00327  0.59051  1.0000
  H   H2053     1.0  0.39822  0.16085  0.66378  1.0000
  H   H2054     1.0  0.41704  0.02850  0.73804  1.0000
  C   C2594     1.0  0.45149  0.11910  0.95883  1.0000
  H   H2055     1.0  0.39941  0.22663  0.59067  1.0000
  H   H2056     1.0  0.41271  0.25898  0.58543  1.0000
  H   H2057     1.0  0.51327  0.07907  0.95071  1.0000
  C   C2595     1.0  0.39832  0.14983  0.96261  1.0000
  C   C2596     1.0  0.40488  0.22390  0.95516  1.0000
  C   C2597     1.0  0.39869  0.00598  0.85923  1.0000
  H   H2058     1.0  0.43912  0.26264  0.50714  1.0000
  H   H2059     1.0  0.51515  0.99792  0.82853  1.0000
  C   C2598     1.0  0.46104  0.06908  0.53496  1.0000
  H   H2060     1.0  0.39284  0.22578  0.51544  1.0000
  C   C2599     1.0  0.47578  0.02562  0.96062  1.0000
  H   H2061     1.0  0.41505  0.24501  0.65330  1.0000
  S   S348      1.0  0.42196  0.33353  0.67525  1.0000
  C   C2600     1.0  0.51509  0.03579  0.95107  1.0000
  H   H2062     1.0  0.57013  0.06473  0.64457  1.0000
  C   C2601     1.0  0.47755  0.07952  0.53063  1.0000
  H   H2063     1.0  0.52533  0.47293  0.59043  1.0000
  C   C2602     1.0  0.43859  0.03967  0.57680  1.0000
  P   P85       1.0  0.41912  0.06640  0.54519  1.0000
  C   C2603     1.0  0.46198  0.07628  0.84318  1.0000
  H   H2064     1.0  0.57205  0.04309  0.95023  1.0000
  H   H2065     1.0  0.40426  0.03514  0.97524  1.0000
  C   C2604     1.0  0.40350  0.44141  0.62963  1.0000
  C   C2605     1.0  0.42279  0.31038  0.54622  1.0000
  H   H2066     1.0  0.48918  0.33387  0.49191  1.0000
  C   C2606     1.0  0.39542  0.30403  0.53287  1.0000
  C   C2607     1.0  0.44551  0.17159  0.81953  1.0000
  S   S349      1.0  0.43438  0.08392  0.89702  1.0000
  H   H2067     1.0  0.52321  0.00311  0.86059  1.0000
  C   C2608     1.0  0.42332  0.18053  0.92374  1.0000
  H   H2068     1.0  0.50167  0.13678  0.95886  1.0000
  H   H2069     1.0  0.52361  0.27444  0.74984  1.0000
  S   S350      1.0  0.44477  0.02405  0.90748  1.0000
  C   C2609     1.0  0.41886  0.08564  0.84552  1.0000
  H   H2070     1.0  0.44611  0.15553  0.79559  1.0000
  H   H2071     1.0  0.39927  0.23436  0.94176  1.0000
  C   C2610     1.0  0.41483  0.18896  0.97548  1.0000
  H   H2072     1.0  0.55760  0.18392  0.98615  1.0000
  H   H2073     1.0  0.52092  0.31256  0.74417  1.0000
  H   H2074     1.0  0.39667  0.36780  0.84860  1.0000
  S   S351      1.0  0.43621  0.48975  0.59711  1.0000
  S   S352      1.0  0.40587  0.38907  0.49169  1.0000
  C   C2611     1.0  0.43314  0.99546  0.70368  1.0000
  H   H2075     1.0  0.58236  0.20239  0.71947  1.0000
  C   C2612     1.0  0.53764  0.23115  0.75516  1.0000
  H   H2076     1.0  0.48617  0.10925  0.52678  1.0000
  S   S353      1.0  0.56064  0.29686  0.57416  1.0000
  C   C2613     1.0  0.40649  0.25284  0.81233  1.0000
  C   C2614     1.0  0.54465  0.21863  0.77319  1.0000
  C   C2615     1.0  0.53057  0.21020  0.79048  1.0000
  C   C2616     1.0  0.50946  0.21397  0.78987  1.0000
  C   C2617     1.0  0.50231  0.22662  0.77217  1.0000
  C   C2618     1.0  0.51629  0.23528  0.75495  1.0000
  C   C2619     1.0  0.43025  0.01824  0.82579  1.0000
  C   C2620     1.0  0.52879  0.06414  0.97677  1.0000
  H   H2077     1.0  0.41509  0.14746  0.95925  1.0000
  H   H2078     1.0  0.58884  0.14797  0.88491  1.0000
  C   C2621     1.0  0.44984  0.23371  0.49645  1.0000
  C   C2622     1.0  0.40509  0.33596  0.73677  1.0000
  C   C2623     1.0  0.41377  0.08577  0.76844  1.0000
  H   H2079     1.0  0.45677  0.04802  0.86585  1.0000
  H   H2080     1.0  0.56103  0.21462  0.77383  1.0000
  H   H2081     1.0  0.53630  0.19996  0.80398  1.0000
  H   H2082     1.0  0.49875  0.20668  0.80286  1.0000
  H   H2083     1.0  0.48599  0.22935  0.77152  1.0000
  H   H2084     1.0  0.51045  0.24488  0.74134  1.0000
  H   H2085     1.0  0.45586  0.18153  0.80919  1.0000
  C   C2624     1.0  0.53184  0.11143  0.77335  1.0000
  C   C2625     1.0  0.55054  0.11808  0.76347  1.0000
  C   C2626     1.0  0.56814  0.10990  0.77241  1.0000
  C   C2627     1.0  0.56730  0.09456  0.79088  1.0000
  C   C2628     1.0  0.54864  0.08750  0.80075  1.0000
  C   C2629     1.0  0.53081  0.09640  0.79207  1.0000
  P   P86       1.0  0.54645  0.06982  0.82604  1.0000
  C   C2630     1.0  0.53653  0.04713  0.82655  1.0000
  C   C2631     1.0  0.57213  0.05973  0.83193  1.0000
  H   H2086     1.0  0.56146  0.22672  0.60402  1.0000
  H   H2087     1.0  0.52634  0.29824  0.49694  1.0000
  H   H2088     1.0  0.40013  0.19868  0.82011  1.0000
  C   C2632     1.0  0.58540  0.20219  0.87985  1.0000
  C   C2633     1.0  0.55932  0.07744  0.97592  1.0000
  C   C2634     1.0  0.53385  0.03195  0.84520  1.0000
  H   H2089     1.0  0.42716  0.15691  0.51173  1.0000
  Fe  Fe171     1.0  0.54609  0.14666  0.98679  1.0000
  C   C2635     1.0  0.46980  0.13608  0.97446  1.0000
  C   C2636     1.0  0.53228  0.04389  0.80841  1.0000
  C   C2637     1.0  0.52947  0.08560  0.84426  1.0000
  C   C2638     1.0  0.51213  0.07890  0.85859  1.0000
  C   C2639     1.0  0.49905  0.09168  0.87216  1.0000
  C   C2640     1.0  0.50302  0.11128  0.87138  1.0000
  C   C2641     1.0  0.51983  0.11827  0.85685  1.0000
  C   C2642     1.0  0.53295  0.10557  0.84328  1.0000
  H   H2090     1.0  0.51793  0.11868  0.76701  1.0000
  H   H2091     1.0  0.55124  0.13016  0.74931  1.0000
  H   H2092     1.0  0.39473  0.11679  0.76270  1.0000
  H   H2093     1.0  0.51913  0.02620  0.92182  1.0000
  H   H2094     1.0  0.51599  0.09211  0.80008  1.0000
  H   H2095     1.0  0.58728  0.45001  0.51799  1.0000
  H   H2096     1.0  0.39230  0.06196  0.72624  1.0000
  H   H2097     1.0  0.44108  0.20101  0.92853  1.0000
  S   S354      1.0  0.55673  0.29358  0.52715  1.0000
  H   H2098     1.0  0.56894  0.07991  0.85364  1.0000
  H   H2099     1.0  0.53791  0.03370  0.85913  1.0000
  C   C2643     1.0  0.39407  0.08654  0.69824  1.0000
  H   H2100     1.0  0.40986  0.24920  0.96641  1.0000
  C   C2644     1.0  0.42393  0.21327  0.50058  1.0000
  H   H2101     1.0  0.53546  0.05449  0.79347  1.0000
  H   H2102     1.0  0.50851  0.06394  0.85954  1.0000
  H   H2103     1.0  0.48589  0.08638  0.88349  1.0000
  H   H2104     1.0  0.49314  0.12101  0.88213  1.0000
  H   H2105     1.0  0.52289  0.13343  0.85632  1.0000
  H   H2106     1.0  0.54587  0.11135  0.83208  1.0000
  C   C2645     1.0  0.44200  0.25366  0.63085  1.0000
  C   C2646     1.0  0.42842  0.25213  0.65043  1.0000
  C   C2647     1.0  0.43224  0.25961  0.66636  1.0000
  C   C2648     1.0  0.45005  0.26787  0.66300  1.0000
  C   C2649     1.0  0.46422  0.26865  0.64365  1.0000
  C   C2650     1.0  0.45951  0.26247  0.62729  1.0000
  P   P87       1.0  0.48721  0.27949  0.63893  1.0000
  C   C2651     1.0  0.51054  0.26296  0.62714  1.0000
  C   C2652     1.0  0.48103  0.30626  0.62477  1.0000
  C   C2653     1.0  0.49551  0.31542  0.60830  1.0000
  C   C2654     1.0  0.49095  0.33697  0.59973  1.0000
  C   C2655     1.0  0.47161  0.34920  0.60676  1.0000
  C   C2656     1.0  0.45695  0.34008  0.62271  1.0000
  C   C2657     1.0  0.46170  0.31876  0.63177  1.0000
  C   C2658     1.0  0.52985  0.26906  0.62254  1.0000
  C   C2659     1.0  0.54814  0.25596  0.61435  1.0000
  C   C2660     1.0  0.54737  0.23660  0.61085  1.0000
  C   C2661     1.0  0.52840  0.23000  0.61621  1.0000
  C   C2662     1.0  0.51014  0.24292  0.62467  1.0000
  C   C2663     1.0  0.49331  0.28021  0.66317  1.0000
  C   C2664     1.0  0.49361  0.26240  0.67942  1.0000
  C   C2665     1.0  0.49986  0.26235  0.69763  1.0000
  C   C2666     1.0  0.50674  0.27958  0.69940  1.0000
  C   C2667     1.0  0.50702  0.29716  0.68306  1.0000
  C   C2668     1.0  0.49993  0.29765  0.66516  1.0000
  H   H2107     1.0  0.43915  0.24770  0.61854  1.0000
  H   H2108     1.0  0.40895  0.41478  0.52373  1.0000
  H   H2109     1.0  0.42154  0.25886  0.68139  1.0000
  H   H2110     1.0  0.45260  0.27373  0.67550  1.0000
  H   H2111     1.0  0.46970  0.26407  0.61193  1.0000
  H   H2112     1.0  0.51033  0.30619  0.60214  1.0000
  H   H2113     1.0  0.50248  0.34432  0.58779  1.0000
  H   H2114     1.0  0.46802  0.36575  0.59994  1.0000
  H   H2115     1.0  0.44204  0.34956  0.62850  1.0000
  H   H2116     1.0  0.45037  0.31212  0.64458  1.0000
  H   H2117     1.0  0.53081  0.28390  0.62534  1.0000
  H   H2118     1.0  0.39684  0.23455  0.71159  1.0000
  C   C2669     1.0  0.42490  0.16030  0.85379  1.0000
  C   C2670     1.0  0.53465  0.30306  0.73631  1.0000
  H   H2119     1.0  0.49588  0.23704  0.62934  1.0000
  H   H2120     1.0  0.48912  0.24852  0.67798  1.0000
  H   H2121     1.0  0.49950  0.24883  0.71028  1.0000
  H   H2122     1.0  0.51159  0.27936  0.71354  1.0000
  H   H2123     1.0  0.51269  0.31039  0.68421  1.0000
  H   H2124     1.0  0.49990  0.31148  0.65278  1.0000
  C   C2671     1.0  0.39197  0.12800  0.81902  1.0000
  H   H2125     1.0  0.48389  0.01760  0.93020  1.0000
  S   S355      1.0  0.40528  0.10889  0.93322  1.0000
  C   C2672     1.0  0.58889  0.00572  0.77151  1.0000
  H   H2126     1.0  0.39996  0.06536  0.59011  1.0000
  C   C2673     1.0  0.48403  0.33590  0.50801  1.0000
  C   C2674     1.0  0.48333  0.31845  0.52452  1.0000
  C   C2675     1.0  0.47762  0.32126  0.54522  1.0000
  C   C2676     1.0  0.47239  0.34151  0.54940  1.0000
  C   C2677     1.0  0.47208  0.35924  0.53290  1.0000
  C   C2678     1.0  0.47869  0.35617  0.51216  1.0000
  P   P88       1.0  0.46721  0.38520  0.53868  1.0000
  C   C2679     1.0  0.44597  0.38881  0.56103  1.0000
  C   C2680     1.0  0.49196  0.38751  0.54234  1.0000
  C   C2681     1.0  0.49425  0.39160  0.56099  1.0000
  C   C2682     1.0  0.51378  0.39286  0.56327  1.0000
  C   C2683     1.0  0.53122  0.38982  0.54716  1.0000
  C   C2684     1.0  0.52922  0.38514  0.52883  1.0000
  C   C2685     1.0  0.50963  0.38435  0.52626  1.0000
  C   C2686     1.0  0.44221  0.40658  0.56986  1.0000
  C   C2687     1.0  0.42591  0.40953  0.58707  1.0000
  C   C2688     1.0  0.41305  0.39489  0.59560  1.0000
  C   C2689     1.0  0.41609  0.37761  0.58644  1.0000
  C   C2690     1.0  0.43220  0.37479  0.56898  1.0000
  C   C2691     1.0  0.46014  0.40681  0.51776  1.0000
  C   C2692     1.0  0.44980  0.40453  0.50310  1.0000
  H   H2127     1.0  0.40926  0.29534  0.70051  1.0000
  C   C2693     1.0  0.55021  0.23620  0.70895  1.0000
  H   H2128     1.0  0.55715  0.26923  0.49642  1.0000
  C   C2694     1.0  0.46349  0.42679  0.51716  1.0000
  C   C2695     1.0  0.41148  0.27188  0.80000  1.0000
  H   H2129     1.0  0.48781  0.30274  0.52132  1.0000
  H   H2130     1.0  0.47800  0.30770  0.55806  1.0000
  H   H2131     1.0  0.46910  0.34325  0.56552  1.0000
  H   H2132     1.0  0.58111  0.08879  0.79761  1.0000
  H   H2133     1.0  0.48130  0.39353  0.57397  1.0000
  H   H2134     1.0  0.51565  0.39555  0.57784  1.0000
  H   H2135     1.0  0.54641  0.39018  0.54940  1.0000
  H   H2136     1.0  0.54295  0.38133  0.51696  1.0000
  H   H2137     1.0  0.50841  0.38057  0.51198  1.0000
  H   H2138     1.0  0.45175  0.41836  0.56340  1.0000
  C   C2696     1.0  0.44375  0.02058  0.59050  1.0000
  H   H2139     1.0  0.41492  0.32206  0.79341  1.0000
  H   H2140     1.0  0.40053  0.39711  0.60910  1.0000
  H   H2141     1.0  0.43362  0.36178  0.56169  1.0000
  H   H2142     1.0  0.44639  0.38954  0.50350  1.0000
  S   S356      1.0  0.39834  0.18148  0.54196  1.0000
  H   H2143     1.0  0.45170  0.06168  0.80621  1.0000
  C   C2697     1.0  0.44971  0.06229  0.85623  1.0000
  H   H2144     1.0  0.47101  0.42920  0.52851  1.0000
  C   C2698     1.0  0.44579  0.12839  0.74478  1.0000
  C   C2699     1.0  0.42847  0.14295  0.75220  1.0000
  H   H2145     1.0  0.45199  0.12990  0.72807  1.0000
  H   H2146     1.0  0.42111  0.15571  0.74126  1.0000
  C   C2700     1.0  0.40724  0.10478  0.73422  1.0000
  S   S357      1.0  0.40822  0.02587  0.63493  1.0000
  S   S358      1.0  0.55073  0.01062  0.76147  1.0000
  C   C2701     1.0  0.40437  0.10372  0.75578  1.0000
  C   C2702     1.0  0.59010  0.33980  0.59413  1.0000
  H   H2147     1.0  0.54220  0.45407  0.54217  1.0000
  H   H2148     1.0  0.41158  0.08494  0.78508  1.0000
  H   H2149     1.0  0.40206  0.08951  0.84783  1.0000
  C   C2703     1.0  0.58056  0.03829  0.90324  1.0000
  C   C2704     1.0  0.41034  0.43821  0.64836  1.0000
  C   C2705     1.0  0.45642  0.44417  0.50234  1.0000
  H   H2150     1.0  0.48031  0.36926  0.49906  1.0000
  H   H2151     1.0  0.40047  0.28095  0.61245  1.0000
  C   C2706     1.0  0.39582  0.08143  0.55862  1.0000
  S   S359      1.0  0.58733  0.12123  0.82349  1.0000
  H   H2152     1.0  0.57170  0.07770  0.98330  1.0000
  H   H2153     1.0  0.39720  0.46500  0.55619  1.0000
  C   C2707     1.0  0.41410  0.24562  0.51389  1.0000
  H   H2154     1.0  0.56344  0.10725  0.70074  1.0000
  C   C2708     1.0  0.50877  0.02820  0.93666  1.0000
  C   C2709     1.0  0.42817  0.06707  0.85756  1.0000
  H   H2155     1.0  0.40252  0.11540  0.59252  1.0000
  H   H2156     1.0  0.50658  0.39630  0.69749  1.0000
  C   C2710     1.0  0.44702  0.03759  0.66998  1.0000
  C   C2711     1.0  0.46669  0.03121  0.67513  1.0000
  C   C2712     1.0  0.47265  0.04256  0.68658  1.0000
  C   C2713     1.0  0.45874  0.06003  0.69325  1.0000
  C   C2714     1.0  0.43844  0.06567  0.68930  1.0000
  C   C2715     1.0  0.43301  0.05485  0.67690  1.0000
  C   C2716     1.0  0.43938  0.12745  0.64299  1.0000
  C   C2717     1.0  0.43137  0.11125  0.65788  1.0000
  H   H2157     1.0  0.44244  0.02889  0.66095  1.0000
  H   H2158     1.0  0.47724  0.01744  0.67024  1.0000
  H   H2159     1.0  0.48800  0.03767  0.69036  1.0000
  H   H2160     1.0  0.46364  0.06894  0.70176  1.0000
  H   H2161     1.0  0.45143  0.15537  0.63784  1.0000
  H   H2162     1.0  0.44148  0.12777  0.62637  1.0000
  H   H2163     1.0  0.42746  0.09913  0.65251  1.0000
  C   C2718     1.0  0.46416  0.01232  0.83450  1.0000
  C   C2719     1.0  0.56330  0.05807  0.66054  1.0000
  C   C2720     1.0  0.48687  0.12288  0.94260  1.0000
  H   H2164     1.0  0.50007  0.38623  0.73597  1.0000
  C   C2721     1.0  0.46875  0.11661  0.94242  1.0000
  H   H2165     1.0  0.45928  0.37017  0.68580  1.0000
  H   H2166     1.0  0.48017  0.03806  0.82299  1.0000
  C   C2722     1.0  0.58543  0.09564  0.72105  1.0000
  H   H2167     1.0  0.40219  0.33997  0.72099  1.0000
  H   H2168     1.0  0.48762  0.35326  0.75426  1.0000
  H   H2169     1.0  0.43320  0.12578  0.70225  1.0000
  H   H2170     1.0  0.44688  0.15458  0.67579  1.0000
  H   H2171     1.0  0.42059  0.11111  0.53922  1.0000
  H   H2172     1.0  0.48186  0.33020  0.73357  1.0000
  H   H2173     1.0  0.42720  0.37791  0.67242  1.0000
  C   C2723     1.0  0.56735  0.09587  0.71448  1.0000
  H   H2174     1.0  0.48859  0.34002  0.69488  1.0000
  H   H2175     1.0  0.42356  0.01760  0.95038  1.0000
  H   H2176     1.0  0.41805  0.05984  0.67235  1.0000
  H   H2177     1.0  0.42710  0.39388  0.63514  1.0000
  H   H2178     1.0  0.48320  0.41979  0.66563  1.0000
  H   H2179     1.0  0.53328  0.06285  0.89139  1.0000
  C   C2724     1.0  0.55480  0.08114  0.72526  1.0000
  C   C2725     1.0  0.56091  0.06594  0.74239  1.0000
  P   P89       1.0  0.53359  0.07926  0.71461  1.0000
  C   C2726     1.0  0.52011  0.10450  0.70266  1.0000
  C   C2727     1.0  0.54513  0.06257  0.69573  1.0000
  C   C2728     1.0  0.55412  0.07109  0.67507  1.0000
  H   H2180     1.0  0.52215  0.27263  0.52998  1.0000
  H   H2181     1.0  0.55241  0.16509  0.48871  1.0000
  C   C2729     1.0  0.54599  0.04081  0.70179  1.0000
  C   C2730     1.0  0.50975  0.10595  0.68656  1.0000
  C   C2731     1.0  0.49813  0.12520  0.67813  1.0000
  C   C2732     1.0  0.49656  0.14306  0.68587  1.0000
  C   C2733     1.0  0.50651  0.14171  0.70212  1.0000
  C   C2734     1.0  0.51812  0.12245  0.71065  1.0000
  C   C2735     1.0  0.51316  0.06841  0.73382  1.0000
  C   C2736     1.0  0.50938  0.06979  0.75498  1.0000
  C   C2737     1.0  0.49348  0.06098  0.76952  1.0000
  C   C2738     1.0  0.48102  0.05130  0.76286  1.0000
  C   C2739     1.0  0.48421  0.05069  0.74172  1.0000
  C   C2740     1.0  0.50006  0.05936  0.72722  1.0000
  H   H2182     1.0  0.39933  0.11855  0.72472  1.0000
  H   H2183     1.0  0.55218  0.05376  0.75034  1.0000
  H   H2184     1.0  0.55408  0.08775  0.67021  1.0000
  H   H2185     1.0  0.45980  0.40144  0.61077  1.0000
  H   H2186     1.0  0.49703  0.45237  0.65400  1.0000
  H   H2187     1.0  0.51048  0.09220  0.68060  1.0000
  H   H2188     1.0  0.49034  0.12634  0.66554  1.0000
  H   H2189     1.0  0.48761  0.15798  0.67925  1.0000
  H   H2190     1.0  0.50516  0.15567  0.70805  1.0000
  H   H2191     1.0  0.52535  0.12159  0.72354  1.0000
  H   H2192     1.0  0.51874  0.07747  0.76026  1.0000
  H   H2193     1.0  0.49103  0.06143  0.78595  1.0000
  H   H2194     1.0  0.46910  0.04385  0.77398  1.0000
  H   H2195     1.0  0.47469  0.04306  0.73658  1.0000
  H   H2196     1.0  0.50231  0.05865  0.71089  1.0000
  H   H2197     1.0  0.41919  0.16150  0.87005  1.0000
  C   C2741     1.0  0.39499  0.01875  0.89098  1.0000
  H   H2198     1.0  0.54418  0.48980  0.54364  1.0000
  H   H2199     1.0  0.40580  0.36650  0.59277  1.0000
  H   H2200     1.0  0.44258  0.18462  0.84651  1.0000
  H   H2201     1.0  0.56890  0.32388  0.66286  1.0000
  H   H2202     1.0  0.51991  0.24376  0.84810  1.0000
  S   S360      1.0  0.51124  0.27549  0.57404  1.0000
  H   H2203     1.0  0.56210  0.26250  0.68725  1.0000
  C   C2742     1.0  0.44822  0.25650  0.79922  1.0000
  C   C2743     1.0  0.44306  0.23778  0.81180  1.0000
  C   C2744     1.0  0.42218  0.23599  0.81840  1.0000
  C   C2745     1.0  0.45534  0.11212  0.75894  1.0000
  C   C2746     1.0  0.41370  0.06272  0.52157  1.0000
  C   C2747     1.0  0.43254  0.27344  0.79322  1.0000
  H   H2204     1.0  0.42887  0.35124  0.76745  1.0000
  C   C2748     1.0  0.44499  0.14300  0.64948  1.0000
  H   H2205     1.0  0.56582  0.42661  0.49803  1.0000
  C   C2749     1.0  0.57899  0.06776  0.84573  1.0000
  C   C2750     1.0  0.57221  0.35575  0.59407  1.0000
  H   H2206     1.0  0.43774  0.11357  0.95913  1.0000
  H   H2207     1.0  0.46442  0.25768  0.79333  1.0000
  H   H2208     1.0  0.45525  0.22449  0.81592  1.0000
  H   H2209     1.0  0.41806  0.22138  0.82773  1.0000
  Fe  Fe172     1.0  0.45014  0.46021  0.61728  1.0000
  H   H2210     1.0  0.43712  0.28722  0.78246  1.0000
  S   S361      1.0  0.43690  0.06324  0.94610  1.0000
  H   H2211     1.0  0.50034  0.12058  0.93010  1.0000
  H   H2212     1.0  0.46877  0.10089  0.75309  1.0000
  C   C2751     1.0  0.40515  0.43921  0.54056  1.0000
  Fe  Fe173     1.0  0.42969  0.05382  0.91959  1.0000
  C   C2752     1.0  0.45275  0.09486  0.83118  1.0000
  C   C2753     1.0  0.52569  0.01454  0.84605  1.0000
  C   C2754     1.0  0.58144  0.14981  0.91740  1.0000
  C   C2755     1.0  0.44136  0.18847  0.92105  1.0000
  C   C2756     1.0  0.54810  0.20907  0.89429  1.0000
  H   H2213     1.0  0.41626  0.99183  0.57723  1.0000
  P   P90       1.0  0.52157  0.21755  0.89027  1.0000
  C   C2757     1.0  0.51854  0.24544  0.88019  1.0000
  C   C2758     1.0  0.51572  0.20463  0.87258  1.0000
  C   C2759     1.0  0.49610  0.21106  0.86699  1.0000
  C   C2760     1.0  0.49103  0.20107  0.85362  1.0000
  C   C2761     1.0  0.50559  0.18470  0.84561  1.0000
  C   C2762     1.0  0.52511  0.17826  0.85109  1.0000
  C   C2763     1.0  0.53002  0.18783  0.86487  1.0000
  C   C2764     1.0  0.51775  0.25879  0.89349  1.0000
  C   C2765     1.0  0.51621  0.28038  0.88569  1.0000
  Fe  Fe174     1.0  0.40018  0.09499  0.90831  1.0000
  H   H2214     1.0  0.43028  0.25864  0.54539  1.0000
  H   H2215     1.0  0.56443  0.30972  0.63405  1.0000
  C   C2766     1.0  0.50299  0.21197  0.91448  1.0000
  C   C2767     1.0  0.48457  0.22660  0.91971  1.0000
  C   C2768     1.0  0.47036  0.22180  0.93855  1.0000
  C   C2769     1.0  0.47440  0.20236  0.95213  1.0000
  C   C2770     1.0  0.49245  0.18767  0.94675  1.0000
  C   C2771     1.0  0.50651  0.19230  0.92788  1.0000
  C   C2772     1.0  0.43991  0.15678  0.81183  1.0000
  C   C2773     1.0  0.42447  0.16397  0.91404  1.0000
  C   C2774     1.0  0.43230  0.03874  0.81524  1.0000
  H   H2216     1.0  0.46061  0.02145  0.96445  1.0000
  H   H2217     1.0  0.54002  0.20734  0.92803  1.0000
  H   H2218     1.0  0.48466  0.22368  0.87314  1.0000
  H   H2219     1.0  0.47580  0.20593  0.84958  1.0000
  H   H2220     1.0  0.50178  0.17683  0.83530  1.0000
  H   H2221     1.0  0.53643  0.16553  0.84496  1.0000
  H   H2222     1.0  0.54485  0.18170  0.86966  1.0000
  H   H2223     1.0  0.51851  0.25244  0.90985  1.0000
  H   H2224     1.0  0.51562  0.29061  0.89604  1.0000
  H   H2225     1.0  0.41098  0.15718  0.91631  1.0000
  C   C2775     1.0  0.53630  0.28134  0.73953  1.0000
  C   C2776     1.0  0.40874  0.22815  0.51034  1.0000
  H   H2226     1.0  0.48112  0.24166  0.90933  1.0000
  H   H2227     1.0  0.45628  0.23313  0.94274  1.0000
  H   H2228     1.0  0.39623  0.19802  0.89594  1.0000
  H   H2229     1.0  0.49563  0.17271  0.95736  1.0000
  H   H2230     1.0  0.52029  0.18065  0.92384  1.0000
  H   H2231     1.0  0.43697  0.05583  0.73213  1.0000
  C   C2777     1.0  0.48757  0.13217  0.95881  1.0000
  C   C2778     1.0  0.43445  0.12620  0.68585  1.0000
  H   H2232     1.0  0.49247  0.39378  0.62363  1.0000
  C   C2779     1.0  0.55468  0.32958  0.65683  1.0000
  C   C2780     1.0  0.55218  0.32156  0.64063  1.0000
  C   C2781     1.0  0.53431  0.32959  0.63214  1.0000
  C   C2782     1.0  0.51908  0.34596  0.63945  1.0000
  C   C2783     1.0  0.52144  0.35407  0.65577  1.0000
  C   C2784     1.0  0.53931  0.34567  0.66450  1.0000
  P   P91       1.0  0.50261  0.37587  0.66495  1.0000
  C   C2785     1.0  0.49780  0.36898  0.69329  1.0000
  C   C2786     1.0  0.51278  0.39971  0.65538  1.0000
  C   C2787     1.0  0.53371  0.39936  0.64514  1.0000
  C   C2788     1.0  0.54130  0.41798  0.63828  1.0000
  C   C2789     1.0  0.52813  0.43704  0.64159  1.0000
  C   C2790     1.0  0.50730  0.43753  0.65167  1.0000
  C   C2791     1.0  0.49954  0.41901  0.65829  1.0000
  C   C2792     1.0  0.49123  0.35012  0.70374  1.0000
  C   C2793     1.0  0.48741  0.34454  0.72565  1.0000
  C   C2794     1.0  0.49058  0.35753  0.73728  1.0000
  C   C2795     1.0  0.49754  0.37613  0.72699  1.0000
  C   C2796     1.0  0.50115  0.38186  0.70508  1.0000
  C   C2797     1.0  0.47868  0.38070  0.65561  1.0000
  C   C2798     1.0  0.47842  0.38985  0.63442  1.0000
  C   C2799     1.0  0.45993  0.39433  0.62705  1.0000
  C   C2800     1.0  0.44153  0.38999  0.64073  1.0000
  C   C2801     1.0  0.44158  0.38107  0.66182  1.0000
  C   C2802     1.0  0.46001  0.37651  0.66930  1.0000
  H   H2233     1.0  0.44620  0.28316  0.55487  1.0000
  C   C2803     1.0  0.40130  0.25461  0.59935  1.0000
  H   H2234     1.0  0.53275  0.32387  0.61907  1.0000
  H   H2235     1.0  0.50579  0.35235  0.63204  1.0000
  H   H2236     1.0  0.54174  0.35213  0.67666  1.0000
  H   H2237     1.0  0.54422  0.38491  0.64212  1.0000
  H   H2238     1.0  0.55735  0.41773  0.63007  1.0000
  C   C2804     1.0  0.39813  0.42718  0.53072  1.0000
  H   H2239     1.0  0.58355  0.05410  0.76225  1.0000
  H   H2240     1.0  0.57096  0.02638  0.65537  1.0000
  C   C2805     1.0  0.44243  0.14246  0.67089  1.0000
  H   H2241     1.0  0.40621  0.26213  0.76382  1.0000
  H   H2242     1.0  0.43246  0.05444  0.76946  1.0000
  H   H2243     1.0  0.55737  0.02797  0.89384  1.0000
  P   P92       1.0  0.41994  0.12372  0.81603  1.0000
  S   S362      1.0  0.46777  0.10664  0.92100  1.0000
  C   C2806     1.0  0.44628  0.00512  0.83545  1.0000
  C   C2807     1.0  0.55241  0.20582  0.91438  1.0000
  C   C2808     1.0  0.56851  0.30025  0.71300  1.0000
  H   H2244     1.0  0.52778  0.21490  0.61372  1.0000
  S   S363      1.0  0.47952  0.47066  0.61561  1.0000
  C   C2809     1.0  0.42855  0.06971  0.73818  1.0000
  C   C2810     1.0  0.58750  0.37492  0.61067  1.0000
  P   P93       1.0  0.42041  0.08810  0.69805  1.0000
  H   H2245     1.0  0.47856  0.07285  0.84263  1.0000
  Fe  Fe175     1.0  0.54792  0.32883  0.52063  1.0000
  H   H2246     1.0  0.51698  0.28188  0.83459  1.0000
  H   H2247     1.0  0.41513  0.18774  0.78613  1.0000
  C   C2811     1.0  0.41151  0.15484  0.51322  1.0000
  Fe  Fe176     1.0  0.53548  0.29559  0.55843  1.0000
  C   C2812     1.0  0.56960  0.99956  0.77716  1.0000
  H   H2248     1.0  0.52930  0.20232  0.69419  1.0000
  C   C2813     1.0  0.55405  0.26889  0.72936  1.0000
  C   C2814     1.0  0.43637  0.10207  0.53665  1.0000
  C   C2815     1.0  0.43655  0.00190  0.92464  1.0000
  C   C2816     1.0  0.58553  0.03285  0.95581  1.0000
  C   C2817     1.0  0.58601  0.04443  0.82145  1.0000
  H   H2249     1.0  0.42991  0.32115  0.55026  1.0000
  H   H2250     1.0  0.52127  0.02386  0.79522  1.0000
  C   C2818     1.0  0.41658  0.34733  0.74252  1.0000
  C   C2819     1.0  0.56376  0.03648  0.66659  1.0000
  Fe  Fe177     1.0  0.43910  0.09406  0.92433  1.0000
  H   H2251     1.0  0.58125  0.03826  0.81042  1.0000
  H   H2252     1.0  0.42328  0.42329  0.59370  1.0000
  H   H2253     1.0  0.40449  0.02265  0.78663  1.0000
  C   C2820     1.0  0.58276  0.02023  0.97595  1.0000
  C   C2821     1.0  0.40748  0.14311  0.50051  1.0000
  C   C2822     1.0  0.43463  0.24875  0.50594  1.0000
  H   H2254     1.0  0.39256  0.19924  0.65251  1.0000
  C   C2823     1.0  0.57892  0.06583  0.74898  1.0000
  C   C2824     1.0  0.41968  0.08790  0.72515  1.0000
  S   S364      1.0  0.43319  0.44566  0.64877  1.0000
  S   S365      1.0  0.57432  0.33321  0.53217  1.0000
  H   H2255     1.0  0.56205  0.21124  0.86119  1.0000
  C   C2825     1.0  0.42574  0.06873  0.75965  1.0000
  C   C2826     1.0  0.41117  0.23238  0.96894  1.0000
  S   S366      1.0  0.43927  0.47284  0.54340  1.0000
  C   C2827     1.0  0.42306  0.00500  0.57662  1.0000
  C   C2828     1.0  0.57728  0.14661  0.89923  1.0000
  C   C2829     1.0  0.51693  0.27546  0.85109  1.0000
  H   H2256     1.0  0.41976  0.04958  0.80864  1.0000
  H   H2257     1.0  0.40913  0.13540  0.85668  1.0000
  C   C2830     1.0  0.42692  0.01638  0.73000  1.0000
  C   C2831     1.0  0.44031  0.08023  0.53847  1.0000
  C   C2832     1.0  0.52440  0.02633  0.80928  1.0000
  H   H2258     1.0  0.45533  0.09764  0.79103  1.0000
  C   C2833     1.0  0.43036  0.12517  0.78819  1.0000
  C   C2834     1.0  0.42663  0.14372  0.82509  1.0000
  H   H2259     1.0  0.46240  0.10587  0.82163  1.0000
  H   H2260     1.0  0.51834  0.44910  0.52231  1.0000
  C   C2835     1.0  0.44765  0.11043  0.78056  1.0000
  C   C2836     1.0  0.41814  0.02396  0.56264  1.0000
  H   H2261     1.0  0.44405  0.05318  0.57774  1.0000
  H   H2262     1.0  0.42262  0.36009  0.73110  1.0000
  H   H2263     1.0  0.58238  0.11578  0.76526  1.0000
  C   C2837     1.0  0.44556  0.00519  0.73619  1.0000
  C   C2838     1.0  0.57267  0.07485  0.90595  1.0000
  C   C2839     1.0  0.52017  0.46479  0.52178  1.0000
  P   P94       1.0  0.39415  0.26492  0.52621  1.0000
  C   C2840     1.0  0.42601  0.04144  0.56249  1.0000
  C   C2841     1.0  0.40503  0.28269  0.53451  1.0000
  H   H2264     1.0  0.47432  0.18520  0.90799  1.0000
  H   H2265     1.0  0.47610  0.15584  0.89128  1.0000
  H   H2266     1.0  0.43828  0.13160  0.98701  1.0000
  C   C2842     1.0  0.39460  0.26678  0.61469  1.0000
  H   H2267     1.0  0.44981  0.12920  0.53138  1.0000
  C   C2843     1.0  0.52102  0.01169  0.82805  1.0000
  S   S367      1.0  0.53790  0.34855  0.49111  1.0000
  C   C2844     1.0  0.58021  0.43660  0.58614  1.0000
  H   H2268     1.0  0.53745  0.20864  0.72549  1.0000
  C   C2845     1.0  0.42011  0.34228  0.76296  1.0000
  C   C2846     1.0  0.55379  0.07761  0.89971  1.0000
  C   C2847     1.0  0.39751  0.31922  0.75118  1.0000
  C   C2848     1.0  0.42606  0.00313  0.94515  1.0000
  H   H2269     1.0  0.40607  0.01981  0.70948  1.0000
  H   H2270     1.0  0.53401  0.45148  0.63598  1.0000
  C   C2849     1.0  0.46026  0.17969  0.90923  1.0000
  H   H2271     1.0  0.40769  0.15322  0.77916  1.0000
  H   H2272     1.0  0.55585  0.01105  0.69211  1.0000
  C   C2850     1.0  0.40127  0.31380  0.77165  1.0000
  H   H2273     1.0  0.51477  0.30544  0.85845  1.0000
  C   C2851     1.0  0.41922  0.14553  0.84615  1.0000
  C   C2852     1.0  0.43199  0.28902  0.54873  1.0000
  H   H2274     1.0  0.57618  0.19679  0.93283  1.0000
  H   H2275     1.0  0.55399  0.25579  0.65638  1.0000
  H   H2276     1.0  0.42149  0.43638  0.54099  1.0000
  Fe  Fe178     1.0  0.49210  0.45608  0.58733  1.0000
  Fe  Fe179     1.0  0.55284  0.33176  0.56365  1.0000
  H   H2277     1.0  0.40778  0.02490  0.55248  1.0000
  C   C2853     1.0  0.39366  0.23644  0.60223  1.0000
  C   C2854     1.0  0.44335  0.15543  0.90200  1.0000
  H   H2278     1.0  0.43077  0.00493  0.98844  1.0000
  H   H2279     1.0  0.55692  0.38529  0.60300  1.0000
  C   C2855     1.0  0.56482  0.20795  0.87695  1.0000
  H   H2280     1.0  0.39445  0.22158  0.55134  1.0000
  H   H2281     1.0  0.39715  0.33438  0.53659  1.0000
  C   C2856     1.0  0.46127  0.16315  0.89975  1.0000
  H   H2282     1.0  0.49347  0.07076  0.52869  1.0000
  C   C2857     1.0  0.43122  0.09935  0.83165  1.0000
  H   H2283     1.0  0.44179  0.07156  0.50090  1.0000
  C   C2858     1.0  0.54811  0.06067  0.89572  1.0000
  C   C2859     1.0  0.54119  0.21905  0.71053  1.0000
  C   C2860     1.0  0.55068  0.31253  0.72296  1.0000
  H   H2284     1.0  0.41706  0.17206  0.97809  1.0000
  H   H2285     1.0  0.57040  0.41996  0.53660  1.0000
  H   H2286     1.0  0.39796  0.30134  0.49146  1.0000
  C   C2861     1.0  0.51844  0.25385  0.85885  1.0000
  C   C2862     1.0  0.54508  0.06437  0.98610  1.0000
  C   C2863     1.0  0.57301  0.20026  0.91717  1.0000
  P   P95       1.0  0.55582  0.24102  0.73204  1.0000
  C   C2864     1.0  0.57091  0.37315  0.60259  1.0000
  S   S368      1.0  0.58248  0.16672  0.77440  1.0000
  C   C2865     1.0  0.53666  0.21533  0.69281  1.0000
  C   C2866     1.0  0.47348  0.10120  0.52935  1.0000
  S   S369      1.0  0.39560  0.08814  0.63271  1.0000
  C   C2867     1.0  0.50144  0.03908  0.97012  1.0000
  H   H2287     1.0  0.46587  0.23565  0.49143  1.0000
  C   C2868     1.0  0.56159  0.04105  0.89726  1.0000
  Fe  Fe180     1.0  0.58111  0.13690  0.85081  1.0000
  H   H2288     1.0  0.56731  0.02064  0.98573  1.0000
  H   H2289     1.0  0.56293  0.26091  0.61046  1.0000
  C   C2869     1.0  0.51575  0.28873  0.86451  1.0000
  S   S370      1.0  0.45279  0.01124  0.75678  1.0000
  H   H2290     1.0  0.57629  0.08811  0.90961  1.0000
  C   C2870     1.0  0.42301  0.27518  0.54315  1.0000
  C   C2871     1.0  0.44455  0.21587  0.49396  1.0000
  H   H2291     1.0  0.41868  0.05673  0.86868  1.0000
  H   H2292     1.0  0.45319  0.01942  0.60170  1.0000
  Fe  Fe181     1.0  0.40009  0.01174  0.66922  1.0000
  P   P96       1.0  0.40576  0.01016  0.83093  1.0000
  H   H2293     1.0  0.53732  0.22586  0.65970  1.0000
  C   C2872     1.0  0.45186  0.12922  0.97459  1.0000
  C   C2873     1.0  0.58656  0.19444  0.97652  1.0000
  Fe  Fe182     1.0  0.58101  0.29792  0.54215  1.0000
  C   C2874     1.0  0.53483  0.48777  0.53376  1.0000
  H   H2294     1.0  0.41201  0.44935  0.61515  1.0000
  C   C2875     1.0  0.39502  0.05689  0.52235  1.0000
  S   S371      1.0  0.58506  0.16856  0.83142  1.0000
  C   C2876     1.0  0.58948  0.19818  0.89996  1.0000
  C   C2877     1.0  0.58714  0.41815  0.53423  1.0000
  H   H2295     1.0  0.40409  0.42631  0.68170  1.0000
  C   C2878     1.0  0.55049  0.24548  0.67149  1.0000
  C   C2879     1.0  0.59127  0.08054  0.73821  1.0000
  H   H2296     1.0  0.39450  0.99531  0.91958  1.0000
  C   C2880     1.0  0.58620  0.05510  0.90784  1.0000
  C   C2881     1.0  0.57024  0.27852  0.71622  1.0000
  H   H2297     1.0  0.57884  0.02980  0.72490  1.0000
  C   C2882     1.0  0.39899  0.42853  0.66716  1.0000
  C   C2883     1.0  0.39511  0.99844  0.90288  1.0000
  C   C2884     1.0  0.41930  0.21917  0.98592  1.0000
  C   C2885     1.0  0.54121  0.22859  0.67332  1.0000
  H   H2298     1.0  0.41845  0.48683  0.50868  1.0000
  C   C2886     1.0  0.55502  0.24927  0.68918  1.0000
  H   H2299     1.0  0.39439  0.03133  0.89859  1.0000
  H   H2300     1.0  0.52849  0.19711  0.49899  1.0000
  C   C2887     1.0  0.58574  0.22815  0.98379  1.0000
  C   C2888     1.0  0.56532  0.19642  0.98532  1.0000
  H   H2301     1.0  0.58630  0.38847  0.61711  1.0000
  C   C2889     1.0  0.59072  0.20853  0.72747  1.0000
  C   C2890     1.0  0.58188  0.22723  0.73488  1.0000
  H   H2302     1.0  0.59071  0.02293  0.90456  1.0000
  C   C2891     1.0  0.54405  0.19796  0.48971  1.0000
  H   H2303     1.0  0.58103  0.30757  0.70276  1.0000
  H   H2304     1.0  0.58415  0.26924  0.70830  1.0000
  H   H2305     1.0  0.58608  0.24823  0.75245  1.0000
  H   H2306     1.0  0.53997  0.23074  0.48886  1.0000
  H   H2307     1.0  0.46618  0.29797  0.49035  1.0000
  C   C2892     1.0  0.39159  0.03276  0.79491  1.0000
  H   H2308     1.0  0.59117  0.32617  0.58790  1.0000
  H   H2309     1.0  0.39188  0.09709  0.81498  1.0000
  C   C2893     1.0  0.41132  0.73370  0.21111  1.0000
  C   C2894     1.0  0.39981  0.81985  0.30416  1.0000
  S   S372      1.0  0.43365  0.52135  0.41604  1.0000
  C   C2895     1.0  0.41985  0.60073  0.05825  1.0000
  H   H2310     1.0  0.46596  0.49420  0.43956  1.0000
  H   H2311     1.0  0.43251  0.59063  0.06521  1.0000
  S   S373      1.0  0.41971  0.58481  0.14066  1.0000
  H   H2312     1.0  0.41802  0.59632  0.29010  1.0000
  H   H2313     1.0  0.51755  0.98617  0.08925  1.0000
  S   S374      1.0  0.55761  0.61937  0.33334  1.0000
  Fe  Fe183     1.0  0.40368  0.56843  0.46871  1.0000
  C   C2896     1.0  0.45052  0.51449  0.20614  1.0000
  S   S375      1.0  0.54338  0.63098  0.38854  1.0000
  Fe  Fe184     1.0  0.48943  0.70755  0.20399  1.0000
  S   S376      1.0  0.45961  0.69701  0.20743  1.0000
  S   S377      1.0  0.49040  0.74184  0.19272  1.0000
  Fe  Fe185     1.0  0.51286  0.66382  0.21835  1.0000
  S   S378      1.0  0.48512  0.64958  0.22305  1.0000
  S   S379      1.0  0.54254  0.64113  0.22388  1.0000
  Fe  Fe186     1.0  0.48018  0.67076  0.19245  1.0000
  S   S380      1.0  0.47443  0.65558  0.16899  1.0000
  Fe  Fe187     1.0  0.46703  0.67687  0.23760  1.0000
  S   S381      1.0  0.44088  0.67282  0.26572  1.0000
  S   S382      1.0  0.50944  0.68290  0.18638  1.0000
  S   S383      1.0  0.49531  0.68952  0.23571  1.0000
  Fe  Fe188     1.0  0.46587  0.70554  0.03610  1.0000
  S   S384      1.0  0.43156  0.71768  0.04484  1.0000
  S   S385      1.0  0.48661  0.72875  0.01853  1.0000
  Fe  Fe189     1.0  0.46121  0.66026  0.05393  1.0000
  S   S386      1.0  0.42647  0.66896  0.06499  1.0000
  S   S387      1.0  0.47659  0.62595  0.05810  1.0000
  Fe  Fe190     1.0  0.42769  0.69052  0.03357  1.0000
  H   H2314     1.0  0.44569  0.49729  0.47528  1.0000
  Fe  Fe191     1.0  0.43347  0.69511  0.07542  1.0000
  S   S388      1.0  0.41723  0.70725  0.10499  1.0000
  S   S389      1.0  0.46192  0.68040  0.02158  1.0000
  S   S390      1.0  0.46830  0.68439  0.06744  1.0000
  S   S391      1.0  0.53820  0.82426  0.03945  1.0000
  C   C2897     1.0  0.41675  0.55240  0.01775  1.0000
  C   C2898     1.0  0.53797  0.98652  0.01238  1.0000
  H   H2315     1.0  0.44240  0.52088  0.08281  1.0000
  H   H2316     1.0  0.39785  0.66889  0.17012  1.0000
  C   C2899     1.0  0.58033  0.86455  0.07325  1.0000
  S   S392      1.0  0.41691  0.95980  0.12383  1.0000
  S   S393      1.0  0.46179  0.96159  0.07320  1.0000
  C   C2900     1.0  0.45516  0.59688  0.00648  1.0000
  S   S394      1.0  0.41985  0.86934  0.11086  1.0000
  C   C2901     1.0  0.41820  0.93406  0.12146  1.0000
  C   C2902     1.0  0.41921  0.89386  0.11576  1.0000
  C   C2903     1.0  0.43667  0.90308  0.10733  1.0000
  C   C2904     1.0  0.43629  0.92296  0.11055  1.0000
  H   H2317     1.0  0.45053  0.89488  0.09829  1.0000
  H   H2318     1.0  0.45007  0.92958  0.10473  1.0000
  H   H2319     1.0  0.58231  0.58282  0.46843  1.0000
  C   C2905     1.0  0.57329  0.95192  0.08643  1.0000
  C   C2906     1.0  0.55722  0.94400  0.08365  1.0000
  C   C2907     1.0  0.53718  0.95635  0.08455  1.0000
  C   C2908     1.0  0.40501  0.94339  0.02626  1.0000
  C   C2909     1.0  0.40391  0.79888  0.01041  1.0000
  H   H2320     1.0  0.53010  0.92650  0.02483  1.0000
  H   H2321     1.0  0.56039  0.92841  0.08051  1.0000
  H   H2322     1.0  0.52626  0.80480  0.00030  1.0000
  C   C2910     1.0  0.55588  0.51277  0.36900  1.0000
  S   S395      1.0  0.55945  0.85856  0.06591  1.0000
  H   H2323     1.0  0.56138  0.89249  0.08348  1.0000
  C   C2911     1.0  0.41210  0.50346  0.45379  1.0000
  H   H2324     1.0  0.41004  0.81079  0.08042  1.0000
  S   S396      1.0  0.46602  0.49941  0.29821  1.0000
  C   C2912     1.0  0.47279  0.52517  0.06478  1.0000
  S   S397      1.0  0.57289  0.78608  0.01946  1.0000
  P   P97       1.0  0.45004  0.81691  0.02675  1.0000
  C   C2913     1.0  0.49930  0.73882  0.03242  1.0000
  C   C2914     1.0  0.49491  0.73479  0.05430  1.0000
  C   C2915     1.0  0.50509  0.74325  0.06496  1.0000
  C   C2916     1.0  0.51924  0.75621  0.05397  1.0000
  C   C2917     1.0  0.51406  0.75115  0.02133  1.0000
  H   H2325     1.0  0.48365  0.72522  0.06298  1.0000
  H   H2326     1.0  0.50194  0.73995  0.08181  1.0000
  C   C2918     1.0  0.45650  0.66999  0.15310  1.0000
  C   C2919     1.0  0.45232  0.66023  0.13903  1.0000
  C   C2920     1.0  0.43959  0.67162  0.12484  1.0000
  C   C2921     1.0  0.43040  0.69259  0.12503  1.0000
  C   C2922     1.0  0.43305  0.70199  0.14024  1.0000
  C   C2923     1.0  0.44653  0.69083  0.15400  1.0000
  H   H2327     1.0  0.45921  0.64391  0.13884  1.0000
  H   H2328     1.0  0.43675  0.66428  0.11367  1.0000
  H   H2329     1.0  0.42561  0.71817  0.14060  1.0000
  H   H2330     1.0  0.44959  0.69848  0.16487  1.0000
  C   C2924     1.0  0.46969  0.75279  0.17958  1.0000
  C   C2925     1.0  0.46332  0.74029  0.16974  1.0000
  C   C2926     1.0  0.44524  0.74779  0.16152  1.0000
  C   C2927     1.0  0.43343  0.76783  0.16301  1.0000
  C   C2928     1.0  0.44041  0.78092  0.17170  1.0000
  C   C2929     1.0  0.45848  0.77331  0.18021  1.0000
  H   H2331     1.0  0.47212  0.72458  0.16882  1.0000
  H   H2332     1.0  0.43988  0.73769  0.15482  1.0000
  H   H2333     1.0  0.43148  0.79651  0.17249  1.0000
  H   H2334     1.0  0.46327  0.78288  0.18805  1.0000
  C   C2930     1.0  0.57394  0.65439  0.27020  1.0000
  C   C2931     1.0  0.56083  0.67088  0.25938  1.0000
  C   C2932     1.0  0.55099  0.66700  0.24514  1.0000
  C   C2933     1.0  0.55483  0.64676  0.24120  1.0000
  C   C2934     1.0  0.56849  0.63051  0.25147  1.0000
  H   H2335     1.0  0.40730  0.92379  0.07784  1.0000
  H   H2336     1.0  0.55795  0.68654  0.26236  1.0000
  H   H2337     1.0  0.54058  0.67966  0.23713  1.0000
  H   H2338     1.0  0.57125  0.61488  0.24860  1.0000
  C   C2935     1.0  0.40127  0.78051  0.02527  1.0000
  C   C2936     1.0  0.46837  0.50991  0.48295  1.0000
  C   C2937     1.0  0.55389  0.63605  0.44320  1.0000
  C   C2938     1.0  0.54408  0.63689  0.42695  1.0000
  C   C2939     1.0  0.55570  0.62994  0.40876  1.0000
  H   H2339     1.0  0.43134  0.71836  0.42861  1.0000
  C   C2940     1.0  0.41163  0.65408  0.42573  1.0000
  H   H2340     1.0  0.54483  0.64158  0.45719  1.0000
  H   H2341     1.0  0.52752  0.64292  0.42844  1.0000
  H   H2342     1.0  0.46294  0.55728  0.48100  1.0000
  Fe  Fe192     1.0  0.48793  0.97041  0.08115  1.0000
  H   H2343     1.0  0.45467  0.71214  0.25175  1.0000
  S   S398      1.0  0.43665  0.55471  0.45513  1.0000
  C   C2941     1.0  0.49050  0.61641  0.44830  1.0000
  H   H2344     1.0  0.39798  0.72270  0.19146  1.0000
  H   H2345     1.0  0.48291  0.80823  0.13374  1.0000
  C   C2942     1.0  0.45913  0.61375  0.01256  1.0000
  C   C2943     1.0  0.46270  0.61327  0.08171  1.0000
  C   C2944     1.0  0.45178  0.62490  0.09697  1.0000
  C   C2945     1.0  0.43905  0.61586  0.11519  1.0000
  C   C2946     1.0  0.43700  0.59504  0.11818  1.0000
  C   C2947     1.0  0.44855  0.58306  0.10320  1.0000
  C   C2948     1.0  0.46165  0.59210  0.08509  1.0000
  H   H2346     1.0  0.45324  0.64097  0.09451  1.0000
  H   H2347     1.0  0.43046  0.62515  0.12680  1.0000
  H   H2348     1.0  0.44728  0.56694  0.10541  1.0000
  H   H2349     1.0  0.47020  0.58295  0.07335  1.0000
  C   C2949     1.0  0.47143  0.61043  0.45097  1.0000
  H   H2350     1.0  0.51601  0.60390  0.33981  1.0000
  C   C2950     1.0  0.46705  0.94301  0.15347  1.0000
  H   H2351     1.0  0.45150  0.61768  0.02770  1.0000
  H   H2352     1.0  0.41129  0.75901  0.05226  1.0000
  H   H2353     1.0  0.44801  0.53094  0.20654  1.0000
  H   H2354     1.0  0.51148  0.51472  0.24747  1.0000
  C   C2951     1.0  0.39365  0.50824  0.27946  1.0000
  C   C2952     1.0  0.45649  0.61264  0.46934  1.0000
  Fe  Fe193     1.0  0.39476  0.85319  0.13234  1.0000
  Fe  Fe194     1.0  0.39228  0.80846  0.15446  1.0000
  C   C2953     1.0  0.54276  0.86302  0.12662  1.0000
  Fe  Fe195     1.0  0.42323  0.55045  0.42974  1.0000
  H   H2355     1.0  0.40994  0.60542  0.36225  1.0000
  H   H2356     1.0  0.54216  0.51449  0.34296  1.0000
  H   H2357     1.0  0.49506  0.51400  0.19011  1.0000
  H   H2358     1.0  0.49162  0.98788  0.98909  1.0000
  P   P98       1.0  0.41833  0.82048  0.24128  1.0000
  C   C2954     1.0  0.42080  0.84364  0.22073  1.0000
  C   C2955     1.0  0.44379  0.80400  0.24252  1.0000
  C   C2956     1.0  0.45720  0.80909  0.25246  1.0000
  C   C2957     1.0  0.47700  0.79649  0.25336  1.0000
  C   C2958     1.0  0.48349  0.77865  0.24449  1.0000
  C   C2959     1.0  0.47011  0.77330  0.23490  1.0000
  C   C2960     1.0  0.45036  0.78588  0.23389  1.0000
  H   H2359     1.0  0.47957  0.50621  0.35049  1.0000
  C   C2961     1.0  0.49148  0.50608  0.44279  1.0000
  C   C2962     1.0  0.42338  0.88006  0.18919  1.0000
  C   C2963     1.0  0.43958  0.87106  0.20009  1.0000
  C   C2964     1.0  0.43830  0.85292  0.21586  1.0000
  C   C2965     1.0  0.56946  0.97241  0.08961  1.0000
  Fe  Fe196     1.0  0.44190  0.97526  0.10053  1.0000
  C   C2966     1.0  0.50392  0.50661  0.20234  1.0000
  H   H2360     1.0  0.49353  0.66875  0.44891  1.0000
  H   H2361     1.0  0.54167  0.51327  0.47442  1.0000
  C   C2967     1.0  0.54893  0.56347  0.45925  1.0000
  C   C2968     1.0  0.41726  0.59873  0.03889  1.0000
  C   C2969     1.0  0.51143  0.80386  0.99772  1.0000
  H   H2362     1.0  0.52401  0.69541  0.00770  1.0000
  H   H2363     1.0  0.41838  0.79837  0.28459  1.0000
  C   C2970     1.0  0.53195  0.57476  0.30066  1.0000
  H   H2364     1.0  0.45232  0.82278  0.25955  1.0000
  H   H2365     1.0  0.48727  0.80049  0.26104  1.0000
  H   H2366     1.0  0.49879  0.76880  0.24520  1.0000
  H   H2367     1.0  0.47495  0.75922  0.22842  1.0000
  H   H2368     1.0  0.44029  0.78115  0.22658  1.0000
  H   H2369     1.0  0.54895  0.73991  0.11074  1.0000
  C   C2971     1.0  0.41214  0.87534  0.02127  1.0000
  H   H2370     1.0  0.49758  0.57121  0.48190  1.0000
  H   H2371     1.0  0.45318  0.87808  0.19619  1.0000
  H   H2372     1.0  0.45099  0.84625  0.22406  1.0000
  C   C2972     1.0  0.58545  0.57127  0.24320  1.0000
  H   H2373     1.0  0.40550  0.74211  0.00352  1.0000
  C   C2973     1.0  0.57801  0.93203  0.99491  1.0000
  C   C2974     1.0  0.55356  0.54162  0.46211  1.0000
  H   H2374     1.0  0.41595  0.80907  0.20314  1.0000
  C   C2975     1.0  0.40321  0.56383  0.33612  1.0000
  S   S399      1.0  0.53013  0.76782  0.06827  1.0000
  C   C2976     1.0  0.42844  0.78393  0.04086  1.0000
  C   C2977     1.0  0.56644  0.73737  0.15608  1.0000
  C   C2978     1.0  0.43091  0.80265  0.02626  1.0000
  C   C2979     1.0  0.45506  0.81145  0.05302  1.0000
  H   H2375     1.0  0.40896  0.61797  0.08321  1.0000
  C   C2980     1.0  0.56115  0.88035  0.00209  1.0000
  H   H2376     1.0  0.57069  0.69029  0.33928  1.0000
  S   S400      1.0  0.46869  0.98182  0.11003  1.0000
  H   H2377     1.0  0.42575  0.77968  0.10459  1.0000
  H   H2378     1.0  0.39461  0.80445  0.99848  1.0000
  C   C2981     1.0  0.45116  0.56023  0.04043  1.0000
  C   C2982     1.0  0.40653  0.61635  0.06843  1.0000
  C   C2983     1.0  0.42217  0.50113  0.43342  1.0000
  C   C2984     1.0  0.41349  0.58016  0.33377  1.0000
  C   C2985     1.0  0.44112  0.71375  0.26426  1.0000
  H   H2379     1.0  0.45688  0.67076  0.46650  1.0000
  C   C2986     1.0  0.40237  0.76232  0.10689  1.0000
  C   C2987     1.0  0.51320  0.50707  0.23457  1.0000
  H   H2380     1.0  0.39179  0.79166  0.19494  1.0000
  C   C2988     1.0  0.54970  0.71248  0.18412  1.0000
  H   H2381     1.0  0.54947  0.97424  0.04108  1.0000
  H   H2382     1.0  0.51607  0.88205  0.17043  1.0000
  H   H2383     1.0  0.51774  0.75404  0.00438  1.0000
  C   C2989     1.0  0.40234  0.67832  0.00056  1.0000
  C   C2990     1.0  0.48409  0.57382  0.37511  1.0000
  H   H2384     1.0  0.44007  0.68099  0.40637  1.0000
  H   H2385     1.0  0.50020  0.50477  0.42712  1.0000
  H   H2386     1.0  0.45165  0.64090  0.31546  1.0000
  C   C2991     1.0  0.52899  0.87521  0.15932  1.0000
  S   S401      1.0  0.40220  0.69600  0.01589  1.0000
  H   H2387     1.0  0.48761  0.61121  0.32051  1.0000
  H   H2388     1.0  0.41192  0.51747  0.45891  1.0000
  C   C2992     1.0  0.52570  0.59692  0.21190  1.0000
  H   H2389     1.0  0.56926  0.53366  0.45653  1.0000
  H   H2390     1.0  0.42897  0.67375  0.32425  1.0000
  C   C2993     1.0  0.53544  0.53657  0.40975  1.0000
  C   C2994     1.0  0.52161  0.55506  0.41401  1.0000
  C   C2995     1.0  0.52929  0.57250  0.41391  1.0000
  C   C2996     1.0  0.42475  0.88790  0.00632  1.0000
  H   H2391     1.0  0.54191  0.97145  0.00794  1.0000
  C   C2997     1.0  0.55080  0.56763  0.22662  1.0000
  H   H2392     1.0  0.52927  0.52330  0.40953  1.0000
  H   H2393     1.0  0.50490  0.55604  0.41736  1.0000
  H   H2394     1.0  0.51859  0.58696  0.41683  1.0000
  C   C2998     1.0  0.50545  0.86463  0.09859  1.0000
  H   H2395     1.0  0.44087  0.74613  0.26309  1.0000
  C   C2999     1.0  0.44039  0.54845  0.05824  1.0000
  C   C3000     1.0  0.50042  0.88237  0.10767  1.0000
  C   C3001     1.0  0.48864  0.93862  0.14619  1.0000
  H   H2396     1.0  0.49386  0.92039  0.06410  1.0000
  H   H2397     1.0  0.51516  0.91651  0.13425  1.0000
  H   H2398     1.0  0.49762  0.95056  0.14394  1.0000
  H   H2399     1.0  0.45928  0.95831  0.15697  1.0000
  H   H2400     1.0  0.56864  0.65234  0.18105  1.0000
  H   H2401     1.0  0.42362  0.55277  0.06280  1.0000
  H   H2402     1.0  0.42901  0.95703  0.00308  1.0000
  H   H2403     1.0  0.41815  0.54379  0.03339  1.0000
  C   C3002     1.0  0.43026  0.64142  0.20618  1.0000
  C   C3003     1.0  0.53965  0.88714  0.00355  1.0000
  C   C3004     1.0  0.56654  0.49960  0.38440  1.0000
  H   H2404     1.0  0.42428  0.89404  0.17694  1.0000
  C   C3005     1.0  0.55077  0.57124  0.41022  1.0000
  C   C3006     1.0  0.53790  0.53018  0.47214  1.0000
  H   H2405     1.0  0.47569  0.63901  0.00387  1.0000
  H   H2406     1.0  0.49210  0.91645  0.10157  1.0000
  H   H2407     1.0  0.42082  0.74547  0.23322  1.0000
  H   H2408     1.0  0.47949  0.82194  0.19434  1.0000
  C   C3007     1.0  0.57775  0.63420  0.26623  1.0000
  S   S402      1.0  0.42700  0.58192  0.40946  1.0000
  H   H2409     1.0  0.48283  0.56387  0.39064  1.0000
  C   C3008     1.0  0.45075  0.50867  0.18756  1.0000
  C   C3009     1.0  0.40066  0.61211  0.03018  1.0000
  Fe  Fe197     1.0  0.41100  0.55439  0.14132  1.0000
  C   C3010     1.0  0.48381  0.53734  0.04759  1.0000
  H   H2410     1.0  0.50206  0.61521  0.43400  1.0000
  C   C3011     1.0  0.54893  0.55651  0.27200  1.0000
  H   H2411     1.0  0.45196  0.95155  0.02816  1.0000
  P   P99       1.0  0.56613  0.55575  0.24660  1.0000
  C   C3012     1.0  0.48769  0.67308  0.41792  1.0000
  H   H2412     1.0  0.43663  0.67255  0.19581  1.0000
  C   C3013     1.0  0.42820  0.66211  0.20799  1.0000
  C   C3014     1.0  0.52544  0.77920  0.15316  1.0000
  C   C3015     1.0  0.39978  0.50416  0.29868  1.0000
  H   H2413     1.0  0.55089  0.58815  0.27219  1.0000
  C   C3016     1.0  0.39624  0.55208  0.21510  1.0000
  H   H2414     1.0  0.52951  0.58822  0.30763  1.0000
  S   S403      1.0  0.56844  0.55993  0.33011  1.0000
  S   S404      1.0  0.46672  0.60044  0.43102  1.0000
  C   C3017     1.0  0.43341  0.73296  0.27075  1.0000
  H   H2415     1.0  0.50187  0.84724  0.17440  1.0000
  C   C3018     1.0  0.57860  0.49344  0.24337  1.0000
  H   H2416     1.0  0.57920  0.66677  0.09475  1.0000
  C   C3019     1.0  0.44007  0.84462  0.01819  1.0000
  C   C3020     1.0  0.41201  0.93055  0.06135  1.0000
  H   H2417     1.0  0.56394  0.54366  0.20788  1.0000
  H   H2418     1.0  0.46366  0.79788  0.11044  1.0000
  C   C3021     1.0  0.49317  0.95647  0.00732  1.0000
  C   C3022     1.0  0.46519  0.90865  0.14981  1.0000
  H   H2419     1.0  0.43472  0.83982  0.06177  1.0000
  C   C3023     1.0  0.46146  0.80181  0.09440  1.0000
  H   H2420     1.0  0.42059  0.82414  0.99910  1.0000
  H   H2421     1.0  0.44017  0.83099  0.09793  1.0000
  C   C3024     1.0  0.57561  0.97551  0.14534  1.0000
  C   C3025     1.0  0.47177  0.78814  0.08081  1.0000
  H   H2422     1.0  0.53028  0.77304  0.16807  1.0000
  H   H2423     1.0  0.54313  0.52510  0.27739  1.0000
  C   C3026     1.0  0.40141  0.63891  0.35853  1.0000
  C   C3027     1.0  0.58980  0.54344  0.31744  1.0000
  C   C3028     1.0  0.44510  0.82531  0.06672  1.0000
  H   H2424     1.0  0.40069  0.53050  0.01337  1.0000
  C   C3029     1.0  0.54117  0.56792  0.19410  1.0000
  H   H2425     1.0  0.55662  0.58481  0.41030  1.0000
  C   C3030     1.0  0.44819  0.82042  0.08733  1.0000
  Fe  Fe198     1.0  0.43763  0.58729  0.43643  1.0000
  C   C3031     1.0  0.50203  0.88709  0.06476  1.0000
  H   H2426     1.0  0.46073  0.55068  0.34236  1.0000
  H   H2427     1.0  0.49472  0.79333  0.16748  1.0000
  H   H2428     1.0  0.46374  0.86796  0.12755  1.0000
  C   C3032     1.0  0.49305  0.81033  0.01160  1.0000
  H   H2429     1.0  0.58823  0.95243  0.03422  1.0000
  C   C3033     1.0  0.42434  0.94939  0.01932  1.0000
  H   H2430     1.0  0.53512  0.76957  0.02339  1.0000
  H   H2431     1.0  0.56767  0.87700  0.01603  1.0000
  C   C3034     1.0  0.41567  0.73538  0.28665  1.0000
  H   H2432     1.0  0.42554  0.64312  0.42978  1.0000
  H   H2433     1.0  0.40210  0.58236  0.23774  1.0000
  C   C3035     1.0  0.51302  0.56257  0.47640  1.0000
  H   H2434     1.0  0.56401  0.69811  0.30327  1.0000
  C   C3036     1.0  0.49862  0.79924  0.13387  1.0000
  C   C3037     1.0  0.45108  0.53061  0.06991  1.0000
  H   H2435     1.0  0.43797  0.62751  0.29249  1.0000
  C   C3038     1.0  0.54672  0.92578  0.02067  1.0000
  H   H2436     1.0  0.39319  0.66241  0.25375  1.0000
  H   H2437     1.0  0.43792  0.77758  0.05262  1.0000
  C   C3039     1.0  0.41521  0.66937  0.22547  1.0000
  C   C3040     1.0  0.44547  0.67583  0.43788  1.0000
  C   C3041     1.0  0.58701  0.70952  0.17790  1.0000
  S   S405      1.0  0.40924  0.77509  0.15554  1.0000
  H   H2438     1.0  0.53567  0.70709  0.19316  1.0000
  C   C3042     1.0  0.43134  0.93642  0.05430  1.0000
  C   C3043     1.0  0.41743  0.65979  0.99973  1.0000
  H   H2439     1.0  0.54275  0.56054  0.18106  1.0000
  C   C3044     1.0  0.57302  0.73446  0.08386  1.0000
  C   C3045     1.0  0.56605  0.86190  0.14905  1.0000
  C   C3046     1.0  0.54884  0.64441  0.16506  1.0000
  C   C3047     1.0  0.57657  0.75046  0.11096  1.0000
  C   C3048     1.0  0.57941  0.52895  0.24508  1.0000
  C   C3049     1.0  0.55893  0.67805  0.13286  1.0000
  C   C3050     1.0  0.54549  0.66620  0.13069  1.0000
  C   C3051     1.0  0.54028  0.64951  0.14712  1.0000
  P   P100      1.0  0.53322  0.67404  0.10817  1.0000
  C   C3052     1.0  0.51077  0.69485  0.11312  1.0000
  C   C3053     1.0  0.55061  0.68427  0.08467  1.0000
  C   C3054     1.0  0.55617  0.68827  0.33686  1.0000
  C   C3055     1.0  0.49275  0.69649  0.10567  1.0000
  C   C3056     1.0  0.47591  0.71328  0.10838  1.0000
  C   C3057     1.0  0.47686  0.72858  0.11856  1.0000
  C   C3058     1.0  0.49479  0.72722  0.12587  1.0000
  C   C3059     1.0  0.51165  0.71041  0.12325  1.0000
  C   C3060     1.0  0.52553  0.65214  0.10309  1.0000
  C   C3061     1.0  0.50789  0.64474  0.11582  1.0000
  C   C3062     1.0  0.50110  0.62878  0.11115  1.0000
  C   C3063     1.0  0.51176  0.62016  0.09364  1.0000
  C   C3064     1.0  0.52946  0.62722  0.08098  1.0000
  C   C3065     1.0  0.53642  0.64304  0.08571  1.0000
  H   H2440     1.0  0.54447  0.63180  0.17789  1.0000
  S   S406      1.0  0.40535  0.60144  0.45155  1.0000
  H   H2441     1.0  0.45184  0.62869  0.25484  1.0000
  S   S407      1.0  0.40625  0.53132  0.17174  1.0000
  H   H2442     1.0  0.52927  0.64066  0.14642  1.0000
  H   H2443     1.0  0.52562  0.70191  0.06883  1.0000
  H   H2444     1.0  0.40505  0.68654  0.29643  1.0000
  H   H2445     1.0  0.49174  0.68506  0.09744  1.0000
  H   H2446     1.0  0.46220  0.71458  0.10227  1.0000
  H   H2447     1.0  0.46387  0.74172  0.12030  1.0000
  H   H2448     1.0  0.49572  0.73932  0.13341  1.0000
  H   H2449     1.0  0.52535  0.70984  0.12892  1.0000
  H   H2450     1.0  0.49908  0.65169  0.12908  1.0000
  H   H2451     1.0  0.48732  0.62330  0.12081  1.0000
  H   H2452     1.0  0.50606  0.60824  0.08972  1.0000
  H   H2453     1.0  0.53753  0.62063  0.06728  1.0000
  H   H2454     1.0  0.55004  0.64833  0.07549  1.0000
  C   C3066     1.0  0.40451  0.85310  0.20997  1.0000
  C   C3067     1.0  0.48759  0.51634  0.47593  1.0000
  C   C3068     1.0  0.40380  0.65608  0.24091  1.0000
  C   C3069     1.0  0.53308  0.97661  0.08851  1.0000
  H   H2455     1.0  0.57599  0.85186  0.11956  1.0000
  C   C3070     1.0  0.49926  0.51408  0.45586  1.0000
  C   C3071     1.0  0.40886  0.74245  0.44246  1.0000
  H   H2456     1.0  0.41391  0.68534  0.22701  1.0000
  C   C3072     1.0  0.57705  0.69960  0.04736  1.0000
  C   C3073     1.0  0.40724  0.82864  0.26603  1.0000
  H   H2457     1.0  0.44186  0.84268  0.14742  1.0000
  H   H2458     1.0  0.44875  0.52060  0.17362  1.0000
  H   H2459     1.0  0.39820  0.61093  0.01529  1.0000
  C   C3074     1.0  0.42433  0.57105  0.00906  1.0000
  C   C3075     1.0  0.43735  0.94620  0.03340  1.0000
  C   C3076     1.0  0.41347  0.54295  0.34124  1.0000
  C   C3077     1.0  0.39543  0.72697  0.20652  1.0000
  H   H2460     1.0  0.51424  0.51858  0.45029  1.0000
  H   H2461     1.0  0.40048  0.85437  0.08228  1.0000
  S   S408      1.0  0.43041  0.53029  0.12291  1.0000
  H   H2462     1.0  0.48224  0.77386  0.08633  1.0000
  C   C3078     1.0  0.57715  0.62212  0.40678  1.0000
  C   C3079     1.0  0.46802  0.57773  0.36421  1.0000
  H   H2463     1.0  0.40842  0.52006  0.22849  1.0000
  H   H2464     1.0  0.53587  0.59520  0.24001  1.0000
  C   C3080     1.0  0.40305  0.79715  0.08584  1.0000
  C   C3081     1.0  0.52396  0.75991  0.03207  1.0000
  H   H2465     1.0  0.50920  0.84900  0.10793  1.0000
  C   C3082     1.0  0.40673  0.54472  0.00638  1.0000
  C   C3083     1.0  0.40089  0.92461  0.13038  1.0000
  C   C3084     1.0  0.54912  0.87037  0.16337  1.0000
  C   C3085     1.0  0.41186  0.77967  0.09942  1.0000
  H   H2466     1.0  0.49202  0.53209  0.21889  1.0000
  H   H2467     1.0  0.40097  0.63967  0.46736  1.0000
  P   P101      1.0  0.49971  0.87920  0.13525  1.0000
  C   C3086     1.0  0.51915  0.68898  0.99691  1.0000
  H   H2468     1.0  0.58564  0.58461  0.21025  1.0000
  H   H2469     1.0  0.47712  0.67758  0.38928  1.0000
  C   C3087     1.0  0.45913  0.83082  0.17231  1.0000
  C   C3088     1.0  0.49855  0.91923  0.14080  1.0000
  C   C3089     1.0  0.39445  0.53204  0.22704  1.0000
  Fe  Fe199     1.0  0.56773  0.61957  0.36227  1.0000
  H   H2470     1.0  0.55230  0.52967  0.36751  1.0000
  C   C3090     1.0  0.54223  0.98809  0.03109  1.0000
  C   C3091     1.0  0.43410  0.53837  0.34369  1.0000
  C   C3092     1.0  0.48178  0.67151  0.43962  1.0000
  Fe  Fe200     1.0  0.57843  0.58764  0.33454  1.0000
  C   C3093     1.0  0.46855  0.79283  0.06024  1.0000
  C   C3094     1.0  0.47298  0.62592  0.99901  1.0000
  H   H2471     1.0  0.55064  0.91271  0.05239  1.0000
  H   H2472     1.0  0.39443  0.65340  0.31408  1.0000
  Fe  Fe201     1.0  0.56121  0.82063  0.00938  1.0000
  Fe  Fe202     1.0  0.42359  0.50691  0.15278  1.0000
  C   C3095     1.0  0.48693  0.90391  0.14301  1.0000
  H   H2473     1.0  0.56979  0.68906  0.20251  1.0000
  H   H2474     1.0  0.44905  0.82008  0.18130  1.0000
  Fe  Fe203     1.0  0.56425  0.83098  0.05032  1.0000
  H   H2475     1.0  0.45457  0.57062  0.37147  1.0000
  C   C3096     1.0  0.42376  0.55840  0.25339  1.0000
  C   C3097     1.0  0.43490  0.55249  0.26951  1.0000
  C   C3098     1.0  0.43269  0.56618  0.28275  1.0000
  C   C3099     1.0  0.41935  0.58583  0.27986  1.0000
  C   C3100     1.0  0.40799  0.59183  0.26381  1.0000
  C   C3101     1.0  0.41038  0.57799  0.25050  1.0000
  C   C3102     1.0  0.40142  0.90445  0.12761  1.0000
  H   H2476     1.0  0.44540  0.53736  0.27162  1.0000
  H   H2477     1.0  0.44145  0.56155  0.29515  1.0000
  H   H2478     1.0  0.56260  0.97253  0.14071  1.0000
  C   C3103     1.0  0.55240  0.69266  0.31658  1.0000
  C   C3104     1.0  0.48992  0.64693  0.28243  1.0000
  C   C3105     1.0  0.50924  0.63330  0.27909  1.0000
  C   C3106     1.0  0.52460  0.63355  0.28937  1.0000
  C   C3107     1.0  0.52090  0.64777  0.30248  1.0000
  C   C3108     1.0  0.50147  0.66121  0.30624  1.0000
  C   C3109     1.0  0.48588  0.66066  0.29618  1.0000
  P   P102      1.0  0.49571  0.67711  0.32571  1.0000
  C   C3110     1.0  0.48113  0.66276  0.34883  1.0000
  C   C3111     1.0  0.51933  0.68131  0.33039  1.0000
  C   C3112     1.0  0.52287  0.67774  0.35082  1.0000
  C   C3113     1.0  0.54136  0.68092  0.35397  1.0000
  C   C3114     1.0  0.53413  0.68908  0.31332  1.0000
  C   C3115     1.0  0.45933  0.66857  0.35428  1.0000
  C   C3116     1.0  0.44817  0.65684  0.37179  1.0000
  C   C3117     1.0  0.45864  0.63912  0.38382  1.0000
  C   C3118     1.0  0.48028  0.63312  0.37839  1.0000
  C   C3119     1.0  0.49148  0.64463  0.36075  1.0000
  C   C3120     1.0  0.48197  0.70305  0.31583  1.0000
  C   C3121     1.0  0.46932  0.71588  0.32967  1.0000
  C   C3122     1.0  0.45879  0.73604  0.32182  1.0000
  C   C3123     1.0  0.46148  0.74377  0.30017  1.0000
  C   C3124     1.0  0.47487  0.73143  0.28637  1.0000
  C   C3125     1.0  0.48503  0.71116  0.29412  1.0000
  H   H2479     1.0  0.47811  0.64682  0.27432  1.0000
  H   H2480     1.0  0.51241  0.62279  0.26832  1.0000
  H   H2481     1.0  0.53956  0.62296  0.28699  1.0000
  H   H2482     1.0  0.53327  0.64842  0.30948  1.0000
  H   H2483     1.0  0.47067  0.67091  0.29880  1.0000
  H   H2484     1.0  0.51168  0.67224  0.36444  1.0000
  H   H2485     1.0  0.54437  0.67725  0.36972  1.0000
  H   H2486     1.0  0.49397  0.81646  0.02463  1.0000
  H   H2487     1.0  0.45085  0.68188  0.34487  1.0000
  H   H2488     1.0  0.43137  0.66137  0.37596  1.0000
  H   H2489     1.0  0.45002  0.62996  0.39734  1.0000
  H   H2490     1.0  0.48839  0.61948  0.38792  1.0000
  H   H2491     1.0  0.50825  0.63942  0.35659  1.0000
  H   H2492     1.0  0.46748  0.71029  0.34648  1.0000
  H   H2493     1.0  0.44839  0.74563  0.33248  1.0000
  H   H2494     1.0  0.45294  0.75917  0.29406  1.0000
  H   H2495     1.0  0.47695  0.73730  0.26960  1.0000
  H   H2496     1.0  0.49523  0.70187  0.28308  1.0000
  H   H2497     1.0  0.48160  0.60116  0.24289  1.0000
  H   H2498     1.0  0.54292  0.78202  0.10052  1.0000
  H   H2499     1.0  0.44169  0.60826  0.47150  1.0000
  P   P103      1.0  0.57462  0.51062  0.40202  1.0000
  C   C3126     1.0  0.58579  0.72689  0.16123  1.0000
  C   C3127     1.0  0.48883  0.84641  0.16837  1.0000
  C   C3128     1.0  0.48445  0.85962  0.14950  1.0000
  C   C3129     1.0  0.56893  0.70242  0.18947  1.0000
  P   P104      1.0  0.56523  0.76016  0.13491  1.0000
  H   H2500     1.0  0.55227  0.51910  0.24238  1.0000
  C   C3130     1.0  0.47967  0.62679  0.48220  1.0000
  C   C3131     1.0  0.40547  0.71859  0.29601  1.0000
  C   C3132     1.0  0.40091  0.64936  0.41286  1.0000
  H   H2501     1.0  0.57768  0.68219  0.15239  1.0000
  C   C3133     1.0  0.46082  0.67265  0.44962  1.0000
  C   C3134     1.0  0.39520  0.84890  0.26679  1.0000
  H   H2502     1.0  0.57841  0.76688  0.17090  1.0000
  C   C3135     1.0  0.56482  0.74114  0.10288  1.0000
  H   H2503     1.0  0.39421  0.91871  0.37425  1.0000
  S   S409      1.0  0.39458  0.50160  0.14623  1.0000
  H   H2504     1.0  0.44738  0.75912  0.99260  1.0000
  C   C3136     1.0  0.56747  0.67289  0.15080  1.0000
  H   H2505     1.0  0.51849  0.59487  0.18322  1.0000
  C   C3137     1.0  0.52381  0.55717  0.31222  1.0000
  C   C3138     1.0  0.57539  0.62840  0.44118  1.0000
  C   C3139     1.0  0.57675  0.88255  0.08168  1.0000
  C   C3140     1.0  0.48860  0.88781  0.01114  1.0000
  C   C3141     1.0  0.49636  0.86691  0.02019  1.0000
  C   C3142     1.0  0.48537  0.85718  0.03927  1.0000
  C   C3143     1.0  0.46655  0.86816  0.04919  1.0000
  C   C3144     1.0  0.45807  0.88834  0.03948  1.0000
  C   C3145     1.0  0.46896  0.89812  0.02044  1.0000
  C   C3146     1.0  0.45494  0.84362  0.15337  1.0000
  C   C3147     1.0  0.54931  0.98474  0.09086  1.0000
  C   C3148     1.0  0.56281  0.85806  0.13083  1.0000
  H   H2506     1.0  0.41060  0.51263  0.30061  1.0000
  S   S410      1.0  0.44972  0.50734  0.24774  1.0000
  C   C3149     1.0  0.52750  0.58724  0.19529  1.0000
  H   H2507     1.0  0.48191  0.56358  0.02183  1.0000
  H   H2508     1.0  0.56334  0.72849  0.07714  1.0000
  H   H2509     1.0  0.48954  0.96153  0.02217  1.0000
  H   H2510     1.0  0.49430  0.92406  0.02174  1.0000
  H   H2511     1.0  0.40377  0.50795  0.38657  1.0000
  C   C3150     1.0  0.40854  0.73985  0.23006  1.0000
  H   H2512     1.0  0.58176  0.85867  0.15179  1.0000
  C   C3151     1.0  0.41860  0.81000  0.01091  1.0000
  C   C3152     1.0  0.57924  0.77858  0.13760  1.0000
  H   H2513     1.0  0.51103  0.85829  0.01271  1.0000
  H   H2514     1.0  0.49163  0.84130  0.04664  1.0000
  H   H2515     1.0  0.45852  0.86115  0.06446  1.0000
  H   H2516     1.0  0.44303  0.89635  0.04678  1.0000
  H   H2517     1.0  0.46208  0.91372  0.01297  1.0000
  P   P105      1.0  0.43684  0.58151  0.02382  1.0000
  H   H2518     1.0  0.58330  0.94415  0.16323  1.0000
  H   H2519     1.0  0.53177  0.69200  0.29743  1.0000
  H   H2520     1.0  0.41150  0.55539  0.20725  1.0000
  C   C3153     1.0  0.55018  0.50423  0.35495  1.0000
  H   H2521     1.0  0.52989  0.88905  0.01864  1.0000
  C   C3154     1.0  0.45293  0.49916  0.22427  1.0000
  C   C3155     1.0  0.44454  0.55464  0.34106  1.0000
  H   H2522     1.0  0.58784  0.62142  0.27453  1.0000
  H   H2523     1.0  0.44149  0.93365  0.06518  1.0000
  H   H2524     1.0  0.39505  0.94657  0.01509  1.0000
  C   C3156     1.0  0.54012  0.53915  0.28348  1.0000
  H   H2525     1.0  0.44197  0.52211  0.34749  1.0000
  H   H2526     1.0  0.39996  0.51989  0.26679  1.0000
  C   C3157     1.0  0.43417  0.57572  0.33654  1.0000
  S   S411      1.0  0.51777  0.94668  0.07951  1.0000
  H   H2527     1.0  0.51486  0.55713  0.32806  1.0000
  C   C3158     1.0  0.52758  0.53951  0.30346  1.0000
  C   C3159     1.0  0.55836  0.91798  0.03633  1.0000
  C   C3160     1.0  0.54436  0.57451  0.28062  1.0000
  C   C3161     1.0  0.50227  0.51685  0.21850  1.0000
  H   H2528     1.0  0.56075  0.57257  0.45116  1.0000
  C   C3162     1.0  0.41425  0.66150  0.47620  1.0000
  C   C3163     1.0  0.56243  0.65607  0.16690  1.0000
  C   C3164     1.0  0.51748  0.54054  0.47940  1.0000
  H   H2529     1.0  0.40795  0.64126  0.28091  1.0000
  H   H2530     1.0  0.39275  0.86019  0.25251  1.0000
  C   C3165     1.0  0.39850  0.93431  0.04748  1.0000
  H   H2531     1.0  0.39656  0.67271  0.35170  1.0000
  C   C3166     1.0  0.40951  0.81419  0.28485  1.0000
  H   H2532     1.0  0.52127  0.52580  0.31226  1.0000
  H   H2533     1.0  0.48100  0.51151  0.07415  1.0000
  H   H2534     1.0  0.44032  0.63588  0.19249  1.0000
  C   C3167     1.0  0.47618  0.83205  0.17973  1.0000
  C   C3168     1.0  0.46072  0.50180  0.46991  1.0000
  C   C3169     1.0  0.47254  0.67644  0.40608  1.0000
  H   H2535     1.0  0.50403  0.67147  0.41031  1.0000
  H   H2536     1.0  0.52682  0.65692  0.01321  1.0000
  H   H2537     1.0  0.40558  0.53021  0.34322  1.0000
  C   C3170     1.0  0.41969  0.85375  0.02709  1.0000
  P   P106      1.0  0.44838  0.59671  0.33030  1.0000
  C   C3171     1.0  0.46930  0.59086  0.34425  1.0000
  C   C3172     1.0  0.45955  0.59912  0.30260  1.0000
  C   C3173     1.0  0.47621  0.58348  0.29572  1.0000
  C   C3174     1.0  0.48432  0.58434  0.27427  1.0000
  C   C3175     1.0  0.47553  0.60060  0.25952  1.0000
  C   C3176     1.0  0.45877  0.61608  0.26624  1.0000
  C   C3177     1.0  0.45091  0.61542  0.28768  1.0000
  C   C3178     1.0  0.48658  0.60050  0.33560  1.0000
  C   C3179     1.0  0.50266  0.59648  0.34650  1.0000
  C   C3180     1.0  0.50149  0.58305  0.36617  1.0000
  C   C3181     1.0  0.43198  0.62073  0.33732  1.0000
  C   C3182     1.0  0.41415  0.62020  0.35349  1.0000
  H   H2538     1.0  0.40967  0.84418  0.03860  1.0000
  C   C3183     1.0  0.40665  0.65822  0.34797  1.0000
  C   C3184     1.0  0.42482  0.65881  0.33246  1.0000
  C   C3185     1.0  0.43757  0.64014  0.32736  1.0000
  H   H2539     1.0  0.48271  0.57044  0.30694  1.0000
  H   H2540     1.0  0.49724  0.57222  0.26910  1.0000
  S   S412      1.0  0.58767  0.62708  0.46156  1.0000
  C   C3186     1.0  0.43104  0.69692  0.27365  1.0000
  C   C3187     1.0  0.54230  0.69765  0.06779  1.0000
  H   H2541     1.0  0.50737  0.80233  0.10020  1.0000
  C   C3188     1.0  0.54847  0.72960  0.16723  1.0000
  S   S413      1.0  0.58529  0.65905  0.28881  1.0000
  H   H2542     1.0  0.40109  0.80832  0.31858  1.0000
  H   H2543     1.0  0.43847  0.93205  0.15959  1.0000
  C   C3189     1.0  0.45532  0.92811  0.15508  1.0000
  C   C3190     1.0  0.57237  0.67790  0.08237  1.0000
  C   C3191     1.0  0.51232  0.79591  0.11506  1.0000
  C   C3192     1.0  0.50525  0.79094  0.15287  1.0000
  H   H2544     1.0  0.42582  0.73431  0.19992  1.0000
  C   C3193     1.0  0.57983  0.91715  0.03138  1.0000
  C   C3194     1.0  0.46751  0.85795  0.14202  1.0000
  C   C3195     1.0  0.49599  0.90245  0.09509  1.0000
  C   C3196     1.0  0.55298  0.55825  0.20954  1.0000
  C   C3197     1.0  0.41311  0.69939  0.28941  1.0000
  H   H2545     1.0  0.50306  0.88895  0.04818  1.0000
  C   C3198     1.0  0.45152  0.67806  0.41594  1.0000
  C   C3199     1.0  0.49682  0.90477  0.07371  1.0000
  Fe  Fe204     1.0  0.58639  0.63200  0.31651  1.0000
  C   C3200     1.0  0.45241  0.85727  0.00269  1.0000
  H   H2546     1.0  0.45572  0.89774  0.15032  1.0000
  H   H2547     1.0  0.42568  0.54785  0.24297  1.0000
  H   H2548     1.0  0.55169  0.87357  0.17738  1.0000
  C   C3201     1.0  0.50628  0.86703  0.07718  1.0000
  S   S414      1.0  0.40583  0.75978  0.29387  1.0000
  H   H2549     1.0  0.53342  0.73669  0.16311  1.0000
  C   C3202     1.0  0.41950  0.62784  0.22203  1.0000
  H   H2550     1.0  0.47644  0.78183  0.05003  1.0000
  H   H2551     1.0  0.50933  0.62892  0.46181  1.0000
  C   C3203     1.0  0.56859  0.51439  0.24330  1.0000
  Fe  Fe205     1.0  0.55151  0.79019  0.05023  1.0000
  H   H2552     1.0  0.40532  0.59620  0.32944  1.0000
  C   C3204     1.0  0.53252  0.78410  0.11531  1.0000
  C   C3205     1.0  0.40370  0.80351  0.21547  1.0000
  H   H2553     1.0  0.51396  0.58013  0.37456  1.0000
  C   C3206     1.0  0.47380  0.80856  0.00876  1.0000
  C   C3207     1.0  0.55543  0.70543  0.04929  1.0000
  C   C3208     1.0  0.52566  0.87174  0.14080  1.0000
  H   H2554     1.0  0.54093  0.86048  0.11202  1.0000
  H   H2555     1.0  0.56254  0.69154  0.12086  1.0000
  H   H2556     1.0  0.51101  0.85335  0.07010  1.0000
  C   C3209     1.0  0.40142  0.80638  0.23593  1.0000
  C   C3210     1.0  0.57186  0.49424  0.42799  1.0000
  C   C3211     1.0  0.49469  0.62422  0.46401  1.0000
  C   C3212     1.0  0.47305  0.55468  0.03529  1.0000
  H   H2557     1.0  0.54877  0.71606  0.03650  1.0000
  C   C3213     1.0  0.40629  0.63500  0.23966  1.0000
  H   H2558     1.0  0.42138  0.61188  0.22025  1.0000
  C   C3214     1.0  0.58697  0.62136  0.42300  1.0000
  H   H2559     1.0  0.40285  0.89142  0.07071  1.0000
  C   C3215     1.0  0.53907  0.77519  0.13442  1.0000
  H   H2560     1.0  0.39639  0.88229  0.02802  1.0000
  C   C3216     1.0  0.53723  0.58717  0.22753  1.0000
  C   C3217     1.0  0.55709  0.53518  0.40595  1.0000
  H   H2561     1.0  0.51563  0.61220  0.21249  1.0000
  H   H2562     1.0  0.40903  0.74886  0.11769  1.0000
  C   C3218     1.0  0.40584  0.87109  0.19417  1.0000
  S   S415      1.0  0.40043  0.83461  0.16374  1.0000
  H   H2563     1.0  0.50066  0.53320  0.04364  1.0000
  P   P107      1.0  0.41815  0.67843  0.45044  1.0000
  Fe  Fe206     1.0  0.39975  0.52750  0.11788  1.0000
  S   S416      1.0  0.57555  0.79706  0.06398  1.0000
  H   H2564     1.0  0.58618  0.61660  0.39281  1.0000
  C   C3219     1.0  0.58552  0.68573  0.06385  1.0000
  C   C3220     1.0  0.52877  0.57386  0.46640  1.0000
  C   C3221     1.0  0.41345  0.77312  0.04054  1.0000
  C   C3222     1.0  0.47219  0.50002  0.44980  1.0000
  H   H2565     1.0  0.42949  0.65599  0.00875  1.0000
  S   S417      1.0  0.59011  0.98285  0.09098  1.0000
  C   C3223     1.0  0.56464  0.55250  0.40677  1.0000
  H   H2566     1.0  0.58872  0.94224  0.08567  1.0000
  H   H2567     1.0  0.57127  0.52424  0.31221  1.0000
  H   H2568     1.0  0.52546  0.59076  0.46425  1.0000
  H   H2569     1.0  0.39525  0.87485  0.45111  1.0000
  C   C3224     1.0  0.55657  0.93234  0.99987  1.0000
  H   H2570     1.0  0.39316  0.87805  0.18587  1.0000
  H   H2571     1.0  0.40639  0.63481  0.40714  1.0000
  H   H2572     1.0  0.58128  0.79541  0.10535  1.0000
  C   C3225     1.0  0.44460  0.87876  0.99663  1.0000
  C   C3226     1.0  0.39361  0.63724  0.29071  1.0000
  C   C3227     1.0  0.41744  0.72161  0.44048  1.0000
  S   S418      1.0  0.39480  0.52639  0.08629  1.0000
  C   C3228     1.0  0.40534  0.64382  0.47985  1.0000
  S   S419      1.0  0.58578  0.83055  0.01923  1.0000
  H   H2573     1.0  0.41623  0.75499  0.43228  1.0000
  H   H2574     1.0  0.58948  0.90097  0.09556  1.0000
  H   H2575     1.0  0.58865  0.91128  0.04379  1.0000
  H   H2576     1.0  0.45865  0.79954  0.98871  1.0000
  H   H2577     1.0  0.39770  0.83910  0.44564  1.0000
  H   H2578     1.0  0.39168  0.72040  0.30830  1.0000
  C   C3229     1.0  0.58355  0.77815  0.15707  1.0000
  C   C3230     1.0  0.40801  0.70526  0.45365  1.0000
  C   C3231     1.0  0.58727  0.95954  0.15797  1.0000
  C   C3232     1.0  0.49566  0.93527  0.00697  1.0000
  C   C3233     1.0  0.40426  0.67264  0.43362  1.0000
  S   S420      1.0  0.58581  0.58653  0.36527  1.0000
  C   C3234     1.0  0.46060  0.62083  0.48484  1.0000
  C   C3235     1.0  0.58375  0.49513  0.44191  1.0000
  H   H2579     1.0  0.41888  0.90463  0.00164  1.0000
  C   C3236     1.0  0.52076  0.66734  0.99998  1.0000
  C   C3237     1.0  0.58513  0.79420  0.12030  1.0000
  C   C3238     1.0  0.58674  0.52727  0.30964  1.0000
  H   H2580     1.0  0.58119  0.55169  0.40468  1.0000
  H   H2581     1.0  0.46793  0.85065  0.99503  1.0000
  Fe  Fe207     1.0  0.39448  0.59293  0.42641  1.0000
  H   H2582     1.0  0.58719  0.70582  0.03307  1.0000
  C   C3239     1.0  0.58972  0.92466  0.01075  1.0000
  C   C3240     1.0  0.47325  0.80062  0.99157  1.0000
  H   H2583     1.0  0.58957  0.56078  0.27530  1.0000
  P   P108      1.0  0.39158  0.61757  0.25944  1.0000
  C   C3241     1.0  0.42093  0.58223  0.98914  1.0000
  Fe  Fe208     1.0  0.54569  0.64139  0.53162  1.0000
  S   S421      1.0  0.57092  0.61451  0.52234  1.0000
  S   S422      1.0  0.54846  0.65867  0.55554  1.0000
  Fe  Fe209     1.0  0.51605  0.63341  0.50728  1.0000
  C   C3242     1.0  0.39363  0.80013  0.91741  1.0000
  C   C3243     1.0  0.56145  0.59483  0.57799  1.0000
  Fe  Fe210     1.0  0.54508  0.59698  0.52889  1.0000
  S   S423      1.0  0.54929  0.56260  0.54349  1.0000
  C   C3244     1.0  0.52360  0.50530  0.52220  1.0000
  S   S424      1.0  0.52026  0.62272  0.54074  1.0000
  S   S425      1.0  0.41272  0.94541  0.96916  1.0000
  C   C3245     1.0  0.51479  0.71601  0.92503  1.0000
  H   H2584     1.0  0.40736  0.85058  0.83585  1.0000
  H   H2585     1.0  0.47535  0.88414  0.92184  1.0000
  P   P109      1.0  0.49786  0.52530  0.49362  1.0000
  H   H2586     1.0  0.47504  0.92716  0.95919  1.0000
  H   H2587     1.0  0.40048  0.52225  0.49279  1.0000
  S   S426      1.0  0.57504  0.77782  0.91072  1.0000
  H   H2588     1.0  0.45388  0.88837  0.98432  1.0000
  C   C3246     1.0  0.56195  0.96163  0.93130  1.0000
  C   C3247     1.0  0.47484  0.90770  0.93867  1.0000
  C   C3248     1.0  0.45720  0.69976  0.91049  1.0000
  H   H2589     1.0  0.39592  0.51529  0.58294  1.0000
  C   C3249     1.0  0.47555  0.75501  0.93540  1.0000
  H   H2590     1.0  0.45925  0.51120  0.49853  1.0000
  H   H2591     1.0  0.51899  0.79737  0.79105  1.0000
  C   C3250     1.0  0.56563  0.98416  0.79518  1.0000
  P   P110      1.0  0.59130  0.94690  0.89775  1.0000
  H   H2592     1.0  0.41093  0.93711  0.80044  1.0000
  Fe  Fe211     1.0  0.52252  0.80869  0.86436  1.0000
  S   S427      1.0  0.54030  0.82443  0.87748  1.0000
  S   S428      1.0  0.48752  0.81389  0.87173  1.0000
  Fe  Fe212     1.0  0.56164  0.78672  0.83829  1.0000
  Fe  Fe213     1.0  0.55947  0.83016  0.84482  1.0000
  C   C3251     1.0  0.51051  0.50269  0.51029  1.0000
  S   S429      1.0  0.54268  0.77655  0.87026  1.0000
  S   S430      1.0  0.53962  0.81741  0.83121  1.0000
  H   H2593     1.0  0.44817  0.98209  0.90184  1.0000
  Fe  Fe214     1.0  0.41545  0.87829  0.94647  1.0000
  C   C3252     1.0  0.46342  0.77418  0.93980  1.0000
  S   S431      1.0  0.43865  0.84814  0.95348  1.0000
  H   H2594     1.0  0.40516  0.62592  0.53197  1.0000
  C   C3253     1.0  0.39723  0.98189  0.89309  1.0000
  S   S432      1.0  0.42785  0.90686  0.92849  1.0000
  Fe  Fe215     1.0  0.51705  0.95115  0.76464  1.0000
  S   S433      1.0  0.52993  0.95860  0.78854  1.0000
  S   S434      1.0  0.53244  0.92016  0.75502  1.0000
  S   S435      1.0  0.53960  0.60646  0.49619  1.0000
  Fe  Fe216     1.0  0.49692  0.96714  0.80483  1.0000
  H   H2595     1.0  0.50945  0.71931  0.97822  1.0000
  H   H2596     1.0  0.53972  0.97252  0.95751  1.0000
  S   S436      1.0  0.48388  0.95733  0.78233  1.0000
  C   C3254     1.0  0.42220  0.96690  0.95192  1.0000
  H   H2597     1.0  0.54911  0.85232  0.80235  1.0000
  C   C3255     1.0  0.49933  0.96500  0.96941  1.0000
  C   C3256     1.0  0.53631  0.94936  0.86767  1.0000
  H   H2598     1.0  0.39450  0.84933  0.96548  1.0000
  S   S437      1.0  0.58256  0.79992  0.85023  1.0000
  C   C3257     1.0  0.55716  0.81803  0.96077  1.0000
  C   C3258     1.0  0.58446  0.66631  0.91711  1.0000
  H   H2599     1.0  0.47463  0.83330  0.83312  1.0000
  S   S438      1.0  0.53886  0.65511  0.49917  1.0000
  C   C3259     1.0  0.50083  0.87614  0.96160  1.0000
  H   H2600     1.0  0.43850  0.98767  0.80128  1.0000
  P   P111      1.0  0.50337  0.90122  0.98753  1.0000
  S   S439      1.0  0.46680  0.53161  0.59511  1.0000
  C   C3260     1.0  0.47515  0.54117  0.52941  1.0000
  C   C3261     1.0  0.44015  0.98304  0.91779  1.0000
  C   C3262     1.0  0.45312  0.77568  0.96034  1.0000
  H   H2601     1.0  0.55331  0.64226  0.66944  1.0000
  S   S440      1.0  0.39258  0.56261  0.50371  1.0000
  H   H2602     1.0  0.40837  0.58338  0.96247  1.0000
  S   S441      1.0  0.40482  0.92577  0.87824  1.0000
  H   H2603     1.0  0.57870  0.96060  0.81929  1.0000
  H   H2604     1.0  0.42811  0.63161  0.98693  1.0000
  H   H2605     1.0  0.55706  0.92435  0.91043  1.0000
  H   H2606     1.0  0.44411  0.80045  0.89185  1.0000
  C   C3263     1.0  0.41931  0.73151  0.97457  1.0000
  H   H2607     1.0  0.51070  0.86363  0.97052  1.0000
  C   C3264     1.0  0.42888  0.93370  0.86794  1.0000
  C   C3265     1.0  0.43825  0.94074  0.88039  1.0000
  C   C3266     1.0  0.45700  0.94784  0.87187  1.0000
  C   C3267     1.0  0.46629  0.94833  0.85070  1.0000
  C   C3268     1.0  0.45693  0.94128  0.83825  1.0000
  C   C3269     1.0  0.43832  0.93391  0.84688  1.0000
  C   C3270     1.0  0.44549  0.56944  0.50819  1.0000
  H   H2608     1.0  0.46401  0.95346  0.88157  1.0000
  H   H2609     1.0  0.46403  0.94134  0.82204  1.0000
  H   H2610     1.0  0.43133  0.92819  0.83728  1.0000
  C   C3271     1.0  0.56185  0.87583  0.80855  1.0000
  C   C3272     1.0  0.55102  0.86835  0.79777  1.0000
  C   C3273     1.0  0.54265  0.88172  0.78083  1.0000
  C   C3274     1.0  0.54480  0.90272  0.77480  1.0000
  C   C3275     1.0  0.55650  0.90979  0.78493  1.0000
  C   C3276     1.0  0.56495  0.89648  0.80175  1.0000
  C   C3277     1.0  0.40110  0.97074  0.74885  1.0000
  H   H2611     1.0  0.53421  0.87584  0.77272  1.0000
  H   H2612     1.0  0.55940  0.92547  0.77959  1.0000
  H   H2613     1.0  0.57360  0.90230  0.80971  1.0000
  C   C3278     1.0  0.54555  0.82243  0.94516  1.0000
  C   C3279     1.0  0.55064  0.80980  0.93019  1.0000
  H   H2614     1.0  0.53241  0.83548  0.94480  1.0000
  H   H2615     1.0  0.54099  0.81287  0.91889  1.0000
  C   C3280     1.0  0.47522  0.82512  0.89376  1.0000
  C   C3281     1.0  0.45496  0.83710  0.89462  1.0000
  C   C3282     1.0  0.44395  0.84475  0.91270  1.0000
  C   C3283     1.0  0.45304  0.84008  0.93022  1.0000
  C   C3284     1.0  0.47346  0.82838  0.92931  1.0000
  C   C3285     1.0  0.48468  0.82110  0.91099  1.0000
  H   H2616     1.0  0.44767  0.84015  0.88133  1.0000
  H   H2617     1.0  0.42820  0.85375  0.91329  1.0000
  H   H2618     1.0  0.48059  0.82495  0.94277  1.0000
  H   H2619     1.0  0.50031  0.81175  0.91048  1.0000
  S   S442      1.0  0.57669  0.77047  0.81119  1.0000
  H   H2620     1.0  0.51411  0.69100  0.91040  1.0000
  C   C3286     1.0  0.44564  0.68593  0.92506  1.0000
  H   H2621     1.0  0.46134  0.97169  0.70226  1.0000
  S   S443      1.0  0.48349  0.63959  0.50053  1.0000
  H   H2622     1.0  0.58949  0.68704  0.58810  1.0000
  C   C3287     1.0  0.51442  0.65918  0.98605  1.0000
  C   C3288     1.0  0.58131  0.97363  0.80639  1.0000
  H   H2623     1.0  0.47984  0.71879  0.90529  1.0000
  Fe  Fe217     1.0  0.40587  0.92335  0.95295  1.0000
  C   C3289     1.0  0.49369  0.87177  0.94573  1.0000
  C   C3290     1.0  0.57032  0.70995  0.83394  1.0000
  C   C3291     1.0  0.56791  0.73171  0.83198  1.0000
  C   C3292     1.0  0.55514  0.97253  0.94778  1.0000
  H   H2624     1.0  0.48322  0.75415  0.91932  1.0000
  H   H2625     1.0  0.49937  0.89842  0.77289  1.0000
  H   H2626     1.0  0.56186  0.70090  0.84754  1.0000
  H   H2627     1.0  0.55760  0.73951  0.84409  1.0000
  H   H2628     1.0  0.52514  0.79015  0.97046  1.0000
  H   H2629     1.0  0.55140  0.59199  0.56923  1.0000
  H   H2630     1.0  0.45506  0.70444  0.89440  1.0000
  P   P112      1.0  0.49225  0.71221  0.94553  1.0000
  H   H2631     1.0  0.43913  0.98872  0.60173  1.0000
  C   C3293     1.0  0.56722  0.65737  0.91955  1.0000
  H   H2632     1.0  0.49498  0.79930  0.82551  1.0000
  H   H2633     1.0  0.49125  0.78752  0.96480  1.0000
  C   C3294     1.0  0.57963  0.51302  0.52292  1.0000
  C   C3295     1.0  0.48982  0.53995  0.58082  1.0000
  C   C3296     1.0  0.50806  0.52543  0.57526  1.0000
  C   C3297     1.0  0.52635  0.53248  0.56395  1.0000
  C   C3298     1.0  0.52625  0.55405  0.55762  1.0000
  C   C3299     1.0  0.50789  0.56848  0.56288  1.0000
  C   C3300     1.0  0.48980  0.56146  0.57471  1.0000
  H   H2634     1.0  0.50812  0.50881  0.58001  1.0000
  H   H2635     1.0  0.54053  0.52121  0.56016  1.0000
  H   H2636     1.0  0.50756  0.58508  0.55808  1.0000
  H   H2637     1.0  0.47568  0.57274  0.57888  1.0000
  C   C3301     1.0  0.57157  0.66585  0.55659  1.0000
  C   C3302     1.0  0.57201  0.67357  0.57399  1.0000
  C   C3303     1.0  0.56725  0.61474  0.60059  1.0000
  H   H2638     1.0  0.42613  0.92587  0.76471  1.0000
  H   H2639     1.0  0.45487  0.93936  0.73782  1.0000
  C   C3304     1.0  0.41235  0.86669  0.85745  1.0000
  H   H2640     1.0  0.55849  0.67448  0.58669  1.0000
  H   H2641     1.0  0.40231  0.82227  0.94449  1.0000
  C   C3305     1.0  0.51080  0.79559  0.98091  1.0000
  H   H2642     1.0  0.52499  0.52090  0.52266  1.0000
  H   H2643     1.0  0.56696  0.52615  0.52596  1.0000
  C   C3306     1.0  0.48312  0.62121  0.97940  1.0000
  H   H2644     1.0  0.47232  0.98029  0.73104  1.0000
  H   H2645     1.0  0.43455  0.67979  0.92039  1.0000
  H   H2646     1.0  0.39821  0.86417  0.86885  1.0000
  C   C3307     1.0  0.47666  0.54179  0.50808  1.0000
  C   C3308     1.0  0.41306  0.53483  0.53303  1.0000
  C   C3309     1.0  0.44800  0.68034  0.94589  1.0000
  C   C3310     1.0  0.50589  0.67273  0.96942  1.0000
  C   C3311     1.0  0.41764  0.81075  0.87699  1.0000
  C   C3312     1.0  0.41970  0.73534  0.95313  1.0000
  C   C3313     1.0  0.57866  0.74337  0.81410  1.0000
  C   C3314     1.0  0.58380  0.49590  0.53916  1.0000
  H   H2647     1.0  0.43071  0.94146  0.89638  1.0000
  H   H2648     1.0  0.39803  0.96603  0.90227  1.0000
  H   H2649     1.0  0.39564  0.61715  0.50244  1.0000
  C   C3315     1.0  0.42729  0.80279  0.89418  1.0000
  H   H2650     1.0  0.52216  0.82991  0.76403  1.0000
  H   H2651     1.0  0.48776  0.60025  0.95840  1.0000
  H   H2652     1.0  0.41092  0.98670  0.97475  1.0000
  C   C3316     1.0  0.55441  0.61095  0.58925  1.0000
  C   C3317     1.0  0.40734  0.63602  0.51654  1.0000
  C   C3318     1.0  0.49172  0.79396  0.97784  1.0000
  C   C3319     1.0  0.48092  0.88761  0.93409  1.0000
  C   C3320     1.0  0.54370  0.73387  0.90903  1.0000
  C   C3321     1.0  0.41535  0.79780  0.91432  1.0000
  H   H2653     1.0  0.45781  0.55437  0.55631  1.0000
  C   C3322     1.0  0.46207  0.68827  0.95220  1.0000
  C   C3323     1.0  0.58203  0.96151  0.91869  1.0000
  H   H2654     1.0  0.50027  0.97662  0.95490  1.0000
  H   H2655     1.0  0.42704  0.81462  0.86143  1.0000
  H   H2656     1.0  0.43528  0.95119  0.92598  1.0000
  Fe  Fe218     1.0  0.56154  0.79281  0.88171  1.0000
  C   C3324     1.0  0.39598  0.81361  0.87993  1.0000
  C   C3325     1.0  0.42561  0.97952  0.80689  1.0000
  H   H2657     1.0  0.50202  0.86406  0.77129  1.0000
  H   H2658     1.0  0.56847  0.61282  0.65087  1.0000
  C   C3326     1.0  0.41594  0.65372  0.51315  1.0000
  C   C3327     1.0  0.48127  0.91192  0.95504  1.0000
  H   H2659     1.0  0.51594  0.64235  0.98837  1.0000
  C   C3328     1.0  0.57495  0.65822  0.88222  1.0000
  C   C3329     1.0  0.40205  0.63107  0.49989  1.0000
  H   H2660     1.0  0.46383  0.57833  0.98242  1.0000
  C   C3330     1.0  0.46716  0.73875  0.97220  1.0000
  H   H2661     1.0  0.42313  0.79177  0.92746  1.0000
  H   H2662     1.0  0.57455  0.49581  0.55489  1.0000
  C   C3331     1.0  0.47978  0.60403  0.97352  1.0000
  S   S444      1.0  0.42536  0.98843  0.68392  1.0000
  H   H2663     1.0  0.58597  0.92258  0.74752  1.0000
  C   C3332     1.0  0.57002  0.94806  0.88551  1.0000
  S   S445      1.0  0.39855  0.63259  0.96216  1.0000
  H   H2664     1.0  0.42550  0.59721  0.98249  1.0000
  H   H2665     1.0  0.46470  0.91994  0.92986  1.0000
  C   C3333     1.0  0.58723  0.60213  0.60096  1.0000
  C   C3334     1.0  0.42648  0.96182  0.79910  1.0000
  C   C3335     1.0  0.47445  0.70141  0.93744  1.0000
  C   C3336     1.0  0.52604  0.73102  0.92473  1.0000
  H   H2666     1.0  0.52118  0.74056  0.93658  1.0000
  C   C3337     1.0  0.46605  0.59174  0.98710  1.0000
  C   C3338     1.0  0.58952  0.84184  0.92050  1.0000
  H   H2667     1.0  0.49785  0.85605  0.94257  1.0000
  H   H2668     1.0  0.57141  0.65507  0.86859  1.0000
  C   C3339     1.0  0.45515  0.75801  0.97658  1.0000
  H   H2669     1.0  0.41118  0.54810  0.54013  1.0000
  H   H2670     1.0  0.44460  0.98958  0.84443  1.0000
  C   C3340     1.0  0.45899  0.55478  0.53990  1.0000
  H   H2671     1.0  0.53799  0.89227  0.95225  1.0000
  H   H2672     1.0  0.57951  0.73449  0.93708  1.0000
  Fe  Fe219     1.0  0.46684  0.49889  0.59313  1.0000
  C   C3341     1.0  0.56785  0.79311  0.93019  1.0000
  C   C3342     1.0  0.55545  0.93511  0.89565  1.0000
  H   H2673     1.0  0.42171  0.88320  0.87590  1.0000
  H   H2674     1.0  0.43108  0.51336  0.55470  1.0000
  C   C3343     1.0  0.41659  0.64597  0.98748  1.0000
  H   H2675     1.0  0.55759  0.65353  0.93498  1.0000
  S   S446      1.0  0.57170  0.85998  0.83052  1.0000
  H   H2676     1.0  0.50685  0.93897  0.95398  1.0000
  C   C3344     1.0  0.44427  0.56897  0.52930  1.0000
  H   H2677     1.0  0.56806  0.67459  0.65809  1.0000
  C   C3345     1.0  0.47136  0.70770  0.91669  1.0000
  H   H2678     1.0  0.46202  0.78791  0.92723  1.0000
  H   H2679     1.0  0.57589  0.53358  0.56646  1.0000
  C   C3346     1.0  0.58827  0.98317  0.93954  1.0000
  C   C3347     1.0  0.45176  0.98421  0.70996  1.0000
  C   C3348     1.0  0.41116  0.57440  0.97770  1.0000
  H   H2680     1.0  0.43370  0.89916  0.79595  1.0000
  H   H2681     1.0  0.58368  0.71064  0.91320  1.0000
  C   C3349     1.0  0.52196  0.70331  0.90998  1.0000
  H   H2682     1.0  0.52339  0.94980  0.86069  1.0000
  C   C3350     1.0  0.53870  0.93579  0.88677  1.0000
  H   H2683     1.0  0.54925  0.64623  0.90397  1.0000
  C   C3351     1.0  0.42607  0.49775  0.53268  1.0000
  H   H2684     1.0  0.50136  0.66617  0.95857  1.0000
  H   H2685     1.0  0.46808  0.72512  0.98491  1.0000
  H   H2686     1.0  0.42054  0.65728  0.52595  1.0000
  C   C3352     1.0  0.54421  0.88908  0.96628  1.0000
  C   C3353     1.0  0.41906  0.98562  0.95886  1.0000
  C   C3354     1.0  0.39942  0.98556  0.87136  1.0000
  C   C3355     1.0  0.40056  0.65052  0.97632  1.0000
  H   H2687     1.0  0.55223  0.74560  0.90881  1.0000
  H   H2688     1.0  0.53907  0.62087  0.58880  1.0000
  H   H2689     1.0  0.58689  0.57041  0.56869  1.0000
  H   H2690     1.0  0.41659  0.96906  0.73908  1.0000
  C   C3356     1.0  0.41008  0.95099  0.80617  1.0000
  H   H2691     1.0  0.43176  0.57938  0.53753  1.0000
  C   C3357     1.0  0.56624  0.64356  0.65614  1.0000
  C   C3358     1.0  0.47765  0.73717  0.95162  1.0000
  C   C3359     1.0  0.43275  0.96561  0.93136  1.0000
  H   H2692     1.0  0.58197  0.84851  0.87104  1.0000
  S   S447      1.0  0.58667  0.67251  0.82122  1.0000
  H   H2693     1.0  0.43860  0.67010  0.95721  1.0000
  H   H2694     1.0  0.54447  0.69708  0.88215  1.0000
  C   C3360     1.0  0.41726  0.50027  0.51530  1.0000
  H   H2695     1.0  0.39593  0.54991  0.97766  1.0000
  H   H2696     1.0  0.55047  0.98034  0.80061  1.0000
  Fe  Fe220     1.0  0.40036  0.91452  0.91322  1.0000
  C   C3361     1.0  0.55016  0.72187  0.89347  1.0000
  C   C3362     1.0  0.40712  0.52024  0.50628  1.0000
  H   H2697     1.0  0.56356  0.72440  0.88099  1.0000
  C   C3363     1.0  0.53936  0.70652  0.89405  1.0000
  C   C3364     1.0  0.57443  0.66180  0.64971  1.0000
  C   C3365     1.0  0.57408  0.80097  0.96123  1.0000
  H   H2698     1.0  0.46302  0.68431  0.96863  1.0000
  H   H2699     1.0  0.40751  0.75588  0.92715  1.0000
  H   H2700     1.0  0.49150  0.92544  0.74209  1.0000
  C   C3366     1.0  0.57487  0.62694  0.64557  1.0000
  C   C3367     1.0  0.56565  0.88183  0.96496  1.0000
  H   H2701     1.0  0.52758  0.92572  0.89458  1.0000
  C   C3368     1.0  0.50317  0.69459  0.96695  1.0000
  H   H2702     1.0  0.54888  0.97242  0.84249  1.0000
  H   H2703     1.0  0.43994  0.95644  0.78764  1.0000
  S   S448      1.0  0.48887  0.95893  0.84005  1.0000
  H   H2704     1.0  0.56151  0.62766  0.60876  1.0000
  C   C3369     1.0  0.42415  0.51510  0.54141  1.0000
  C   C3370     1.0  0.41755  0.85901  0.83894  1.0000
  C   C3371     1.0  0.55075  0.96212  0.85740  1.0000
  C   C3372     1.0  0.42554  0.87750  0.86142  1.0000
  C   C3373     1.0  0.44392  0.88070  0.84695  1.0000
  C   C3374     1.0  0.44943  0.87275  0.82848  1.0000
  C   C3375     1.0  0.43607  0.86193  0.82454  1.0000
  P   P113      1.0  0.47321  0.87660  0.80962  1.0000
  C   C3376     1.0  0.46725  0.89645  0.78678  1.0000
  C   C3377     1.0  0.49033  0.88340  0.82244  1.0000
  C   C3378     1.0  0.49640  0.90291  0.81595  1.0000
  C   C3379     1.0  0.50951  0.90784  0.82619  1.0000
  C   C3380     1.0  0.51630  0.89358  0.84332  1.0000
  C   C3381     1.0  0.50990  0.87438  0.85027  1.0000
  C   C3382     1.0  0.49715  0.86920  0.83980  1.0000
  C   C3383     1.0  0.48332  0.90410  0.77127  1.0000
  C   C3384     1.0  0.47886  0.91953  0.75377  1.0000
  C   C3385     1.0  0.45826  0.92741  0.75143  1.0000
  C   C3386     1.0  0.44210  0.91982  0.76663  1.0000
  C   C3387     1.0  0.44652  0.90452  0.78430  1.0000
  C   C3388     1.0  0.48654  0.85147  0.80280  1.0000
  C   C3389     1.0  0.49997  0.85019  0.78322  1.0000
  C   C3390     1.0  0.51147  0.83073  0.77896  1.0000
  C   C3391     1.0  0.50964  0.81237  0.79414  1.0000
  C   C3392     1.0  0.49608  0.81344  0.81350  1.0000
  C   C3393     1.0  0.48459  0.83285  0.81780  1.0000
  H   H2705     1.0  0.55154  0.95324  0.92862  1.0000
  H   H2706     1.0  0.57551  0.87882  0.95022  1.0000
  H   H2707     1.0  0.42940  0.72417  0.94384  1.0000
  H   H2708     1.0  0.45382  0.88918  0.85044  1.0000
  H   H2709     1.0  0.44006  0.85572  0.81034  1.0000
  H   H2710     1.0  0.49109  0.91445  0.80311  1.0000
  H   H2711     1.0  0.51441  0.92276  0.82087  1.0000
  H   H2712     1.0  0.52659  0.89738  0.85112  1.0000
  H   H2713     1.0  0.51484  0.86349  0.86376  1.0000
  H   H2714     1.0  0.49243  0.85422  0.84547  1.0000
  C   C3394     1.0  0.58981  0.84337  0.88417  1.0000
  C   C3395     1.0  0.56251  0.65326  0.90212  1.0000
  H   H2715     1.0  0.48637  0.53043  0.53803  1.0000
  C   C3396     1.0  0.58376  0.69978  0.81830  1.0000
  C   C3397     1.0  0.40727  0.75339  0.94374  1.0000
  C   C3398     1.0  0.50259  0.94369  0.96898  1.0000
  C   C3399     1.0  0.56831  0.98324  0.95192  1.0000
  C   C3400     1.0  0.41932  0.66645  0.49311  1.0000
  C   C3401     1.0  0.39556  0.98308  0.76402  1.0000
  H   H2716     1.0  0.44907  0.62242  0.49902  1.0000
  H   H2717     1.0  0.56389  0.85812  0.90526  1.0000
  C   C3402     1.0  0.58959  0.68065  0.57487  1.0000
  C   C3403     1.0  0.58913  0.66478  0.54024  1.0000
  Fe  Fe221     1.0  0.56270  0.62689  0.49069  1.0000
  S   S449      1.0  0.55057  0.83472  0.97882  1.0000
  C   C3404     1.0  0.49501  0.89639  0.96610  1.0000
  C   C3405     1.0  0.46175  0.55612  0.49755  1.0000
  C   C3406     1.0  0.40817  0.98652  0.82174  1.0000
  S   S450      1.0  0.51470  0.98362  0.74420  1.0000
  H   H2718     1.0  0.42606  0.68005  0.49084  1.0000
  C   C3407     1.0  0.57416  0.87746  0.98284  1.0000
  H   H2719     1.0  0.58532  0.93765  0.97884  1.0000
  C   C3408     1.0  0.39260  0.95801  0.82078  1.0000
  C   C3409     1.0  0.57946  0.78858  0.94590  1.0000
  H   H2720     1.0  0.58889  0.65899  0.52673  1.0000
  C   C3410     1.0  0.45798  0.98907  0.72621  1.0000
  H   H2721     1.0  0.40270  0.97219  0.86412  1.0000
  H   H2722     1.0  0.58814  0.66899  0.93083  1.0000
  H   H2723     1.0  0.59072  0.87130  0.98196  1.0000
  Fe  Fe222     1.0  0.48276  0.99053  0.76464  1.0000
  H   H2724     1.0  0.57900  0.97090  0.85736  1.0000
  H   H2725     1.0  0.49365  0.63074  0.96879  1.0000
  H   H2726     1.0  0.58157  0.84590  0.93552  1.0000
  H   H2727     1.0  0.54751  0.93786  0.98771  1.0000
  C   C3411     1.0  0.56770  0.96136  0.86609  1.0000
  C   C3412     1.0  0.40502  0.53755  0.51512  1.0000
  H   H2728     1.0  0.42884  0.71737  0.98187  1.0000
  C   C3413     1.0  0.39371  0.76374  0.97741  1.0000
  C   C3414     1.0  0.58152  0.58264  0.57775  1.0000
  H   H2729     1.0  0.43375  0.58005  0.50012  1.0000
  C   C3415     1.0  0.49986  0.92875  0.98781  1.0000
  H   H2730     1.0  0.58341  0.79773  0.97296  1.0000
  C   C3416     1.0  0.40622  0.74561  0.98675  1.0000
  S   S451      1.0  0.39581  0.89402  0.97249  1.0000
  H   H2731     1.0  0.44369  0.79058  0.96364  1.0000
  C   C3417     1.0  0.53100  0.89141  0.98569  1.0000
  C   C3418     1.0  0.40408  0.55562  0.98629  1.0000
  C   C3419     1.0  0.51059  0.70255  0.98032  1.0000
  C   C3420     1.0  0.39455  0.76798  0.95572  1.0000
  H   H2732     1.0  0.58892  0.52688  0.49044  1.0000
  C   C3421     1.0  0.57962  0.84883  0.90343  1.0000
  Fe  Fe223     1.0  0.52587  0.99129  0.76951  1.0000
  C   C3422     1.0  0.59106  0.66354  0.63257  1.0000
  H   H2733     1.0  0.40683  0.99098  0.76598  1.0000
  H   H2734     1.0  0.56317  0.99143  0.96484  1.0000
  C   C3423     1.0  0.39147  0.97598  0.82818  1.0000
  H   H2735     1.0  0.59110  0.52289  0.61942  1.0000
  C   C3424     1.0  0.49456  0.97138  0.98858  1.0000
  S   S452      1.0  0.76114  0.27872  0.03131  1.0000
  Fe  Fe224     1.0  0.76058  0.31045  0.03618  1.0000
  S   S453      1.0  0.76084  0.31247  0.06875  1.0000
  Fe  Fe225     1.0  0.68206  0.36435  0.14525  1.0000
  S   S454      1.0  0.68950  0.32911  0.15281  1.0000
  S   S455      1.0  0.69033  0.37973  0.11112  1.0000
  Fe  Fe226     1.0  0.66368  0.36722  0.19111  1.0000
  S   S456      1.0  0.67002  0.33223  0.20192  1.0000
  S   S457      1.0  0.64712  0.38767  0.21475  1.0000
  Fe  Fe227     1.0  0.70085  0.33328  0.17966  1.0000
  S   S458      1.0  0.73144  0.31515  0.18823  1.0000
  Fe  Fe228     1.0  0.65793  0.33189  0.17381  1.0000
  S   S459      1.0  0.63692  0.30935  0.17756  1.0000
  S   S460      1.0  0.69535  0.36851  0.17093  1.0000
  S   S461      1.0  0.64937  0.36690  0.16441  1.0000
  S   S462      1.0  0.65550  0.41815  0.33476  1.0000
  H   H2736     1.0  0.62144  0.21563  0.00471  1.0000
  C   C3425     1.0  0.67622  0.34277  0.03284  1.0000
  Fe  Fe229     1.0  0.72356  0.37132  0.46081  1.0000
  S   S463      1.0  0.72729  0.39920  0.43445  1.0000
  H   H2737     1.0  0.63949  0.28741  0.27443  1.0000
  H   H2738     1.0  0.63826  0.03047  0.30652  1.0000
  H   H2739     1.0  0.75997  0.01156  0.13915  1.0000
  C   C3426     1.0  0.62624  0.28027  0.23269  1.0000
  H   H2740     1.0  0.65180  0.48948  0.39055  1.0000
  C   C3427     1.0  0.59379  0.35109  0.22016  1.0000
  Fe  Fe230     1.0  0.75731  0.10536  0.33128  1.0000
  S   S464      1.0  0.75921  0.11547  0.29661  1.0000
  S   S465      1.0  0.72558  0.10441  0.35145  1.0000
  H   H2741     1.0  0.59516  0.46790  0.30777  1.0000
  C   C3428     1.0  0.75041  0.01890  0.02915  1.0000
  Fe  Fe231     1.0  0.78159  0.13428  0.29794  1.0000
  C   C3429     1.0  0.64920  0.34831  0.45213  1.0000
  S   S466      1.0  0.78307  0.07696  0.32887  1.0000
  S   S467      1.0  0.77710  0.12678  0.33301  1.0000
  C   C3430     1.0  0.66311  0.04474  0.30728  1.0000
  C   C3431     1.0  0.69479  0.46572  0.38669  1.0000
  C   C3432     1.0  0.72789  0.48674  0.19384  1.0000
  H   H2742     1.0  0.75668  0.17373  0.41794  1.0000
  S   S468      1.0  0.74077  0.47413  0.46708  1.0000
  S   S469      1.0  0.75660  0.24585  0.31881  1.0000
  H   H2743     1.0  0.69185  0.06064  0.06917  1.0000
  H   H2744     1.0  0.70288  0.17206  0.35532  1.0000
  H   H2745     1.0  0.73753  0.40083  0.47328  1.0000
  Fe  Fe232     1.0  0.67726  0.04623  0.21543  1.0000
  S   S470      1.0  0.64390  0.04948  0.23328  1.0000
  S   S471      1.0  0.70140  0.06101  0.22020  1.0000
  C   C3433     1.0  0.73980  0.01716  0.32982  1.0000
  C   C3434     1.0  0.70895  0.44130  0.22005  1.0000
  H   H2746     1.0  0.63445  0.13529  0.16584  1.0000
  C   C3435     1.0  0.67902  0.00468  0.04093  1.0000
  S   S472      1.0  0.62685  0.23448  0.12227  1.0000
  Fe  Fe233     1.0  0.64378  0.22295  0.09300  1.0000
  S   S473      1.0  0.67873  0.21454  0.08541  1.0000
  Fe  Fe234     1.0  0.64605  0.17090  0.29122  1.0000
  S   S474      1.0  0.66761  0.18109  0.30509  1.0000
  S   S475      1.0  0.65383  0.14581  0.27230  1.0000
  C   C3436     1.0  0.68456  0.25662  0.03045  1.0000
  C   C3437     1.0  0.69094  0.34653  0.99541  1.0000
  H   H2747     1.0  0.63896  0.27529  0.22031  1.0000
  C   C3438     1.0  0.62011  0.38978  0.42323  1.0000
  H   H2748     1.0  0.65718  0.34075  0.26257  1.0000
  H   H2749     1.0  0.64703  0.00638  0.05732  1.0000
  H   H2750     1.0  0.60659  0.12718  0.24233  1.0000
  H   H2751     1.0  0.62515  0.31303  0.21953  1.0000
  C   C3439     1.0  0.63648  0.06547  0.25207  1.0000
  C   C3440     1.0  0.64567  0.08261  0.24964  1.0000
  C   C3441     1.0  0.63820  0.09607  0.26409  1.0000
  C   C3442     1.0  0.62177  0.09226  0.28107  1.0000
  P   P114      1.0  0.62104  0.38633  0.45046  1.0000
  C   C3443     1.0  0.62028  0.06150  0.26931  1.0000
  H   H2752     1.0  0.65814  0.08583  0.23634  1.0000
  H   H2753     1.0  0.64511  0.10943  0.26207  1.0000
  C   C3444     1.0  0.72037  0.48284  0.29237  1.0000
  C   C3445     1.0  0.77439  0.05865  0.26389  1.0000
  C   C3446     1.0  0.76867  0.06418  0.24424  1.0000
  C   C3447     1.0  0.75710  0.05223  0.23898  1.0000
  C   C3448     1.0  0.65057  0.04414  0.08441  1.0000
  H   H2754     1.0  0.75311  0.05648  0.22366  1.0000
  C   C3449     1.0  0.77271  0.18681  0.29135  1.0000
  Fe  Fe235     1.0  0.60464  0.22749  0.07726  1.0000
  Fe  Fe236     1.0  0.78663  0.08886  0.29407  1.0000
  C   C3450     1.0  0.76265  0.22246  0.30934  1.0000
  C   C3451     1.0  0.74817  0.21801  0.30040  1.0000
  C   C3452     1.0  0.75325  0.20036  0.29121  1.0000
  H   H2755     1.0  0.61722  0.14469  0.11033  1.0000
  C   C3453     1.0  0.75259  0.13504  0.09676  1.0000
  H   H2756     1.0  0.73314  0.22841  0.30029  1.0000
  H   H2757     1.0  0.74214  0.19726  0.28395  1.0000
  C   C3454     1.0  0.70920  0.12575  0.33891  1.0000
  C   C3455     1.0  0.68852  0.12491  0.34000  1.0000
  C   C3456     1.0  0.67584  0.14170  0.32899  1.0000
  C   C3457     1.0  0.68368  0.15950  0.31752  1.0000
  C   C3458     1.0  0.70426  0.16043  0.31661  1.0000
  C   C3459     1.0  0.71708  0.14346  0.32713  1.0000
  H   H2758     1.0  0.68252  0.11115  0.34898  1.0000
  H   H2759     1.0  0.65987  0.14114  0.32970  1.0000
  H   H2760     1.0  0.71040  0.17415  0.30760  1.0000
  H   H2761     1.0  0.73302  0.14426  0.32630  1.0000
  H   H2762     1.0  0.62110  0.44808  0.44132  1.0000
  C   C3460     1.0  0.64292  0.39665  0.47495  1.0000
  C   C3461     1.0  0.70269  0.22441  0.34157  1.0000
  H   H2763     1.0  0.75254  0.04164  0.11079  1.0000
  P   P115      1.0  0.72072  0.00259  0.01942  1.0000
  C   C3462     1.0  0.73092  0.23514  0.39459  1.0000
  S   S476      1.0  0.72097  0.09606  0.16600  1.0000
  H   H2764     1.0  0.66006  0.43600  0.22112  1.0000
  C   C3463     1.0  0.68938  0.46532  0.36800  1.0000
  H   H2765     1.0  0.76995  0.26637  0.43192  1.0000
  C   C3464     1.0  0.61301  0.07479  0.28379  1.0000
  C   C3465     1.0  0.67520  0.07823  0.32487  1.0000
  H   H2766     1.0  0.74336  0.28282  0.37038  1.0000
  H   H2767     1.0  0.78050  0.30114  0.15481  1.0000
  C   C3466     1.0  0.73816  0.45301  0.45764  1.0000
  C   C3467     1.0  0.77126  0.30594  0.38859  1.0000
  S   S477      1.0  0.69704  0.01368  0.21771  1.0000
  C   C3468     1.0  0.73216  0.41960  0.44328  1.0000
  C   C3469     1.0  0.73161  0.43949  0.43022  1.0000
  C   C3470     1.0  0.73484  0.45610  0.43729  1.0000
  H   H2768     1.0  0.72853  0.44208  0.41468  1.0000
  H   H2769     1.0  0.65154  0.29122  0.08532  1.0000
  C   C3471     1.0  0.65628  0.28187  0.42615  1.0000
  C   C3472     1.0  0.62969  0.30513  0.15585  1.0000
  C   C3473     1.0  0.62514  0.28563  0.15721  1.0000
  C   C3474     1.0  0.72664  0.04395  0.00889  1.0000
  C   C3475     1.0  0.62660  0.32109  0.13830  1.0000
  H   H2770     1.0  0.62708  0.27349  0.17099  1.0000
  H   H2771     1.0  0.59648  0.18743  0.02809  1.0000
  H   H2772     1.0  0.62942  0.33639  0.13755  1.0000
  C   C3476     1.0  0.65976  0.38988  0.23381  1.0000
  C   C3477     1.0  0.68130  0.38315  0.23268  1.0000
  C   C3478     1.0  0.69054  0.38681  0.24768  1.0000
  C   C3479     1.0  0.67830  0.39720  0.26376  1.0000
  C   C3480     1.0  0.65676  0.40302  0.26523  1.0000
  C   C3481     1.0  0.64764  0.39941  0.25033  1.0000
  H   H2773     1.0  0.69084  0.37565  0.22002  1.0000
  H   H2774     1.0  0.70721  0.38218  0.24646  1.0000
  H   H2775     1.0  0.64696  0.41006  0.27797  1.0000
  H   H2776     1.0  0.63099  0.40353  0.25188  1.0000
  C   C3482     1.0  0.76087  0.36049  0.15042  1.0000
  C   C3483     1.0  0.74696  0.34689  0.15930  1.0000
  C   C3484     1.0  0.74974  0.33143  0.17717  1.0000
  C   C3485     1.0  0.76696  0.32926  0.18603  1.0000
  C   C3486     1.0  0.75242  0.24309  0.11533  1.0000
  H   H2777     1.0  0.73407  0.34833  0.15219  1.0000
  H   H2778     1.0  0.76945  0.31713  0.19970  1.0000
  H   H2779     1.0  0.59739  0.29874  0.04000  1.0000
  H   H2780     1.0  0.74697  0.05642  0.34902  1.0000
  S   S478      1.0  0.63287  0.19620  0.26667  1.0000
  C   C3487     1.0  0.74153  0.33201  0.07948  1.0000
  C   C3488     1.0  0.72917  0.34796  0.06732  1.0000
  C   C3489     1.0  0.71365  0.36305  0.07680  1.0000
  C   C3490     1.0  0.71054  0.36214  0.09839  1.0000
  C   C3491     1.0  0.72339  0.34661  0.11015  1.0000
  C   C3492     1.0  0.73866  0.33151  0.10086  1.0000
  H   H2781     1.0  0.73158  0.34875  0.05069  1.0000
  H   H2782     1.0  0.70393  0.37523  0.06753  1.0000
  H   H2783     1.0  0.72156  0.34632  0.12648  1.0000
  H   H2784     1.0  0.74820  0.31940  0.11034  1.0000
  C   C3493     1.0  0.70255  0.26353  0.02977  1.0000
  C   C3494     1.0  0.71390  0.25441  0.04564  1.0000
  C   C3495     1.0  0.70693  0.23888  0.06246  1.0000
  C   C3496     1.0  0.68835  0.23277  0.06361  1.0000
  C   C3497     1.0  0.67742  0.24139  0.04737  1.0000
  H   H2785     1.0  0.72780  0.25953  0.04526  1.0000
  H   H2786     1.0  0.71553  0.23222  0.07491  1.0000
  H   H2787     1.0  0.66382  0.23581  0.04743  1.0000
  C   C3498     1.0  0.61817  0.30169  0.23211  1.0000
  S   S479      1.0  0.60580  0.16364  0.26347  1.0000
  S   S480      1.0  0.68998  0.40295  0.28182  1.0000
  H   H2788     1.0  0.61204  0.44470  0.47976  1.0000
  C   C3499     1.0  0.60390  0.32232  0.05251  1.0000
  H   H2789     1.0  0.73195  0.03264  0.40327  1.0000
  C   C3500     1.0  0.67949  0.33624  0.01381  1.0000
  C   C3501     1.0  0.66397  0.00779  0.09862  1.0000
  H   H2790     1.0  0.68789  0.21829  0.28528  1.0000
  C   C3502     1.0  0.67228  0.44172  0.22431  1.0000
  Fe  Fe237     1.0  0.71209  0.06584  0.18523  1.0000
  P   P116      1.0  0.72480  0.46676  0.23624  1.0000
  Fe  Fe238     1.0  0.66356  0.44725  0.33878  1.0000
  H   H2791     1.0  0.69083  0.20374  0.32974  1.0000
  S   S481      1.0  0.71003  0.28380  0.00907  1.0000
  H   H2792     1.0  0.69425  0.01920  0.26002  1.0000
  H   H2793     1.0  0.74561  0.24810  0.36304  1.0000
  H   H2794     1.0  0.65149  0.27019  0.43979  1.0000
  C   C3503     1.0  0.62839  0.19302  0.36389  1.0000
  H   H2795     1.0  0.60040  0.07165  0.29698  1.0000
  H   H2796     1.0  0.60223  0.41360  0.48189  1.0000
  C   C3504     1.0  0.72750  0.18588  0.08935  1.0000
  C   C3505     1.0  0.72993  0.18984  0.10790  1.0000
  C   C3506     1.0  0.74726  0.19765  0.10805  1.0000
  C   C3507     1.0  0.74753  0.15603  0.99279  1.0000
  P   P117      1.0  0.75222  0.20037  0.13232  1.0000
  C   C3508     1.0  0.74803  0.22781  0.13360  1.0000
  C   C3509     1.0  0.73516  0.18723  0.15430  1.0000
  C   C3510     1.0  0.74268  0.16731  0.16573  1.0000
  C   C3511     1.0  0.72919  0.15668  0.18187  1.0000
  C   C3512     1.0  0.70815  0.16600  0.18701  1.0000
  C   C3513     1.0  0.70058  0.18593  0.17595  1.0000
  C   C3514     1.0  0.71396  0.19651  0.15957  1.0000
  C   C3515     1.0  0.61694  0.37324  0.41600  1.0000
  H   H2797     1.0  0.60209  0.37954  0.29109  1.0000
  C   C3516     1.0  0.61813  0.23016  0.21740  1.0000
  C   C3517     1.0  0.73624  0.25544  0.15391  1.0000
  C   C3518     1.0  0.74021  0.23417  0.15298  1.0000
  Fe  Fe239     1.0  0.76092  0.33093  0.99080  1.0000
  C   C3519     1.0  0.59946  0.48683  0.24519  1.0000
  H   H2798     1.0  0.59784  0.99819  0.99955  1.0000
  S   S482      1.0  0.78000  0.16646  0.27736  1.0000
  C   C3520     1.0  0.73911  0.43301  0.47059  1.0000
  C   C3521     1.0  0.64052  0.17284  0.36390  1.0000
  C   C3522     1.0  0.65458  0.46678  0.46912  1.0000
  S   S483      1.0  0.59728  0.31216  0.35619  1.0000
  H   H2799     1.0  0.71421  0.17972  0.08933  1.0000
  H   H2800     1.0  0.71839  0.18639  0.12198  1.0000
  H   H2801     1.0  0.63466  0.28218  0.02989  1.0000
  H   H2802     1.0  0.75885  0.15973  0.16204  1.0000
  H   H2803     1.0  0.73499  0.14099  0.19011  1.0000
  H   H2804     1.0  0.69763  0.15770  0.19944  1.0000
  H   H2805     1.0  0.68421  0.19297  0.17997  1.0000
  H   H2806     1.0  0.70772  0.21172  0.15077  1.0000
  H   H2807     1.0  0.76127  0.13529  0.10813  1.0000
  H   H2808     1.0  0.72788  0.28995  0.40603  1.0000
  C   C3523     1.0  0.59733  0.36066  0.27194  1.0000
  Fe  Fe240     1.0  0.73174  0.32391  0.47233  1.0000
  H   H2809     1.0  0.73692  0.22281  0.16739  1.0000
  S   S484      1.0  0.77332  0.17925  0.02038  1.0000
  C   C3524     1.0  0.64255  0.31553  0.47499  1.0000
  H   H2810     1.0  0.60715  0.47058  0.24567  1.0000
  C   C3525     1.0  0.64697  0.30303  0.42534  1.0000
  H   H2811     1.0  0.61476  0.43165  0.22779  1.0000
  C   C3526     1.0  0.66729  0.45616  0.23740  1.0000
  H   H2812     1.0  0.63330  0.11889  0.32644  1.0000
  C   C3527     1.0  0.71643  0.18857  0.37023  1.0000
  H   H2813     1.0  0.63434  0.39371  0.10534  1.0000
  H   H2814     1.0  0.60059  0.35485  0.48348  1.0000
  H   H2815     1.0  0.61480  0.35844  0.42655  1.0000
  P   P118      1.0  0.60570  0.02455  0.13428  1.0000
  H   H2816     1.0  0.71526  0.26199  0.43467  1.0000
  H   H2817     1.0  0.66587  0.33125  0.09884  1.0000
  H   H2818     1.0  0.66571  0.17867  0.10928  1.0000
  C   C3528     1.0  0.64040  0.23811  0.00069  1.0000
  H   H2819     1.0  0.72203  0.17439  0.38088  1.0000
  S   S485      1.0  0.70524  0.34790  0.46058  1.0000
  H   H2820     1.0  0.61457  0.34284  0.06512  1.0000
  H   H2821     1.0  0.61614  0.32992  0.10885  1.0000
  C   C3529     1.0  0.78792  0.10208  0.16130  1.0000
  H   H2822     1.0  0.62187  0.42646  0.37748  1.0000
  C   C3530     1.0  0.69720  0.18003  0.44054  1.0000
  S   S486      1.0  0.60103  0.25686  0.34940  1.0000
  H   H2823     1.0  0.73116  0.25493  0.20537  1.0000
  C   C3531     1.0  0.69288  0.09071  0.26717  1.0000
  C   C3532     1.0  0.76824  0.04116  0.27831  1.0000
  H   H2824     1.0  0.64057  0.13979  0.37116  1.0000
  C   C3533     1.0  0.64040  0.34553  0.26588  1.0000
  C   C3534     1.0  0.75227  0.03391  0.25284  1.0000
  H   H2825     1.0  0.68061  0.18162  0.44691  1.0000
  C   C3535     1.0  0.67694  0.30760  0.06996  1.0000
  H   H2826     1.0  0.60853  0.13454  0.05309  1.0000
  Fe  Fe241     1.0  0.62635  0.43947  0.32612  1.0000
  C   C3536     1.0  0.67162  0.27585  0.40928  1.0000
  C   C3537     1.0  0.68439  0.02500  0.00542  1.0000
  C   C3538     1.0  0.68442  0.20114  0.01030  1.0000
  Fe  Fe242     1.0  0.70712  0.02278  0.18268  1.0000
  H   H2827     1.0  0.59918  0.38315  0.16279  1.0000
  H   H2828     1.0  0.71985  0.47550  0.19212  1.0000
  C   C3539     1.0  0.74610  0.38063  0.20108  1.0000
  C   C3540     1.0  0.76346  0.38977  0.19709  1.0000
  C   C3541     1.0  0.77734  0.38295  0.21077  1.0000
  C   C3542     1.0  0.77394  0.36694  0.22839  1.0000
  C   C3543     1.0  0.75681  0.35729  0.23225  1.0000
  C   C3544     1.0  0.74278  0.36442  0.21855  1.0000
  P   P119      1.0  0.75350  0.33584  0.25454  1.0000
  C   C3545     1.0  0.77439  0.31325  0.25129  1.0000
  C   C3546     1.0  0.75426  0.34549  0.27698  1.0000
  C   C3547     1.0  0.77163  0.33826  0.28651  1.0000
  C   C3548     1.0  0.77260  0.34639  0.30332  1.0000
  C   C3549     1.0  0.75628  0.36188  0.31065  1.0000
  C   C3550     1.0  0.73898  0.36933  0.30115  1.0000
  C   C3551     1.0  0.73811  0.36137  0.28418  1.0000
  C   C3552     1.0  0.77364  0.29446  0.26627  1.0000
  C   C3553     1.0  0.66285  0.03228  0.00750  1.0000
  H   H2829     1.0  0.72632  0.07152  0.39229  1.0000
  C   C3554     1.0  0.74199  0.06215  0.39167  1.0000
  C   C3555     1.0  0.64768  0.46179  0.43734  1.0000
  C   C3556     1.0  0.72959  0.32684  0.25788  1.0000
  C   C3557     1.0  0.72686  0.31832  0.24204  1.0000
  C   C3558     1.0  0.70907  0.31029  0.24447  1.0000
  C   C3559     1.0  0.69397  0.31035  0.26297  1.0000
  C   C3560     1.0  0.69652  0.31873  0.27893  1.0000
  C   C3561     1.0  0.71432  0.32679  0.27650  1.0000
  H   H2830     1.0  0.73557  0.38561  0.19022  1.0000
  H   H2831     1.0  0.76644  0.40174  0.18310  1.0000
  H   H2832     1.0  0.77545  0.20743  0.08898  1.0000
  S   S487      1.0  0.78946  0.25061  0.35795  1.0000
  H   H2833     1.0  0.72938  0.35750  0.22102  1.0000
  C   C3562     1.0  0.59716  0.37442  0.17885  1.0000
  H   H2834     1.0  0.77739  0.35022  0.09393  1.0000
  H   H2835     1.0  0.75719  0.36809  0.32361  1.0000
  H   H2836     1.0  0.72636  0.38156  0.30660  1.0000
  H   H2837     1.0  0.72491  0.36771  0.27656  1.0000
  H   H2838     1.0  0.76052  0.29337  0.27932  1.0000
  C   C3563     1.0  0.77678  0.20403  0.39020  1.0000
  H   H2839     1.0  0.72343  0.20688  0.03025  1.0000
  C   C3564     1.0  0.71341  0.22592  0.35619  1.0000
  C   C3565     1.0  0.65748  0.01199  0.04297  1.0000
  H   H2840     1.0  0.73857  0.31784  0.22773  1.0000
  H   H2841     1.0  0.70717  0.30394  0.23196  1.0000
  H   H2842     1.0  0.68025  0.30402  0.26488  1.0000
  H   H2843     1.0  0.68470  0.31898  0.29322  1.0000
  H   H2844     1.0  0.71606  0.33266  0.28933  1.0000
  C   C3566     1.0  0.77510  0.28565  0.40076  1.0000
  C   C3567     1.0  0.61758  0.28197  0.14119  1.0000
  H   H2845     1.0  0.77993  0.49035  0.45249  1.0000
  C   C3568     1.0  0.64551  0.00701  0.11377  1.0000
  C   C3569     1.0  0.62093  0.40931  0.40946  1.0000
  C   C3570     1.0  0.67780  0.29102  0.39175  1.0000
  C   C3571     1.0  0.66834  0.31237  0.39082  1.0000
  C   C3572     1.0  0.65293  0.31821  0.40781  1.0000
  P   P120      1.0  0.67687  0.33262  0.36918  1.0000
  C   C3573     1.0  0.68371  0.35066  0.38095  1.0000
  C   C3574     1.0  0.69866  0.32095  0.35116  1.0000
  C   C3575     1.0  0.69543  0.30759  0.33979  1.0000
  C   C3576     1.0  0.71228  0.29704  0.32694  1.0000
  C   C3577     1.0  0.73230  0.30034  0.32479  1.0000
  C   C3578     1.0  0.73553  0.31420  0.33543  1.0000
  C   C3579     1.0  0.71880  0.32445  0.34865  1.0000
  C   C3580     1.0  0.69794  0.34306  0.39442  1.0000
  C   C3581     1.0  0.70310  0.35679  0.40387  1.0000
  C   C3582     1.0  0.69393  0.37812  0.40024  1.0000
  C   C3583     1.0  0.67936  0.38573  0.38729  1.0000
  C   C3584     1.0  0.67415  0.37207  0.37778  1.0000
  C   C3585     1.0  0.65720  0.34616  0.35394  1.0000
  C   C3586     1.0  0.66227  0.36121  0.33571  1.0000
  C   C3587     1.0  0.64691  0.37317  0.32461  1.0000
  C   C3588     1.0  0.62641  0.37015  0.33151  1.0000
  C   C3589     1.0  0.62143  0.35467  0.34913  1.0000
  C   C3590     1.0  0.63681  0.34246  0.36019  1.0000
  H   H2846     1.0  0.75657  0.08897  0.37892  1.0000
  H   H2847     1.0  0.69020  0.28590  0.37930  1.0000
  H   H2848     1.0  0.67995  0.30485  0.34141  1.0000
  H   H2849     1.0  0.70995  0.28615  0.31872  1.0000
  H   H2850     1.0  0.74528  0.29193  0.31504  1.0000
  H   H2851     1.0  0.75111  0.31659  0.33392  1.0000
  H   H2852     1.0  0.72184  0.33477  0.35697  1.0000
  H   H2853     1.0  0.70516  0.32654  0.39755  1.0000
  H   H2854     1.0  0.71428  0.35099  0.41400  1.0000
  H   H2855     1.0  0.69831  0.38875  0.40733  1.0000
  H   H2856     1.0  0.67230  0.40233  0.38438  1.0000
  H   H2857     1.0  0.66265  0.37839  0.36807  1.0000
  H   H2858     1.0  0.67797  0.36420  0.33039  1.0000
  H   H2859     1.0  0.61430  0.37992  0.32334  1.0000
  C   C3591     1.0  0.71539  0.20557  0.01882  1.0000
  H   H2860     1.0  0.63248  0.33067  0.37389  1.0000
  H   H2861     1.0  0.64929  0.02968  0.18090  1.0000
  C   C3592     1.0  0.69629  0.36988  0.01466  1.0000
  H   H2862     1.0  0.73485  0.47124  0.42691  1.0000
  C   C3593     1.0  0.63349  0.12960  0.21757  1.0000
  H   H2863     1.0  0.66693  0.27713  0.24487  1.0000
  C   C3594     1.0  0.64157  0.13151  0.19610  1.0000
  H   H2864     1.0  0.71909  0.99866  0.06410  1.0000
  C   C3595     1.0  0.60712  0.22989  0.32374  1.0000
  H   H2865     1.0  0.74091  0.21042  0.99334  1.0000
  C   C3596     1.0  0.73824  0.25111  0.37857  1.0000
  H   H2866     1.0  0.76065  0.01857  0.34863  1.0000
  H   H2867     1.0  0.75941  0.27278  0.20301  1.0000
  P   P121      1.0  0.71772  0.12724  0.04970  1.0000
  C   C3597     1.0  0.69133  0.14218  0.05048  1.0000
  C   C3598     1.0  0.73053  0.13285  0.02245  1.0000
  C   C3599     1.0  0.73705  0.15197  0.01373  1.0000
  H   H2868     1.0  0.65716  0.17079  0.35756  1.0000
  C   C3600     1.0  0.59453  0.39587  0.46323  1.0000
  C   C3601     1.0  0.75558  0.29883  0.43222  1.0000
  H   H2869     1.0  0.77846  0.13315  0.14410  1.0000
  C   C3602     1.0  0.67884  0.13860  0.03849  1.0000
  C   C3603     1.0  0.65879  0.15083  0.03809  1.0000
  C   C3604     1.0  0.65121  0.16702  0.04928  1.0000
  C   C3605     1.0  0.66379  0.17109  0.06067  1.0000
  C   C3606     1.0  0.68374  0.15881  0.06127  1.0000
  C   C3607     1.0  0.71987  0.09913  0.05752  1.0000
  C   C3608     1.0  0.70261  0.08974  0.06139  1.0000
  H   H2870     1.0  0.68765  0.20047  0.04152  1.0000
  C   C3609     1.0  0.78091  0.34306  0.17722  1.0000
  H   H2871     1.0  0.73491  0.16331  0.02337  1.0000
  C   C3610     1.0  0.74520  0.04027  0.39777  1.0000
  H   H2872     1.0  0.68470  0.12650  0.02926  1.0000
  H   H2873     1.0  0.64912  0.14789  0.02901  1.0000
  H   H2874     1.0  0.63574  0.17669  0.04885  1.0000
  H   H2875     1.0  0.65836  0.18421  0.06859  1.0000
  H   H2876     1.0  0.69335  0.16297  0.06956  1.0000
  H   H2877     1.0  0.68724  0.09916  0.06066  1.0000
  C   C3611     1.0  0.72256  0.23922  0.41491  1.0000
  H   H2878     1.0  0.76690  0.27802  0.23504  1.0000
  H   H2879     1.0  0.65393  0.05207  0.32017  1.0000
  C   C3612     1.0  0.70444  0.08312  0.28310  1.0000
  H   H2880     1.0  0.62277  0.22519  0.32662  1.0000
  P   P122      1.0  0.66081  0.33021  0.05678  1.0000
  C   C3613     1.0  0.76714  0.44746  0.22911  1.0000
  C   C3614     1.0  0.63037  0.45339  0.44908  1.0000
  H   H2881     1.0  0.75462  0.22312  0.01438  1.0000
  C   C3615     1.0  0.77958  0.42832  0.36072  1.0000
  C   C3616     1.0  0.74194  0.06448  0.06458  1.0000
  C   C3617     1.0  0.62914  0.35865  0.46046  1.0000
  C   C3618     1.0  0.61594  0.34727  0.47637  1.0000
  H   H2882     1.0  0.74234  0.12967  0.14703  1.0000
  H   H2883     1.0  0.65939  0.17978  0.17017  1.0000
  H   H2884     1.0  0.65084  0.38516  0.31093  1.0000
  C   C3619     1.0  0.60869  0.10297  0.14404  1.0000
  C   C3620     1.0  0.64063  0.39809  0.45446  1.0000
  C   C3621     1.0  0.65571  0.40574  0.43751  1.0000
  C   C3622     1.0  0.67205  0.41270  0.44101  1.0000
  C   C3623     1.0  0.67389  0.41159  0.46145  1.0000
  H   H2885     1.0  0.77300  0.03643  0.29327  1.0000
  H   H2886     1.0  0.65206  0.46257  0.42056  1.0000
  C   C3624     1.0  0.59853  0.43450  0.23576  1.0000
  C   C3625     1.0  0.59877  0.99891  0.14268  1.0000
  H   H2887     1.0  0.78486  0.31442  0.11523  1.0000
  H   H2888     1.0  0.67316  0.47512  0.43817  1.0000
  H   H2889     1.0  0.61266  0.36315  0.38999  1.0000
  C   C3626     1.0  0.77780  0.35875  0.15941  1.0000
  H   H2890     1.0  0.62752  0.23220  0.16511  1.0000
  H   H2891     1.0  0.65554  0.40572  0.42157  1.0000
  H   H2892     1.0  0.68371  0.41847  0.42790  1.0000
  C   C3627     1.0  0.69882  0.20503  0.34128  1.0000
  S   S488      1.0  0.75109  0.34735  0.46997  1.0000
  C   C3628     1.0  0.63223  0.11147  0.06733  1.0000
  C   C3629     1.0  0.64264  0.10519  0.08409  1.0000
  C   C3630     1.0  0.63761  0.11714  0.09970  1.0000
  P   P123      1.0  0.64934  0.10790  0.12270  1.0000
  C   C3631     1.0  0.62973  0.09985  0.14534  1.0000
  C   C3632     1.0  0.66958  0.08463  0.12014  1.0000
  C   C3633     1.0  0.66426  0.06507  0.12294  1.0000
  C   C3634     1.0  0.67986  0.04689  0.12212  1.0000
  C   C3635     1.0  0.70078  0.04812  0.11867  1.0000
  C   C3636     1.0  0.70616  0.06748  0.11590  1.0000
  C   C3637     1.0  0.69071  0.08565  0.11635  1.0000
  C   C3638     1.0  0.60116  0.21945  0.31150  1.0000
  C   C3639     1.0  0.66073  0.12761  0.12744  1.0000
  C   C3640     1.0  0.65873  0.14799  0.11504  1.0000
  C   C3641     1.0  0.66770  0.16294  0.11867  1.0000
  C   C3642     1.0  0.67906  0.15774  0.13449  1.0000
  C   C3643     1.0  0.68151  0.13749  0.14671  1.0000
  C   C3644     1.0  0.67252  0.12245  0.14319  1.0000
  H   H2893     1.0  0.63598  0.10208  0.05544  1.0000
  H   H2894     1.0  0.65434  0.09085  0.08496  1.0000
  H   H2895     1.0  0.64807  0.06383  0.12608  1.0000
  H   H2896     1.0  0.67588  0.03168  0.12466  1.0000
  H   H2897     1.0  0.71646  0.24104  0.35575  1.0000
  H   H2898     1.0  0.72232  0.06849  0.11361  1.0000
  H   H2899     1.0  0.69547  0.10026  0.11425  1.0000
  H   H2900     1.0  0.65179  0.08586  0.16575  1.0000
  H   H2901     1.0  0.68591  0.16944  0.13729  1.0000
  H   H2902     1.0  0.69047  0.13341  0.15893  1.0000
  H   H2903     1.0  0.67520  0.10675  0.15263  1.0000
  C   C3645     1.0  0.73116  0.10207  0.26123  1.0000
  C   C3646     1.0  0.71950  0.10950  0.24549  1.0000
  C   C3647     1.0  0.70031  0.10390  0.24850  1.0000
  H   H2904     1.0  0.74637  0.10581  0.25870  1.0000
  H   H2905     1.0  0.72550  0.11920  0.23078  1.0000
  H   H2906     1.0  0.69139  0.10934  0.23619  1.0000
  C   C3648     1.0  0.65412  0.03243  0.29960  1.0000
  S   S489      1.0  0.61543  0.16293  0.30915  1.0000
  C   C3649     1.0  0.63219  0.04352  0.09965  1.0000
  H   H2907     1.0  0.73766  0.45752  0.27711  1.0000
  C   C3650     1.0  0.66650  0.02630  0.08397  1.0000
  H   H2908     1.0  0.78596  0.34056  0.31078  1.0000
  C   C3651     1.0  0.62267  0.32576  0.48356  1.0000
  H   H2909     1.0  0.68340  0.05573  0.35242  1.0000
  H   H2910     1.0  0.67328  0.26093  0.10421  1.0000
  C   C3652     1.0  0.63767  0.45759  0.48114  1.0000
  C   C3653     1.0  0.77601  0.05685  0.11314  1.0000
  H   H2911     1.0  0.61815  0.39644  0.36468  1.0000
  C   C3654     1.0  0.60661  0.34521  0.25987  1.0000
  H   H2912     1.0  0.74563  0.26545  0.27014  1.0000
  C   C3655     1.0  0.76217  0.13706  0.07555  1.0000
  C   C3656     1.0  0.73351  0.11838  0.00957  1.0000
  H   H2913     1.0  0.69695  0.42250  0.20611  1.0000
  C   C3657     1.0  0.74687  0.09781  0.16438  1.0000
  C   C3658     1.0  0.70135  0.27347  0.09247  1.0000
  C   C3659     1.0  0.71025  0.29013  0.07953  1.0000
  C   C3660     1.0  0.69807  0.30722  0.06844  1.0000
  C   C3661     1.0  0.65058  0.34941  0.07327  1.0000
  C   C3662     1.0  0.65635  0.34598  0.09266  1.0000
  C   C3663     1.0  0.65029  0.36189  0.10418  1.0000
  C   C3664     1.0  0.63848  0.38131  0.09652  1.0000
  C   C3665     1.0  0.63259  0.38486  0.07727  1.0000
  C   C3666     1.0  0.63874  0.36902  0.06561  1.0000
  H   H2914     1.0  0.71084  0.26011  0.10084  1.0000
  H   H2915     1.0  0.72661  0.28987  0.07798  1.0000
  H   H2916     1.0  0.70511  0.32017  0.05886  1.0000
  H   H2917     1.0  0.65526  0.35927  0.11887  1.0000
  C   C3667     1.0  0.76549  0.02825  0.39648  1.0000
  H   H2918     1.0  0.73357  0.07482  0.99721  1.0000
  H   H2919     1.0  0.63474  0.37219  0.05036  1.0000
  H   H2920     1.0  0.60164  0.08808  0.22477  1.0000
  C   C3668     1.0  0.75905  0.07203  0.38412  1.0000
  H   H2921     1.0  0.75936  0.18526  0.35661  1.0000
  H   H2922     1.0  0.60279  0.39870  0.19111  1.0000
  S   S490      1.0  0.71152  0.00485  0.15679  1.0000
  C   C3669     1.0  0.59679  0.23877  0.22089  1.0000
  H   H2923     1.0  0.69023  0.45458  0.40087  1.0000
  C   C3670     1.0  0.62542  0.45126  0.47090  1.0000
  H   H2924     1.0  0.67835  0.08596  0.26899  1.0000
  C   C3671     1.0  0.61674  0.12974  0.06598  1.0000
  C   C3672     1.0  0.78002  0.37244  0.41783  1.0000
  H   H2925     1.0  0.67889  0.25944  0.40985  1.0000
  H   H2926     1.0  0.75410  0.01440  0.28334  1.0000
  H   H2927     1.0  0.60025  0.20065  0.45816  1.0000
  C   C3673     1.0  0.63087  0.35989  0.27893  1.0000
  H   H2928     1.0  0.78263  0.23170  0.24423  1.0000
  H   H2929     1.0  0.73337  0.08297  0.29154  1.0000
  C   C3674     1.0  0.77365  0.11867  0.15231  1.0000
  H   H2930     1.0  0.59964  0.15601  0.08025  1.0000
  C   C3675     1.0  0.73678  0.18006  0.24864  1.0000
  C   C3676     1.0  0.72232  0.16694  0.25574  1.0000
  C   C3677     1.0  0.70107  0.17562  0.25756  1.0000
  C   C3678     1.0  0.69420  0.19741  0.25279  1.0000
  C   C3679     1.0  0.70863  0.21072  0.24613  1.0000
  C   C3680     1.0  0.73000  0.20185  0.24371  1.0000
  P   P124      1.0  0.69971  0.23891  0.24094  1.0000
  C   C3681     1.0  0.72110  0.25121  0.23915  1.0000
  C   C3682     1.0  0.69080  0.24777  0.21639  1.0000
  C   C3683     1.0  0.68855  0.26910  0.20658  1.0000
  C   C3684     1.0  0.68220  0.27608  0.18740  1.0000
  C   C3685     1.0  0.67819  0.26200  0.17765  1.0000
  C   C3686     1.0  0.68077  0.24071  0.18702  1.0000
  C   C3687     1.0  0.68693  0.23355  0.20639  1.0000
  C   C3688     1.0  0.72556  0.25407  0.25736  1.0000
  C   C3689     1.0  0.74223  0.26343  0.25597  1.0000
  C   C3690     1.0  0.75431  0.27030  0.23635  1.0000
  C   C3691     1.0  0.75017  0.26722  0.21822  1.0000
  C   C3692     1.0  0.73386  0.25741  0.21961  1.0000
  C   C3693     1.0  0.67931  0.24666  0.26252  1.0000
  C   C3694     1.0  0.67739  0.23337  0.28248  1.0000
  C   C3695     1.0  0.66167  0.23932  0.29915  1.0000
  C   C3696     1.0  0.64800  0.25876  0.29625  1.0000
  C   C3697     1.0  0.65016  0.27235  0.27666  1.0000
  C   C3698     1.0  0.66572  0.26635  0.25985  1.0000
  H   H2931     1.0  0.75323  0.17339  0.24754  1.0000
  H   H2932     1.0  0.72750  0.15009  0.26024  1.0000
  H   H2933     1.0  0.68985  0.16549  0.26340  1.0000
  H   H2934     1.0  0.67762  0.20388  0.25488  1.0000
  H   H2935     1.0  0.74144  0.21169  0.23857  1.0000
  H   H2936     1.0  0.69192  0.28040  0.21355  1.0000
  H   H2937     1.0  0.68015  0.29254  0.18017  1.0000
  H   H2938     1.0  0.67294  0.26769  0.16288  1.0000
  H   H2939     1.0  0.67783  0.22986  0.17926  1.0000
  H   H2940     1.0  0.68867  0.21697  0.21331  1.0000
  H   H2941     1.0  0.71621  0.24906  0.27263  1.0000
  C   C3699     1.0  0.63111  0.15539  0.37156  1.0000
  H   H2942     1.0  0.75726  0.05482  0.06577  1.0000
  H   H2943     1.0  0.75841  0.37243  0.13656  1.0000
  S   S491      1.0  0.67475  0.44681  0.36807  1.0000
  C   C3700     1.0  0.68021  0.27391  0.09438  1.0000
  Fe  Fe243     1.0  0.63766  0.17068  0.24918  1.0000
  H   H2944     1.0  0.64556  0.33453  0.40758  1.0000
  H   H2945     1.0  0.65117  0.46160  0.24443  1.0000
  S   S492      1.0  0.65298  0.17490  0.21494  1.0000
  H   H2946     1.0  0.63269  0.03129  0.02776  1.0000
  C   C3701     1.0  0.75326  0.11659  0.15381  1.0000
  C   C3702     1.0  0.59333  0.43270  0.25755  1.0000
  C   C3703     1.0  0.64450  0.10535  0.33209  1.0000
  C   C3704     1.0  0.61586  0.37580  0.39508  1.0000
  C   C3705     1.0  0.75758  0.02865  0.27264  1.0000
  C   C3706     1.0  0.61706  0.03174  0.19652  1.0000
  H   H2947     1.0  0.62479  0.24883  0.25029  1.0000
  H   H2948     1.0  0.69776  0.23821  0.33015  1.0000
  Fe  Fe244     1.0  0.66956  0.42717  0.30055  1.0000
  C   C3707     1.0  0.64284  0.18199  0.17652  1.0000
  C   C3708     1.0  0.69514  0.20197  0.02514  1.0000
  C   C3709     1.0  0.74049  0.27048  0.13564  1.0000
  C   C3710     1.0  0.62858  0.13279  0.18256  1.0000
  H   H2949     1.0  0.75617  0.06671  0.18202  1.0000
  H   H2950     1.0  0.68699  0.41637  0.46409  1.0000
  C   C3711     1.0  0.61792  0.26542  0.41002  1.0000
  C   C3712     1.0  0.72370  0.08893  0.27996  1.0000
  H   H2951     1.0  0.66192  0.29557  0.03767  1.0000
  C   C3713     1.0  0.63537  0.18002  0.19821  1.0000
  H   H2952     1.0  0.63465  0.18852  0.14623  1.0000
  H   H2953     1.0  0.77823  0.13896  0.07043  1.0000
  H   H2954     1.0  0.65045  0.15260  0.10239  1.0000
  C   C3714     1.0  0.66798  0.29101  0.08335  1.0000
  C   C3715     1.0  0.62885  0.18687  0.16297  1.0000
  H   H2955     1.0  0.64327  0.02713  0.14731  1.0000
  C   C3716     1.0  0.65942  0.40342  0.47840  1.0000
  C   C3717     1.0  0.76915  0.02356  0.13495  1.0000
  H   H2956     1.0  0.66851  0.19885  0.01528  1.0000
  H   H2957     1.0  0.70996  0.04132  0.27298  1.0000
  C   C3718     1.0  0.63170  0.22518  0.99350  1.0000
  C   C3719     1.0  0.71608  0.04988  0.31937  1.0000
  H   H2958     1.0  0.60704  0.27252  0.44056  1.0000
  C   C3720     1.0  0.61887  0.31745  0.12223  1.0000
  C   C3721     1.0  0.73771  0.05951  0.00695  1.0000
  Fe  Fe245     1.0  0.62156  0.14037  0.28771  1.0000
  H   H2959     1.0  0.78035  0.16548  0.11398  1.0000
  C   C3722     1.0  0.59997  0.18718  0.19280  1.0000
  C   C3723     1.0  0.73695  0.27085  0.38264  1.0000
  C   C3724     1.0  0.59402  0.09588  0.16152  1.0000
  C   C3725     1.0  0.60682  0.19582  0.37133  1.0000
  H   H2960     1.0  0.62684  0.27776  0.40434  1.0000
  H   H2961     1.0  0.59709  0.05212  0.24157  1.0000
  C   C3726     1.0  0.68502  0.35951  0.03313  1.0000
  H   H2962     1.0  0.76964  0.25470  0.00153  1.0000
  H   H2963     1.0  0.72501  0.43525  0.21327  1.0000
  H   H2964     1.0  0.67593  0.26340  0.01808  1.0000
  C   C3727     1.0  0.62193  0.13549  0.09819  1.0000
  P   P125      1.0  0.69504  0.06485  0.30640  1.0000
  H   H2965     1.0  0.61340  0.04803  0.27157  1.0000
  C   C3728     1.0  0.70564  0.18715  0.35567  1.0000
  C   C3729     1.0  0.76110  0.08108  0.17346  1.0000
  H   H2966     1.0  0.69913  0.40727  0.33978  1.0000
  H   H2967     1.0  0.75321  0.09315  0.05613  1.0000
  C   C3730     1.0  0.61438  0.29778  0.12363  1.0000
  H   H2968     1.0  0.62538  0.25611  0.38023  1.0000
  C   C3731     1.0  0.60771  0.13151  0.19049  1.0000
  C   C3732     1.0  0.61934  0.33021  0.05665  1.0000
  S   S493      1.0  0.78664  0.31713  0.00882  1.0000
  H   H2969     1.0  0.62967  0.10430  0.36455  1.0000
  C   C3733     1.0  0.63573  0.08908  0.16434  1.0000
  C   C3734     1.0  0.64049  0.32106  0.05078  1.0000
  C   C3735     1.0  0.76988  0.18830  0.36466  1.0000
  S   S494      1.0  0.61167  0.10924  0.29890  1.0000
  H   H2970     1.0  0.75214  0.27600  0.10225  1.0000
  H   H2971     1.0  0.78454  0.32649  0.28087  1.0000
  C   C3736     1.0  0.68553  0.02624  0.27325  1.0000
  H   H2972     1.0  0.67744  0.15034  0.99179  1.0000
  C   C3737     1.0  0.72032  0.20800  0.37074  1.0000
  H   H2973     1.0  0.60546  0.35251  0.35443  1.0000
  C   C3738     1.0  0.77932  0.06008  0.38263  1.0000
  C   C3739     1.0  0.73955  0.08632  0.05920  1.0000
  C   C3740     1.0  0.78542  0.02189  0.14509  1.0000
  C   C3741     1.0  0.65662  0.07927  0.36081  1.0000
  H   H2974     1.0  0.71282  0.03400  0.11838  1.0000
  H   H2975     1.0  0.78122  0.13753  0.18581  1.0000
  S   S495      1.0  0.62660  0.24916  0.07211  1.0000
  H   H2976     1.0  0.64025  0.36555  0.28625  1.0000
  Fe  Fe246     1.0  0.72208  0.02923  0.22000  1.0000
  S   S496      1.0  0.73502  0.32623  0.01877  1.0000
  C   C3742     1.0  0.71670  0.47969  0.25834  1.0000
  S   S497      1.0  0.68568  0.05441  0.18025  1.0000
  S   S498      1.0  0.63978  0.44679  0.29178  1.0000
  H   H2977     1.0  0.77019  0.46203  0.21876  1.0000
  H   H2978     1.0  0.61234  0.20690  0.30526  1.0000
  C   C3743     1.0  0.70515  0.06784  0.06630  1.0000
  C   C3744     1.0  0.76033  0.40928  0.25546  1.0000
  H   H2979     1.0  0.72786  0.42400  0.26106  1.0000
  H   H2980     1.0  0.77947  0.03352  0.18578  1.0000
  C   C3745     1.0  0.71412  0.40646  0.34317  1.0000
  H   H2981     1.0  0.71857  0.37345  0.35692  1.0000
  C   C3746     1.0  0.63003  0.02930  0.16003  1.0000
  C   C3747     1.0  0.59690  0.03213  0.19454  1.0000
  C   C3748     1.0  0.69274  0.01154  0.02229  1.0000
  H   H2982     1.0  0.68068  0.02665  0.07207  1.0000
  S   S499      1.0  0.63287  0.46770  0.33318  1.0000
  C   C3749     1.0  0.77990  0.23951  0.00366  1.0000
  H   H2983     1.0  0.71376  0.43937  0.33089  1.0000
  H   H2984     1.0  0.75579  0.13675  0.21977  1.0000
  S   S500      1.0  0.62288  0.20068  0.09693  1.0000
  C   C3750     1.0  0.61390  0.18276  0.20624  1.0000
  C   C3751     1.0  0.78268  0.03814  0.38919  1.0000
  C   C3752     1.0  0.64581  0.30354  0.04130  1.0000
  C   C3753     1.0  0.68343  0.04792  0.29786  1.0000
  H   H2985     1.0  0.76769  0.01131  0.40091  1.0000
  Fe  Fe247     1.0  0.73791  0.29510  0.01100  1.0000
  H   H2986     1.0  0.63673  0.23849  0.01729  1.0000
  H   H2987     1.0  0.62210  0.42268  0.41495  1.0000
  C   C3754     1.0  0.61248  0.12871  0.22560  1.0000
  C   C3755     1.0  0.74347  0.42606  0.25286  1.0000
  H   H2988     1.0  0.59537  0.26031  0.27799  1.0000
  H   H2989     1.0  0.63498  0.30780  0.43823  1.0000
  H   H2990     1.0  0.75053  0.46759  0.38594  1.0000
  S   S501      1.0  0.60358  0.29351  0.10414  1.0000
  C   C3756     1.0  0.72243  0.42454  0.33803  1.0000
  C   C3757     1.0  0.63359  0.03040  0.17925  1.0000
  C   C3758     1.0  0.59922  0.38317  0.19477  1.0000
  H   H2991     1.0  0.74583  0.00068  0.32945  1.0000
  H   H2992     1.0  0.67368  0.32303  0.01299  1.0000
  C   C3759     1.0  0.77892  0.18731  0.13347  1.0000
  C   C3760     1.0  0.68307  0.46343  0.24167  1.0000
  S   S502      1.0  0.73435  0.03497  0.18513  1.0000
  C   C3761     1.0  0.61170  0.14182  0.08133  1.0000
  H   H2993     1.0  0.71884  0.07632  0.33042  1.0000
  S   S503      1.0  0.68058  0.45429  0.30520  1.0000
  H   H2994     1.0  0.74356  0.33210  0.42753  1.0000
  C   C3762     1.0  0.76271  0.43947  0.37329  1.0000
  H   H2995     1.0  0.75634  0.33825  0.38899  1.0000
  C   C3763     1.0  0.59325  0.29329  0.26430  1.0000
  C   C3764     1.0  0.74055  0.04851  0.34076  1.0000
  C   C3765     1.0  0.69448  0.03867  0.28073  1.0000
  C   C3766     1.0  0.74676  0.44530  0.23963  1.0000
  C   C3767     1.0  0.72591  0.19152  0.41360  1.0000
  C   C3768     1.0  0.69569  0.47962  0.34973  1.0000
  C   C3769     1.0  0.60158  0.27189  0.26505  1.0000
  C   C3770     1.0  0.75193  0.31908  0.42005  1.0000
  C   C3771     1.0  0.74168  0.42363  0.34254  1.0000
  Fe  Fe248     1.0  0.60796  0.25948  0.10171  1.0000
  C   C3772     1.0  0.78851  0.17050  0.12312  1.0000
  C   C3773     1.0  0.72837  0.27482  0.40277  1.0000
  H   H2996     1.0  0.66180  0.10246  0.30116  1.0000
  C   C3774     1.0  0.67287  0.06980  0.34653  1.0000
  H   H2997     1.0  0.64552  0.22075  0.19489  1.0000
  H   H2998     1.0  0.60791  0.18208  0.22272  1.0000
  S   S504      1.0  0.59880  0.31861  0.41145  1.0000
  C   C3775     1.0  0.66081  0.09603  0.31775  1.0000
  H   H2999     1.0  0.65499  0.07271  0.37746  1.0000
  C   C3776     1.0  0.72460  0.05979  0.33020  1.0000
  C   C3777     1.0  0.70405  0.45634  0.23269  1.0000
  C   C3778     1.0  0.60940  0.30518  0.04265  1.0000
  H   H3000     1.0  0.77526  0.40503  0.31336  1.0000
  C   C3779     1.0  0.73271  0.02352  0.02022  1.0000
  C   C3780     1.0  0.73629  0.41629  0.46335  1.0000
  C   C3781     1.0  0.78191  0.20862  0.30994  1.0000
  H   H3001     1.0  0.64345  0.12949  0.22787  1.0000
  C   C3782     1.0  0.75125  0.13608  0.06090  1.0000
  C   C3783     1.0  0.59943  0.26323  0.48289  1.0000
  C   C3784     1.0  0.61809  0.26539  0.24931  1.0000
  S   S505      1.0  0.59623  0.42816  0.33705  1.0000
  H   H3002     1.0  0.71755  0.02033  0.31106  1.0000
  C   C3785     1.0  0.76359  0.45903  0.37628  1.0000
  H   H3003     1.0  0.62370  0.40003  0.07117  1.0000
  C   C3786     1.0  0.72374  0.02842  0.31930  1.0000
  Fe  Fe249     1.0  0.64932  0.47291  0.29942  1.0000
  C   C3787     1.0  0.62107  0.08196  0.18174  1.0000
  H   H3004     1.0  0.59831  0.13194  0.17958  1.0000
  H   H3005     1.0  0.70503  0.12958  0.09387  1.0000
  C   C3788     1.0  0.72605  0.47193  0.27594  1.0000
  H   H3006     1.0  0.64782  0.29894  0.48085  1.0000
  H   H3007     1.0  0.74793  0.43782  0.33816  1.0000
  H   H3008     1.0  0.71753  0.22712  0.42789  1.0000
  H   H3009     1.0  0.68346  0.36446  0.04764  1.0000
  C   C3789     1.0  0.65591  0.32684  0.45947  1.0000
  C   C3790     1.0  0.64241  0.09705  0.35358  1.0000
  C   C3791     1.0  0.74219  0.18980  0.07083  1.0000
  H   H3010     1.0  0.65978  0.35692  0.44017  1.0000
  H   H3011     1.0  0.75845  0.23890  0.10015  1.0000
  C   C3792     1.0  0.62918  0.22807  0.19731  1.0000
  H   H3012     1.0  0.78504  0.36170  0.23868  1.0000
  H   H3013     1.0  0.62606  0.07359  0.19624  1.0000
  C   C3793     1.0  0.63037  0.29584  0.03698  1.0000
  C   C3794     1.0  0.74878  0.26427  0.11641  1.0000
  H   H3014     1.0  0.65771  0.13279  0.18996  1.0000
  H   H3015     1.0  0.67866  0.47444  0.25203  1.0000
  C   C3795     1.0  0.60740  0.18947  0.17114  1.0000
  H   H3016     1.0  0.65815  0.01419  0.27619  1.0000
  C   C3796     1.0  0.61893  0.23431  0.18059  1.0000
  C   C3797     1.0  0.61840  0.39470  0.38106  1.0000
  H   H3017     1.0  0.62001  0.03223  0.21147  1.0000
  C   C3798     1.0  0.65970  0.46862  0.44732  1.0000
  Fe  Fe250     1.0  0.60369  0.21531  0.12377  1.0000
  C   C3799     1.0  0.69397  0.20409  0.98903  1.0000
  C   C3800     1.0  0.72127  0.25900  0.41891  1.0000
  S   S506      1.0  0.74559  0.29427  0.45943  1.0000
  C   C3801     1.0  0.72499  0.38746  0.35298  1.0000
  C   C3802     1.0  0.72480  0.05521  0.06787  1.0000
  H   H3018     1.0  0.65991  0.22864  0.31427  1.0000
  H   H3019     1.0  0.73723  0.28699  0.13635  1.0000
  C   C3803     1.0  0.76178  0.20183  0.08921  1.0000
  C   C3804     1.0  0.66529  0.02324  0.28254  1.0000
  H   H3020     1.0  0.63565  0.26322  0.30916  1.0000
  C   C3805     1.0  0.75262  0.40461  0.35261  1.0000
  H   H3021     1.0  0.72743  0.47678  0.30604  1.0000
  C   C3806     1.0  0.73205  0.48644  0.21334  1.0000
  H   H3022     1.0  0.75931  0.13685  0.04478  1.0000
  H   H3023     1.0  0.75776  0.39442  0.26542  1.0000
  C   C3807     1.0  0.62835  0.33818  0.25637  1.0000
  H   H3024     1.0  0.62619  0.22474  0.23024  1.0000
  H   H3025     1.0  0.72675  0.03825  0.07173  1.0000
  H   H3026     1.0  0.77704  0.19822  0.24023  1.0000
  C   C3808     1.0  0.62933  0.02480  0.11425  1.0000
  C   C3809     1.0  0.59591  0.24391  0.48169  1.0000
  H   H3027     1.0  0.76781  0.13482  0.25224  1.0000
  C   C3810     1.0  0.74820  0.02721  0.34055  1.0000
  H   H3028     1.0  0.59959  0.37858  0.22734  1.0000
  C   C3811     1.0  0.73193  0.13246  0.10327  1.0000
  S   S507      1.0  0.60135  0.21788  0.04863  1.0000
  H   H3029     1.0  0.78549  0.24939  0.06223  1.0000
  H   H3030     1.0  0.74048  0.18631  0.05661  1.0000
  C   C3812     1.0  0.60654  0.26236  0.43067  1.0000
  H   H3031     1.0  0.61328  0.26723  0.14285  1.0000
  C   C3813     1.0  0.78612  0.13763  0.19989  1.0000
  C   C3814     1.0  0.73275  0.16248  0.44266  1.0000
  C   C3815     1.0  0.76708  0.28207  0.42253  1.0000
  H   H3032     1.0  0.69330  0.20531  0.41397  1.0000
  C   C3816     1.0  0.61696  0.25335  0.39639  1.0000
  H   H3033     1.0  0.60337  0.11054  0.12964  1.0000
  C   C3817     1.0  0.73050  0.13343  0.06726  1.0000
  H   H3034     1.0  0.77061  0.20090  0.05626  1.0000
  C   C3818     1.0  0.76466  0.04085  0.11891  1.0000
  H   H3035     1.0  0.63566  0.20656  0.35762  1.0000
  C   C3819     1.0  0.72092  0.13179  0.08857  1.0000
  H   H3036     1.0  0.75222  0.37171  0.36556  1.0000
  P   P126      1.0  0.73485  0.20904  0.38952  1.0000
  S   S508      1.0  0.74121  0.01635  0.24537  1.0000
  C   C3820     1.0  0.71136  0.16458  0.45093  1.0000
  C   C3821     1.0  0.77135  0.22150  0.01038  1.0000
  C   C3822     1.0  0.60424  0.23852  0.40325  1.0000
  C   C3823     1.0  0.70443  0.19342  0.42191  1.0000
  C   C3824     1.0  0.77189  0.13691  0.21902  1.0000
  H   H3037     1.0  0.67158  0.31905  0.45335  1.0000
  H   H3038     1.0  0.77512  0.03090  0.03403  1.0000
  C   C3825     1.0  0.60943  0.36781  0.28157  1.0000
  H   H3039     1.0  0.69444  0.02945  0.99037  1.0000
  Fe  Fe251     1.0  0.60250  0.18688  0.28336  1.0000
  H   H3040     1.0  0.77278  0.07012  0.10049  1.0000
  C   C3826     1.0  0.76248  0.20019  0.38042  1.0000
  C   C3827     1.0  0.74406  0.38656  0.35792  1.0000
  C   C3828     1.0  0.75936  0.32254  0.39825  1.0000
  C   C3829     1.0  0.59266  0.23553  0.42380  1.0000
  H   H3041     1.0  0.62015  0.05762  0.09984  1.0000
  C   C3830     1.0  0.60983  0.02975  0.15782  1.0000
  H   H3042     1.0  0.74879  0.43311  0.38074  1.0000
  H   H3043     1.0  0.77494  0.37645  0.43323  1.0000
  C   C3831     1.0  0.74005  0.17585  0.42406  1.0000
  C   C3832     1.0  0.75922  0.19794  0.07070  1.0000
  H   H3044     1.0  0.72456  0.13054  0.11977  1.0000
  C   C3833     1.0  0.62060  0.41158  0.38830  1.0000
  C   C3834     1.0  0.69311  0.43415  0.21579  1.0000
  H   H3045     1.0  0.72965  0.26039  0.16874  1.0000
  C   C3835     1.0  0.69919  0.36344  0.99579  1.0000
  H   H3046     1.0  0.71410  0.04770  0.00051  1.0000
  C   C3836     1.0  0.77690  0.38803  0.40004  1.0000
  H   H3047     1.0  0.71028  0.48045  0.40162  1.0000
  H   H3048     1.0  0.70330  0.38253  0.01508  1.0000
  H   H3049     1.0  0.68468  0.99322  0.05376  1.0000
  H   H3050     1.0  0.77149  0.21320  0.40235  1.0000
  P   P127      1.0  0.77820  0.40301  0.35701  1.0000
  H   H3051     1.0  0.60538  0.42886  0.26664  1.0000
  H   H3052     1.0  0.72832  0.10367  0.01575  1.0000
  C   C3837     1.0  0.60956  0.15813  0.37935  1.0000
  C   C3838     1.0  0.64939  0.02593  0.02632  1.0000
  H   H3053     1.0  0.65234  0.05837  0.07278  1.0000
  C   C3839     1.0  0.78171  0.08313  0.17172  1.0000
  C   C3840     1.0  0.70621  0.48039  0.38715  1.0000
  C   C3841     1.0  0.59754  0.37158  0.21535  1.0000
  H   H3054     1.0  0.77371  0.07740  0.23277  1.0000
  H   H3055     1.0  0.76950  0.40380  0.40222  1.0000
  H   H3056     1.0  0.60166  0.30901  0.45477  1.0000
  H   H3057     1.0  0.66396  0.47242  0.47650  1.0000
  H   H3058     1.0  0.74375  0.15041  0.45063  1.0000
  H   H3059     1.0  0.67616  0.99384  0.09798  1.0000
  H   H3060     1.0  0.63611  0.32744  0.24594  1.0000
  H   H3061     1.0  0.78245  0.20507  0.15460  1.0000
  C   C3842     1.0  0.77864  0.13579  0.23728  1.0000
  H   H3062     1.0  0.69137  0.47961  0.33535  1.0000
  S   S509      1.0  0.78789  0.12254  0.01061  1.0000
  H   H3063     1.0  0.64392  0.99242  0.12486  1.0000
  H   H3064     1.0  0.76380  0.06689  0.01441  1.0000
  C   C3843     1.0  0.60021  0.08533  0.18033  1.0000
  H   H3065     1.0  0.70578  0.15419  0.46536  1.0000
  H   H3066     1.0  0.75634  0.00304  0.03677  1.0000
  C   C3844     1.0  0.75493  0.05491  0.01634  1.0000
  C   C3845     1.0  0.59934  0.12986  0.21207  1.0000
  C   C3846     1.0  0.72518  0.20788  0.99770  1.0000
  C   C3847     1.0  0.60140  0.30843  0.24771  1.0000
  H   H3067     1.0  0.78431  0.27274  0.39347  1.0000
  Fe  Fe252     1.0  0.78474  0.28668  0.00214  1.0000
  C   C3848     1.0  0.78121  0.46769  0.36673  1.0000
  C   C3849     1.0  0.78269  0.38300  0.38005  1.0000
  C   C3850     1.0  0.78437  0.20164  0.01203  1.0000
  C   C3851     1.0  0.76131  0.03460  0.02739  1.0000
  H   H3068     1.0  0.78160  0.48301  0.36895  1.0000
  C   C3852     1.0  0.78704  0.20695  0.22772  1.0000
  H   H3069     1.0  0.65662  0.04232  0.99419  1.0000
  Fe  Fe253     1.0  0.78423  0.25392  0.32554  1.0000
  H   H3070     1.0  0.61588  0.48455  0.40767  1.0000
  C   C3853     1.0  0.73080  0.99577  0.99396  1.0000
  H   H3071     1.0  0.74209  0.43039  0.48619  1.0000
  H   H3072     1.0  0.60283  0.22993  0.39233  1.0000
  C   C3854     1.0  0.59412  0.24706  0.43792  1.0000
  S   S510      1.0  0.78170  0.31125  0.36146  1.0000
  C   C3855     1.0  0.59766  0.24322  0.18383  1.0000
  H   H3073     1.0  0.77647  0.39084  0.01365  1.0000
  H   H3074     1.0  0.66034  0.26062  0.99207  1.0000
  H   H3075     1.0  0.60249  0.14444  0.38493  1.0000
  C   C3856     1.0  0.78393  0.43057  0.23177  1.0000
  S   S511      1.0  0.78826  0.28727  0.31482  1.0000
  C   C3857     1.0  0.78997  0.27700  0.26468  1.0000
  C   C3858     1.0  0.78963  0.33829  0.08744  1.0000
  H   H3076     1.0  0.78947  0.26269  0.27657  1.0000
  C   C3859     1.0  0.59337  0.35409  0.18351  1.0000
  H   H3077     1.0  0.79098  0.38982  0.20754  1.0000
  C   C3860     1.0  0.78050  0.41152  0.24496  1.0000
  C   C3861     1.0  0.59331  0.03098  0.17531  1.0000
  C   C3862     1.0  0.78899  0.35172  0.41587  1.0000
  C   C3863     1.0  0.78695  0.19081  0.30093  1.0000
  H   H3078     1.0  0.59774  0.21161  0.37027  1.0000
  H   H3079     1.0  0.78786  0.36339  0.99246  1.0000
  C   C3864     1.0  0.59723  0.17842  0.37941  1.0000
  H   H3080     1.0  0.59251  0.34705  0.17105  1.0000
  H   H3081     1.0  0.78961  0.18208  0.45103  1.0000
  C   C3865     1.0  0.78966  0.19251  0.14610  1.0000
  H   H3082     1.0  0.63260  0.38924  0.48834  1.0000
  C   C3866     1.0  0.79026  0.22589  0.22997  1.0000
  C   C3867     1.0  0.59300  0.24606  0.33239  1.0000
  H   H3083     1.0  0.62650  0.99215  0.03824  1.0000
  H   H3084     1.0  0.76801  0.99387  0.20727  1.0000
  C   C3868     1.0  0.79117  0.39830  0.31511  1.0000
  H   H3085     1.0  0.79085  0.33959  0.42978  1.0000
  C   C3869     1.0  0.79120  0.18004  0.35910  1.0000
  C   C3870     1.0  0.59151  0.34250  0.20411  1.0000
  Fe  Fe254     1.0  0.69147  0.04292  0.93695  1.0000
  Fe  Fe255     1.0  0.69307  0.08893  0.91862  1.0000
  S   S512      1.0  0.72612  0.08134  0.90138  1.0000
  S   S513      1.0  0.67785  0.12274  0.91966  1.0000
  Fe  Fe256     1.0  0.71567  0.05558  0.89306  1.0000
  S   S514      1.0  0.72399  0.05075  0.85945  1.0000
  H   H3086     1.0  0.59822  0.20046  0.86652  1.0000
  S   S515      1.0  0.68197  0.06511  0.90827  1.0000
  S   S516      1.0  0.69907  0.06761  0.94902  1.0000
  H   H3087     1.0  0.70828  0.01724  0.81005  1.0000
  P   P128      1.0  0.63073  0.45542  0.50928  1.0000
  S   S517      1.0  0.75529  0.36263  0.96968  1.0000
  C   C3871     1.0  0.75418  0.20451  0.95061  1.0000
  H   H3088     1.0  0.63399  0.24600  0.51539  1.0000
  H   H3089     1.0  0.60539  0.19306  0.90226  1.0000
  H   H3090     1.0  0.60401  0.21012  0.49235  1.0000
  C   C3872     1.0  0.60647  0.03748  0.82456  1.0000
  C   C3873     1.0  0.66205  0.01740  0.87102  1.0000
  H   H3091     1.0  0.64597  0.30021  0.66105  1.0000
  H   H3092     1.0  0.72541  0.38877  0.61144  1.0000
  H   H3093     1.0  0.68462  0.01488  0.91571  1.0000
  H   H3094     1.0  0.59439  0.23627  0.93752  1.0000
  C   C3874     1.0  0.70359  0.47393  0.86470  1.0000
  C   C3875     1.0  0.62006  0.00749  0.97157  1.0000
  H   H3095     1.0  0.72224  0.36117  0.59497  1.0000
  C   C3876     1.0  0.77962  0.04312  0.89888  1.0000
  S   S518      1.0  0.66335  0.03888  0.75129  1.0000
  H   H3096     1.0  0.62905  0.23527  0.87464  1.0000
  S   S519      1.0  0.71745  0.32325  0.50661  1.0000
  C   C3877     1.0  0.62186  0.07343  0.94037  1.0000
  Fe  Fe257     1.0  0.73413  0.34919  0.50305  1.0000
  S   S520      1.0  0.75003  0.35265  0.52708  1.0000
  H   H3097     1.0  0.65111  0.99583  0.71644  1.0000
  H   H3098     1.0  0.62276  0.05970  0.95287  1.0000
  H   H3099     1.0  0.77918  0.40658  0.96961  1.0000
  S   S521      1.0  0.62842  0.14424  0.80455  1.0000
  S   S522      1.0  0.64264  0.08339  0.82775  1.0000
  Fe  Fe258     1.0  0.61867  0.15727  0.83388  1.0000
  S   S523      1.0  0.63494  0.17675  0.84436  1.0000
  C   C3878     1.0  0.76646  0.21531  0.95633  1.0000
  C   C3879     1.0  0.75181  0.47629  0.53043  1.0000
  H   H3100     1.0  0.72556  0.43950  0.63311  1.0000
  S   S524      1.0  0.61393  0.27925  0.53915  1.0000
  C   C3880     1.0  0.60088  0.04039  0.69730  1.0000
  H   H3101     1.0  0.59148  0.38574  0.55061  1.0000
  C   C3881     1.0  0.77048  0.38601  0.93234  1.0000
  H   H3102     1.0  0.70124  0.28640  0.96623  1.0000
  H   H3103     1.0  0.62149  0.12313  0.89604  1.0000
  C   C3882     1.0  0.60048  0.00385  0.71340  1.0000
  H   H3104     1.0  0.75392  0.17011  0.98666  1.0000
  H   H3105     1.0  0.66992  0.46359  0.55871  1.0000
  C   C3883     1.0  0.74855  0.00264  0.98074  1.0000
  Fe  Fe259     1.0  0.72133  0.47445  0.71236  1.0000
  H   H3106     1.0  0.69387  0.34100  0.98095  1.0000
  S   S525      1.0  0.72072  0.44692  0.69870  1.0000
  H   H3107     1.0  0.72747  0.46947  0.64721  1.0000
  H   H3108     1.0  0.75980  0.14404  0.96426  1.0000
  S   S526      1.0  0.75255  0.47599  0.71745  1.0000
  H   H3109     1.0  0.68512  0.20443  0.97762  1.0000
  Fe  Fe260     1.0  0.64205  0.42068  0.64479  1.0000
  S   S527      1.0  0.64907  0.44390  0.61497  1.0000
  S   S528      1.0  0.64183  0.43087  0.67461  1.0000
  Fe  Fe261     1.0  0.63319  0.39095  0.62135  1.0000
  S   S529      1.0  0.64037  0.41216  0.58973  1.0000
  S   S530      1.0  0.62527  0.35947  0.62340  1.0000
  Fe  Fe262     1.0  0.66722  0.41602  0.60122  1.0000
  S   S531      1.0  0.69965  0.41899  0.58332  1.0000
  Fe  Fe263     1.0  0.62163  0.43766  0.60678  1.0000
  S   S532      1.0  0.66185  0.39283  0.63164  1.0000
  S   S533      1.0  0.61267  0.41648  0.63770  1.0000
  C   C3884     1.0  0.69874  0.44405  0.69074  1.0000
  C   C3885     1.0  0.67877  0.45583  0.69672  1.0000
  C   C3886     1.0  0.66150  0.45194  0.69133  1.0000
  C   C3887     1.0  0.66410  0.43679  0.67931  1.0000
  C   C3888     1.0  0.68416  0.42562  0.67262  1.0000
  C   C3889     1.0  0.70133  0.42896  0.67865  1.0000
  H   H3110     1.0  0.67655  0.46737  0.70616  1.0000
  H   H3111     1.0  0.64600  0.46050  0.69676  1.0000
  H   H3112     1.0  0.68628  0.41383  0.66353  1.0000
  H   H3113     1.0  0.71667  0.41969  0.67407  1.0000
  H   H3114     1.0  0.75462  0.43970  0.95915  1.0000
  H   H3115     1.0  0.65686  0.28060  0.51797  1.0000
  C   C3890     1.0  0.60642  0.34121  0.60287  1.0000
  C   C3891     1.0  0.60524  0.35882  0.61111  1.0000
  H   H3116     1.0  0.60540  0.08019  0.74318  1.0000
  C   C3892     1.0  0.66359  0.35721  0.57848  1.0000
  H   H3117     1.0  0.70372  0.24841  0.97691  1.0000
  H   H3118     1.0  0.62006  0.32865  0.60316  1.0000
  C   C3893     1.0  0.69448  0.49011  0.81481  1.0000
  C   C3894     1.0  0.74368  0.12264  0.98855  1.0000
  H   H3119     1.0  0.71056  0.48289  0.81570  1.0000
  C   C3895     1.0  0.64928  0.33169  0.52170  1.0000
  C   C3896     1.0  0.65967  0.31233  0.51636  1.0000
  C   C3897     1.0  0.64967  0.29510  0.52339  1.0000
  C   C3898     1.0  0.62956  0.29740  0.53590  1.0000
  C   C3899     1.0  0.62054  0.31593  0.54324  1.0000
  C   C3900     1.0  0.63007  0.33325  0.53572  1.0000
  C   C3901     1.0  0.67709  0.35071  0.59251  1.0000
  H   H3120     1.0  0.61562  0.27891  0.49591  1.0000
  H   H3121     1.0  0.60571  0.31717  0.55409  1.0000
  C   C3902     1.0  0.73531  0.37141  0.54213  1.0000
  C   C3903     1.0  0.71343  0.37532  0.54693  1.0000
  C   C3904     1.0  0.70220  0.38989  0.55966  1.0000
  C   C3905     1.0  0.71285  0.40075  0.56726  1.0000
  C   C3906     1.0  0.73464  0.39710  0.56208  1.0000
  C   C3907     1.0  0.74582  0.38223  0.54988  1.0000
  H   H3122     1.0  0.70519  0.36681  0.54123  1.0000
  H   H3123     1.0  0.68535  0.39281  0.56345  1.0000
  H   H3124     1.0  0.74295  0.40547  0.56787  1.0000
  H   H3125     1.0  0.76268  0.37924  0.54625  1.0000
  H   H3126     1.0  0.69774  0.44282  0.61402  1.0000
  C   C3908     1.0  0.63014  0.41361  0.52993  1.0000
  C   C3909     1.0  0.64956  0.07325  0.80488  1.0000
  C   C3910     1.0  0.63836  0.08140  0.78873  1.0000
  C   C3911     1.0  0.64329  0.07162  0.77143  1.0000
  C   C3912     1.0  0.65935  0.05380  0.77040  1.0000
  C   C3913     1.0  0.67109  0.04645  0.78605  1.0000
  C   C3914     1.0  0.66605  0.05598  0.80337  1.0000
  H   H3127     1.0  0.62563  0.09482  0.78990  1.0000
  H   H3128     1.0  0.63429  0.07740  0.75928  1.0000
  H   H3129     1.0  0.68388  0.03308  0.78503  1.0000
  H   H3130     1.0  0.67481  0.04980  0.81575  1.0000
  C   C3915     1.0  0.75545  0.99843  0.96055  1.0000
  C   C3916     1.0  0.65851  0.03914  0.86888  1.0000
  H   H3131     1.0  0.62926  0.04075  0.84016  1.0000
  C   C3917     1.0  0.62566  0.21722  0.93493  1.0000
  H   H3132     1.0  0.62796  0.21167  0.51367  1.0000
  C   C3918     1.0  0.62678  0.10918  0.92705  1.0000
  C   C3919     1.0  0.66664  0.13729  0.89814  1.0000
  C   C3920     1.0  0.66635  0.12808  0.88179  1.0000
  C   C3921     1.0  0.65671  0.14009  0.86511  1.0000
  C   C3922     1.0  0.64756  0.16135  0.86469  1.0000
  C   C3923     1.0  0.64814  0.17053  0.88091  1.0000
  C   C3924     1.0  0.65746  0.15853  0.89768  1.0000
  H   H3133     1.0  0.67343  0.11168  0.88201  1.0000
  H   H3134     1.0  0.65665  0.13293  0.85245  1.0000
  H   H3135     1.0  0.64097  0.18684  0.88060  1.0000
  H   H3136     1.0  0.65750  0.16566  0.91035  1.0000
  H   H3137     1.0  0.72255  0.00738  0.88114  1.0000
  C   C3925     1.0  0.71864  0.02934  0.85228  1.0000
  H   H3138     1.0  0.63831  0.46912  0.54474  1.0000
  H   H3139     1.0  0.63105  0.12295  0.92892  1.0000
  C   C3926     1.0  0.71286  0.37368  0.64283  1.0000
  C   C3927     1.0  0.71479  0.03189  0.83214  1.0000
  C   C3928     1.0  0.71141  0.01498  0.82552  1.0000
  H   H3140     1.0  0.71422  0.04710  0.82166  1.0000
  C   C3929     1.0  0.70566  0.16914  0.93766  1.0000
  H   H3141     1.0  0.75436  0.39357  0.93227  1.0000
  C   C3930     1.0  0.68393  0.99947  0.92553  1.0000
  C   C3931     1.0  0.62286  0.01991  0.95138  1.0000
  C   C3932     1.0  0.61838  0.43313  0.52190  1.0000
  H   H3142     1.0  0.59639  0.15306  0.91703  1.0000
  C   C3933     1.0  0.77551  0.36948  0.94881  1.0000
  C   C3934     1.0  0.62716  0.09125  0.94298  1.0000
  H   H3143     1.0  0.71413  0.38591  0.64997  1.0000
  S   S534      1.0  0.59818  0.46494  0.59429  1.0000
  H   H3144     1.0  0.62223  0.34801  0.54039  1.0000
  H   H3145     1.0  0.73877  0.44847  0.53852  1.0000
  H   H3146     1.0  0.77078  0.31548  0.55539  1.0000
  C   C3935     1.0  0.66251  0.14051  0.97235  1.0000
  H   H3147     1.0  0.61151  0.09199  0.89124  1.0000
  H   H3148     1.0  0.75680  0.01184  0.98555  1.0000
  H   H3149     1.0  0.75521  0.17841  0.93658  1.0000
  H   H3150     1.0  0.69469  0.17118  0.90976  1.0000
  C   C3936     1.0  0.60996  0.23740  0.90535  1.0000
  C   C3937     1.0  0.59897  0.39887  0.54228  1.0000
  Fe  Fe264     1.0  0.67265  0.00571  0.76837  1.0000
  C   C3938     1.0  0.70892  0.34240  0.62413  1.0000
  C   C3939     1.0  0.60000  0.00758  0.98382  1.0000
  C   C3940     1.0  0.61213  0.47883  0.51497  1.0000
  C   C3941     1.0  0.61021  0.19700  0.73120  1.0000
  C   C3942     1.0  0.67050  0.27336  0.65547  1.0000
  H   H3151     1.0  0.76263  0.41156  0.68556  1.0000
  H   H3152     1.0  0.70346  0.44375  0.54193  1.0000
  H   H3153     1.0  0.68820  0.47338  0.86318  1.0000
  H   H3154     1.0  0.70452  0.15278  0.94362  1.0000
  H   H3155     1.0  0.71745  0.27558  0.62249  1.0000
  C   C3943     1.0  0.78802  0.20803  0.95398  1.0000
  H   H3156     1.0  0.72368  0.45189  0.57539  1.0000
  H   H3157     1.0  0.67482  0.35952  0.60458  1.0000
  H   H3158     1.0  0.69964  0.35523  0.67206  1.0000
  H   H3159     1.0  0.77736  0.12185  0.92569  1.0000
  C   C3944     1.0  0.74341  0.47472  0.86879  1.0000
  H   H3160     1.0  0.65780  0.48988  0.78855  1.0000
  H   H3161     1.0  0.61901  0.00091  0.77918  1.0000
  C   C3945     1.0  0.62819  0.23052  0.89145  1.0000
  C   C3946     1.0  0.64522  0.21718  0.89922  1.0000
  C   C3947     1.0  0.71867  0.28538  0.93474  1.0000
  C   C3948     1.0  0.61232  0.22262  0.74971  1.0000
  H   H3162     1.0  0.60234  0.46535  0.54788  1.0000
  C   C3949     1.0  0.70169  0.20057  0.91064  1.0000
  H   H3163     1.0  0.71765  0.17119  0.96347  1.0000
  H   H3164     1.0  0.66146  0.26199  0.66541  1.0000
  H   H3165     1.0  0.63573  0.19461  0.74585  1.0000
  H   H3166     1.0  0.63851  0.02014  0.94225  1.0000
  C   C3950     1.0  0.69266  0.33249  0.59145  1.0000
  C   C3951     1.0  0.71921  0.37530  0.62113  1.0000
  C   C3952     1.0  0.76918  0.07280  0.95052  1.0000
  C   C3953     1.0  0.60643  0.22526  0.49276  1.0000
  H   H3167     1.0  0.66156  0.40128  0.49425  1.0000
  H   H3168     1.0  0.63357  0.99820  0.97783  1.0000
  S   S535      1.0  0.76163  0.30110  0.98133  1.0000
  C   C3954     1.0  0.76402  0.18693  0.94152  1.0000
  C   C3955     1.0  0.63863  0.18162  0.96741  1.0000
  H   H3169     1.0  0.77536  0.01414  0.80975  1.0000
  H   H3170     1.0  0.65924  0.21160  0.88842  1.0000
  C   C3956     1.0  0.76859  0.29116  0.60669  1.0000
  H   H3171     1.0  0.62545  0.00600  0.91465  1.0000
  Fe  Fe265     1.0  0.62085  0.11446  0.82592  1.0000
  S   S536      1.0  0.72443  0.03179  0.92119  1.0000
  C   C3957     1.0  0.65833  0.24999  0.96520  1.0000
  H   H3172     1.0  0.71016  0.22738  0.91533  1.0000
  P   P129      1.0  0.70767  0.32210  0.61166  1.0000
  C   C3958     1.0  0.66557  0.34567  0.56334  1.0000
  C   C3959     1.0  0.70134  0.49019  0.63500  1.0000
  C   C3960     1.0  0.64957  0.23717  0.95794  1.0000
  H   H3173     1.0  0.69749  0.20855  0.89570  1.0000
  H   H3174     1.0  0.64675  0.41141  0.52880  1.0000
  H   H3175     1.0  0.61733  0.02624  0.81587  1.0000
  H   H3176     1.0  0.61267  0.31714  0.49623  1.0000
  C   C3961     1.0  0.67876  0.99698  0.94734  1.0000
  H   H3177     1.0  0.62490  0.17147  0.94680  1.0000
  H   H3178     1.0  0.67221  0.47616  0.60834  1.0000
  C   C3962     1.0  0.70469  0.35638  0.65525  1.0000
  H   H3179     1.0  0.78850  0.49118  0.55654  1.0000
  C   C3963     1.0  0.61809  0.99756  0.69834  1.0000
  C   C3964     1.0  0.63597  0.22484  0.97202  1.0000
  S   S537      1.0  0.75722  0.05272  0.94935  1.0000
  C   C3965     1.0  0.65368  0.25053  0.98654  1.0000
  C   C3966     1.0  0.62125  0.10928  0.90846  1.0000
  H   H3180     1.0  0.65587  0.18603  0.98851  1.0000
  C   C3967     1.0  0.64743  0.14651  0.96004  1.0000
  H   H3181     1.0  0.77850  0.28107  0.61714  1.0000
  C   C3968     1.0  0.60869  0.23084  0.92703  1.0000
  C   C3969     1.0  0.77437  0.00041  0.82229  1.0000
  C   C3970     1.0  0.71583  0.47128  0.63805  1.0000
  H   H3182     1.0  0.59511  0.10700  0.71272  1.0000
  C   C3971     1.0  0.61817  0.03429  0.68203  1.0000
  C   C3972     1.0  0.62682  0.01296  0.68260  1.0000
  C   C3973     1.0  0.78481  0.41920  0.95761  1.0000
  H   H3183     1.0  0.61608  0.46986  0.66314  1.0000
  Fe  Fe266     1.0  0.69270  0.34925  0.49450  1.0000
  C   C3974     1.0  0.71724  0.35974  0.61181  1.0000
  S   S538      1.0  0.66132  0.99918  0.80331  1.0000
  C   C3975     1.0  0.73220  0.46346  0.56487  1.0000
  H   H3184     1.0  0.62958  0.38166  0.54626  1.0000
  H   H3185     1.0  0.74659  0.11116  0.97881  1.0000
  H   H3186     1.0  0.73747  0.27937  0.90501  1.0000
  H   H3187     1.0  0.68764  0.99562  0.71556  1.0000
  C   C3976     1.0  0.69388  0.30282  0.62962  1.0000
  H   H3188     1.0  0.67403  0.00977  0.85978  1.0000
  C   C3977     1.0  0.71307  0.17964  0.94883  1.0000
  H   H3189     1.0  0.74084  0.24086  0.91564  1.0000
  H   H3190     1.0  0.71779  0.30221  0.93029  1.0000
  S   S539      1.0  0.70825  0.37512  0.49358  1.0000
  C   C3978     1.0  0.68518  0.48425  0.80148  1.0000
  H   H3191     1.0  0.76158  0.02062  0.86928  1.0000
  H   H3192     1.0  0.62524  0.04610  0.67014  1.0000
  C   C3979     1.0  0.59942  0.06058  0.84894  1.0000
  C   C3980     1.0  0.59209  0.02517  0.71292  1.0000
  Fe  Fe267     1.0  0.59415  0.15223  0.80427  1.0000
  C   C3981     1.0  0.71456  0.20729  0.98258  1.0000
  C   C3982     1.0  0.67073  0.45758  0.54499  1.0000
  H   H3193     1.0  0.69720  0.24990  0.64596  1.0000
  C   C3983     1.0  0.78504  0.00425  0.88783  1.0000
  C   C3984     1.0  0.74322  0.31785  0.57980  1.0000
  C   C3985     1.0  0.68448  0.47506  0.61642  1.0000
  H   H3194     1.0  0.61659  0.18214  0.72620  1.0000
  H   H3195     1.0  0.76301  0.42414  0.71681  1.0000
  C   C3986     1.0  0.71946  0.00956  0.86566  1.0000
  C   C3987     1.0  0.61811  0.48393  0.65129  1.0000
  C   C3988     1.0  0.70010  0.17955  0.91852  1.0000
  C   C3989     1.0  0.71469  0.45432  0.63024  1.0000
  C   C3990     1.0  0.76429  0.31046  0.57191  1.0000
  C   C3991     1.0  0.72976  0.27249  0.92053  1.0000
  H   H3196     1.0  0.62053  0.22775  0.75876  1.0000
  C   C3992     1.0  0.73453  0.31156  0.60113  1.0000
  C   C3993     1.0  0.63452  0.01548  0.90202  1.0000
  C   C3994     1.0  0.73147  0.25070  0.92654  1.0000
  H   H3197     1.0  0.70594  0.30640  0.57550  1.0000
  C   C3995     1.0  0.71525  0.45626  0.87573  1.0000
  H   H3198     1.0  0.69682  0.32727  0.65595  1.0000
  C   C3996     1.0  0.61327  0.26392  0.49478  1.0000
  H   H3199     1.0  0.75940  0.22914  0.96305  1.0000
  S   S540      1.0  0.61391  0.12679  0.85517  1.0000
  C   C3997     1.0  0.60429  0.99590  0.78344  1.0000
  H   H3200     1.0  0.66861  0.25967  0.95425  1.0000
  H   H3201     1.0  0.69408  0.47257  0.79232  1.0000
  H   H3202     1.0  0.67379  0.43292  0.49787  1.0000
  C   C3998     1.0  0.77105  0.02178  0.87951  1.0000
  C   C3999     1.0  0.75094  0.14133  0.98023  1.0000
  C   C4000     1.0  0.69899  0.45620  0.61948  1.0000
  C   C4001     1.0  0.70920  0.27650  0.95493  1.0000
  C   C4002     1.0  0.64292  0.04913  0.88327  1.0000
  C   C4003     1.0  0.77615  0.41708  0.68615  1.0000
  C   C4004     1.0  0.63082  0.03737  0.90009  1.0000
  C   C4005     1.0  0.70901  0.21118  0.92182  1.0000
  C   C4006     1.0  0.67274  0.44022  0.51080  1.0000
  C   C4007     1.0  0.69447  0.32086  0.57622  1.0000
  C   C4008     1.0  0.69060  0.43735  0.51875  1.0000
  H   H3203     1.0  0.75860  0.05481  0.87735  1.0000
  C   C4009     1.0  0.70286  0.34067  0.64599  1.0000
  P   P130      1.0  0.62420  0.20845  0.96286  1.0000
  H   H3204     1.0  0.67469  0.31106  0.50572  1.0000
  H   H3205     1.0  0.59347  0.99248  0.72598  1.0000
  P   P131      1.0  0.72613  0.21335  0.95499  1.0000
  C   C4010     1.0  0.62015  0.22602  0.50483  1.0000
  C   C4011     1.0  0.65281  0.46056  0.53703  1.0000
  H   H3206     1.0  0.75814  0.47421  0.51447  1.0000
  H   H3207     1.0  0.65480  0.35058  0.55288  1.0000
  H   H3208     1.0  0.66791  0.04832  0.85603  1.0000
  C   C4012     1.0  0.61593  0.07346  0.92176  1.0000
  H   H3209     1.0  0.59216  0.01776  0.75777  1.0000
  P   P132      1.0  0.60960  0.05018  0.91805  1.0000
  S   S541      1.0  0.67384  0.01891  0.95879  1.0000
  C   C4013     1.0  0.61570  0.09159  0.90583  1.0000
  H   H3210     1.0  0.65336  0.23709  0.94135  1.0000
  C   C4014     1.0  0.59981  0.47877  0.53519  1.0000
  C   C4015     1.0  0.59704  0.21024  0.97574  1.0000
  C   C4016     1.0  0.65374  0.45212  0.51965  1.0000
  H   H3211     1.0  0.65113  0.37084  0.57974  1.0000
  C   C4017     1.0  0.71069  0.25476  0.96093  1.0000
  Fe  Fe268     1.0  0.73156  0.05839  0.93115  1.0000
  C   C4018     1.0  0.69067  0.26656  0.64456  1.0000
  H   H3212     1.0  0.66616  0.32608  0.63801  1.0000
  C   C4019     1.0  0.74066  0.46156  0.54407  1.0000
  C   C4020     1.0  0.71494  0.20073  0.94095  1.0000
  H   H3213     1.0  0.64059  0.06599  0.88098  1.0000
  C   C4021     1.0  0.63736  0.49010  0.64533  1.0000
  C   C4022     1.0  0.70225  0.28121  0.63146  1.0000
  C   C4023     1.0  0.64394  0.21046  0.92085  1.0000
  H   H3214     1.0  0.60497  0.06730  0.85901  1.0000
  C   C4024     1.0  0.76738  0.09215  0.93642  1.0000
  C   C4025     1.0  0.78562  0.17984  0.93899  1.0000
  C   C4026     1.0  0.66182  0.29483  0.65314  1.0000
  H   H3215     1.0  0.65714  0.19986  0.92662  1.0000
  H   H3216     1.0  0.62850  0.00094  0.84935  1.0000
  H   H3217     1.0  0.70887  0.44221  0.88260  1.0000
  C   C4027     1.0  0.67338  0.30949  0.64016  1.0000
  H   H3218     1.0  0.64999  0.48056  0.65282  1.0000
  H   H3219     1.0  0.73392  0.32879  0.56921  1.0000
  S   S542      1.0  0.65913  0.35451  0.51027  1.0000
  C   C4028     1.0  0.73518  0.45664  0.87774  1.0000
  C   C4029     1.0  0.60565  0.03269  0.94334  1.0000
  H   H3220     1.0  0.59451  0.18050  0.97040  1.0000
  C   C4030     1.0  0.73500  0.48007  0.57212  1.0000
  C   C4031     1.0  0.62363  0.24533  0.50577  1.0000
  H   H3221     1.0  0.59669  0.24758  0.89931  1.0000
  H   H3222     1.0  0.74132  0.29442  0.63131  1.0000
  C   C4032     1.0  0.62096  0.20397  0.74239  1.0000
  C   C4033     1.0  0.61317  0.04555  0.83830  1.0000
  H   H3223     1.0  0.63191  0.09108  0.95722  1.0000
  C   C4034     1.0  0.62045  0.39661  0.53999  1.0000
  H   H3224     1.0  0.75809  0.09528  0.92465  1.0000
  H   H3225     1.0  0.70517  0.42796  0.51200  1.0000
  C   C4035     1.0  0.59283  0.23421  0.74603  1.0000
  C   C4036     1.0  0.78621  0.39291  0.91598  1.0000
  C   C4037     1.0  0.77641  0.42413  0.70386  1.0000
  C   C4038     1.0  0.78225  0.99847  0.84013  1.0000
  C   C4039     1.0  0.68109  0.32762  0.56202  1.0000
  H   H3226     1.0  0.68244  0.31872  0.55021  1.0000
  C   C4040     1.0  0.72173  0.24165  0.94670  1.0000
  C   C4041     1.0  0.68963  0.44620  0.53569  1.0000
  C   C4042     1.0  0.74750  0.29859  0.61463  1.0000
  H   H3227     1.0  0.67197  0.12475  0.97374  1.0000
  C   C4043     1.0  0.77696  0.29702  0.58530  1.0000
  S   S543      1.0  0.70367  0.48572  0.74214  1.0000
  H   H3228     1.0  0.76854  0.00463  0.95012  1.0000
  C   C4044     1.0  0.59679  0.43516  0.52389  1.0000
  H   H3229     1.0  0.72865  0.48136  0.58833  1.0000
  C   C4045     1.0  0.77806  0.45377  0.93547  1.0000
  H   H3230     1.0  0.64077  0.00847  0.67121  1.0000
  H   H3231     1.0  0.59545  0.42639  0.58488  1.0000
  H   H3232     1.0  0.70850  0.37103  0.98162  1.0000
  H   H3233     1.0  0.59318  0.24083  0.98310  1.0000
  H   H3234     1.0  0.68874  0.48212  0.50062  1.0000
  H   H3235     1.0  0.64505  0.13533  0.95223  1.0000
  H   H3236     1.0  0.76698  0.46789  0.93090  1.0000
  S   S544      1.0  0.74415  0.48216  0.77693  1.0000
  C   C4046     1.0  0.65024  0.00554  0.88770  1.0000
  C   C4047     1.0  0.77830  0.10718  0.93705  1.0000
  H   H3237     1.0  0.74427  0.44290  0.88616  1.0000
  C   C4048     1.0  0.63583  0.16704  0.95722  1.0000
  H   H3238     1.0  0.59444  0.05689  0.69721  1.0000
  C   C4049     1.0  0.76894  0.04126  0.88445  1.0000
  H   H3239     1.0  0.77738  0.05813  0.90324  1.0000
  C   C4050     1.0  0.65341  0.17529  0.98033  1.0000
  C   C4051     1.0  0.66555  0.15492  0.98247  1.0000
  H   H3240     1.0  0.78210  0.40561  0.90328  1.0000
  H   H3241     1.0  0.78312  0.05384  0.97635  1.0000
  H   H3242     1.0  0.75889  0.47503  0.87015  1.0000
  H   H3243     1.0  0.75351  0.48774  0.81440  1.0000
  C   C4052     1.0  0.71253  0.99516  0.83876  1.0000
  H   H3244     1.0  0.76678  0.49174  0.89437  1.0000
  H   H3245     1.0  0.78986  0.01053  0.84085  1.0000
  Fe  Fe269     1.0  0.73465  0.49017  0.74531  1.0000
  C   C4053     1.0  0.78141  0.06889  0.96562  1.0000
  C   C4054     1.0  0.77096  0.43782  0.95157  1.0000
  C   C4055     1.0  0.71679  0.99247  0.85876  1.0000
  C   C4056     1.0  0.79056  0.10322  0.95216  1.0000
  C   C4057     1.0  0.60752  0.59525  0.22111  1.0000
  C   C4058     1.0  0.65333  0.86059  0.03256  1.0000
  H   H3246     1.0  0.67862  0.66250  0.46697  1.0000
  H   H3247     1.0  0.75693  0.52776  0.19844  1.0000
  H   H3248     1.0  0.66208  0.84528  0.03853  1.0000
  H   H3249     1.0  0.70159  0.59153  0.43129  1.0000
  H   H3250     1.0  0.65241  0.94548  0.00042  1.0000
  H   H3251     1.0  0.69095  0.61878  0.37928  1.0000
  S   S545      1.0  0.64492  0.50502  0.27934  1.0000
  P   P133      1.0  0.73971  0.74603  0.46815  1.0000
  C   C4059     1.0  0.68777  0.74627  0.43528  1.0000
  H   H3252     1.0  0.67567  0.60183  0.46197  1.0000
  H   H3253     1.0  0.65633  0.97449  0.01445  1.0000
  C   C4060     1.0  0.72700  0.96570  0.07709  1.0000
  H   H3254     1.0  0.60691  0.75803  0.10666  1.0000
  Fe  Fe270     1.0  0.61256  0.60092  0.34586  1.0000
  C   C4061     1.0  0.67951  0.66741  0.48077  1.0000
  S   S546      1.0  0.64436  0.58439  0.35147  1.0000
  C   C4062     1.0  0.74948  0.80622  0.45151  1.0000
  C   C4063     1.0  0.60318  0.95699  0.02943  1.0000
  C   C4064     1.0  0.70619  0.69639  0.31663  1.0000
  S   S547      1.0  0.60637  0.60026  0.31485  1.0000
  H   H3255     1.0  0.75845  0.50406  0.48344  1.0000
  C   C4065     1.0  0.59583  0.57016  0.46961  1.0000
  S   S548      1.0  0.63004  0.78371  0.02618  1.0000
  C   C4066     1.0  0.69073  0.65913  0.32943  1.0000
  H   H3256     1.0  0.77846  0.69081  0.42603  1.0000
  C   C4067     1.0  0.70563  0.76528  0.44887  1.0000
  C   C4068     1.0  0.70176  0.72763  0.44102  1.0000
  C   C4069     1.0  0.78738  0.49231  0.46414  1.0000
  C   C4070     1.0  0.76818  0.67348  0.45699  1.0000
  C   C4071     1.0  0.62454  0.88198  0.01677  1.0000
  H   H3257     1.0  0.66957  0.61788  0.41502  1.0000
  H   H3258     1.0  0.59260  0.98127  0.04755  1.0000
  C   C4072     1.0  0.59629  0.80830  0.12207  1.0000
  C   C4073     1.0  0.74530  0.81236  0.47073  1.0000
  C   C4074     1.0  0.73521  0.94239  0.05274  1.0000
  S   S549      1.0  0.72575  0.87155  0.00200  1.0000
  C   C4075     1.0  0.59313  0.73665  0.07295  1.0000
  C   C4076     1.0  0.63145  0.64143  0.38727  1.0000
  H   H3259     1.0  0.61648  0.58104  0.27084  1.0000
  Fe  Fe271     1.0  0.73499  0.50409  0.44337  1.0000
  Fe  Fe272     1.0  0.70333  0.54358  0.43192  1.0000
  S   S550      1.0  0.72446  0.55383  0.40154  1.0000
  S   S551      1.0  0.67116  0.56337  0.43842  1.0000
  Fe  Fe273     1.0  0.73056  0.52010  0.39852  1.0000
  S   S552      1.0  0.72876  0.51205  0.36827  1.0000
  Fe  Fe274     1.0  0.74981  0.54431  0.42020  1.0000
  S   S553      1.0  0.70778  0.51063  0.42795  1.0000
  S   S554      1.0  0.72804  0.53621  0.45088  1.0000
  C   C4077     1.0  0.72632  0.98016  0.04019  1.0000
  C   C4078     1.0  0.72355  0.60859  0.43373  1.0000
  H   H3260     1.0  0.70957  0.69241  0.28508  1.0000
  C   C4079     1.0  0.64140  0.96976  0.01836  1.0000
  C   C4080     1.0  0.69999  0.68814  0.33799  1.0000
  H   H3261     1.0  0.72477  0.96792  0.09295  1.0000
  H   H3262     1.0  0.68763  0.66341  0.36101  1.0000
  C   C4081     1.0  0.74560  0.97610  0.20842  1.0000
  H   H3263     1.0  0.70003  0.71299  0.43836  1.0000
  Fe  Fe275     1.0  0.66249  0.94156  0.07317  1.0000
  S   S555      1.0  0.66800  0.91455  0.10012  1.0000
  S   S556      1.0  0.68425  0.95089  0.04279  1.0000
  Fe  Fe276     1.0  0.61799  0.95660  0.09373  1.0000
  S   S557      1.0  0.61945  0.93072  0.12221  1.0000
  Fe  Fe277     1.0  0.65066  0.93810  0.12051  1.0000
  S   S558      1.0  0.65726  0.94266  0.15055  1.0000
  Fe  Fe278     1.0  0.63632  0.90977  0.09921  1.0000
  S   S559      1.0  0.63126  0.87729  0.09974  1.0000
  S   S560      1.0  0.64774  0.96527  0.09342  1.0000
  S   S561      1.0  0.63240  0.93526  0.07088  1.0000
  H   H3264     1.0  0.60229  0.68102  0.06225  1.0000
  C   C4082     1.0  0.67917  0.98290  0.17167  1.0000
  C   C4083     1.0  0.66746  0.96902  0.16996  1.0000
  C   C4084     1.0  0.67139  0.96117  0.15153  1.0000
  C   C4085     1.0  0.68709  0.96744  0.13476  1.0000
  H   H3265     1.0  0.74751  0.82763  0.47133  1.0000
  H   H3266     1.0  0.63773  0.62185  0.47898  1.0000
  H   H3267     1.0  0.65545  0.96412  0.18307  1.0000
  H   H3268     1.0  0.69050  0.96116  0.12070  1.0000
  C   C4086     1.0  0.61035  0.50115  0.24687  1.0000
  C   C4087     1.0  0.76258  0.98571  0.19842  1.0000
  C   C4088     1.0  0.60552  0.97353  0.03708  1.0000
  C   C4089     1.0  0.73566  0.66864  0.44120  1.0000
  C   C4090     1.0  0.59262  0.88732  0.08865  1.0000
  C   C4091     1.0  0.73772  0.96586  0.19744  1.0000
  C   C4092     1.0  0.70471  0.60170  0.43985  1.0000
  H   H3269     1.0  0.73500  0.60376  0.42041  1.0000
  H   H3270     1.0  0.61472  0.64725  0.38967  1.0000
  C   C4093     1.0  0.60002  0.85129  0.07189  1.0000
  C   C4094     1.0  0.59447  0.79251  0.15887  1.0000
  C   C4095     1.0  0.76849  0.73608  0.43223  1.0000
  H   H3271     1.0  0.63067  0.84501  0.07896  1.0000
  C   C4096     1.0  0.78219  0.72960  0.46367  1.0000
  C   C4097     1.0  0.65957  0.87873  0.03297  1.0000
  H   H3272     1.0  0.70643  0.97913  0.99662  1.0000
  C   C4098     1.0  0.60041  0.52207  0.24690  1.0000
  H   H3273     1.0  0.64837  0.68640  0.48343  1.0000
  H   H3274     1.0  0.75776  0.70255  0.48746  1.0000
  C   C4099     1.0  0.64822  0.57586  0.37739  1.0000
  C   C4100     1.0  0.66541  0.55989  0.38121  1.0000
  C   C4101     1.0  0.67174  0.55544  0.40034  1.0000
  C   C4102     1.0  0.66088  0.56678  0.41593  1.0000
  C   C4103     1.0  0.64262  0.58156  0.41285  1.0000
  C   C4104     1.0  0.63628  0.58619  0.39349  1.0000
  H   H3275     1.0  0.67458  0.55165  0.36892  1.0000
  H   H3276     1.0  0.68549  0.54364  0.40256  1.0000
  H   H3277     1.0  0.63402  0.59008  0.42505  1.0000
  H   H3278     1.0  0.62299  0.59853  0.39057  1.0000
  C   C4105     1.0  0.74724  0.78628  0.45088  1.0000
  C   C4106     1.0  0.66239  0.62502  0.40156  1.0000
  C   C4107     1.0  0.69009  0.60756  0.45723  1.0000
  C   C4108     1.0  0.69518  0.98877  0.15504  1.0000
  H   H3279     1.0  0.75473  0.81687  0.43716  1.0000
  C   C4109     1.0  0.70475  0.68604  0.30164  1.0000
  C   C4110     1.0  0.69606  0.50930  0.27391  1.0000
  C   C4111     1.0  0.64097  0.63330  0.40457  1.0000
  C   C4112     1.0  0.75359  0.66181  0.46989  1.0000
  P   P134      1.0  0.71968  0.64235  0.47791  1.0000
  C   C4113     1.0  0.59439  0.57041  0.26014  1.0000
  H   H3280     1.0  0.62079  0.74701  0.07272  1.0000
  C   C4114     1.0  0.62364  0.51979  0.29385  1.0000
  C   C4115     1.0  0.60371  0.51529  0.29804  1.0000
  H   H3281     1.0  0.61378  0.95070  0.17272  1.0000
  C   C4116     1.0  0.73403  0.50183  0.17621  1.0000
  C   C4117     1.0  0.60991  0.54707  0.31413  1.0000
  C   C4118     1.0  0.62675  0.53556  0.30207  1.0000
  C   C4119     1.0  0.77185  0.98521  0.17727  1.0000
  H   H3282     1.0  0.71211  0.71081  0.31167  1.0000
  C   C4120     1.0  0.61021  0.98277  0.15566  1.0000
  H   H3283     1.0  0.64225  0.53858  0.29951  1.0000
  C   C4121     1.0  0.63885  0.80285  0.00495  1.0000
  C   C4122     1.0  0.78858  0.72926  0.42109  1.0000
  H   H3284     1.0  0.62371  0.98514  0.15990  1.0000
  C   C4123     1.0  0.75031  0.68027  0.42833  1.0000
  C   C4124     1.0  0.61816  0.49854  0.39590  1.0000
  C   C4125     1.0  0.65599  0.81113  0.00454  1.0000
  C   C4126     1.0  0.63577  0.86222  0.02455  1.0000
  C   C4127     1.0  0.74700  0.96500  0.17653  1.0000
  H   H3285     1.0  0.66496  0.80466  0.01673  1.0000
  C   C4128     1.0  0.71448  0.89378  0.01309  1.0000
  C   C4129     1.0  0.71111  0.89178  0.03483  1.0000
  C   C4130     1.0  0.70149  0.90928  0.04399  1.0000
  C   C4131     1.0  0.69588  0.92896  0.03136  1.0000
  C   C4132     1.0  0.69966  0.93109  0.00955  1.0000
  C   C4133     1.0  0.70871  0.91345  0.00042  1.0000
  H   H3286     1.0  0.71553  0.87658  0.04464  1.0000
  H   H3287     1.0  0.69872  0.90759  0.06082  1.0000
  H   H3288     1.0  0.69524  0.94626  0.99975  1.0000
  H   H3289     1.0  0.59916  0.73228  0.05779  1.0000
  C   C4134     1.0  0.62315  0.54419  0.45426  1.0000
  H   H3290     1.0  0.65769  0.52089  0.36317  1.0000
  C   C4135     1.0  0.60463  0.53073  0.37332  1.0000
  H   H3291     1.0  0.63094  0.53683  0.44097  1.0000
  H   H3292     1.0  0.70112  0.69615  0.34960  1.0000
  C   C4136     1.0  0.63087  0.90034  0.01684  1.0000
  H   H3293     1.0  0.68402  0.52347  0.27338  1.0000
  C   C4137     1.0  0.69232  0.66955  0.34440  1.0000
  C   C4138     1.0  0.61999  0.94663  0.01609  1.0000
  C   C4139     1.0  0.71989  0.74666  0.45441  1.0000
  C   C4140     1.0  0.60514  0.55975  0.45301  1.0000
  H   H3294     1.0  0.74048  0.95758  0.16787  1.0000
  H   H3295     1.0  0.64702  0.52858  0.47144  1.0000
  H   H3296     1.0  0.75073  0.78171  0.43585  1.0000
  H   H3297     1.0  0.60304  0.83735  0.06545  1.0000
  C   C4141     1.0  0.70529  0.50144  0.29139  1.0000
  H   H3298     1.0  0.65376  0.91223  0.02564  1.0000
  C   C4142     1.0  0.67437  0.62527  0.38125  1.0000
  C   C4143     1.0  0.61211  0.87372  0.08792  1.0000
  C   C4144     1.0  0.70188  0.49862  0.25735  1.0000
  C   C4145     1.0  0.74095  0.77220  0.46952  1.0000
  S   S562      1.0  0.76853  0.56919  0.41710  1.0000
  C   C4146     1.0  0.74446  0.51662  0.17786  1.0000
  C   C4147     1.0  0.59222  0.58369  0.22359  1.0000
  C   C4148     1.0  0.76395  0.97467  0.16645  1.0000
  H   H3299     1.0  0.60962  0.81853  0.14256  1.0000
  C   C4149     1.0  0.76514  0.73597  0.45374  1.0000
  H   H3300     1.0  0.72313  0.66692  0.43488  1.0000
  H   H3301     1.0  0.74916  0.68732  0.41219  1.0000
  C   C4150     1.0  0.62463  0.97982  0.03168  1.0000
  H   H3302     1.0  0.74298  0.62558  0.44045  1.0000
  C   C4151     1.0  0.63914  0.95322  0.01060  1.0000
  H   H3303     1.0  0.67313  0.87744  0.03930  1.0000
  C   C4152     1.0  0.69708  0.66746  0.30800  1.0000
  H   H3304     1.0  0.64970  0.66791  0.31807  1.0000
  H   H3305     1.0  0.69615  0.65956  0.29620  1.0000
  H   H3306     1.0  0.69456  0.50505  0.24390  1.0000
  H   H3307     1.0  0.72416  0.95897  0.20498  1.0000
  H   H3308     1.0  0.60345  0.61510  0.42160  1.0000
  H   H3309     1.0  0.76029  0.61419  0.47371  1.0000
  Fe  Fe279     1.0  0.59563  0.79614  0.03200  1.0000
  H   H3310     1.0  0.70051  0.50972  0.30424  1.0000
  H   H3311     1.0  0.76592  0.54188  0.47943  1.0000
  C   C4153     1.0  0.73222  0.95969  0.03630  1.0000
  H   H3312     1.0  0.67525  0.74612  0.42804  1.0000
  C   C4154     1.0  0.70766  0.49387  0.35008  1.0000
  H   H3313     1.0  0.61262  0.55854  0.32110  1.0000
  C   C4155     1.0  0.64192  0.51879  0.37054  1.0000
  H   H3314     1.0  0.61110  0.88284  0.01047  1.0000
  H   H3315     1.0  0.63162  0.63281  0.42035  1.0000
  H   H3316     1.0  0.74919  0.52830  0.16419  1.0000
  C   C4156     1.0  0.76673  0.68241  0.43615  1.0000
  H   H3317     1.0  0.68299  0.62416  0.48233  1.0000
  H   H3318     1.0  0.73828  0.97706  0.22457  1.0000
  H   H3319     1.0  0.61243  0.60509  0.20606  1.0000
  H   H3320     1.0  0.72821  0.71318  0.45542  1.0000
  H   H3321     1.0  0.77066  0.97421  0.15010  1.0000
  C   C4157     1.0  0.60529  0.74501  0.08137  1.0000
  C   C4158     1.0  0.61627  0.59433  0.23811  1.0000
  C   C4159     1.0  0.60975  0.58184  0.25760  1.0000
  C   C4160     1.0  0.59719  0.75158  0.10049  1.0000
  C   C4161     1.0  0.71309  0.62766  0.46224  1.0000
  C   C4162     1.0  0.61569  0.85568  0.07952  1.0000
  H   H3322     1.0  0.73886  0.92663  0.04971  1.0000
  C   C4163     1.0  0.72387  0.98304  0.06071  1.0000
  C   C4164     1.0  0.60104  0.51372  0.38995  1.0000
  P   P135      1.0  0.61700  0.92570  0.00533  1.0000
  H   H3323     1.0  0.77772  0.60276  0.43025  1.0000
  H   H3324     1.0  0.62768  0.54703  0.35167  1.0000
  H   H3325     1.0  0.60923  0.53253  0.24884  1.0000
  C   C4165     1.0  0.68971  0.76507  0.43921  1.0000
  C   C4166     1.0  0.74880  0.51633  0.19715  1.0000
  C   C4167     1.0  0.71774  0.72780  0.45061  1.0000
  H   H3326     1.0  0.75573  0.74170  0.42398  1.0000
  C   C4168     1.0  0.63222  0.53946  0.47183  1.0000
  H   H3327     1.0  0.63088  0.84812  0.02434  1.0000
  C   C4169     1.0  0.72789  0.62120  0.44504  1.0000
  H   H3328     1.0  0.62797  0.60342  0.23625  1.0000
  C   C4170     1.0  0.64843  0.89854  0.02515  1.0000
  H   H3329     1.0  0.59792  0.79206  0.17385  1.0000
  C   C4171     1.0  0.73251  0.94538  0.07312  1.0000
  H   H3330     1.0  0.73068  0.50203  0.16125  1.0000
  H   H3331     1.0  0.73368  0.95683  0.02084  1.0000
  H   H3332     1.0  0.70651  0.77989  0.45229  1.0000
  H   H3333     1.0  0.67865  0.77945  0.43505  1.0000
  C   C4172     1.0  0.65457  0.61757  0.29762  1.0000
  C   C4173     1.0  0.64046  0.63586  0.29127  1.0000
  C   C4174     1.0  0.63884  0.65396  0.29861  1.0000
  C   C4175     1.0  0.65135  0.65381  0.31231  1.0000
  C   C4176     1.0  0.66548  0.63542  0.31891  1.0000
  C   C4177     1.0  0.66704  0.61732  0.31137  1.0000
  P   P136      1.0  0.68083  0.63515  0.33745  1.0000
  C   C4178     1.0  0.70250  0.61289  0.33744  1.0000
  C   C4179     1.0  0.72285  0.61513  0.32694  1.0000
  C   C4180     1.0  0.73932  0.59760  0.32749  1.0000
  C   C4181     1.0  0.73556  0.57778  0.33839  1.0000
  C   C4182     1.0  0.71536  0.57546  0.34873  1.0000
  C   C4183     1.0  0.69897  0.59295  0.34832  1.0000
  C   C4184     1.0  0.66497  0.63366  0.36372  1.0000
  C   C4185     1.0  0.64334  0.64153  0.36694  1.0000
  C   C4186     1.0  0.60463  0.56525  0.48733  1.0000
  H   H3334     1.0  0.67619  0.98858  0.18603  1.0000
  H   H3335     1.0  0.65539  0.60332  0.29245  1.0000
  H   H3336     1.0  0.63040  0.63589  0.28104  1.0000
  H   H3337     1.0  0.62751  0.66795  0.29400  1.0000
  H   H3338     1.0  0.67734  0.60276  0.31652  1.0000
  H   H3339     1.0  0.72614  0.63027  0.31842  1.0000
  H   H3340     1.0  0.75502  0.59935  0.31952  1.0000
  H   H3341     1.0  0.74824  0.56416  0.33893  1.0000
  H   H3342     1.0  0.71239  0.56008  0.35715  1.0000
  H   H3343     1.0  0.68345  0.59101  0.35645  1.0000
  H   H3344     1.0  0.63548  0.64757  0.35391  1.0000
  H   H3345     1.0  0.75515  0.65493  0.48598  1.0000
  C   C4187     1.0  0.69426  0.62037  0.46850  1.0000
  H   H3346     1.0  0.60194  0.70162  0.18197  1.0000
  C   C4188     1.0  0.73759  0.65877  0.46186  1.0000
  H   H3347     1.0  0.73434  0.93190  0.08589  1.0000
  C   C4189     1.0  0.62498  0.53351  0.36404  1.0000
  S   S563      1.0  0.75856  0.51144  0.41368  1.0000
  C   C4190     1.0  0.74269  0.50128  0.21481  1.0000
  H   H3348     1.0  0.59896  0.56436  0.43880  1.0000
  H   H3349     1.0  0.60134  0.50284  0.29201  1.0000
  C   C4191     1.0  0.77525  0.50005  0.48177  1.0000
  S   S564      1.0  0.59537  0.63430  0.34564  1.0000
  C   C4192     1.0  0.60448  0.96322  0.16323  1.0000
  C   C4193     1.0  0.78565  0.58816  0.43852  1.0000
  H   H3350     1.0  0.71134  0.98556  0.12367  1.0000
  H   H3351     1.0  0.59992  0.73229  0.15244  1.0000
  H   H3352     1.0  0.62639  0.49600  0.24877  1.0000
  C   C4194     1.0  0.69893  0.98115  0.13654  1.0000
  H   H3353     1.0  0.61799  0.49730  0.48327  1.0000
  H   H3354     1.0  0.74630  0.50120  0.22962  1.0000
  H   H3355     1.0  0.74118  0.57421  0.46910  1.0000
  H   H3356     1.0  0.64422  0.58440  0.47754  1.0000
  H   H3357     1.0  0.60125  0.81995  0.10849  1.0000
  H   H3358     1.0  0.71278  0.50467  0.33586  1.0000
  C   C4195     1.0  0.60100  0.80747  0.14131  1.0000
  C   C4196     1.0  0.71293  0.49441  0.36878  1.0000
  C   C4197     1.0  0.63852  0.50116  0.38622  1.0000
  C   C4198     1.0  0.78360  0.56899  0.43520  1.0000
  H   H3359     1.0  0.59552  0.50470  0.43683  1.0000
  H   H3360     1.0  0.78002  0.73050  0.47993  1.0000
  H   H3361     1.0  0.78084  0.67529  0.46313  1.0000
  H   H3362     1.0  0.59171  0.54179  0.36744  1.0000
  C   C4199     1.0  0.73905  0.56591  0.48536  1.0000
  C   C4200     1.0  0.66097  0.82844  0.98879  1.0000
  H   H3363     1.0  0.61400  0.80500  0.98945  1.0000
  C   C4201     1.0  0.62709  0.81150  0.98936  1.0000
  H   H3364     1.0  0.67399  0.83507  0.98866  1.0000
  H   H3365     1.0  0.79116  0.72946  0.40448  1.0000
  S   S565      1.0  0.79123  0.83695  0.47432  1.0000
  C   C4202     1.0  0.62306  0.54996  0.48859  1.0000
  H   H3366     1.0  0.60124  0.72622  0.87739  1.0000
  C   C4203     1.0  0.70803  0.72252  0.52645  1.0000
  S   S566      1.0  0.74008  0.76345  0.82998  1.0000
  C   C4204     1.0  0.71637  0.81953  0.57587  1.0000
  H   H3367     1.0  0.73194  0.53670  0.54352  1.0000
  S   S567      1.0  0.74700  0.70708  0.81750  1.0000
  C   C4205     1.0  0.60664  0.67205  0.54102  1.0000
  C   C4206     1.0  0.75306  0.54737  0.49126  1.0000
  C   C4207     1.0  0.78996  0.52873  0.68003  1.0000
  C   C4208     1.0  0.63180  0.82892  0.97393  1.0000
  H   H3368     1.0  0.63429  0.89837  0.97434  1.0000
  C   C4209     1.0  0.61660  0.94577  0.76362  1.0000
  Fe  Fe280     1.0  0.76922  0.56953  0.85345  1.0000
  S   S568      1.0  0.77705  0.58323  0.81893  1.0000
  S   S569      1.0  0.73600  0.57017  0.87054  1.0000
  H   H3369     1.0  0.65288  0.50351  0.50565  1.0000
  H   H3370     1.0  0.71338  0.53589  0.49670  1.0000
  C   C4210     1.0  0.61148  0.82019  0.64062  1.0000
  C   C4211     1.0  0.61221  0.89165  0.93579  1.0000
  C   C4212     1.0  0.78582  0.51975  0.53263  1.0000
  C   C4213     1.0  0.64949  0.97151  0.85631  1.0000
  Fe  Fe281     1.0  0.72885  0.86445  0.92878  1.0000
  S   S570      1.0  0.69885  0.88290  0.92001  1.0000
  Fe  Fe282     1.0  0.70232  0.90774  0.93474  1.0000
  S   S571      1.0  0.69441  0.94058  0.91607  1.0000
  S   S572      1.0  0.61996  0.96545  0.81484  1.0000
  C   C4214     1.0  0.65301  0.62754  0.65188  1.0000
  S   S573      1.0  0.67377  0.62705  0.78644  1.0000
  Fe  Fe283     1.0  0.66213  0.64702  0.81061  1.0000
  S   S574      1.0  0.68255  0.65401  0.82839  1.0000
  S   S575      1.0  0.66022  0.71003  0.62778  1.0000
  Fe  Fe284     1.0  0.67591  0.69553  0.59979  1.0000
  S   S576      1.0  0.71095  0.68719  0.59036  1.0000
  C   C4215     1.0  0.78472  0.50242  0.49710  1.0000
  H   H3371     1.0  0.67718  0.50468  0.88643  1.0000
  C   C4216     1.0  0.70918  0.74917  0.57065  1.0000
  C   C4217     1.0  0.77970  0.98143  0.85707  1.0000
  Fe  Fe285     1.0  0.68003  0.82050  0.67765  1.0000
  S   S577      1.0  0.67228  0.85472  0.66262  1.0000
  S   S578      1.0  0.65977  0.79663  0.68220  1.0000
  Fe  Fe286     1.0  0.71939  0.82583  0.68855  1.0000
  S   S579      1.0  0.71505  0.86005  0.67381  1.0000
  S   S580      1.0  0.74606  0.81136  0.70535  1.0000
  Fe  Fe287     1.0  0.68162  0.86141  0.68973  1.0000
  S   S581      1.0  0.66306  0.88681  0.70765  1.0000
  Fe  Fe288     1.0  0.70649  0.85031  0.64823  1.0000
  S   S582      1.0  0.71727  0.86412  0.61423  1.0000
  S   S583      1.0  0.68627  0.82760  0.70624  1.0000
  S   S584      1.0  0.71381  0.81566  0.66148  1.0000
  H   H3372     1.0  0.72873  0.95039  0.92599  1.0000
  S   S585      1.0  0.68124  0.94967  0.80178  1.0000
  H   H3373     1.0  0.70237  0.50285  0.64165  1.0000
  C   C4218     1.0  0.60853  0.49657  0.49894  1.0000
  C   C4219     1.0  0.63956  0.58895  0.49270  1.0000
  S   S586      1.0  0.73133  0.52331  0.72699  1.0000
  Fe  Fe289     1.0  0.70189  0.51810  0.72180  1.0000
  S   S587      1.0  0.67444  0.54512  0.72161  1.0000
  H   H3374     1.0  0.63618  0.92690  0.88752  1.0000
  C   C4220     1.0  0.67584  0.90011  0.71859  1.0000
  C   C4221     1.0  0.69740  0.89885  0.71276  1.0000
  C   C4222     1.0  0.70709  0.90975  0.72155  1.0000
  C   C4223     1.0  0.69530  0.92240  0.73588  1.0000
  C   C4224     1.0  0.67373  0.92370  0.74172  1.0000
  C   C4225     1.0  0.66406  0.91253  0.73316  1.0000
  H   H3375     1.0  0.70665  0.88950  0.70149  1.0000
  S   S588      1.0  0.71682  0.50654  0.69199  1.0000
  H   H3376     1.0  0.64740  0.91353  0.73783  1.0000
  C   C4226     1.0  0.74139  0.84969  0.60340  1.0000
  C   C4227     1.0  0.74767  0.85190  0.58161  1.0000
  C   C4228     1.0  0.76631  0.83955  0.57285  1.0000
  C   C4229     1.0  0.77877  0.82495  0.58583  1.0000
  C   C4230     1.0  0.77293  0.82340  0.60761  1.0000
  C   C4231     1.0  0.75411  0.83553  0.61637  1.0000
  H   H3377     1.0  0.73794  0.86292  0.57150  1.0000
  H   H3378     1.0  0.77119  0.84160  0.55601  1.0000
  C   C4232     1.0  0.76324  0.96735  0.83712  1.0000
  H   H3379     1.0  0.74941  0.83395  0.63315  1.0000
  C   C4233     1.0  0.60217  0.54967  0.65801  1.0000
  C   C4234     1.0  0.76938  0.83372  0.67215  1.0000
  C   C4235     1.0  0.76756  0.82326  0.69308  1.0000
  C   C4236     1.0  0.78309  0.82203  0.70393  1.0000
  C   C4237     1.0  0.78146  0.69183  0.72469  1.0000
  C   C4238     1.0  0.63703  0.92062  0.56904  1.0000
  H   H3380     1.0  0.75759  0.83450  0.66370  1.0000
  H   H3381     1.0  0.78173  0.81394  0.72019  1.0000
  C   C4239     1.0  0.62976  0.95889  0.67983  1.0000
  Fe  Fe290     1.0  0.74664  0.50889  0.69894  1.0000
  H   H3382     1.0  0.73320  0.95416  0.63680  1.0000
  H   H3383     1.0  0.69089  0.52486  0.54468  1.0000
  C   C4240     1.0  0.73374  0.60364  0.53263  1.0000
  H   H3384     1.0  0.60272  0.89064  0.83332  1.0000
  C   C4241     1.0  0.71896  0.71124  0.57934  1.0000
  C   C4242     1.0  0.70438  0.72978  0.58138  1.0000
  C   C4243     1.0  0.64023  0.50811  0.62969  1.0000
  C   C4244     1.0  0.74426  0.73188  0.55714  1.0000
  C   C4245     1.0  0.73911  0.71223  0.56747  1.0000
  H   H3385     1.0  0.68920  0.72931  0.59126  1.0000
  H   H3386     1.0  0.75958  0.73274  0.54754  1.0000
  H   H3387     1.0  0.75033  0.69786  0.56559  1.0000
  C   C4246     1.0  0.65619  0.78777  0.66085  1.0000
  C   C4247     1.0  0.66456  0.79618  0.64009  1.0000
  C   C4248     1.0  0.66046  0.78977  0.62339  1.0000
  H   H3388     1.0  0.67402  0.80775  0.63698  1.0000
  H   H3389     1.0  0.66687  0.79654  0.60741  1.0000
  H   H3390     1.0  0.71685  0.65576  0.70690  1.0000
  C   C4249     1.0  0.66600  0.66810  0.69322  1.0000
  H   H3391     1.0  0.66214  0.67560  0.66121  1.0000
  H   H3392     1.0  0.68210  0.66960  0.68901  1.0000
  C   C4250     1.0  0.69858  0.66829  0.50639  1.0000
  C   C4251     1.0  0.68436  0.83169  0.56274  1.0000
  C   C4252     1.0  0.65362  0.57374  0.74624  1.0000
  C   C4253     1.0  0.66853  0.55519  0.74455  1.0000
  C   C4254     1.0  0.67834  0.54464  0.76132  1.0000
  C   C4255     1.0  0.67277  0.55236  0.77990  1.0000
  H   H3393     1.0  0.64588  0.58185  0.73341  1.0000
  H   H3394     1.0  0.68985  0.53028  0.76021  1.0000
  H   H3395     1.0  0.68014  0.54418  0.79291  1.0000
  C   C4256     1.0  0.64715  0.60889  0.68796  1.0000
  H   H3396     1.0  0.77018  0.50961  0.74788  1.0000
  P   P137      1.0  0.64586  0.84839  0.58590  1.0000
  H   H3397     1.0  0.69165  0.75120  0.61283  1.0000
  C   C4257     1.0  0.68767  0.96194  0.92869  1.0000
  C   C4258     1.0  0.65617  0.90822  0.56168  1.0000
  C   C4259     1.0  0.74492  0.98713  0.95351  1.0000
  C   C4260     1.0  0.68249  0.95934  0.95058  1.0000
  C   C4261     1.0  0.70315  0.50757  0.49919  1.0000
  H   H3398     1.0  0.68217  0.94383  0.96029  1.0000
  C   C4262     1.0  0.62331  0.88922  0.58639  1.0000
  H   H3399     1.0  0.61079  0.97235  0.91379  1.0000
  C   C4263     1.0  0.77156  0.50931  0.76361  1.0000
  C   C4264     1.0  0.64433  0.71834  0.70023  1.0000
  C   C4265     1.0  0.77450  0.50951  0.80437  1.0000
  H   H3400     1.0  0.61913  0.98830  0.65953  1.0000
  H   H3401     1.0  0.76832  0.72032  0.90897  1.0000
  C   C4266     1.0  0.60544  0.94354  0.72717  1.0000
  C   C4267     1.0  0.72047  0.59347  0.85983  1.0000
  C   C4268     1.0  0.70068  0.59354  0.85698  1.0000
  C   C4269     1.0  0.68874  0.61216  0.84747  1.0000
  C   C4270     1.0  0.69619  0.63086  0.84183  1.0000
  C   C4271     1.0  0.71554  0.63085  0.84561  1.0000
  C   C4272     1.0  0.72799  0.61206  0.85389  1.0000
  H   H3402     1.0  0.69491  0.57911  0.86145  1.0000
  H   H3403     1.0  0.67385  0.61202  0.84447  1.0000
  H   H3404     1.0  0.72118  0.64527  0.84142  1.0000
  H   H3405     1.0  0.74341  0.61196  0.85579  1.0000
  P   P138      1.0  0.66535  0.51578  0.62174  1.0000
  H   H3406     1.0  0.74990  0.98460  0.93763  1.0000
  H   H3407     1.0  0.71785  0.97714  0.86901  1.0000
  C   C4273     1.0  0.59444  0.71149  0.80042  1.0000
  H   H3408     1.0  0.77731  0.84005  0.75447  1.0000
  C   C4274     1.0  0.74067  0.78881  0.89318  1.0000
  C   C4275     1.0  0.76061  0.79344  0.88641  1.0000
  C   C4276     1.0  0.72874  0.81981  0.90891  1.0000
  C   C4277     1.0  0.72489  0.80183  0.90473  1.0000
  H   H3409     1.0  0.72651  0.60066  0.54913  1.0000
  H   H3410     1.0  0.71642  0.82991  0.91767  1.0000
  H   H3411     1.0  0.70966  0.79800  0.91031  1.0000
  C   C4278     1.0  0.76583  0.68373  0.81646  1.0000
  H   H3412     1.0  0.64950  0.90574  0.93658  1.0000
  C   C4279     1.0  0.60349  0.91268  0.92875  1.0000
  H   H3413     1.0  0.71875  0.49803  0.49751  1.0000
  C   C4280     1.0  0.77424  0.64591  0.81869  1.0000
  C   C4281     1.0  0.75952  0.66488  0.81878  1.0000
  C   C4282     1.0  0.62776  0.95163  0.96632  1.0000
  H   H3414     1.0  0.63695  0.82094  0.73909  1.0000
  H   H3415     1.0  0.60804  0.66318  0.70794  1.0000
  H   H3416     1.0  0.74318  0.66506  0.82093  1.0000
  C   C4283     1.0  0.62616  0.84534  0.64930  1.0000
  C   C4284     1.0  0.74625  0.49478  0.55856  1.0000
  C   C4285     1.0  0.76797  0.76390  0.67372  1.0000
  C   C4286     1.0  0.73754  0.69518  0.51712  1.0000
  H   H3417     1.0  0.60576  0.92071  0.58711  1.0000
  H   H3418     1.0  0.63797  0.51745  0.80872  1.0000
  C   C4287     1.0  0.64364  0.74128  0.72288  1.0000
  C   C4288     1.0  0.72902  0.75032  0.55848  1.0000
  H   H3419     1.0  0.59282  0.77574  0.94601  1.0000
  H   H3420     1.0  0.61046  0.88204  0.59602  1.0000
  H   H3421     1.0  0.71406  0.82281  0.60741  1.0000
  Fe  Fe291     1.0  0.68388  0.86868  0.95232  1.0000
  H   H3422     1.0  0.64673  0.63735  0.63856  1.0000
  C   C4289     1.0  0.62690  0.93098  0.97730  1.0000
  S   S589      1.0  0.73408  0.89074  0.94063  1.0000
  C   C4290     1.0  0.63306  0.84134  0.61309  1.0000
  C   C4291     1.0  0.77789  0.89773  0.61435  1.0000
  H   H3423     1.0  0.69740  0.76337  0.57189  1.0000
  H   H3424     1.0  0.63652  0.70889  0.69515  1.0000
  H   H3425     1.0  0.60989  0.57662  0.58890  1.0000
  Fe  Fe292     1.0  0.76598  0.78056  0.53426  1.0000
  C   C4292     1.0  0.64396  0.93916  0.93409  1.0000
  C   C4293     1.0  0.64851  0.77435  0.62725  1.0000
  H   H3426     1.0  0.77312  0.78311  0.87824  1.0000
  C   C4294     1.0  0.62522  0.60165  0.53125  1.0000
  C   C4295     1.0  0.64075  0.76536  0.64809  1.0000
  H   H3427     1.0  0.59858  0.99119  0.94300  1.0000
  H   H3428     1.0  0.71385  0.52241  0.79536  1.0000
  C   C4296     1.0  0.63012  0.80965  0.55706  1.0000
  H   H3429     1.0  0.70867  0.81184  0.74528  1.0000
  H   H3430     1.0  0.59835  0.85486  0.53837  1.0000
  H   H3431     1.0  0.61780  0.72752  0.72392  1.0000
  H   H3432     1.0  0.67167  0.56184  0.53733  1.0000
  H   H3433     1.0  0.60498  0.74804  0.84178  1.0000
  C   C4297     1.0  0.66279  0.53236  0.50351  1.0000
  H   H3434     1.0  0.62806  0.93296  0.63491  1.0000
  H   H3435     1.0  0.60951  0.73561  0.95107  1.0000
  H   H3436     1.0  0.71265  0.66393  0.51267  1.0000
  C   C4298     1.0  0.65358  0.50945  0.81079  1.0000
  C   C4299     1.0  0.68616  0.49859  0.50108  1.0000
  C   C4300     1.0  0.62606  0.50950  0.56810  1.0000
  S   S590      1.0  0.76512  0.80589  0.78749  1.0000
  C   C4301     1.0  0.63374  0.72889  0.71645  1.0000
  S   S591      1.0  0.65998  0.98033  0.76298  1.0000
  H   H3437     1.0  0.60684  0.88506  0.74083  1.0000
  C   C4302     1.0  0.65632  0.66330  0.71436  1.0000
  C   C4303     1.0  0.61282  0.88382  0.90248  1.0000
  C   C4304     1.0  0.67128  0.52102  0.88027  1.0000
  H   H3438     1.0  0.74238  0.80362  0.75639  1.0000
  H   H3439     1.0  0.71676  0.54470  0.84923  1.0000
  H   H3440     1.0  0.69185  0.98412  0.89940  1.0000
  C   C4305     1.0  0.70007  0.52897  0.49890  1.0000
  H   H3441     1.0  0.60281  0.80764  0.64552  1.0000
  S   S592      1.0  0.61611  0.71651  0.61152  1.0000
  C   C4306     1.0  0.60998  0.84448  0.54675  1.0000
  C   C4307     1.0  0.78469  0.52088  0.76684  1.0000
  H   H3442     1.0  0.73288  0.81256  0.57357  1.0000
  C   C4308     1.0  0.72246  0.57368  0.50039  1.0000
  C   C4309     1.0  0.76458  0.62466  0.76904  1.0000
  C   C4310     1.0  0.61630  0.69787  0.91335  1.0000
  C   C4311     1.0  0.76376  0.62648  0.72163  1.0000
  C   C4312     1.0  0.75939  0.61746  0.70712  1.0000
  C   C4313     1.0  0.62572  0.90954  0.81747  1.0000
  C   C4314     1.0  0.61210  0.97720  0.86959  1.0000
  H   H3443     1.0  0.70735  0.62656  0.52381  1.0000
  C   C4315     1.0  0.75500  0.60794  0.77046  1.0000
  C   C4316     1.0  0.73491  0.60749  0.78250  1.0000
  C   C4317     1.0  0.72467  0.62309  0.79385  1.0000
  C   C4318     1.0  0.73418  0.63949  0.79293  1.0000
  C   C4319     1.0  0.75406  0.64028  0.78064  1.0000
  C   C4320     1.0  0.68140  0.68205  0.51545  1.0000
  H   H3444     1.0  0.74668  0.67948  0.52098  1.0000
  H   H3445     1.0  0.59741  0.67768  0.62772  1.0000
  C   C4321     1.0  0.69314  0.93133  0.63917  1.0000
  H   H3446     1.0  0.76225  0.58116  0.53684  1.0000
  H   H3447     1.0  0.69427  0.72798  0.53759  1.0000
  C   C4322     1.0  0.59206  0.66731  0.87970  1.0000
  H   H3448     1.0  0.67159  0.94350  0.68465  1.0000
  C   C4323     1.0  0.77634  0.96248  0.90302  1.0000
  H   H3449     1.0  0.75124  0.63691  0.72990  1.0000
  H   H3450     1.0  0.74371  0.62090  0.70433  1.0000
  H   H3451     1.0  0.75793  0.98674  0.80739  1.0000
  H   H3452     1.0  0.75422  0.90665  0.59545  1.0000
  C   C4324     1.0  0.64870  0.83743  0.97362  1.0000
  H   H3453     1.0  0.76260  0.59578  0.76152  1.0000
  H   H3454     1.0  0.72690  0.59536  0.78285  1.0000
  H   H3455     1.0  0.70925  0.62251  0.80327  1.0000
  H   H3456     1.0  0.72589  0.65178  0.80153  1.0000
  H   H3457     1.0  0.76084  0.65339  0.78000  1.0000
  C   C4325     1.0  0.60276  0.93308  0.76482  1.0000
  S   S593      1.0  0.76875  0.81328  0.53318  1.0000
  H   H3458     1.0  0.67863  0.62684  0.56253  1.0000
  H   H3459     1.0  0.62902  0.79766  0.83744  1.0000
  H   H3460     1.0  0.63525  0.74964  0.73528  1.0000
  C   C4326     1.0  0.66600  0.51084  0.50351  1.0000
  H   H3461     1.0  0.70497  0.75151  0.50389  1.0000
  H   H3462     1.0  0.60444  0.70383  0.78807  1.0000
  C   C4327     1.0  0.61406  0.73216  0.84449  1.0000
  C   C4328     1.0  0.78382  0.64924  0.88457  1.0000
  H   H3463     1.0  0.60148  0.67083  0.86407  1.0000
  H   H3464     1.0  0.61814  0.97176  0.63113  1.0000
  H   H3465     1.0  0.75590  0.73997  0.66744  1.0000
  C   C4329     1.0  0.73809  0.77315  0.77495  1.0000
  C   C4330     1.0  0.63583  0.51911  0.54834  1.0000
  C   C4331     1.0  0.72607  0.90675  0.63355  1.0000
  C   C4332     1.0  0.73685  0.92213  0.63336  1.0000
  P   P139      1.0  0.76470  0.91538  0.63212  1.0000
  C   C4333     1.0  0.76925  0.90297  0.65825  1.0000
  H   H3466     1.0  0.60772  0.81689  0.53732  1.0000
  H   H3467     1.0  0.67806  0.55808  0.50000  1.0000
  H   H3468     1.0  0.77910  0.87612  0.71437  1.0000
  C   C4334     1.0  0.75854  0.88202  0.69289  1.0000
  C   C4335     1.0  0.75500  0.89167  0.67276  1.0000
  H   H3469     1.0  0.73442  0.89098  0.63198  1.0000
  H   H3470     1.0  0.64383  0.71239  0.94146  1.0000
  H   H3471     1.0  0.63401  0.79297  0.55702  1.0000
  H   H3472     1.0  0.71142  0.91509  0.98359  1.0000
  H   H3473     1.0  0.74774  0.87290  0.70374  1.0000
  H   H3474     1.0  0.74126  0.88998  0.66860  1.0000
  C   C4336     1.0  0.61163  0.55172  0.67335  1.0000
  C   C4337     1.0  0.61435  0.82971  0.65555  1.0000
  H   H3475     1.0  0.71473  0.69186  0.54600  1.0000
  C   C4338     1.0  0.67995  0.64933  0.88793  1.0000
  C   C4339     1.0  0.67769  0.62848  0.89538  1.0000
  C   C4340     1.0  0.65778  0.62388  0.90287  1.0000
  C   C4341     1.0  0.64011  0.64011  0.90289  1.0000
  C   C4342     1.0  0.64229  0.66110  0.89521  1.0000
  C   C4343     1.0  0.66236  0.66557  0.88782  1.0000
  H   H3476     1.0  0.77991  0.81502  0.88508  1.0000
  C   C4344     1.0  0.62314  0.69884  0.86809  1.0000
  H   H3477     1.0  0.77032  0.53598  0.70895  1.0000
  P   P140      1.0  0.76894  0.51251  0.51992  1.0000
  C   C4345     1.0  0.65473  0.67159  0.67745  1.0000
  H   H3478     1.0  0.68452  0.70255  0.81134  1.0000
  H   H3479     1.0  0.61554  0.88646  0.95141  1.0000
  C   C4346     1.0  0.62984  0.98475  0.85759  1.0000
  C   C4347     1.0  0.63827  0.70323  0.83083  1.0000
  C   C4348     1.0  0.63614  0.69066  0.85092  1.0000
  H   H3480     1.0  0.69532  0.65287  0.88159  1.0000
  H   H3481     1.0  0.69135  0.61585  0.89485  1.0000
  H   H3482     1.0  0.65608  0.60766  0.90826  1.0000
  H   H3483     1.0  0.62486  0.63615  0.90848  1.0000
  H   H3484     1.0  0.66437  0.68160  0.88149  1.0000
  H   H3485     1.0  0.66457  0.93331  0.75284  1.0000
  C   C4349     1.0  0.60418  0.90485  0.89531  1.0000
  H   H3486     1.0  0.75554  0.95550  0.83615  1.0000
  H   H3487     1.0  0.62854  0.85249  0.66099  1.0000
  H   H3488     1.0  0.62262  0.60011  0.65200  1.0000
  H   H3489     1.0  0.64828  0.69675  0.81772  1.0000
  H   H3490     1.0  0.64427  0.67441  0.85281  1.0000
  C   C4350     1.0  0.72104  0.85906  0.77087  1.0000
  C   C4351     1.0  0.72782  0.85547  0.75044  1.0000
  C   C4352     1.0  0.71366  0.85289  0.73991  1.0000
  C   C4353     1.0  0.69275  0.85351  0.74991  1.0000
  C   C4354     1.0  0.68586  0.85656  0.77064  1.0000
  C   C4355     1.0  0.70010  0.85983  0.78087  1.0000
  P   P141      1.0  0.65976  0.85381  0.78493  1.0000
  C   C4356     1.0  0.64696  0.87539  0.79823  1.0000
  C   C4357     1.0  0.64401  0.85342  0.76712  1.0000
  C   C4358     1.0  0.62969  0.87146  0.76021  1.0000
  H   H3491     1.0  0.62485  0.53376  0.60828  1.0000
  H   H3492     1.0  0.62075  0.86109  0.81638  1.0000
  C   C4359     1.0  0.63470  0.83489  0.74531  1.0000
  C   C4360     1.0  0.64638  0.83508  0.75963  1.0000
  H   H3493     1.0  0.71581  0.86880  0.87889  1.0000
  H   H3494     1.0  0.62489  0.56927  0.54501  1.0000
  C   C4361     1.0  0.64434  0.91080  0.80274  1.0000
  C   C4362     1.0  0.65490  0.89386  0.79308  1.0000
  C   C4363     1.0  0.66094  0.82921  0.80397  1.0000
  C   C4364     1.0  0.67989  0.81792  0.80965  1.0000
  C   C4365     1.0  0.68034  0.79993  0.82556  1.0000
  C   C4366     1.0  0.66202  0.79270  0.83566  1.0000
  H   H3495     1.0  0.61300  0.53930  0.68714  1.0000
  C   C4367     1.0  0.64270  0.82133  0.81369  1.0000
  H   H3496     1.0  0.73216  0.86076  0.77905  1.0000
  H   H3497     1.0  0.74408  0.85456  0.74280  1.0000
  H   H3498     1.0  0.71894  0.85020  0.72402  1.0000
  H   H3499     1.0  0.68214  0.85149  0.74135  1.0000
  H   H3500     1.0  0.69518  0.86224  0.79684  1.0000
  H   H3501     1.0  0.62781  0.88595  0.76536  1.0000
  H   H3502     1.0  0.74578  0.97321  0.89502  1.0000
  H   H3503     1.0  0.64833  0.68859  0.91760  1.0000
  C   C4368     1.0  0.76009  0.82794  0.83930  1.0000
  H   H3504     1.0  0.65751  0.82109  0.76457  1.0000
  C   C4369     1.0  0.64249  0.87665  0.57903  1.0000
  H   H3505     1.0  0.65037  0.92513  0.79851  1.0000
  H   H3506     1.0  0.66894  0.89550  0.78126  1.0000
  H   H3507     1.0  0.69445  0.82286  0.80214  1.0000
  H   H3508     1.0  0.69496  0.79176  0.83020  1.0000
  C   C4370     1.0  0.59704  0.93209  0.74661  1.0000
  C   C4371     1.0  0.72303  0.61853  0.51824  1.0000
  C   C4372     1.0  0.63597  0.61021  0.49345  1.0000
  C   C4373     1.0  0.62035  0.85284  0.73866  1.0000
  C   C4374     1.0  0.71353  0.53166  0.82416  1.0000
  C   C4375     1.0  0.72133  0.54438  0.83265  1.0000
  C   C4376     1.0  0.73576  0.55621  0.81995  1.0000
  C   C4377     1.0  0.74239  0.55564  0.79867  1.0000
  C   C4378     1.0  0.73359  0.54426  0.78978  1.0000
  H   H3509     1.0  0.62803  0.73314  0.81178  1.0000
  C   C4379     1.0  0.76049  0.49708  0.78070  1.0000
  H   H3510     1.0  0.62802  0.82901  0.80893  1.0000
  H   H3511     1.0  0.74195  0.56556  0.82682  1.0000
  H   H3512     1.0  0.75458  0.56376  0.78915  1.0000
  H   H3513     1.0  0.73852  0.54395  0.77322  1.0000
  H   H3514     1.0  0.67498  0.55865  0.83539  1.0000
  C   C4380     1.0  0.71437  0.73591  0.50748  1.0000
  H   H3515     1.0  0.73312  0.76777  0.50353  1.0000
  C   C4381     1.0  0.63384  0.94297  0.87895  1.0000
  C   C4382     1.0  0.64558  0.62999  0.56604  1.0000
  H   H3516     1.0  0.74338  0.67626  0.61952  1.0000
  H   H3517     1.0  0.65417  0.52804  0.83208  1.0000
  C   C4383     1.0  0.65746  0.55146  0.59057  1.0000
  H   H3518     1.0  0.78203  0.88556  0.88807  1.0000
  H   H3519     1.0  0.76958  0.95174  0.86739  1.0000
  C   C4384     1.0  0.63661  0.95562  0.94490  1.0000
  H   H3520     1.0  0.67644  0.83413  0.55000  1.0000
  H   H3521     1.0  0.75274  0.76971  0.77998  1.0000
  H   H3522     1.0  0.60154  0.90987  0.87939  1.0000
  H   H3523     1.0  0.78873  0.54870  0.50982  1.0000
  H   H3524     1.0  0.73870  0.50610  0.85092  1.0000
  H   H3525     1.0  0.64476  0.64136  0.55144  1.0000
  C   C4385     1.0  0.65758  0.57063  0.78178  1.0000
  H   H3526     1.0  0.63648  0.60412  0.70244  1.0000
  Fe  Fe293     1.0  0.65361  0.65189  0.76711  1.0000
  C   C4386     1.0  0.75358  0.86586  0.83441  1.0000
  C   C4387     1.0  0.66715  0.53120  0.63940  1.0000
  C   C4388     1.0  0.66118  0.52425  0.66116  1.0000
  C   C4389     1.0  0.66388  0.53518  0.67505  1.0000
  C   C4390     1.0  0.67227  0.55327  0.66736  1.0000
  C   C4391     1.0  0.67841  0.56023  0.64577  1.0000
  C   C4392     1.0  0.67628  0.54902  0.63182  1.0000
  H   H3527     1.0  0.65051  0.57890  0.56667  1.0000
  C   C4393     1.0  0.62359  0.97141  0.66143  1.0000
  C   C4394     1.0  0.60410  0.51373  0.62655  1.0000
  C   C4395     1.0  0.71182  0.49213  0.85554  1.0000
  H   H3528     1.0  0.64770  0.55894  0.60320  1.0000
  H   H3529     1.0  0.78354  0.64318  0.93026  1.0000
  H   H3530     1.0  0.61251  0.63158  0.57432  1.0000
  H   H3531     1.0  0.63648  0.59569  0.76610  1.0000
  C   C4396     1.0  0.61709  0.87729  0.92263  1.0000
  H   H3532     1.0  0.77632  0.70593  0.52019  1.0000
  H   H3533     1.0  0.65261  0.51498  0.54404  1.0000
  C   C4397     1.0  0.77084  0.96550  0.85506  1.0000
  H   H3534     1.0  0.77189  0.87380  0.86128  1.0000
  S   S594      1.0  0.64224  0.76795  0.60580  1.0000
  H   H3535     1.0  0.65493  0.51008  0.66750  1.0000
  H   H3536     1.0  0.65959  0.52956  0.69187  1.0000
  H   H3537     1.0  0.67429  0.56169  0.67821  1.0000
  H   H3538     1.0  0.68528  0.57404  0.63994  1.0000
  H   H3539     1.0  0.68219  0.55408  0.61526  1.0000
  C   C4398     1.0  0.67795  0.53006  0.85911  1.0000
  H   H3540     1.0  0.62073  0.94689  0.77775  1.0000
  C   C4399     1.0  0.70569  0.82294  0.55973  1.0000
  C   C4400     1.0  0.76766  0.53664  0.90810  1.0000
  P   P142      1.0  0.73697  0.89063  0.83880  1.0000
  C   C4401     1.0  0.78458  0.94466  0.60127  1.0000
  H   H3541     1.0  0.75510  0.61124  0.89614  1.0000
  H   H3542     1.0  0.73590  0.80326  0.50422  1.0000
  C   C4402     1.0  0.62067  0.82603  0.61947  1.0000
  C   C4403     1.0  0.73267  0.62288  0.49693  1.0000
  H   H3543     1.0  0.69006  0.68517  0.84667  1.0000
  H   H3544     1.0  0.65209  0.76129  0.81682  1.0000
  C   C4404     1.0  0.73701  0.77844  0.48879  1.0000
  C   C4405     1.0  0.61779  0.87108  0.74618  1.0000
  C   C4406     1.0  0.70578  0.82525  0.59493  1.0000
  H   H3545     1.0  0.61655  0.87264  0.89232  1.0000
  H   H3546     1.0  0.78376  0.97888  0.64014  1.0000
  C   C4407     1.0  0.75495  0.96292  0.90609  1.0000
  C   C4408     1.0  0.75071  0.64326  0.63353  1.0000
  C   C4409     1.0  0.73752  0.66295  0.63011  1.0000
  C   C4410     1.0  0.71651  0.66550  0.64011  1.0000
  C   C4411     1.0  0.70844  0.64814  0.65248  1.0000
  C   C4412     1.0  0.72122  0.62811  0.65487  1.0000
  C   C4413     1.0  0.74267  0.62594  0.64626  1.0000
  P   P143      1.0  0.71026  0.60512  0.66785  1.0000
  C   C4414     1.0  0.68253  0.61041  0.66859  1.0000
  C   C4415     1.0  0.72143  0.58549  0.65189  1.0000
  C   C4416     1.0  0.72265  0.56403  0.66074  1.0000
  C   C4417     1.0  0.73128  0.54914  0.64802  1.0000
  C   C4418     1.0  0.73850  0.55546  0.62651  1.0000
  C   C4419     1.0  0.73659  0.57680  0.61746  1.0000
  C   C4420     1.0  0.72787  0.59177  0.63003  1.0000
  C   C4421     1.0  0.66867  0.60307  0.68690  1.0000
  C   C4422     1.0  0.67456  0.62199  0.65078  1.0000
  C   C4423     1.0  0.71499  0.59821  0.69425  1.0000
  C   C4424     1.0  0.70267  0.61022  0.70902  1.0000
  C   C4425     1.0  0.70520  0.60462  0.72981  1.0000
  C   C4426     1.0  0.72051  0.58740  0.73591  1.0000
  C   C4427     1.0  0.73360  0.57606  0.72109  1.0000
  C   C4428     1.0  0.73089  0.58139  0.70029  1.0000
  H   H3547     1.0  0.76696  0.64132  0.62573  1.0000
  C   C4429     1.0  0.74513  0.95015  0.92372  1.0000
  H   H3548     1.0  0.70628  0.68081  0.63752  1.0000
  H   H3549     1.0  0.69209  0.65021  0.65949  1.0000
  H   H3550     1.0  0.75289  0.61068  0.64850  1.0000
  H   H3551     1.0  0.71693  0.55873  0.67739  1.0000
  H   H3552     1.0  0.73282  0.53257  0.65488  1.0000
  H   H3553     1.0  0.74564  0.54375  0.61694  1.0000
  H   H3554     1.0  0.74211  0.58175  0.60073  1.0000
  H   H3555     1.0  0.72626  0.60824  0.62258  1.0000
  H   H3556     1.0  0.67430  0.59314  0.70056  1.0000
  H   H3557     1.0  0.68489  0.62749  0.63632  1.0000
  H   H3558     1.0  0.69056  0.62357  0.70470  1.0000
  H   H3559     1.0  0.69493  0.61342  0.74129  1.0000
  H   H3560     1.0  0.72207  0.58275  0.75216  1.0000
  H   H3561     1.0  0.74560  0.56287  0.72588  1.0000
  H   H3562     1.0  0.74113  0.57225  0.68915  1.0000
  H   H3563     1.0  0.61698  0.78227  0.81316  1.0000
  H   H3564     1.0  0.69888  0.70454  0.86903  1.0000
  C   C4430     1.0  0.68456  0.83445  0.59785  1.0000
  H   H3565     1.0  0.59212  0.56408  0.62909  1.0000
  H   H3566     1.0  0.78375  0.78431  0.68083  1.0000
  H   H3567     1.0  0.61491  0.86890  0.55897  1.0000
  C   C4431     1.0  0.61385  0.95610  0.88017  1.0000
  C   C4432     1.0  0.78396  0.96935  0.62926  1.0000
  S   S595      1.0  0.77159  0.72482  0.85419  1.0000
  C   C4433     1.0  0.77342  0.86577  0.82127  1.0000
  C   C4434     1.0  0.77255  0.50241  0.90000  1.0000
  H   H3568     1.0  0.77484  0.51020  0.82013  1.0000
  H   H3569     1.0  0.62437  0.86113  0.92807  1.0000
  H   H3570     1.0  0.71168  0.58804  0.49588  1.0000
  C   C4435     1.0  0.60062  0.97947  0.80063  1.0000
  Fe  Fe294     1.0  0.79105  0.81078  0.50270  1.0000
  H   H3571     1.0  0.65168  0.52615  0.91001  1.0000
  C   C4436     1.0  0.77491  0.60319  0.69699  1.0000
  H   H3572     1.0  0.77881  0.88033  0.81411  1.0000
  H   H3573     1.0  0.61867  0.81783  0.60846  1.0000
  C   C4437     1.0  0.74398  0.70855  0.49818  1.0000
  C   C4438     1.0  0.78355  0.71144  0.90303  1.0000
  C   C4439     1.0  0.76226  0.49695  0.80110  1.0000
  H   H3574     1.0  0.73098  0.93862  0.88569  1.0000
  C   C4440     1.0  0.65888  0.56276  0.56989  1.0000
  C   C4441     1.0  0.73212  0.79241  0.76192  1.0000
  C   C4442     1.0  0.62861  0.58039  0.53055  1.0000
  H   H3575     1.0  0.75331  0.77521  0.67463  1.0000
  H   H3576     1.0  0.77126  0.59584  0.68619  1.0000
  C   C4443     1.0  0.72202  0.66924  0.69588  1.0000
  C   C4444     1.0  0.73909  0.66652  0.67929  1.0000
  C   C4445     1.0  0.74532  0.68398  0.66499  1.0000
  C   C4446     1.0  0.73406  0.70415  0.66680  1.0000
  C   C4447     1.0  0.71650  0.70699  0.68303  1.0000
  C   C4448     1.0  0.71088  0.68945  0.69789  1.0000
  P   P144      1.0  0.70228  0.73311  0.68552  1.0000
  C   C4449     1.0  0.67515  0.73218  0.69708  1.0000
  C   C4450     1.0  0.71380  0.74277  0.70170  1.0000
  C   C4451     1.0  0.70862  0.76414  0.70249  1.0000
  C   C4452     1.0  0.71843  0.77196  0.71384  1.0000
  C   C4453     1.0  0.73346  0.75862  0.72454  1.0000
  C   C4454     1.0  0.73816  0.73720  0.72455  1.0000
  C   C4455     1.0  0.72837  0.72922  0.71321  1.0000
  C   C4456     1.0  0.66500  0.71976  0.69073  1.0000
  C   C4457     1.0  0.66418  0.74308  0.71313  1.0000
  C   C4458     1.0  0.70477  0.74868  0.65903  1.0000
  C   C4459     1.0  0.69562  0.74423  0.64461  1.0000
  C   C4460     1.0  0.69963  0.75405  0.62350  1.0000
  C   C4461     1.0  0.71282  0.76843  0.61639  1.0000
  C   C4462     1.0  0.72193  0.77315  0.63057  1.0000
  C   C4463     1.0  0.71798  0.76330  0.65177  1.0000
  H   H3577     1.0  0.74717  0.65093  0.67707  1.0000
  H   H3578     1.0  0.75839  0.68190  0.65201  1.0000
  H   H3579     1.0  0.73879  0.71744  0.65521  1.0000
  H   H3580     1.0  0.69755  0.69130  0.71071  1.0000
  H   H3581     1.0  0.69727  0.77484  0.69399  1.0000
  H   H3582     1.0  0.71453  0.78848  0.71420  1.0000
  H   H3583     1.0  0.74134  0.76496  0.73290  1.0000
  H   H3584     1.0  0.74916  0.72685  0.73365  1.0000
  H   H3585     1.0  0.73218  0.71253  0.71355  1.0000
  H   H3586     1.0  0.67301  0.71088  0.67867  1.0000
  H   H3587     1.0  0.67130  0.75313  0.71804  1.0000
  H   H3588     1.0  0.68527  0.73327  0.64945  1.0000
  H   H3589     1.0  0.71556  0.77616  0.59997  1.0000
  H   H3590     1.0  0.73191  0.78458  0.62512  1.0000
  H   H3591     1.0  0.72542  0.76713  0.66224  1.0000
  C   C4464     1.0  0.66217  0.74574  0.88963  1.0000
  C   C4465     1.0  0.64499  0.74291  0.88361  1.0000
  C   C4466     1.0  0.62769  0.75934  0.88208  1.0000
  C   C4467     1.0  0.62772  0.77871  0.88611  1.0000
  C   C4468     1.0  0.64521  0.78198  0.89148  1.0000
  C   C4469     1.0  0.66236  0.76518  0.89345  1.0000
  P   P145      1.0  0.64577  0.80705  0.89649  1.0000
  C   C4470     1.0  0.66482  0.81894  0.87563  1.0000
  C   C4471     1.0  0.61997  0.82370  0.89909  1.0000
  C   C4472     1.0  0.60947  0.82913  0.91846  1.0000
  H   H3592     1.0  0.77875  0.58778  0.49903  1.0000
  H   H3593     1.0  0.61137  0.85271  0.72751  1.0000
  H   H3594     1.0  0.67367  0.97505  0.97677  1.0000
  C   C4473     1.0  0.60990  0.83093  0.88196  1.0000
  C   C4474     1.0  0.68601  0.80915  0.87334  1.0000
  C   C4475     1.0  0.70105  0.81813  0.85768  1.0000
  C   C4476     1.0  0.69513  0.83696  0.84401  1.0000
  C   C4477     1.0  0.67413  0.84689  0.84609  1.0000
  C   C4478     1.0  0.65906  0.83812  0.86199  1.0000
  C   C4479     1.0  0.65449  0.80122  0.92094  1.0000
  C   C4480     1.0  0.64831  0.78474  0.93712  1.0000
  C   C4481     1.0  0.65621  0.77919  0.95549  1.0000
  C   C4482     1.0  0.67023  0.79008  0.95784  1.0000
  C   C4483     1.0  0.67574  0.80702  0.94219  1.0000
  C   C4484     1.0  0.66770  0.81279  0.92390  1.0000
  H   H3595     1.0  0.67536  0.73286  0.89149  1.0000
  H   H3596     1.0  0.64494  0.72790  0.88046  1.0000
  H   H3597     1.0  0.61394  0.75710  0.87822  1.0000
  H   H3598     1.0  0.61379  0.79076  0.88542  1.0000
  H   H3599     1.0  0.67576  0.76687  0.89839  1.0000
  H   H3600     1.0  0.61647  0.82353  0.93214  1.0000
  H   H3601     1.0  0.71612  0.96967  0.69936  1.0000
  H   H3602     1.0  0.77253  0.66601  0.71839  1.0000
  H   H3603     1.0  0.61738  0.82659  0.86696  1.0000
  H   H3604     1.0  0.69118  0.79477  0.88391  1.0000
  H   H3605     1.0  0.71734  0.81041  0.85630  1.0000
  H   H3606     1.0  0.70684  0.84388  0.83187  1.0000
  H   H3607     1.0  0.66954  0.86156  0.83555  1.0000
  H   H3608     1.0  0.64313  0.84662  0.86356  1.0000
  H   H3609     1.0  0.63741  0.77618  0.93556  1.0000
  H   H3610     1.0  0.65129  0.76666  0.96810  1.0000
  H   H3611     1.0  0.67623  0.78592  0.97213  1.0000
  H   H3612     1.0  0.68597  0.81597  0.94445  1.0000
  H   H3613     1.0  0.67209  0.82609  0.91208  1.0000
  C   C4485     1.0  0.74655  0.64273  0.87887  1.0000
  C   C4486     1.0  0.70434  0.91137  0.63637  1.0000
  C   C4487     1.0  0.61193  0.71966  0.86468  1.0000
  C   C4488     1.0  0.62509  0.95711  0.74421  1.0000
  C   C4489     1.0  0.76920  0.89696  0.59777  1.0000
  Fe  Fe295     1.0  0.65125  0.97232  0.79797  1.0000
  H   H3614     1.0  0.70168  0.74192  0.85563  1.0000
  H   H3615     1.0  0.73938  0.93560  0.82503  1.0000
  H   H3616     1.0  0.67696  0.83928  0.61252  1.0000
  H   H3617     1.0  0.69620  0.89931  0.63663  1.0000
  H   H3618     1.0  0.69620  0.75959  0.82003  1.0000
  H   H3619     1.0  0.60700  0.79301  0.77865  1.0000
  S   S596      1.0  0.70898  0.97335  0.83081  1.0000
  C   C4490     1.0  0.64431  0.77229  0.66475  1.0000
  S   S597      1.0  0.70810  0.93678  0.74549  1.0000
  H   H3620     1.0  0.74857  0.92742  0.95231  1.0000
  C   C4491     1.0  0.75384  0.59261  0.52575  1.0000
  C   C4492     1.0  0.70368  0.94674  0.63906  1.0000
  H   H3621     1.0  0.68511  0.78723  0.75782  1.0000
  H   H3622     1.0  0.62264  0.62691  0.67180  1.0000
  H   H3623     1.0  0.62219  0.96459  0.97437  1.0000
  H   H3624     1.0  0.62781  0.65768  0.73594  1.0000
  H   H3625     1.0  0.63214  0.78273  0.74724  1.0000
  P   P146      1.0  0.61970  0.68226  0.89394  1.0000
  C   C4493     1.0  0.74858  0.82467  0.90170  1.0000
  H   H3626     1.0  0.74298  0.67437  0.86062  1.0000
  C   C4494     1.0  0.59266  0.52970  0.56129  1.0000
  C   C4495     1.0  0.59445  0.72420  0.93295  1.0000
  C   C4496     1.0  0.78653  0.84306  0.66204  1.0000
  C   C4497     1.0  0.61139  0.72488  0.94081  1.0000
  C   C4498     1.0  0.78556  0.53560  0.69894  1.0000
  C   C4499     1.0  0.64888  0.55434  0.88607  1.0000
  C   C4500     1.0  0.76033  0.52238  0.90136  1.0000
  S   S598      1.0  0.64452  0.67337  0.79003  1.0000
  C   C4501     1.0  0.68775  0.69901  0.75599  1.0000
  C   C4502     1.0  0.70819  0.68751  0.75441  1.0000
  C   C4503     1.0  0.72269  0.69396  0.76159  1.0000
  C   C4504     1.0  0.71676  0.71193  0.77029  1.0000
  C   C4505     1.0  0.69628  0.72375  0.77175  1.0000
  C   C4506     1.0  0.68168  0.71678  0.76497  1.0000
  P   P147      1.0  0.68819  0.74488  0.78607  1.0000
  C   C4507     1.0  0.68962  0.73265  0.81306  1.0000
  C   C4508     1.0  0.70566  0.76326  0.77591  1.0000
  C   C4509     1.0  0.72507  0.75855  0.78174  1.0000
  H   H3627     1.0  0.66729  0.76177  0.75048  1.0000
  C   C4510     1.0  0.69976  0.78281  0.76287  1.0000
  C   C4511     1.0  0.69413  0.74361  0.82596  1.0000
  C   C4512     1.0  0.69725  0.73359  0.84616  1.0000
  C   C4513     1.0  0.69569  0.71255  0.85371  1.0000
  C   C4514     1.0  0.69077  0.70163  0.84115  1.0000
  C   C4515     1.0  0.68770  0.71161  0.82093  1.0000
  C   C4516     1.0  0.66216  0.75950  0.78397  1.0000
  C   C4517     1.0  0.65634  0.76584  0.76435  1.0000
  C   C4518     1.0  0.63657  0.77792  0.76240  1.0000
  C   C4519     1.0  0.62248  0.78389  0.78002  1.0000
  C   C4520     1.0  0.62820  0.77787  0.79954  1.0000
  C   C4521     1.0  0.64802  0.76584  0.80153  1.0000
  H   H3628     1.0  0.67633  0.69371  0.75093  1.0000
  H   H3629     1.0  0.71251  0.67327  0.74819  1.0000
  H   H3630     1.0  0.73839  0.68476  0.76099  1.0000
  H   H3631     1.0  0.72797  0.71609  0.77665  1.0000
  H   H3632     1.0  0.66541  0.72439  0.76728  1.0000
  H   H3633     1.0  0.72997  0.74383  0.79198  1.0000
  C   C4522     1.0  0.73363  0.91765  0.86534  1.0000
  C   C4523     1.0  0.71301  0.79715  0.75582  1.0000
  C   C4524     1.0  0.65547  0.56341  0.86503  1.0000
  H   H3634     1.0  0.59762  0.57438  0.49943  1.0000
  P   P148      1.0  0.69654  0.51484  0.84137  1.0000
  C   C4525     1.0  0.63434  0.91451  0.96630  1.0000
  H   H3635     1.0  0.63757  0.76580  0.68073  1.0000
  C   C4526     1.0  0.62712  0.72387  0.82756  1.0000
  C   C4527     1.0  0.78700  0.68373  0.81345  1.0000
  C   C4528     1.0  0.62425  0.66449  0.70381  1.0000
  H   H3636     1.0  0.59715  0.98794  0.87087  1.0000
  C   C4529     1.0  0.75258  0.66197  0.86993  1.0000
  H   H3637     1.0  0.63564  0.96691  0.74360  1.0000
  H   H3638     1.0  0.59991  0.74231  0.78430  1.0000
  C   C4530     1.0  0.61944  0.85239  0.55847  1.0000
  C   C4531     1.0  0.62854  0.94023  0.64738  1.0000
  H   H3639     1.0  0.72378  0.90870  0.71694  1.0000
  S   S599      1.0  0.75392  0.84720  0.90630  1.0000
  S   S600      1.0  0.78541  0.77959  0.50210  1.0000
  C   C4532     1.0  0.76450  0.81141  0.89050  1.0000
  C   C4533     1.0  0.63443  0.83895  0.56947  1.0000
  H   H3640     1.0  0.74404  0.90848  0.76182  1.0000
  C   C4534     1.0  0.72544  0.94214  0.63630  1.0000
  S   S601      1.0  0.67058  0.66062  0.73364  1.0000
  Fe  Fe296     1.0  0.69244  0.97765  0.80412  1.0000
  C   C4535     1.0  0.71947  0.53199  0.80252  1.0000
  C   C4536     1.0  0.59169  0.73329  0.79822  1.0000
  C   C4537     1.0  0.63934  0.62149  0.67062  1.0000
  C   C4538     1.0  0.75046  0.53621  0.51214  1.0000
  C   C4539     1.0  0.69543  0.95568  0.69017  1.0000
  H   H3641     1.0  0.77503  0.70317  0.71217  1.0000
  C   C4540     1.0  0.71959  0.70216  0.53123  1.0000
  H   H3642     1.0  0.67392  0.87703  0.56083  1.0000
  H   H3643     1.0  0.60038  0.92360  0.93906  1.0000
  C   C4541     1.0  0.77977  0.82802  0.82632  1.0000
  Fe  Fe297     1.0  0.71630  0.87579  0.97144  1.0000
  Fe  Fe298     1.0  0.75526  0.75766  0.85743  1.0000
  S   S602      1.0  0.65899  0.72033  0.57735  1.0000
  C   C4542     1.0  0.62800  0.87448  0.81280  1.0000
  C   C4543     1.0  0.78689  0.59236  0.61685  1.0000
  C   C4544     1.0  0.68038  0.52107  0.57819  1.0000
  C   C4545     1.0  0.65837  0.97002  0.70011  1.0000
  H   H3644     1.0  0.62520  0.63313  0.51319  1.0000
  H   H3645     1.0  0.77937  0.59047  0.60523  1.0000
  H   H3646     1.0  0.63497  0.93759  0.56519  1.0000
  C   C4546     1.0  0.73397  0.54444  0.52720  1.0000
  H   H3647     1.0  0.75497  0.81325  0.84618  1.0000
  S   S603      1.0  0.63516  0.63160  0.82683  1.0000
  H   H3648     1.0  0.63909  0.91074  0.66746  1.0000
  H   H3649     1.0  0.63139  0.75359  0.65138  1.0000
  C   C4547     1.0  0.64830  0.58160  0.76475  1.0000
  C   C4548     1.0  0.77983  0.88350  0.58394  1.0000
  C   C4549     1.0  0.63545  0.66131  0.71967  1.0000
  C   C4550     1.0  0.68002  0.54146  0.50071  1.0000
  Fe  Fe299     1.0  0.69091  0.95976  0.76686  1.0000
  S   S604      1.0  0.68493  0.89495  0.96659  1.0000
  S   S605      1.0  0.73342  0.77513  0.54458  1.0000
  S   S606      1.0  0.71362  0.84803  0.96015  1.0000
  H   H3650     1.0  0.74543  0.52709  0.89656  1.0000
  C   C4551     1.0  0.74332  0.91422  0.77570  1.0000
  H   H3651     1.0  0.66247  0.77869  0.84792  1.0000
  H   H3652     1.0  0.73975  0.88485  0.79660  1.0000
  H   H3653     1.0  0.74563  0.94559  0.75858  1.0000
  Fe  Fe300     1.0  0.64215  0.73403  0.60590  1.0000
  Fe  Fe301     1.0  0.64497  0.61398  0.80062  1.0000
  C   C4552     1.0  0.76896  0.89496  0.88118  1.0000
  C   C4553     1.0  0.74076  0.90093  0.79545  1.0000
  C   C4554     1.0  0.74428  0.93515  0.77385  1.0000
  H   H3654     1.0  0.66167  0.90895  0.83805  1.0000
  H   H3655     1.0  0.69871  0.90864  0.82209  1.0000
  S   S607      1.0  0.65434  0.85886  0.95363  1.0000
  H   H3656     1.0  0.67629  0.93476  0.64164  1.0000
  C   C4555     1.0  0.66285  0.51538  0.82413  1.0000
  C   C4556     1.0  0.63470  0.92770  0.66564  1.0000
  H   H3657     1.0  0.75846  0.55237  0.90839  1.0000
  C   C4557     1.0  0.78536  0.76915  0.67706  1.0000
  H   H3658     1.0  0.77636  0.67967  0.86451  1.0000
  Fe  Fe302     1.0  0.75918  0.73191  0.82486  1.0000
  H   H3659     1.0  0.61741  0.92278  0.82473  1.0000
  C   C4558     1.0  0.63971  0.81754  0.56860  1.0000
  S   S608      1.0  0.65358  0.67404  0.60615  1.0000
  C   C4559     1.0  0.67086  0.55317  0.55336  1.0000
  C   C4560     1.0  0.68404  0.98471  0.70822  1.0000
  C   C4561     1.0  0.66477  0.49399  0.79937  1.0000
  H   H3660     1.0  0.64010  0.92711  0.69583  1.0000
  C   C4562     1.0  0.75943  0.62644  0.88999  1.0000
  C   C4563     1.0  0.67353  0.89970  0.84672  1.0000
  C   C4564     1.0  0.69459  0.89962  0.83775  1.0000
  C   C4565     1.0  0.73961  0.90834  0.81350  1.0000
  C   C4566     1.0  0.74287  0.94272  0.79176  1.0000
  C   C4567     1.0  0.77808  0.62962  0.89278  1.0000
  C   C4568     1.0  0.66329  0.68839  0.50727  1.0000
  C   C4569     1.0  0.62002  0.95571  0.72578  1.0000
  C   C4570     1.0  0.63318  0.69834  0.92169  1.0000
  H   H3661     1.0  0.64820  0.59228  0.61993  1.0000
  C   C4571     1.0  0.74062  0.92935  0.81149  1.0000
  H   H3662     1.0  0.65152  0.88830  0.87393  1.0000
  C   C4572     1.0  0.75744  0.91308  0.88829  1.0000
  C   C4573     1.0  0.59208  0.51342  0.50288  1.0000
  C   C4574     1.0  0.63544  0.85120  0.62816  1.0000
  C   C4575     1.0  0.63070  0.71184  0.93532  1.0000
  H   H3663     1.0  0.61879  0.60677  0.54602  1.0000
  C   C4576     1.0  0.78030  0.67069  0.72807  1.0000
  H   H3664     1.0  0.78233  0.65926  0.68336  1.0000
  C   C4577     1.0  0.78704  0.53078  0.91390  1.0000
  C   C4578     1.0  0.76305  0.88829  0.86592  1.0000
  C   C4579     1.0  0.74533  0.89961  0.85783  1.0000
  C   C4580     1.0  0.71004  0.88855  0.84922  1.0000
  C   C4581     1.0  0.66779  0.88821  0.86697  1.0000
  C   C4582     1.0  0.78713  0.90438  0.66429  1.0000
  C   C4583     1.0  0.61752  0.89142  0.82242  1.0000
  C   C4584     1.0  0.67000  0.55135  0.85165  1.0000
  S   S609      1.0  0.64974  0.57900  0.80579  1.0000
  Fe  Fe303     1.0  0.61788  0.65672  0.80478  1.0000
  H   H3665     1.0  0.73218  0.84615  0.85407  1.0000
  C   C4585     1.0  0.63383  0.66996  0.68268  1.0000
  H   H3666     1.0  0.64483  0.86310  0.62368  1.0000
  H   H3667     1.0  0.71397  0.81859  0.54491  1.0000
  C   C4586     1.0  0.59978  0.64698  0.62197  1.0000
  Fe  Fe304     1.0  0.76854  0.77575  0.81143  1.0000
  C   C4587     1.0  0.60689  0.68018  0.55826  1.0000
  C   C4588     1.0  0.63530  0.93701  0.68175  1.0000
  C   C4589     1.0  0.65892  0.88631  0.56661  1.0000
  P   P149      1.0  0.63137  0.97036  0.70079  1.0000
  P   P150      1.0  0.78754  0.62852  0.74896  1.0000
  C   C4590     1.0  0.78835  0.72955  0.66910  1.0000
  H   H3668     1.0  0.77290  0.88272  0.57140  1.0000
  H   H3669     1.0  0.71957  0.92641  0.85981  1.0000
  C   C4591     1.0  0.73180  0.49243  0.85781  1.0000
  H   H3670     1.0  0.63759  0.56373  0.89639  1.0000
  C   C4592     1.0  0.77142  0.66503  0.87232  1.0000
  C   C4593     1.0  0.66465  0.62188  0.57237  1.0000
  C   C4594     1.0  0.78563  0.69108  0.90005  1.0000
  H   H3671     1.0  0.59285  0.55068  0.53141  1.0000
  C   C4595     1.0  0.68310  0.87664  0.87827  1.0000
  H   H3672     1.0  0.70766  0.56959  0.53305  1.0000
  C   C4596     1.0  0.62794  0.61081  0.59868  1.0000
  Fe  Fe305     1.0  0.63534  0.69985  0.58546  1.0000
  H   H3673     1.0  0.68021  0.60207  0.59677  1.0000
  C   C4597     1.0  0.73994  0.92455  0.88019  1.0000
  C   C4598     1.0  0.76319  0.59636  0.50446  1.0000
  C   C4599     1.0  0.64321  0.80337  0.82971  1.0000
  H   H3674     1.0  0.60788  0.82458  0.67203  1.0000
  C   C4600     1.0  0.77551  0.93888  0.62261  1.0000
  C   C4601     1.0  0.59512  0.97240  0.92298  1.0000
  C   C4602     1.0  0.65681  0.53317  0.89370  1.0000
  C   C4603     1.0  0.62395  0.53369  0.53454  1.0000
  H   H3675     1.0  0.62235  0.83571  0.96222  1.0000
  H   H3676     1.0  0.63507  0.49771  0.57844  1.0000
  H   H3677     1.0  0.76919  0.63134  0.82083  1.0000
  C   C4604     1.0  0.62337  0.51988  0.62035  1.0000
  C   C4605     1.0  0.70414  0.87712  0.86959  1.0000
  C   C4606     1.0  0.66829  0.53054  0.59494  1.0000
  H   H3678     1.0  0.68872  0.50494  0.58091  1.0000
  S   S610      1.0  0.62513  0.63749  0.77980  1.0000
  C   C4607     1.0  0.75636  0.93719  0.93860  1.0000
  H   H3679     1.0  0.78271  0.81257  0.61775  1.0000
  C   C4608     1.0  0.62879  0.61656  0.51271  1.0000
  H   H3680     1.0  0.70787  0.94389  0.68377  1.0000
  H   H3681     1.0  0.65129  0.94218  0.91759  1.0000
  H   H3682     1.0  0.76183  0.91794  0.90041  1.0000
  C   C4609     1.0  0.68167  0.53237  0.55750  1.0000
  H   H3683     1.0  0.69497  0.96214  0.64149  1.0000
  C   C4610     1.0  0.63570  0.57388  0.51123  1.0000
  C   C4611     1.0  0.62731  0.62442  0.57908  1.0000
  C   C4612     1.0  0.67467  0.95546  0.69084  1.0000
  H   H3684     1.0  0.77669  0.56636  0.64024  1.0000
  C   C4613     1.0  0.72007  0.56311  0.52132  1.0000
  C   C4614     1.0  0.66549  0.60803  0.59169  1.0000
  H   H3685     1.0  0.66898  0.91554  0.55222  1.0000
  H   H3686     1.0  0.77191  0.68426  0.90428  1.0000
  S   S611      1.0  0.77096  0.52092  0.67206  1.0000
  C   C4615     1.0  0.62298  0.96207  0.64527  1.0000
  H   H3687     1.0  0.67867  0.86771  0.89400  1.0000
  H   H3688     1.0  0.78488  0.93541  0.59014  1.0000
  H   H3689     1.0  0.61990  0.67173  0.52805  1.0000
  C   C4616     1.0  0.64293  0.91863  0.94480  1.0000
  H   H3690     1.0  0.62618  0.57160  0.68311  1.0000
  H   H3691     1.0  0.68199  0.68785  0.52889  1.0000
  H   H3692     1.0  0.65095  0.80677  0.57724  1.0000
  S   S612      1.0  0.78941  0.53785  0.85109  1.0000
  C   C4617     1.0  0.64721  0.60254  0.60485  1.0000
  C   C4618     1.0  0.62060  0.91112  0.58138  1.0000
  C   C4619     1.0  0.65150  0.95066  0.86704  1.0000
  S   S613      1.0  0.62896  0.68991  0.55807  1.0000
  C   C4620     1.0  0.76944  0.74409  0.66980  1.0000
  S   S614      1.0  0.73498  0.76713  0.88704  1.0000
  H   H3693     1.0  0.76785  0.94758  0.65296  1.0000
  H   H3694     1.0  0.74849  0.50732  0.56461  1.0000
  C   C4621     1.0  0.68350  0.50593  0.82600  1.0000
  S   S615      1.0  0.70482  0.98610  0.76928  1.0000
  H   H3695     1.0  0.63854  0.97136  0.93682  1.0000
  H   H3696     1.0  0.66688  0.94059  0.86634  1.0000
  C   C4622     1.0  0.77502  0.95154  0.63649  1.0000
  H   H3697     1.0  0.64996  0.69899  0.51441  1.0000
  H   H3698     1.0  0.73216  0.64025  0.87673  1.0000
  H   H3699     1.0  0.74314  0.95906  0.79046  1.0000
  P   P151      1.0  0.63655  0.54724  0.50949  1.0000
  S   S616      1.0  0.61961  0.67512  0.66288  1.0000
  C   C4623     1.0  0.67351  0.83720  0.58201  1.0000
  C   C4624     1.0  0.59972  0.91945  0.90833  1.0000
  C   C4625     1.0  0.78606  0.52126  0.78718  1.0000
  Fe  Fe306     1.0  0.63573  0.69148  0.63172  1.0000
  C   C4626     1.0  0.60155  0.49562  0.64181  1.0000
  C   C4627     1.0  0.74708  0.84676  0.84356  1.0000
  C   C4628     1.0  0.67759  0.97698  0.95989  1.0000
  H   H3700     1.0  0.64930  0.57977  0.85890  1.0000
  C   C4629     1.0  0.77617  0.88384  0.69887  1.0000
  C   C4630     1.0  0.68803  0.98203  0.91628  1.0000
  C   C4631     1.0  0.68543  0.49219  0.62423  1.0000
  C   C4632     1.0  0.66240  0.68121  0.48985  1.0000
  C   C4633     1.0  0.61527  0.82311  0.54610  1.0000
  S   S617      1.0  0.78623  0.74483  0.80349  1.0000
  H   H3701     1.0  0.66327  0.97746  0.84731  1.0000
  H   H3702     1.0  0.71929  0.97123  0.96109  1.0000
  H   H3703     1.0  0.78248  0.73848  0.62050  1.0000
  H   H3704     1.0  0.78077  0.75539  0.75418  1.0000
  S   S618      1.0  0.78263  0.77185  0.83917  1.0000
  C   C4634     1.0  0.60232  0.53915  0.54138  1.0000
  C   C4635     1.0  0.70011  0.97022  0.69894  1.0000
  C   C4636     1.0  0.78363  0.62075  0.72664  1.0000
  H   H3705     1.0  0.78463  0.77463  0.62080  1.0000
  C   C4637     1.0  0.78640  0.84690  0.81714  1.0000
  C   C4638     1.0  0.78554  0.57872  0.63640  1.0000
  H   H3706     1.0  0.78776  0.85100  0.64581  1.0000
  C   C4639     1.0  0.59691  0.67152  0.89712  1.0000
  C   C4640     1.0  0.78893  0.81421  0.77775  1.0000
  H   H3707     1.0  0.78990  0.81344  0.82332  1.0000
  H   H3708     1.0  0.78807  0.61672  0.90110  1.0000
  C   C4641     1.0  0.60793  0.58399  0.63772  1.0000
  H   H3709     1.0  0.78748  0.69442  0.55951  1.0000
  H   H3710     1.0  0.61276  0.64885  0.60889  1.0000
  C   C4642     1.0  0.77752  0.93705  0.93592  1.0000
  H   H3711     1.0  0.59633  0.92422  0.77991  1.0000
  H   H3712     1.0  0.78332  0.70127  0.59488  1.0000
  C   C4643     1.0  0.73880  0.79859  0.48929  1.0000
  H   H3713     1.0  0.78713  0.64934  0.64929  1.0000
  C   C4644     1.0  0.60447  0.51481  0.57449  1.0000
  C   C4645     1.0  0.61909  0.56989  0.67105  1.0000
  C   C4646     1.0  0.61721  0.58594  0.65335  1.0000
  H   H3714     1.0  0.60044  0.94284  0.71339  1.0000
  C   C4647     1.0  0.76468  0.98494  0.82087  1.0000
  C   C4648     1.0  0.79065  0.83171  0.76132  1.0000
  P   P152      1.0  0.78906  0.97925  0.88054  1.0000
  C   C4649     1.0  0.59183  0.62845  0.62850  1.0000
  C   C4650     1.0  0.78913  0.65586  0.74392  1.0000
  C   C4651     1.0  0.59688  0.71073  0.91935  1.0000
  P   P153      1.0  0.60375  0.60609  0.61625  1.0000
  C   C4652     1.0  0.60021  0.56577  0.64029  1.0000
  C   C4653     1.0  0.75486  0.49302  0.53757  1.0000
  C   C4654     1.0  0.73270  0.72922  0.49339  1.0000
  C   C4655     1.0  0.75269  0.61143  0.49012  1.0000
  C   C4656     1.0  0.69750  0.66027  0.48942  1.0000
  H   H3715     1.0  0.78613  0.92719  0.94764  1.0000
  C   C4657     1.0  0.78748  0.94974  0.91827  1.0000
  H   H3716     1.0  0.78946  0.71420  0.66606  1.0000
  H   H3717     1.0  0.65354  0.98859  0.88965  1.0000
  H   H3718     1.0  0.59674  0.50715  0.58958  1.0000
  C   C4658     1.0  0.79036  0.89515  0.68461  1.0000
  C   C4659     1.0  0.72033  0.98432  0.98678  1.0000
  H   H3719     1.0  0.59599  0.53573  0.66013  1.0000
  C   C4660     1.0  0.59443  0.58629  0.58912  1.0000
  C   C4661     1.0  0.72752  0.97986  0.96667  1.0000
  C   C4662     1.0  0.66328  0.98465  0.70880  1.0000
  H   H3720     1.0  0.79105  0.71479  0.73552  1.0000
  C   C4663     1.0  0.79051  0.69841  0.73775  1.0000
  Fe  Fe307     1.0  0.83979  0.07889  0.16163  1.0000
  H   H3721     1.0  0.85136  0.32972  0.09269  1.0000
  S   S619      1.0  0.94159  0.12313  0.43058  1.0000
  S   S620      1.0  0.80392  0.07606  0.05296  1.0000
  Fe  Fe308     1.0  0.86292  0.34058  0.17028  1.0000
  S   S621      1.0  0.87511  0.36491  0.17855  1.0000
  S   S622      1.0  0.87787  0.30661  0.16992  1.0000
  Fe  Fe309     1.0  0.82304  0.37112  0.16118  1.0000
  S   S623      1.0  0.83136  0.39808  0.16893  1.0000
  H   H3722     1.0  0.83419  0.15504  0.14013  1.0000
  Fe  Fe310     1.0  0.86323  0.38662  0.15091  1.0000
  S   S624      1.0  0.88228  0.40695  0.12570  1.0000
  Fe  Fe311     1.0  0.84220  0.37403  0.19594  1.0000
  Fe  Fe312     1.0  0.89997  0.07215  0.42606  1.0000
  S   S625      1.0  0.85404  0.36154  0.14090  1.0000
  S   S626      1.0  0.83089  0.34800  0.18977  1.0000
  Fe  Fe313     1.0  0.94301  0.47722  0.13643  1.0000
  S   S627      1.0  0.96131  0.45123  0.11981  1.0000
  S   S628      1.0  0.91006  0.47621  0.15422  1.0000
  C   C4664     1.0  0.86491  0.13377  0.08715  1.0000
  S   S629      1.0  0.81734  0.24092  0.31212  1.0000
  S   S630      1.0  0.81952  0.13235  0.03515  1.0000
  C   C4665     1.0  0.84516  0.29602  0.99579  1.0000
  S   S631      1.0  0.90021  0.10520  0.40819  1.0000
  C   C4666     1.0  0.81461  0.22863  0.19637  1.0000
  H   H3723     1.0  0.82028  0.26496  0.24740  1.0000
  H   H3724     1.0  0.82606  0.02221  0.22213  1.0000
  S   S632      1.0  0.90795  0.04461  0.41032  1.0000
  Fe  Fe314     1.0  0.82316  0.24017  0.34353  1.0000
  S   S633      1.0  0.84615  0.21291  0.35695  1.0000
  Fe  Fe315     1.0  0.81235  0.10409  0.02868  1.0000
  Fe  Fe316     1.0  0.88686  0.07262  0.15570  1.0000
  S   S634      1.0  0.91102  0.08910  0.15776  1.0000
  S   S635      1.0  0.86539  0.08199  0.13301  1.0000
  C   C4667     1.0  0.90060  0.01306  0.29620  1.0000
  H   H3725     1.0  0.85275  0.27733  0.41248  1.0000
  Fe  Fe317     1.0  0.95002  0.23051  0.23749  1.0000
  S   S636      1.0  0.93640  0.20858  0.22738  1.0000
  S   S637      1.0  0.94759  0.26529  0.22377  1.0000
  Fe  Fe318     1.0  0.96892  0.19586  0.27017  1.0000
  S   S638      1.0  0.95758  0.17072  0.26238  1.0000
  Fe  Fe319     1.0  0.96712  0.18654  0.22889  1.0000
  C   C4668     1.0  0.89755  0.15030  0.02388  1.0000
  Fe  Fe320     1.0  0.92781  0.19444  0.26156  1.0000
  S   S639      1.0  0.89750  0.18339  0.27394  1.0000
  C   C4669     1.0  0.94183  0.19497  0.99031  1.0000
  S   S640      1.0  0.93825  0.21861  0.27177  1.0000
  S   S641      1.0  0.92390  0.16182  0.09318  1.0000
  S   S642      1.0  0.92057  0.18168  0.14195  1.0000
  Fe  Fe321     1.0  0.91790  0.18937  0.06749  1.0000
  S   S643      1.0  0.88715  0.19578  0.05742  1.0000
  C   C4670     1.0  0.96490  0.17129  0.18633  1.0000
  C   C4671     1.0  0.94328  0.17484  0.19373  1.0000
  C   C4672     1.0  0.92987  0.17771  0.17999  1.0000
  C   C4673     1.0  0.93798  0.17694  0.15882  1.0000
  C   C4674     1.0  0.97303  0.16991  0.16527  1.0000
  H   H3726     1.0  0.93690  0.17481  0.21016  1.0000
  H   H3727     1.0  0.91319  0.18045  0.18575  1.0000
  C   C4675     1.0  0.92939  0.09648  0.13514  1.0000
  C   C4676     1.0  0.93515  0.08601  0.11837  1.0000
  C   C4677     1.0  0.94958  0.09288  0.10027  1.0000
  C   C4678     1.0  0.95275  0.12012  0.11610  1.0000
  C   C4679     1.0  0.93862  0.11319  0.13412  1.0000
  H   H3728     1.0  0.92814  0.07300  0.11916  1.0000
  H   H3729     1.0  0.95908  0.13361  0.11526  1.0000
  H   H3730     1.0  0.93412  0.12152  0.14688  1.0000
  H   H3731     1.0  0.92958  0.04651  0.20633  1.0000
  H   H3732     1.0  0.79586  0.00559  0.35764  1.0000
  C   C4680     1.0  0.86129  0.20072  0.33633  1.0000
  C   C4681     1.0  0.88297  0.19921  0.33104  1.0000
  C   C4682     1.0  0.89442  0.19339  0.31207  1.0000
  C   C4683     1.0  0.88427  0.18849  0.29878  1.0000
  C   C4684     1.0  0.86290  0.18864  0.30487  1.0000
  C   C4685     1.0  0.85141  0.19495  0.32345  1.0000
  H   H3733     1.0  0.89067  0.20379  0.34088  1.0000
  H   H3734     1.0  0.91092  0.19335  0.30742  1.0000
  H   H3735     1.0  0.85497  0.18463  0.29489  1.0000
  H   H3736     1.0  0.83473  0.19592  0.32750  1.0000
  S   S644      1.0  0.86906  0.03086  0.11119  1.0000
  C   C4686     1.0  0.83746  0.11894  0.39566  1.0000
  S   S645      1.0  0.92508  0.21158  0.08337  1.0000
  C   C4687     1.0  0.87630  0.17518  0.39051  1.0000
  S   S646      1.0  0.79297  0.07067  0.26820  1.0000
  C   C4688     1.0  0.85239  0.10207  0.38910  1.0000
  C   C4689     1.0  0.89784  0.01500  0.31693  1.0000
  H   H3737     1.0  0.86606  0.09592  0.39592  1.0000
  H   H3738     1.0  0.80471  0.32591  0.14130  1.0000
  H   H3739     1.0  0.80800  0.44979  0.11808  1.0000
  H   H3740     1.0  0.97826  0.05963  0.30955  1.0000
  C   C4690     1.0  0.86895  0.22694  0.40483  1.0000
  H   H3741     1.0  0.79293  0.21155  0.31735  1.0000
  C   C4691     1.0  0.85320  0.31540  0.24312  1.0000
  H   H3742     1.0  0.95336  0.08547  0.08693  1.0000
  C   C4692     1.0  0.89683  0.29538  0.18540  1.0000
  C   C4693     1.0  0.90511  0.30779  0.19368  1.0000
  C   C4694     1.0  0.92100  0.29849  0.20504  1.0000
  C   C4695     1.0  0.92827  0.27669  0.20872  1.0000
  C   C4696     1.0  0.91988  0.26432  0.20056  1.0000
  C   C4697     1.0  0.90421  0.27362  0.18899  1.0000
  H   H3743     1.0  0.89935  0.32452  0.19130  1.0000
  H   H3744     1.0  0.92743  0.30815  0.21126  1.0000
  H   H3745     1.0  0.92560  0.24760  0.20287  1.0000
  H   H3746     1.0  0.89764  0.26384  0.18309  1.0000
  C   C4698     1.0  0.88814  0.42731  0.13362  1.0000
  C   C4699     1.0  0.87914  0.43212  0.15344  1.0000
  C   C4700     1.0  0.88543  0.44763  0.15966  1.0000
  C   C4701     1.0  0.90075  0.45813  0.14609  1.0000
  C   C4702     1.0  0.90882  0.45399  0.12596  1.0000
  C   C4703     1.0  0.90253  0.43862  0.11980  1.0000
  H   H3747     1.0  0.86779  0.42359  0.16413  1.0000
  H   H3748     1.0  0.87894  0.45102  0.17516  1.0000
  H   H3749     1.0  0.91972  0.46286  0.11500  1.0000
  H   H3750     1.0  0.90898  0.43536  0.10434  1.0000
  C   C4704     1.0  0.87014  0.48916  0.08234  1.0000
  H   H3751     1.0  0.85988  0.30399  0.29791  1.0000
  H   H3752     1.0  0.84160  0.33141  0.35245  1.0000
  C   C4705     1.0  0.83785  0.35202  0.24348  1.0000
  H   H3753     1.0  0.95471  0.18564  0.46276  1.0000
  C   C4706     1.0  0.83811  0.28263  0.16102  1.0000
  C   C4707     1.0  0.85174  0.33655  0.23354  1.0000
  C   C4708     1.0  0.90033  0.16300  0.03625  1.0000
  C   C4709     1.0  0.95912  0.25347  0.99898  1.0000
  H   H3754     1.0  0.86116  0.34075  0.21819  1.0000
  C   C4710     1.0  0.82230  0.06413  0.06893  1.0000
  C   C4711     1.0  0.82622  0.04227  0.07546  1.0000
  C   C4712     1.0  0.84078  0.03224  0.08817  1.0000
  C   C4713     1.0  0.85083  0.04404  0.09528  1.0000
  C   C4714     1.0  0.84669  0.06600  0.08909  1.0000
  C   C4715     1.0  0.83270  0.07602  0.07558  1.0000
  H   H3755     1.0  0.81820  0.03303  0.07039  1.0000
  H   H3756     1.0  0.84406  0.01532  0.09265  1.0000
  H   H3757     1.0  0.85460  0.07521  0.09428  1.0000
  H   H3758     1.0  0.82969  0.09293  0.07063  1.0000
  C   C4716     1.0  0.86149  0.16795  0.02607  1.0000
  C   C4717     1.0  0.86438  0.18111  0.03789  1.0000
  C   C4718     1.0  0.88380  0.17864  0.04308  1.0000
  C   C4719     1.0  0.86034  0.43126  0.08149  1.0000
  H   H3759     1.0  0.85153  0.19326  0.04289  1.0000
  H   H3760     1.0  0.84142  0.31429  0.14588  1.0000
  C   C4720     1.0  0.88610  0.18190  0.40294  1.0000
  P   P154      1.0  0.83454  0.24114  0.17803  1.0000
  C   C4721     1.0  0.85396  0.23718  0.19346  1.0000
  C   C4722     1.0  0.80843  0.15911  0.12538  1.0000
  C   C4723     1.0  0.89800  0.10924  0.08367  1.0000
  C   C4724     1.0  0.86782  0.21771  0.19659  1.0000
  C   C4725     1.0  0.88101  0.21345  0.21073  1.0000
  C   C4726     1.0  0.88021  0.22838  0.22214  1.0000
  C   C4727     1.0  0.86639  0.24776  0.21928  1.0000
  C   C4728     1.0  0.85332  0.25217  0.20498  1.0000
  C   C4729     1.0  0.84407  0.23068  0.15437  1.0000
  C   C4730     1.0  0.86542  0.22693  0.14557  1.0000
  C   C4731     1.0  0.87282  0.21948  0.12689  1.0000
  C   C4732     1.0  0.85886  0.21600  0.11666  1.0000
  C   C4733     1.0  0.83743  0.22052  0.12486  1.0000
  C   C4734     1.0  0.83002  0.22806  0.14353  1.0000
  H   H3761     1.0  0.85433  0.27768  0.16235  1.0000
  H   H3762     1.0  0.82099  0.20185  0.18182  1.0000
  C   C4735     1.0  0.91917  0.16110  0.38839  1.0000
  H   H3763     1.0  0.86818  0.20563  0.18846  1.0000
  H   H3764     1.0  0.89163  0.19841  0.21325  1.0000
  H   H3765     1.0  0.89022  0.22474  0.23333  1.0000
  H   H3766     1.0  0.86574  0.25937  0.22821  1.0000
  H   H3767     1.0  0.84245  0.26710  0.20335  1.0000
  H   H3768     1.0  0.87636  0.22961  0.15323  1.0000
  C   C4736     1.0  0.81716  0.02434  0.35842  1.0000
  H   H3769     1.0  0.85403  0.14588  0.09458  1.0000
  H   H3770     1.0  0.82658  0.21817  0.11672  1.0000
  H   H3771     1.0  0.81337  0.23181  0.14951  1.0000
  C   C4737     1.0  0.91203  0.45840  0.06510  1.0000
  H   H3772     1.0  0.81539  0.14563  0.11805  1.0000
  C   C4738     1.0  0.95237  0.48558  0.02979  1.0000
  C   C4739     1.0  0.82806  0.37754  0.01603  1.0000
  P   P155      1.0  0.84606  0.38411  0.02780  1.0000
  C   C4740     1.0  0.87318  0.37536  0.01643  1.0000
  C   C4741     1.0  0.88843  0.36916  0.02882  1.0000
  C   C4742     1.0  0.90957  0.36393  0.01958  1.0000
  H   H3773     1.0  0.80328  0.12322  0.36440  1.0000
  C   C4743     1.0  0.82619  0.34635  0.26372  1.0000
  C   C4744     1.0  0.82746  0.21097  0.43103  1.0000
  H   H3774     1.0  0.79395  0.21917  0.43946  1.0000
  S   S647      1.0  0.84111  0.13062  0.41483  1.0000
  H   H3775     1.0  0.79347  0.39838  0.24681  1.0000
  H   H3776     1.0  0.93918  0.20734  0.99879  1.0000
  C   C4745     1.0  0.80528  0.18372  0.36906  1.0000
  H   H3777     1.0  0.84562  0.13462  0.06586  1.0000
  C   C4746     1.0  0.79740  0.43699  0.35140  1.0000
  H   H3778     1.0  0.88415  0.36889  0.04548  1.0000
  H   H3779     1.0  0.92128  0.35904  0.02915  1.0000
  H   H3780     1.0  0.80125  0.33036  0.39463  1.0000
  C   C4747     1.0  0.90572  0.19121  0.47306  1.0000
  C   C4748     1.0  0.79750  0.19879  0.20986  1.0000
  H   H3781     1.0  0.81769  0.13728  0.18400  1.0000
  P   P156      1.0  0.99118  0.05601  0.17040  1.0000
  C   C4749     1.0  0.79168  0.31420  0.23451  1.0000
  C   C4750     1.0  0.81384  0.22777  0.06816  1.0000
  C   C4751     1.0  0.83411  0.22567  0.07077  1.0000
  C   C4752     1.0  0.84199  0.24349  0.06905  1.0000
  C   C4753     1.0  0.82951  0.26363  0.06489  1.0000
  C   C4754     1.0  0.80888  0.26558  0.06296  1.0000
  P   P157      1.0  0.84046  0.28682  0.05943  1.0000
  C   C4755     1.0  0.82058  0.30705  0.07032  1.0000
  C   C4756     1.0  0.86296  0.28046  0.07158  1.0000
  C   C4757     1.0  0.86086  0.28237  0.09239  1.0000
  C   C4758     1.0  0.87827  0.27652  0.10175  1.0000
  C   C4759     1.0  0.89787  0.26858  0.09050  1.0000
  C   C4760     1.0  0.90014  0.26666  0.06985  1.0000
  C   C4761     1.0  0.88281  0.27253  0.06044  1.0000
  C   C4762     1.0  0.81589  0.32733  0.05816  1.0000
  H   H3782     1.0  0.83247  0.32175  0.32327  1.0000
  C   C4763     1.0  0.80909  0.30241  0.09091  1.0000
  C   C4764     1.0  0.84824  0.29524  0.03123  1.0000
  C   C4765     1.0  0.83864  0.29012  0.01752  1.0000
  H   H3783     1.0  0.91840  0.41911  0.18642  1.0000
  H   H3784     1.0  0.97764  0.12396  0.99812  1.0000
  C   C4766     1.0  0.86407  0.30693  0.02273  1.0000
  H   H3785     1.0  0.80822  0.21396  0.06847  1.0000
  H   H3786     1.0  0.84395  0.21018  0.07351  1.0000
  H   H3787     1.0  0.85798  0.24139  0.07043  1.0000
  H   H3788     1.0  0.84592  0.28818  0.10160  1.0000
  H   H3789     1.0  0.87651  0.27798  0.11781  1.0000
  H   H3790     1.0  0.91133  0.26372  0.09778  1.0000
  H   H3791     1.0  0.91536  0.26033  0.06120  1.0000
  H   H3792     1.0  0.88495  0.27069  0.04450  1.0000
  H   H3793     1.0  0.82384  0.33118  0.04202  1.0000
  H   H3794     1.0  0.81162  0.28663  0.10024  1.0000
  H   H3795     1.0  0.87065  0.10800  0.04809  1.0000
  H   H3796     1.0  0.95121  0.01594  0.10979  1.0000
  H   H3797     1.0  0.87138  0.31158  0.03289  1.0000
  C   C4767     1.0  0.97809  0.15442  0.35240  1.0000
  Fe  Fe322     1.0  0.96509  0.99619  0.26236  1.0000
  H   H3798     1.0  0.92197  0.42918  0.01954  1.0000
  C   C4768     1.0  0.97937  0.15423  0.39361  1.0000
  C   C4769     1.0  0.97772  0.17327  0.37890  1.0000
  C   C4770     1.0  0.97714  0.17318  0.35825  1.0000
  P   P158      1.0  0.97828  0.19740  0.38566  1.0000
  C   C4771     1.0  0.95430  0.21665  0.38385  1.0000
  C   C4772     1.0  0.94938  0.23338  0.39440  1.0000
  C   C4773     1.0  0.93160  0.24912  0.39221  1.0000
  C   C4774     1.0  0.91866  0.24836  0.37937  1.0000
  C   C4775     1.0  0.92326  0.23165  0.36904  1.0000
  C   C4776     1.0  0.94085  0.21573  0.37144  1.0000
  C   C4777     1.0  0.97394  0.01970  0.18407  1.0000
  C   C4778     1.0  0.88384  0.12466  0.09349  1.0000
  H   H3799     1.0  0.92540  0.37855  0.14416  1.0000
  H   H3800     1.0  0.94597  0.30975  0.15230  1.0000
  H   H3801     1.0  0.79414  0.04398  0.21071  1.0000
  H   H3802     1.0  0.95168  0.25862  0.01361  1.0000
  C   C4779     1.0  0.98750  0.10418  0.24591  1.0000
  C   C4780     1.0  0.95979  0.10013  0.00348  1.0000
  H   H3803     1.0  0.88205  0.00587  0.34890  1.0000
  H   H3804     1.0  0.92799  0.26203  0.40030  1.0000
  H   H3805     1.0  0.90508  0.26072  0.37742  1.0000
  H   H3806     1.0  0.91329  0.23102  0.35903  1.0000
  H   H3807     1.0  0.94376  0.20296  0.36343  1.0000
  H   H3808     1.0  0.79399  0.34150  0.18418  1.0000
  C   C4781     1.0  0.79814  0.45666  0.35435  1.0000
  C   C4782     1.0  0.80042  0.34283  0.06671  1.0000
  H   H3809     1.0  0.91423  0.18869  0.48544  1.0000
  H   H3810     1.0  0.85905  0.05849  0.41858  1.0000
  H   H3811     1.0  0.81790  0.18458  0.15828  1.0000
  C   C4783     1.0  0.80806  0.29677  0.23303  1.0000
  C   C4784     1.0  0.94413  0.02931  0.09923  1.0000
  H   H3812     1.0  0.91175  0.02069  0.28394  1.0000
  C   C4785     1.0  0.84422  0.44470  0.03025  1.0000
  H   H3813     1.0  0.79676  0.17075  0.34707  1.0000
  C   C4786     1.0  0.82713  0.01487  0.26461  1.0000
  C   C4787     1.0  0.79324  0.02364  0.19099  1.0000
  C   C4788     1.0  0.82767  0.05674  0.41874  1.0000
  C   C4789     1.0  0.79912  0.36728  0.99900  1.0000
  C   C4790     1.0  0.83108  0.03716  0.34611  1.0000
  C   C4791     1.0  0.86017  0.12742  0.07099  1.0000
  H   H3814     1.0  0.85234  0.24035  0.02530  1.0000
  C   C4792     1.0  0.98025  0.05977  0.37203  1.0000
  C   C4793     1.0  0.88012  0.18210  0.45937  1.0000
  C   C4794     1.0  0.84520  0.19463  0.42985  1.0000
  H   H3815     1.0  0.86024  0.24084  0.43233  1.0000
  H   H3816     1.0  0.91260  0.10252  0.08858  1.0000
  C   C4795     1.0  0.81394  0.13639  0.21725  1.0000
  P   P159      1.0  0.87116  0.20020  0.41954  1.0000
  P   P160      1.0  0.86915  0.47175  0.06629  1.0000
  H   H3817     1.0  0.95676  0.34986  0.16134  1.0000
  H   H3818     1.0  0.86896  0.17237  0.46145  1.0000
  H   H3819     1.0  0.95678  0.06232  0.05279  1.0000
  H   H3820     1.0  0.81535  0.35826  0.27142  1.0000
  C   C4796     1.0  0.88487  0.24063  0.02153  1.0000
  C   C4797     1.0  0.82245  0.44470  0.10758  1.0000
  H   H3821     1.0  0.95461  0.05868  0.48817  1.0000
  H   H3822     1.0  0.86827  0.05329  0.01088  1.0000
  C   C4798     1.0  0.92806  0.41089  0.17428  1.0000
  H   H3823     1.0  0.80159  0.01315  0.31873  1.0000
  C   C4799     1.0  0.93388  0.14114  0.48603  1.0000
  H   H3824     1.0  0.88754  0.15923  0.13403  1.0000
  C   C4800     1.0  0.89742  0.08377  0.01902  1.0000
  C   C4801     1.0  0.96048  0.00720  0.18356  1.0000
  C   C4802     1.0  0.96157  0.04550  0.15521  1.0000
  C   C4803     1.0  0.93911  0.11382  0.04071  1.0000
  C   C4804     1.0  0.96498  0.23202  0.99882  1.0000
  H   H3825     1.0  0.82876  0.22724  0.42585  1.0000
  C   C4805     1.0  0.89907  0.44793  0.03977  1.0000
  S   S648      1.0  0.88176  0.12000  0.45369  1.0000
  H   H3826     1.0  0.90934  0.19338  0.99817  1.0000
  C   C4806     1.0  0.80694  0.01521  0.34843  1.0000
  H   H3827     1.0  0.90341  0.09787  0.01128  1.0000
  H   H3828     1.0  0.94977  0.19167  0.42637  1.0000
  C   C4807     1.0  0.80702  0.13740  0.19896  1.0000
  H   H3829     1.0  0.87856  0.32324  0.35616  1.0000
  C   C4808     1.0  0.81462  0.21799  0.00140  1.0000
  S   S649      1.0  0.97489  0.47488  0.06042  1.0000
  Fe  Fe323     1.0  0.88447  0.08567  0.46806  1.0000
  C   C4809     1.0  0.79663  0.29589  0.15647  1.0000
  H   H3830     1.0  0.82067  0.15310  0.44876  1.0000
  H   H3831     1.0  0.98025  0.15370  0.40954  1.0000
  C   C4810     1.0  0.79391  0.31807  0.09950  1.0000
  C   C4811     1.0  0.91342  0.05451  0.09044  1.0000
  H   H3832     1.0  0.95950  0.23444  0.40407  1.0000
  C   C4812     1.0  0.89078  0.17931  0.47545  1.0000
  H   H3833     1.0  0.86542  0.46669  0.11178  1.0000
  S   S650      1.0  0.91637  0.07532  0.44939  1.0000
  C   C4813     1.0  0.96648  0.13116  0.45297  1.0000
  H   H3834     1.0  0.90720  0.02380  0.32078  1.0000
  S   S651      1.0  0.96839  0.47697  0.15244  1.0000
  C   C4814     1.0  0.87449  0.11219  0.06094  1.0000
  C   C4815     1.0  0.79952  0.13550  0.23643  1.0000
  C   C4816     1.0  0.98802  0.04458  0.31446  1.0000
  H   H3835     1.0  0.81543  0.40086  0.06231  1.0000
  H   H3836     1.0  0.82181  0.17726  0.36483  1.0000
  C   C4817     1.0  0.84940  0.00185  0.47768  1.0000
  C   C4818     1.0  0.83838  0.42365  0.00209  1.0000
  H   H3837     1.0  0.86692  0.49054  0.13341  1.0000
  C   C4819     1.0  0.90556  0.99826  0.46244  1.0000
  C   C4820     1.0  0.89095  0.05613  0.04946  1.0000
  C   C4821     1.0  0.88374  0.00480  0.33275  1.0000
  C   C4822     1.0  0.82376  0.38550  0.06872  1.0000
  H   H3838     1.0  0.84959  0.03383  0.46116  1.0000
  C   C4823     1.0  0.81923  0.01707  0.21195  1.0000
  H   H3839     1.0  0.91989  0.08155  0.48675  1.0000
  C   C4824     1.0  0.80577  0.39189  0.29791  1.0000
  C   C4825     1.0  0.82646  0.38309  0.29958  1.0000
  C   C4826     1.0  0.83263  0.38087  0.31846  1.0000
  C   C4827     1.0  0.81809  0.38733  0.33570  1.0000
  S   S652      1.0  0.87128  0.01341  0.21215  1.0000
  H   H3840     1.0  0.93627  0.00473  0.16937  1.0000
  C   C4828     1.0  0.85316  0.02199  0.47477  1.0000
  C   C4829     1.0  0.80505  0.18562  0.44523  1.0000
  C   C4830     1.0  0.79809  0.19577  0.38453  1.0000
  H   H3841     1.0  0.86520  0.04225  0.48678  1.0000
  H   H3842     1.0  0.80642  0.38652  0.10033  1.0000
  C   C4831     1.0  0.80751  0.20646  0.43870  1.0000
  C   C4832     1.0  0.93002  0.13426  0.46954  1.0000
  H   H3843     1.0  0.94029  0.07735  0.01308  1.0000
  Fe  Fe324     1.0  0.84319  0.13165  0.00501  1.0000
  C   C4833     1.0  0.92266  0.03706  0.10380  1.0000
  C   C4834     1.0  0.92478  0.18704  0.99000  1.0000
  C   C4835     1.0  0.81852  0.37742  0.09026  1.0000
  C   C4836     1.0  0.84605  0.42292  0.03552  1.0000
  H   H3844     1.0  0.79904  0.28096  0.05937  1.0000
  Fe  Fe325     1.0  0.98733  0.45282  0.13374  1.0000
  H   H3845     1.0  0.83133  0.21656  0.99845  1.0000
  H   H3846     1.0  0.83769  0.37810  0.28618  1.0000
  H   H3847     1.0  0.84871  0.37414  0.31969  1.0000
  H   H3848     1.0  0.82310  0.38552  0.35023  1.0000
  C   C4837     1.0  0.83437  0.04123  0.32423  1.0000
  C   C4838     1.0  0.90439  0.03159  0.20820  1.0000
  C   C4839     1.0  0.85864  0.03771  0.39938  1.0000
  C   C4840     1.0  0.96237  0.28311  0.07530  1.0000
  H   H3849     1.0  0.89197  0.04832  0.06541  1.0000
  H   H3850     1.0  0.82554  0.48915  0.06127  1.0000
  H   H3851     1.0  0.97004  0.06089  0.24611  1.0000
  C   C4841     1.0  0.97967  0.13556  0.36712  1.0000
  H   H3852     1.0  0.88431  0.08427  0.99294  1.0000
  H   H3853     1.0  0.98414  0.04283  0.21560  1.0000
  H   H3854     1.0  0.89940  0.00683  0.40522  1.0000
  C   C4842     1.0  0.89944  0.20876  0.43840  1.0000
  C   C4843     1.0  0.79183  0.05561  0.12350  1.0000
  S   S653      1.0  0.83019  0.08855  0.34480  1.0000
  C   C4844     1.0  0.98877  0.39260  0.10615  1.0000
  C   C4845     1.0  0.95635  0.03872  0.08093  1.0000
  H   H3855     1.0  0.79856  0.05222  0.41569  1.0000
  H   H3856     1.0  0.80630  0.25145  0.21630  1.0000
  H   H3857     1.0  0.91572  0.17948  0.41120  1.0000
  S   S654      1.0  0.97491  0.00904  0.28498  1.0000
  C   C4846     1.0  0.85056  0.07273  0.24715  1.0000
  C   C4847     1.0  0.87162  0.06529  0.23938  1.0000
  C   C4848     1.0  0.88344  0.07884  0.22474  1.0000
  C   C4849     1.0  0.87430  0.09978  0.21787  1.0000
  C   C4850     1.0  0.85303  0.10734  0.22534  1.0000
  C   C4851     1.0  0.84129  0.09364  0.24022  1.0000
  P   P161      1.0  0.84129  0.13451  0.21644  1.0000
  S   S655      1.0  0.84170  0.28299  0.27310  1.0000
  C   C4852     1.0  0.84613  0.15003  0.23241  1.0000
  C   C4853     1.0  0.83026  0.16550  0.24072  1.0000
  C   C4854     1.0  0.83485  0.17926  0.25054  1.0000
  C   C4855     1.0  0.85537  0.17783  0.25199  1.0000
  C   C4856     1.0  0.87123  0.16222  0.24420  1.0000
  C   C4857     1.0  0.86666  0.14835  0.23447  1.0000
  H   H3858     1.0  0.82035  0.41202  0.11698  1.0000
  H   H3859     1.0  0.93995  0.02836  0.46810  1.0000
  C   C4858     1.0  0.88973  0.00043  0.29140  1.0000
  C   C4859     1.0  0.84275  0.41229  0.02163  1.0000
  C   C4860     1.0  0.85424  0.14326  0.18969  1.0000
  C   C4861     1.0  0.85962  0.12998  0.17528  1.0000
  C   C4862     1.0  0.87146  0.13574  0.15524  1.0000
  C   C4863     1.0  0.87769  0.15504  0.14929  1.0000
  C   C4864     1.0  0.87171  0.16870  0.16329  1.0000
  C   C4865     1.0  0.85995  0.16293  0.18337  1.0000
  H   H3860     1.0  0.89960  0.07303  0.21826  1.0000
  H   H3861     1.0  0.88381  0.10983  0.20634  1.0000
  C   C4866     1.0  0.80721  0.27818  0.24810  1.0000
  H   H3862     1.0  0.81436  0.16728  0.23946  1.0000
  H   H3863     1.0  0.82245  0.19111  0.25697  1.0000
  H   H3864     1.0  0.85904  0.18885  0.25908  1.0000
  H   H3865     1.0  0.88711  0.16110  0.24556  1.0000
  H   H3866     1.0  0.87926  0.13676  0.22800  1.0000
  H   H3867     1.0  0.80182  0.40011  0.02862  1.0000
  C   C4867     1.0  0.86267  0.24378  0.41537  1.0000
  C   C4868     1.0  0.82870  0.35747  0.09891  1.0000
  H   H3868     1.0  0.85497  0.11500  0.17969  1.0000
  C   C4869     1.0  0.90769  0.17481  0.40170  1.0000
  C   C4870     1.0  0.82870  0.99838  0.20497  1.0000
  H   H3869     1.0  0.87699  0.18338  0.15882  1.0000
  H   H3870     1.0  0.85590  0.17357  0.19408  1.0000
  C   C4871     1.0  0.93414  0.37805  0.06994  1.0000
  C   C4872     1.0  0.95240  0.36315  0.07254  1.0000
  C   C4873     1.0  0.88785  0.16155  0.37715  1.0000
  H   H3871     1.0  0.92641  0.37870  0.05749  1.0000
  H   H3872     1.0  0.95890  0.35223  0.06202  1.0000
  C   C4874     1.0  0.90929  0.15455  0.37604  1.0000
  H   H3873     1.0  0.82623  0.28140  0.02334  1.0000
  H   H3874     1.0  0.90616  0.30561  0.33089  1.0000
  H   H3875     1.0  0.91816  0.14383  0.36585  1.0000
  H   H3876     1.0  0.93568  0.15525  0.38799  1.0000
  C   C4875     1.0  0.83093  0.30333  0.15134  1.0000
  S   S656      1.0  0.83030  0.27246  0.33493  1.0000
  C   C4876     1.0  0.92099  0.05481  0.35346  1.0000
  C   C4877     1.0  0.90488  0.04418  0.35664  1.0000
  C   C4878     1.0  0.88874  0.05279  0.34563  1.0000
  C   C4879     1.0  0.88915  0.07159  0.33081  1.0000
  C   C4880     1.0  0.90570  0.08198  0.32700  1.0000
  C   C4881     1.0  0.92144  0.07362  0.33867  1.0000
  P   P162      1.0  0.90682  0.10532  0.30662  1.0000
  C   C4882     1.0  0.92740  0.11765  0.30742  1.0000
  C   C4883     1.0  0.91321  0.09841  0.28118  1.0000
  C   C4884     1.0  0.91634  0.07745  0.27919  1.0000
  C   C4885     1.0  0.92160  0.07244  0.25932  1.0000
  C   C4886     1.0  0.92382  0.08825  0.24135  1.0000
  C   C4887     1.0  0.92081  0.10913  0.24317  1.0000
  C   C4888     1.0  0.91573  0.11419  0.26302  1.0000
  C   C4889     1.0  0.92305  0.13689  0.31387  1.0000
  C   C4890     1.0  0.93935  0.14582  0.31458  1.0000
  C   C4891     1.0  0.96005  0.13580  0.30861  1.0000
  C   C4892     1.0  0.96452  0.11680  0.30198  1.0000
  C   C4893     1.0  0.94830  0.10784  0.30117  1.0000
  C   C4894     1.0  0.88133  0.12213  0.31108  1.0000
  C   C4895     1.0  0.87334  0.12837  0.33045  1.0000
  C   C4896     1.0  0.85328  0.14055  0.33454  1.0000
  C   C4897     1.0  0.84071  0.14586  0.31968  1.0000
  C   C4898     1.0  0.84834  0.13939  0.30053  1.0000
  C   C4899     1.0  0.86858  0.12759  0.29619  1.0000
  H   H3877     1.0  0.93291  0.04850  0.36278  1.0000
  H   H3878     1.0  0.90486  0.02943  0.36788  1.0000
  H   H3879     1.0  0.87579  0.04505  0.34867  1.0000
  H   H3880     1.0  0.87650  0.07806  0.32241  1.0000
  H   H3881     1.0  0.93391  0.08162  0.33656  1.0000
  H   H3882     1.0  0.91491  0.06485  0.29283  1.0000
  H   H3883     1.0  0.92409  0.05625  0.25779  1.0000
  H   H3884     1.0  0.98368  0.99610  0.34434  1.0000
  H   H3885     1.0  0.91369  0.13041  0.26429  1.0000
  H   H3886     1.0  0.90722  0.14541  0.31780  1.0000
  H   H3887     1.0  0.93594  0.16091  0.31908  1.0000
  H   H3888     1.0  0.97265  0.14321  0.30827  1.0000
  H   H3889     1.0  0.98059  0.10934  0.29700  1.0000
  H   H3890     1.0  0.95203  0.09331  0.29556  1.0000
  H   H3891     1.0  0.88249  0.12361  0.34253  1.0000
  H   H3892     1.0  0.84731  0.14543  0.34946  1.0000
  H   H3893     1.0  0.82501  0.15483  0.32308  1.0000
  H   H3894     1.0  0.83846  0.14334  0.28914  1.0000
  H   H3895     1.0  0.87392  0.12242  0.28143  1.0000
  Fe  Fe326     1.0  0.86772  0.04741  0.13676  1.0000
  C   C4900     1.0  0.93553  0.43644  0.04186  1.0000
  C   C4901     1.0  0.93193  0.44700  0.05823  1.0000
  H   H3896     1.0  0.95112  0.42813  0.03623  1.0000
  H   H3897     1.0  0.94470  0.44693  0.06525  1.0000
  C   C4902     1.0  0.96040  0.27834  0.31294  1.0000
  C   C4903     1.0  0.96540  0.25638  0.31714  1.0000
  C   C4904     1.0  0.95195  0.24503  0.31450  1.0000
  C   C4905     1.0  0.93350  0.25559  0.30763  1.0000
  C   C4906     1.0  0.92845  0.27769  0.30306  1.0000
  C   C4907     1.0  0.94202  0.28897  0.30590  1.0000
  P   P163      1.0  0.90520  0.29151  0.29293  1.0000
  C   C4908     1.0  0.91137  0.31148  0.26986  1.0000
  C   C4909     1.0  0.89528  0.27284  0.28516  1.0000
  C   C4910     1.0  0.90096  0.27011  0.26435  1.0000
  C   C4911     1.0  0.89441  0.25465  0.25865  1.0000
  C   C4912     1.0  0.88192  0.24198  0.27364  1.0000
  C   C4913     1.0  0.87596  0.24485  0.29432  1.0000
  C   C4914     1.0  0.88280  0.26002  0.30017  1.0000
  C   C4915     1.0  0.89546  0.32769  0.26278  1.0000
  C   C4916     1.0  0.90008  0.34283  0.24465  1.0000
  C   C4917     1.0  0.95324  0.02163  0.45722  1.0000
  C   C4918     1.0  0.93648  0.32562  0.24008  1.0000
  C   C4919     1.0  0.93185  0.31028  0.25804  1.0000
  C   C4920     1.0  0.88516  0.30358  0.31233  1.0000
  C   C4921     1.0  0.89021  0.30900  0.32899  1.0000
  C   C4922     1.0  0.87456  0.31904  0.34338  1.0000
  C   C4923     1.0  0.85377  0.32372  0.34128  1.0000
  C   C4924     1.0  0.84861  0.31832  0.32483  1.0000
  C   C4925     1.0  0.86420  0.30822  0.31048  1.0000
  C   C4926     1.0  0.98000  0.32161  0.16168  1.0000
  C   C4927     1.0  0.79658  0.03819  0.13929  1.0000
  H   H3898     1.0  0.95603  0.22799  0.31733  1.0000
  H   H3899     1.0  0.92360  0.24631  0.30545  1.0000
  H   H3900     1.0  0.93857  0.30599  0.30226  1.0000
  H   H3901     1.0  0.91058  0.27974  0.25249  1.0000
  H   H3902     1.0  0.89908  0.25263  0.24260  1.0000
  H   H3903     1.0  0.87648  0.23020  0.26928  1.0000
  H   H3904     1.0  0.86558  0.23567  0.30566  1.0000
  H   H3905     1.0  0.87826  0.26177  0.31632  1.0000
  H   H3906     1.0  0.87936  0.32846  0.27085  1.0000
  H   H3907     1.0  0.88762  0.35507  0.23914  1.0000
  H   H3908     1.0  0.94419  0.29721  0.26228  1.0000
  C   C4928     1.0  0.95959  0.17279  0.15152  1.0000
  Fe  Fe327     1.0  0.93403  0.18298  0.10759  1.0000
  C   C4929     1.0  0.95773  0.11048  0.09888  1.0000
  H   H3909     1.0  0.96326  0.47283  0.02337  1.0000
  C   C4930     1.0  0.82447  0.26852  0.16883  1.0000
  H   H3910     1.0  0.92999  0.40326  0.10892  1.0000
  C   C4931     1.0  0.96512  0.19056  0.42910  1.0000
  H   H3911     1.0  0.86360  0.30349  0.23503  1.0000
  H   H3912     1.0  0.97094  0.28714  0.31481  1.0000
  S   S657      1.0  0.89205  0.03826  0.15647  1.0000
  S   S658      1.0  0.86106  0.07230  0.18413  1.0000
  Fe  Fe328     1.0  0.95691  0.15689  0.07527  1.0000
  S   S659      1.0  0.97106  0.12293  0.07484  1.0000
  C   C4932     1.0  0.92061  0.34192  0.23341  1.0000
  C   C4933     1.0  0.89360  0.10299  0.06720  1.0000
  H   H3913     1.0  0.81066  0.42877  0.34173  1.0000
  H   H3914     1.0  0.91536  0.16099  0.04008  1.0000
  H   H3915     1.0  0.94352  0.10297  0.35823  1.0000
  C   C4934     1.0  0.87815  0.15262  0.01885  1.0000
  S   S660      1.0  0.95018  0.18306  0.04798  1.0000
  H   H3916     1.0  0.96599  0.17191  0.13529  1.0000
  P   P164      1.0  0.91306  0.08459  0.05330  1.0000
  H   H3917     1.0  0.89320  0.25806  0.15192  1.0000
  C   C4935     1.0  0.97028  0.28827  0.05372  1.0000
  S   S661      1.0  0.96771  0.17612  0.09164  1.0000
  H   H3918     1.0  0.91048  0.13868  0.01804  1.0000
  H   H3919     1.0  0.90984  0.46701  0.07735  1.0000
  H   H3920     1.0  0.84650  0.16991  0.02221  1.0000
  C   C4936     1.0  0.93063  0.01781  0.22961  1.0000
  H   H3921     1.0  0.88944  0.21607  0.12052  1.0000
  H   H3922     1.0  0.87526  0.42549  0.07219  1.0000
  H   H3923     1.0  0.89796  0.04380  0.19634  1.0000
  C   C4937     1.0  0.98224  0.02619  0.42758  1.0000
  C   C4938     1.0  0.84902  0.35333  0.06439  1.0000
  C   C4939     1.0  0.96527  0.11664  0.00853  1.0000
  H   H3924     1.0  0.83858  0.04504  0.35326  1.0000
  S   S662      1.0  0.83390  0.37795  0.22940  1.0000
  H   H3925     1.0  0.96043  0.05148  0.44091  1.0000
  H   H3926     1.0  0.91152  0.22176  0.14823  1.0000
  C   C4940     1.0  0.83983  0.45594  0.01081  1.0000
  Fe  Fe329     1.0  0.86889  0.11252  0.42916  1.0000
  Fe  Fe330     1.0  0.91323  0.10938  0.43427  1.0000
  H   H3927     1.0  0.91186  0.40398  0.08144  1.0000
  H   H3928     1.0  0.95037  0.27230  0.16213  1.0000
  C   C4941     1.0  0.81963  0.12649  0.38678  1.0000
  H   H3929     1.0  0.97922  0.12720  0.44028  1.0000
  H   H3930     1.0  0.80929  0.03733  0.14663  1.0000
  S   S663      1.0  0.87554  0.13683  0.00268  1.0000
  C   C4942     1.0  0.97631  0.07966  0.17927  1.0000
  Fe  Fe331     1.0  0.79748  0.15070  0.01409  1.0000
  C   C4943     1.0  0.84084  0.30962  0.26280  1.0000
  Fe  Fe332     1.0  0.86514  0.03841  0.18370  1.0000
  C   C4944     1.0  0.81993  0.35668  0.99568  1.0000
  H   H3931     1.0  0.92807  0.08415  0.22607  1.0000
  Fe  Fe333     1.0  0.95815  0.20308  0.06608  1.0000
  C   C4945     1.0  0.92596  0.39228  0.08334  1.0000
  H   H3932     1.0  0.80917  0.19872  0.39203  1.0000
  C   C4946     1.0  0.90901  0.25515  0.14299  1.0000
  S   S664      1.0  0.97639  0.22870  0.04896  1.0000
  H   H3933     1.0  0.87663  0.21850  0.37447  1.0000
  C   C4947     1.0  0.93611  0.39173  0.09917  1.0000
  C   C4948     1.0  0.96783  0.18712  0.44969  1.0000
  H   H3934     1.0  0.96204  0.03116  0.33416  1.0000
  C   C4949     1.0  0.96694  0.26996  0.15551  1.0000
  S   S665      1.0  0.98172  0.20952  0.23660  1.0000
  C   C4950     1.0  0.91912  0.43701  0.03253  1.0000
  C   C4951     1.0  0.94625  0.12963  0.45270  1.0000
  C   C4952     1.0  0.91920  0.23476  0.14072  1.0000
  C   C4953     1.0  0.98222  0.19213  0.41222  1.0000
  C   C4954     1.0  0.82254  0.16930  0.44406  1.0000
  H   H3935     1.0  0.96173  0.06037  0.14422  1.0000
  C   C4955     1.0  0.81898  0.16431  0.13800  1.0000
  S   S666      1.0  0.81267  0.10645  0.16051  1.0000
  H   H3936     1.0  0.92409  0.35356  0.21925  1.0000
  S   S667      1.0  0.83760  0.10177  0.99980  1.0000
  H   H3937     1.0  0.91766  0.24056  0.01313  1.0000
  C   C4956     1.0  0.92224  0.03323  0.21401  1.0000
  H   H3938     1.0  0.84654  0.45276  0.04113  1.0000
  H   H3939     1.0  0.95227  0.32443  0.23098  1.0000
  S   S668      1.0  0.84091  0.04470  0.16412  1.0000
  C   C4957     1.0  0.97879  0.02858  0.32846  1.0000
  C   C4958     1.0  0.96774  0.29224  0.08927  1.0000
  C   C4959     1.0  0.84644  0.02879  0.39163  1.0000
  S   S669      1.0  0.86818  0.07927  0.44600  1.0000
  H   H3940     1.0  0.88773  0.12963  0.10586  1.0000
  C   C4960     1.0  0.91957  0.27172  0.13465  1.0000
  H   H3941     1.0  0.91172  0.28717  0.13762  1.0000
  C   C4961     1.0  0.97879  0.07043  0.24985  1.0000
  C   C4962     1.0  0.87741  0.05874  0.01869  1.0000
  C   C4963     1.0  0.98086  0.25891  0.16860  1.0000
  C   C4964     1.0  0.93967  0.23098  0.12941  1.0000
  H   H3942     1.0  0.94757  0.21512  0.12777  1.0000
  C   C4965     1.0  0.81154  0.00438  0.26534  1.0000
  C   C4966     1.0  0.84826  0.41671  0.09385  1.0000
  H   H3943     1.0  0.90336  0.21986  0.42395  1.0000
  C   C4967     1.0  0.96487  0.03472  0.44165  1.0000
  H   H3944     1.0  0.90773  0.99572  0.47831  1.0000
  C   C4968     1.0  0.89533  0.45862  0.05623  1.0000
  H   H3945     1.0  0.98050  0.12106  0.36254  1.0000
  C   C4969     1.0  0.82780  0.32502  0.27347  1.0000
  H   H3946     1.0  0.88420  0.23826  0.03815  1.0000
  H   H3947     1.0  0.88653  0.44816  0.03241  1.0000
  H   H3948     1.0  0.81863  0.32040  0.28893  1.0000
  S   S670      1.0  0.95223  0.02124  0.23720  1.0000
  C   C4970     1.0  0.94037  0.26791  0.12376  1.0000
  C   C4971     1.0  0.95029  0.24747  0.12107  1.0000
  C   C4972     1.0  0.84973  0.09294  0.37368  1.0000
  C   C4973     1.0  0.90999  0.20599  0.45457  1.0000
  H   H3949     1.0  0.97499  0.25323  0.18514  1.0000
  C   C4974     1.0  0.85346  0.45275  0.08190  1.0000
  C   C4975     1.0  0.80709  0.38800  0.01939  1.0000
  H   H3950     1.0  0.86474  0.20985  0.10236  1.0000
  H   H3951     1.0  0.90307  0.35191  0.10056  1.0000
  C   C4976     1.0  0.81694  0.11725  0.37128  1.0000
  H   H3952     1.0  0.85399  0.40010  0.09402  1.0000
  H   H3953     1.0  0.89678  0.06048  0.09440  1.0000
  H   H3954     1.0  0.86141  0.07990  0.36888  1.0000
  C   C4977     1.0  0.95378  0.09159  0.36762  1.0000
  H   H3955     1.0  0.90862  0.03071  0.45470  1.0000
  H   H3956     1.0  0.85579  0.16084  0.43498  1.0000
  C   C4978     1.0  0.96704  0.07444  0.35987  1.0000
  H   H3957     1.0  0.95933  0.13600  0.03141  1.0000
  H   H3958     1.0  0.96658  0.28068  0.04311  1.0000
  C   C4979     1.0  0.95438  0.49008  0.04826  1.0000
  H   H3959     1.0  0.80448  0.13411  0.25087  1.0000
  C   C4980     1.0  0.96247  0.36253  0.08851  1.0000
  H   H3960     1.0  0.88002  0.15640  0.36777  1.0000
  C   C4981     1.0  0.84384  0.34537  0.08598  1.0000
  H   H3961     1.0  0.92169  0.21508  0.45269  1.0000
  H   H3962     1.0  0.94371  0.10752  0.39355  1.0000
  C   C4982     1.0  0.83213  0.10047  0.36460  1.0000
  C   C4983     1.0  0.86716  0.25183  0.37179  1.0000
  H   H3963     1.0  0.85969  0.18040  0.39111  1.0000
  H   H3964     1.0  0.96176  0.22087  0.01342  1.0000
  C   C4984     1.0  0.91269  0.34267  0.11162  1.0000
  H   H3965     1.0  0.90009  0.36339  0.13340  1.0000
  H   H3966     1.0  0.88340  0.32097  0.99435  1.0000
  C   C4985     1.0  0.95498  0.12342  0.02718  1.0000
  C   C4986     1.0  0.84933  0.05156  0.41294  1.0000
  C   C4987     1.0  0.90615  0.01804  0.44907  1.0000
  H   H3967     1.0  0.83904  0.47274  0.00647  1.0000
  C   C4988     1.0  0.98037  0.06219  0.39213  1.0000
  C   C4989     1.0  0.91095  0.34916  0.13020  1.0000
  C   C4990     1.0  0.82464  0.03458  0.39662  1.0000
  Fe  Fe334     1.0  0.97195  0.47688  0.09390  1.0000
  H   H3968     1.0  0.96632  0.08183  0.41530  1.0000
  H   H3969     1.0  0.79535  0.18378  0.20848  1.0000
  S   S671      1.0  0.81159  0.26067  0.99441  1.0000
  H   H3970     1.0  0.92263  0.12140  0.22923  1.0000
  C   C4991     1.0  0.83945  0.37373  0.05569  1.0000
  C   C4992     1.0  0.83443  0.45930  0.09518  1.0000
  H   H3971     1.0  0.98587  0.13932  0.46942  1.0000
  C   C4993     1.0  0.89466  0.01461  0.21814  1.0000
  C   C4994     1.0  0.86699  0.24172  0.01435  1.0000
  H   H3972     1.0  0.92770  0.31928  0.09310  1.0000
  C   C4995     1.0  0.80146  0.23787  0.99986  1.0000
  C   C4996     1.0  0.94703  0.05560  0.06704  1.0000
  C   C4997     1.0  0.92305  0.33721  0.14472  1.0000
  C   C4998     1.0  0.92673  0.32429  0.10745  1.0000
  H   H3973     1.0  0.92129  0.34200  0.15936  1.0000
  C   C4999     1.0  0.93918  0.31233  0.12185  1.0000
  C   C5000     1.0  0.80134  0.02950  0.20526  1.0000
  H   H3974     1.0  0.81613  0.18454  0.00873  1.0000
  C   C5001     1.0  0.82936  0.42341  0.10693  1.0000
  H   H3975     1.0  0.86848  0.25477  0.35497  1.0000
  C   C5002     1.0  0.81864  0.48932  0.47667  1.0000
  H   H3976     1.0  0.91440  0.13302  0.46962  1.0000
  C   C5003     1.0  0.98365  0.30250  0.04590  1.0000
  C   C5004     1.0  0.95433  0.37679  0.10203  1.0000
  H   H3977     1.0  0.80208  0.18050  0.30087  1.0000
  H   H3978     1.0  0.96654  0.24415  0.11331  1.0000
  H   H3979     1.0  0.98974  0.18136  0.46969  1.0000
  C   C5005     1.0  0.80369  0.27525  0.16637  1.0000
  C   C5006     1.0  0.84344  0.00475  0.27509  1.0000
  C   C5007     1.0  0.97426  0.27706  0.13393  1.0000
  C   C5008     1.0  0.87086  0.31239  0.00095  1.0000
  C   C5009     1.0  0.80604  0.19987  0.00730  1.0000
  C   C5010     1.0  0.86026  0.26846  0.38242  1.0000
  H   H3980     1.0  0.87868  0.04896  0.24438  1.0000
  H   H3981     1.0  0.97982  0.24808  0.32215  1.0000
  H   H3982     1.0  0.82490  0.09877  0.24634  1.0000
  C   C5011     1.0  0.95867  0.99991  0.45882  1.0000
  H   H3983     1.0  0.93767  0.03858  0.14386  1.0000
  H   H3984     1.0  0.97301  0.03276  0.07736  1.0000
  H   H3985     1.0  0.82456  0.35137  0.11563  1.0000
  S   S672      1.0  0.80954  0.10850  0.29278  1.0000
  C   C5012     1.0  0.97093  0.34191  0.15258  1.0000
  C   C5013     1.0  0.97035  0.13783  0.46957  1.0000
  C   C5014     1.0  0.93710  0.31884  0.14062  1.0000
  P   P165      1.0  0.95574  0.28775  0.11687  1.0000
  H   H3986     1.0  0.85401  0.01768  0.38148  1.0000
  C   C5015     1.0  0.95374  0.09408  0.38757  1.0000
  C   C5016     1.0  0.94802  0.03308  0.15486  1.0000
  C   C5017     1.0  0.90344  0.99879  0.23329  1.0000
  C   C5018     1.0  0.87163  0.23118  0.38294  1.0000
  H   H3987     1.0  0.85550  0.01313  0.27387  1.0000
  H   H3988     1.0  0.87630  0.12490  0.14461  1.0000
  H   H3989     1.0  0.96541  0.09907  0.23072  1.0000
  C   C5019     1.0  0.97430  0.03917  0.17011  1.0000
  H   H3990     1.0  0.92681  0.10857  0.18734  1.0000
  H   H3991     1.0  0.94590  0.07435  0.17964  1.0000
  C   C5020     1.0  0.94354  0.10434  0.18634  1.0000
  C   C5021     1.0  0.85831  0.26447  0.40418  1.0000
  C   C5022     1.0  0.91570  0.36559  0.99787  1.0000
  C   C5023     1.0  0.96677  0.07941  0.39986  1.0000
  H   H3992     1.0  0.79288  0.32835  0.22269  1.0000
  H   H3993     1.0  0.85616  0.28437  0.37381  1.0000
  H   H3994     1.0  0.87535  0.03426  0.39470  1.0000
  C   C5024     1.0  0.98032  0.13546  0.38772  1.0000
  H   H3995     1.0  0.93165  0.11923  0.05515  1.0000
  H   H3996     1.0  0.94565  0.13377  0.19185  1.0000
  H   H3997     1.0  0.97037  0.41244  0.08366  1.0000
  H   H3998     1.0  0.96714  0.07250  0.34440  1.0000
  C   C5025     1.0  0.95416  0.11857  0.18875  1.0000
  C   C5026     1.0  0.95452  0.08488  0.18176  1.0000
  H   H3999     1.0  0.95215  0.27196  0.08088  1.0000
  C   C5027     1.0  0.90430  0.02108  0.42823  1.0000
  H   H4000     1.0  0.97275  0.31409  0.17714  1.0000
  H   H4001     1.0  0.98555  0.12086  0.23898  1.0000
  H   H4002     1.0  0.82052  0.06775  0.42909  1.0000
  C   C5028     1.0  0.79718  0.39591  0.33424  1.0000
  H   H4003     1.0  0.95454  0.42455  0.17114  1.0000
  C   C5029     1.0  0.83697  0.44539  0.99671  1.0000
  C   C5030     1.0  0.87966  0.04876  0.03912  1.0000
  C   C5031     1.0  0.82360  0.03270  0.31442  1.0000
  Fe  Fe335     1.0  0.82189  0.27390  0.30452  1.0000
  C   C5032     1.0  0.94393  0.09049  0.01699  1.0000
  H   H4004     1.0  0.82176  0.29795  0.22057  1.0000
  C   C5033     1.0  0.96055  0.40407  0.14941  1.0000
  C   C5034     1.0  0.98023  0.35170  0.13251  1.0000
  C   C5035     1.0  0.90001  0.07370  0.03946  1.0000
  C   C5036     1.0  0.79489  0.34656  0.39606  1.0000
  H   H4005     1.0  0.86030  0.34349  0.05451  1.0000
  S   S673      1.0  0.98287  0.19059  0.29851  1.0000
  C   C5037     1.0  0.84250  0.17375  0.43629  1.0000
  H   H4006     1.0  0.79920  0.01212  0.25677  1.0000
  H   H4007     1.0  0.79647  0.35829  0.05719  1.0000
  H   H4008     1.0  0.82520  0.03696  0.29753  1.0000
  H   H4009     1.0  0.83548  0.48533  0.47457  1.0000
  H   H4010     1.0  0.90421  0.39551  0.17325  1.0000
  C   C5038     1.0  0.80374  0.23691  0.21420  1.0000
  H   H4011     1.0  0.91304  0.02929  0.11750  1.0000
  H   H4012     1.0  0.84449  0.05189  0.31494  1.0000
  C   C5039     1.0  0.90379  0.24180  0.00736  1.0000
  P   P166      1.0  0.96874  0.37803  0.12075  1.0000
  C   C5040     1.0  0.81026  0.30989  0.14887  1.0000
  C   C5041     1.0  0.93212  0.38810  0.15022  1.0000
  C   C5042     1.0  0.81172  0.20927  0.19455  1.0000
  C   C5043     1.0  0.88423  0.19699  0.44077  1.0000
  H   H4013     1.0  0.85025  0.41438  0.05028  1.0000
  C   C5044     1.0  0.92006  0.39769  0.16676  1.0000
  H   H4014     1.0  0.87220  0.03560  0.04720  1.0000
  C   C5045     1.0  0.81531  0.04813  0.41079  1.0000
  H   H4015     1.0  0.84121  0.06226  0.25830  1.0000
  C   C5046     1.0  0.95251  0.39124  0.14137  1.0000
  C   C5047     1.0  0.94834  0.41403  0.16563  1.0000
  C   C5048     1.0  0.98495  0.40884  0.08886  1.0000
  H   H4016     1.0  0.80794  0.13947  0.39187  1.0000
  H   H4017     1.0  0.80107  0.39374  0.28321  1.0000
  Fe  Fe336     1.0  0.80329  0.09926  0.32798  1.0000
  H   H4018     1.0  0.82908  0.47564  0.09639  1.0000
  C   C5049     1.0  0.97578  0.11330  0.18685  1.0000
  H   H4019     1.0  0.79302  0.26452  0.17176  1.0000
  C   C5050     1.0  0.90066  0.00469  0.42125  1.0000
  S   S674      1.0  0.98188  0.16813  0.20331  1.0000
  C   C5051     1.0  0.80113  0.24771  0.06453  1.0000
  H   H4020     1.0  0.98517  0.24045  0.36606  1.0000
  C   C5052     1.0  0.92543  0.06359  0.07168  1.0000
  H   H4021     1.0  0.99015  0.44492  0.99561  1.0000
  C   C5053     1.0  0.86766  0.48245  0.10421  1.0000
  C   C5054     1.0  0.94733  0.01400  0.16914  1.0000
  C   C5055     1.0  0.80964  0.18098  0.14832  1.0000
  C   C5056     1.0  0.93309  0.09759  0.03549  1.0000
  H   H4022     1.0  0.85028  0.35316  0.00177  1.0000
  H   H4023     1.0  0.97807  0.15461  0.33629  1.0000
  C   C5057     1.0  0.83435  0.36166  0.00431  1.0000
  P   P167      1.0  0.80900  0.02307  0.38640  1.0000
  H   H4024     1.0  0.89245  0.99859  0.27542  1.0000
  C   C5058     1.0  0.80316  0.00534  0.18322  1.0000
  C   C5059     1.0  0.92152  0.00030  0.23895  1.0000
  H   H4025     1.0  0.79964  0.43212  0.22350  1.0000
  C   C5060     1.0  0.87957  0.37732  0.99460  1.0000
  C   C5061     1.0  0.98097  0.30673  0.08125  1.0000
  H   H4026     1.0  0.82667  0.03083  0.25564  1.0000
  C   C5062     1.0  0.81010  0.01946  0.32648  1.0000
  H   H4027     1.0  0.97688  0.35133  0.08987  1.0000
  H   H4028     1.0  0.99032  0.04678  0.36548  1.0000
  H   H4029     1.0  0.81181  0.46342  0.34700  1.0000
  H   H4030     1.0  0.84295  0.99805  0.46628  1.0000
  H   H4031     1.0  0.79204  0.00664  0.43013  1.0000
  H   H4032     1.0  0.98148  0.12088  0.39924  1.0000
  H   H4033     1.0  0.97619  0.40674  0.14296  1.0000
  C   C5063     1.0  0.88643  0.07616  0.00860  1.0000
  H   H4034     1.0  0.79520  0.35743  0.36322  1.0000
  C   C5064     1.0  0.98766  0.18462  0.45364  1.0000
  C   C5065     1.0  0.80906  0.48702  0.46154  1.0000
  H   H4035     1.0  0.97648  0.18758  0.34644  1.0000
  S   S675      1.0  0.79491  0.37612  0.14750  1.0000
  C   C5066     1.0  0.87291  0.99204  0.32797  1.0000
  H   H4036     1.0  0.98521  0.31399  0.09176  1.0000
  H   H4037     1.0  0.79266  0.07035  0.17880  1.0000
  H   H4038     1.0  0.83129  0.00652  0.13351  1.0000
  Fe  Fe337     1.0  0.79592  0.28319  0.34626  1.0000
  H   H4039     1.0  0.81840  0.48115  0.44777  1.0000
  C   C5067     1.0  0.98795  0.00423  0.42972  1.0000
  P   P168      1.0  0.79329  0.99840  0.16397  1.0000
  C   C5068     1.0  0.98890  0.31180  0.05964  1.0000
  C   C5069     1.0  0.85763  0.48809  0.04459  1.0000
  C   C5070     1.0  0.86798  0.24413  0.99295  1.0000
  C   C5071     1.0  0.81026  0.99666  0.40159  1.0000
  C   C5072     1.0  0.97615  0.09192  0.24119  1.0000
  H   H4040     1.0  0.98822  0.15365  0.00333  1.0000
  H   H4041     1.0  0.95961  0.99264  0.19498  1.0000
  H   H4042     1.0  0.98729  0.21475  0.09045  1.0000
  H   H4043     1.0  0.80076  0.06793  0.11897  1.0000
  H   H4044     1.0  0.98397  0.12447  0.18867  1.0000
  H   H4045     1.0  0.98874  0.09603  0.13897  1.0000
  C   C5073     1.0  0.98684  0.09387  0.18219  1.0000
  H   H4046     1.0  0.97162  0.35477  0.20129  1.0000
  H   H4047     1.0  0.98357  0.01422  0.19571  1.0000
  C   C5074     1.0  0.95401  0.14315  0.48605  1.0000
  H   H4048     1.0  0.83675  0.41570  0.99064  1.0000
  H   H4049     1.0  0.98973  0.16692  0.15952  1.0000
  C   C5075     1.0  0.80068  0.99343  0.42296  1.0000
  C   C5076     1.0  0.79269  0.38285  0.01093  1.0000
  H   H4050     1.0  0.79240  0.06798  0.37619  1.0000
  C   C5077     1.0  0.82072  0.99248  0.19065  1.0000
  C   C5078     1.0  0.98790  0.35182  0.19359  1.0000
  H   H4051     1.0  0.98701  0.38389  0.17671  1.0000
  H   H4052     1.0  0.98826  0.25789  0.23352  1.0000
  H   H4053     1.0  0.99024  0.30610  0.02923  1.0000
  C   C5079     1.0  0.99098  0.00874  0.33423  1.0000
  H   H4054     1.0  0.96794  0.09465  0.98917  1.0000
  C   C5080     1.0  0.79146  0.36203  0.37825  1.0000
  H   H4055     1.0  0.93208  0.36203  0.99058  1.0000
  Fe  Fe338     1.0  0.87980  0.40305  0.93305  1.0000
  S   S676      1.0  0.87331  0.41619  0.90060  1.0000
  Fe  Fe339     1.0  0.88954  0.35798  0.92769  1.0000
  S   S677      1.0  0.88375  0.36710  0.89518  1.0000
  S   S678      1.0  0.90083  0.32386  0.94008  1.0000
  Fe  Fe340     1.0  0.90150  0.39222  0.89076  1.0000
  S   S679      1.0  0.92677  0.39497  0.86192  1.0000
  Fe  Fe341     1.0  0.85618  0.38982  0.90789  1.0000
  S   S680      1.0  0.82648  0.39457  0.89692  1.0000
  S   S681      1.0  0.90963  0.38127  0.92255  1.0000
  H   H4056     1.0  0.83499  0.42673  0.72941  1.0000
  C   C5081     1.0  0.87530  0.48932  0.80736  1.0000
  C   C5082     1.0  0.86003  0.40912  0.68123  1.0000
  C   C5083     1.0  0.88886  0.04113  0.57802  1.0000
  S   S682      1.0  0.80491  0.12195  0.95189  1.0000
  H   H4057     1.0  0.97909  0.41846  0.72822  1.0000
  H   H4058     1.0  0.90455  0.42880  0.69243  1.0000
  C   C5084     1.0  0.90492  0.24381  0.98592  1.0000
  H   H4059     1.0  0.91727  0.33413  0.97030  1.0000
  C   C5085     1.0  0.89441  0.33081  0.86576  1.0000
  C   C5086     1.0  0.97968  0.23998  0.96160  1.0000
  C   C5087     1.0  0.95581  0.06034  0.54447  1.0000
  H   H4060     1.0  0.86831  0.38333  0.98452  1.0000
  C   C5088     1.0  0.79173  0.08418  0.96673  1.0000
  S   S683      1.0  0.96525  0.01579  0.61209  1.0000
  C   C5089     1.0  0.96128  0.44362  0.88069  1.0000
  C   C5090     1.0  0.86259  0.46958  0.91945  1.0000
  H   H4061     1.0  0.81112  0.47837  0.76122  1.0000
  C   C5091     1.0  0.89212  0.42320  0.68939  1.0000
  C   C5092     1.0  0.92400  0.22868  0.92526  1.0000
  H   H4062     1.0  0.86647  0.31124  0.97066  1.0000
  C   C5093     1.0  0.90077  0.34804  0.85107  1.0000
  S   S684      1.0  0.87871  0.07262  0.50282  1.0000
  C   C5094     1.0  0.81256  0.47704  0.65620  1.0000
  H   H4063     1.0  0.91995  0.24380  0.97551  1.0000
  H   H4064     1.0  0.92614  0.36371  0.83540  1.0000
  H   H4065     1.0  0.88083  0.20610  0.98027  1.0000
  C   C5095     1.0  0.95176  0.09641  0.52550  1.0000
  S   S685      1.0  0.95792  0.15315  0.50645  1.0000
  H   H4066     1.0  0.81644  0.40200  0.95214  1.0000
  C   C5096     1.0  0.79758  0.19027  0.94535  1.0000
  S   S686      1.0  0.82158  0.15234  0.98436  1.0000
  C   C5097     1.0  0.79298  0.41780  0.66906  1.0000
  C   C5098     1.0  0.92111  0.06604  0.49666  1.0000
  S   S687      1.0  0.94289  0.99848  0.57191  1.0000
  C   C5099     1.0  0.93643  0.33420  0.85578  1.0000
  H   H4067     1.0  0.90616  0.99318  0.52310  1.0000
  C   C5100     1.0  0.91482  0.43121  0.93871  1.0000
  H   H4068     1.0  0.85407  0.24445  0.98780  1.0000
  S   S688      1.0  0.91946  0.46450  0.70094  1.0000
  H   H4069     1.0  0.82912  0.42968  0.92338  1.0000
  C   C5101     1.0  0.80713  0.38392  0.91645  1.0000
  C   C5102     1.0  0.91921  0.05191  0.59237  1.0000
  H   H4070     1.0  0.87475  0.01521  0.51680  1.0000
  H   H4071     1.0  0.86970  0.45152  0.69349  1.0000
  C   C5103     1.0  0.79913  0.45115  0.92519  1.0000
  C   C5104     1.0  0.80720  0.48072  0.86042  1.0000
  H   H4072     1.0  0.98308  0.03921  0.53189  1.0000
  C   C5105     1.0  0.94369  0.45973  0.70824  1.0000
  Fe  Fe342     1.0  0.96880  0.99673  0.58787  1.0000
  C   C5106     1.0  0.86295  0.20851  0.92925  1.0000
  C   C5107     1.0  0.92111  0.45752  0.83875  1.0000
  H   H4073     1.0  0.94530  0.43801  0.92473  1.0000
  C   C5108     1.0  0.86176  0.30705  0.92577  1.0000
  H   H4074     1.0  0.81357  0.48890  0.69515  1.0000
  C   C5109     1.0  0.96371  0.31225  0.92894  1.0000
  C   C5110     1.0  0.96741  0.31898  0.94543  1.0000
  H   H4075     1.0  0.94114  0.34744  0.88925  1.0000
  C   C5111     1.0  0.87231  0.43607  0.68997  1.0000
  C   C5112     1.0  0.94077  0.05329  0.49778  1.0000
  H   H4076     1.0  0.95207  0.36104  0.91456  1.0000
  C   C5113     1.0  0.97748  0.46857  0.88777  1.0000
  H   H4077     1.0  0.79260  0.41262  0.65521  1.0000
  H   H4078     1.0  0.91439  0.16425  0.97978  1.0000
  S   S689      1.0  0.94821  0.48208  0.81238  1.0000
  H   H4079     1.0  0.84230  0.25606  0.95604  1.0000
  H   H4080     1.0  0.83330  0.40663  0.84852  1.0000
  H   H4081     1.0  0.85781  0.20904  0.91512  1.0000
  Fe  Fe343     1.0  0.96814  0.99736  0.54304  1.0000
  C   C5114     1.0  0.85615  0.42922  0.68568  1.0000
  H   H4082     1.0  0.99118  0.30519  0.70228  1.0000
  C   C5115     1.0  0.92766  0.17053  0.97980  1.0000
  C   C5116     1.0  0.96993  0.09094  0.51089  1.0000
  C   C5117     1.0  0.94249  0.03361  0.51122  1.0000
  C   C5118     1.0  0.81285  0.49159  0.63716  1.0000
  H   H4083     1.0  0.98464  0.30748  0.73970  1.0000
  C   C5119     1.0  0.90309  0.05879  0.50817  1.0000
  C   C5120     1.0  0.90482  0.03965  0.52259  1.0000
  C   C5121     1.0  0.92458  0.02712  0.52423  1.0000
  C   C5122     1.0  0.96353  0.26818  0.98050  1.0000
  H   H4084     1.0  0.85561  0.00297  0.60509  1.0000
  H   H4085     1.0  0.89094  0.03420  0.53190  1.0000
  C   C5123     1.0  0.92984  0.31725  0.87095  1.0000
  C   C5124     1.0  0.97587  0.03863  0.60396  1.0000
  H   H4086     1.0  0.80029  0.34655  0.96130  1.0000
  Fe  Fe344     1.0  0.81337  0.12270  0.98213  1.0000
  H   H4087     1.0  0.83108  0.46801  0.93519  1.0000
  C   C5125     1.0  0.86137  0.30694  0.98751  1.0000
  C   C5126     1.0  0.85014  0.47181  0.65061  1.0000
  C   C5127     1.0  0.97387  0.26141  0.96186  1.0000
  H   H4088     1.0  0.86492  0.49055  0.62243  1.0000
  H   H4089     1.0  0.81706  0.28849  0.94693  1.0000
  H   H4090     1.0  0.95205  0.21455  0.90598  1.0000
  C   C5128     1.0  0.90891  0.31555  0.87586  1.0000
  C   C5129     1.0  0.84187  0.46925  0.92019  1.0000
  C   C5130     1.0  0.94615  0.25899  0.92400  1.0000
  C   C5131     1.0  0.89617  0.05960  0.56795  1.0000
  H   H4091     1.0  0.79195  0.42880  0.86075  1.0000
  H   H4092     1.0  0.79581  0.45594  0.82779  1.0000
  C   C5132     1.0  0.92851  0.09926  0.58048  1.0000
  H   H4093     1.0  0.94286  0.12266  0.62092  1.0000
  C   C5133     1.0  0.97090  0.34628  0.86729  1.0000
  C   C5134     1.0  0.95276  0.43904  0.71635  1.0000
  H   H4094     1.0  0.82610  0.44053  0.76199  1.0000
  H   H4095     1.0  0.89025  0.06918  0.55434  1.0000
  C   C5135     1.0  0.90263  0.10789  0.54867  1.0000
  C   C5136     1.0  0.85031  0.48662  0.63176  1.0000
  H   H4096     1.0  0.79309  0.16597  0.93241  1.0000
  H   H4097     1.0  0.97666  0.30643  0.91725  1.0000
  H   H4098     1.0  0.82484  0.34454  0.98648  1.0000
  H   H4099     1.0  0.83430  0.45389  0.98131  1.0000
  H   H4100     1.0  0.91873  0.27290  0.94387  1.0000
  C   C5137     1.0  0.83514  0.47072  0.90170  1.0000
  C   C5138     1.0  0.99080  0.35093  0.86322  1.0000
  C   C5139     1.0  0.92645  0.32125  0.94243  1.0000
  C   C5140     1.0  0.93019  0.32803  0.95881  1.0000
  C   C5141     1.0  0.95066  0.32685  0.96033  1.0000
  C   C5142     1.0  0.94314  0.31331  0.92752  1.0000
  C   C5143     1.0  0.98247  0.27555  0.83772  1.0000
  H   H4101     1.0  0.94012  0.30855  0.91461  1.0000
  C   C5144     1.0  0.80993  0.42587  0.66957  1.0000
  H   H4102     1.0  0.98259  0.03876  0.57104  1.0000
  H   H4103     1.0  0.98223  0.41645  0.87051  1.0000
  S   S690      1.0  0.86020  0.37853  0.94124  1.0000
  H   H4104     1.0  0.90389  0.30254  0.88768  1.0000
  C   C5145     1.0  0.81226  0.36710  0.93276  1.0000
  C   C5146     1.0  0.95678  0.35036  0.88577  1.0000
  C   C5147     1.0  0.91172  0.03359  0.60252  1.0000
  H   H4105     1.0  0.91713  0.41868  0.93052  1.0000
  H   H4106     1.0  0.82841  0.35984  0.93295  1.0000
  C   C5148     1.0  0.93219  0.42008  0.85141  1.0000
  C   C5149     1.0  0.95290  0.42190  0.84317  1.0000
  C   C5150     1.0  0.95771  0.44146  0.83296  1.0000
  C   C5151     1.0  0.94185  0.45903  0.82954  1.0000
  H   H4107     1.0  0.84031  0.00469  0.54649  1.0000
  C   C5152     1.0  0.91627  0.43802  0.84997  1.0000
  H   H4108     1.0  0.96531  0.40825  0.84500  1.0000
  H   H4109     1.0  0.97379  0.44292  0.82790  1.0000
  C   C5153     1.0  0.92758  0.45936  0.94493  1.0000
  H   H4110     1.0  0.90025  0.43663  0.85657  1.0000
  C   C5154     1.0  0.92165  0.34989  0.84627  1.0000
  C   C5155     1.0  0.95568  0.24257  0.91340  1.0000
  C   C5156     1.0  0.80582  0.41660  0.94771  1.0000
  H   H4111     1.0  0.89173  0.12656  0.57273  1.0000
  S   S691      1.0  0.87549  0.42339  0.95634  1.0000
  P   P169      1.0  0.80808  0.47080  0.90302  1.0000
  H   H4112     1.0  0.95637  0.30101  0.83398  1.0000
  S   S692      1.0  0.96699  0.01696  0.51099  1.0000
  H   H4113     1.0  0.98796  0.23525  0.94699  1.0000
  C   C5157     1.0  0.87690  0.47099  0.90035  1.0000
  H   H4114     1.0  0.89300  0.47107  0.89993  1.0000
  C   C5158     1.0  0.97207  0.43453  0.72228  1.0000
  H   H4115     1.0  0.88285  0.38078  0.67715  1.0000
  Fe  Fe345     1.0  0.98887  0.14431  0.51733  1.0000
  H   H4116     1.0  0.80027  0.02689  0.91998  1.0000
  C   C5159     1.0  0.79260  0.02547  0.90825  1.0000
  C   C5160     1.0  0.81165  0.48583  0.72804  1.0000
  C   C5161     1.0  0.96511  0.34554  0.80536  1.0000
  H   H4117     1.0  0.91820  0.02327  0.61557  1.0000
  H   H4118     1.0  0.82653  0.99787  0.86680  1.0000
  C   C5162     1.0  0.98219  0.42131  0.96015  1.0000
  C   C5163     1.0  0.90896  0.46429  0.95923  1.0000
  H   H4119     1.0  0.94996  0.14846  0.96288  1.0000
  H   H4120     1.0  0.98717  0.07418  0.62526  1.0000
  C   C5164     1.0  0.97848  0.30918  0.84732  1.0000
  H   H4121     1.0  0.85133  0.42559  0.86297  1.0000
  H   H4122     1.0  0.83311  0.01855  0.57880  1.0000
  H   H4123     1.0  0.97030  0.42173  0.95180  1.0000
  C   C5165     1.0  0.96273  0.35850  0.90004  1.0000
  H   H4124     1.0  0.87887  0.45662  0.97421  1.0000
  H   H4125     1.0  0.86484  0.46446  0.65530  1.0000
  C   C5166     1.0  0.91604  0.09872  0.60074  1.0000
  H   H4126     1.0  0.90881  0.47115  0.83668  1.0000
  H   H4127     1.0  0.86585  0.17760  0.97742  1.0000
  H   H4128     1.0  0.84783  0.40329  0.67821  1.0000
  C   C5167     1.0  0.80413  0.47714  0.84197  1.0000
  C   C5168     1.0  0.98592  0.06669  0.61332  1.0000
  C   C5169     1.0  0.89594  0.40330  0.68472  1.0000
  C   C5170     1.0  0.97824  0.43467  0.97417  1.0000
  H   H4129     1.0  0.98101  0.48413  0.71131  1.0000
  C   C5171     1.0  0.82519  0.45689  0.70981  1.0000
  C   C5172     1.0  0.94459  0.08114  0.54247  1.0000
  H   H4130     1.0  0.97605  0.37701  0.83190  1.0000
  H   H4131     1.0  0.97142  0.04268  0.63562  1.0000
  C   C5173     1.0  0.87035  0.47259  0.88186  1.0000
  H   H4132     1.0  0.94491  0.42642  0.71785  1.0000
  H   H4133     1.0  0.98286  0.39810  0.79656  1.0000
  H   H4134     1.0  0.83775  0.29186  0.98535  1.0000
  H   H4135     1.0  0.82245  0.42714  0.65587  1.0000
  C   C5174     1.0  0.84044  0.30704  0.93143  1.0000
  C   C5175     1.0  0.91131  0.06521  0.57515  1.0000
  Fe  Fe346     1.0  0.98065  0.47264  0.79383  1.0000
  C   C5176     1.0  0.90071  0.37245  0.98540  1.0000
  C   C5177     1.0  0.79948  0.44682  0.87902  1.0000
  P   P170      1.0  0.87694  0.46860  0.79411  1.0000
  C   C5178     1.0  0.86195  0.44989  0.81139  1.0000
  C   C5179     1.0  0.86739  0.47963  0.77006  1.0000
  C   C5180     1.0  0.87505  0.46950  0.75294  1.0000
  C   C5181     1.0  0.86857  0.47853  0.73395  1.0000
  C   C5182     1.0  0.79538  0.00608  0.90271  1.0000
  P   P171      1.0  0.98399  0.19726  0.98035  1.0000
  H   H4136     1.0  0.90664  0.47695  0.96727  1.0000
  C   C5183     1.0  0.85142  0.43927  0.80330  1.0000
  C   C5184     1.0  0.84107  0.42374  0.81665  1.0000
  C   C5185     1.0  0.84122  0.41871  0.83810  1.0000
  C   C5186     1.0  0.81657  0.47820  0.70953  1.0000
  C   C5187     1.0  0.86177  0.44494  0.83302  1.0000
  C   C5188     1.0  0.90378  0.45526  0.78803  1.0000
  C   C5189     1.0  0.91135  0.43605  0.80060  1.0000
  C   C5190     1.0  0.93211  0.42582  0.79543  1.0000
  C   C5191     1.0  0.94542  0.43473  0.77775  1.0000
  C   C5192     1.0  0.93816  0.45412  0.76561  1.0000
  C   C5193     1.0  0.91740  0.46427  0.77055  1.0000
  C   C5194     1.0  0.97547  0.22506  0.98016  1.0000
  H   H4137     1.0  0.79331  0.29142  0.57912  1.0000
  H   H4138     1.0  0.87247  0.23823  0.91772  1.0000
  H   H4139     1.0  0.95482  0.27059  0.92371  1.0000
  C   C5195     1.0  0.89603  0.43640  0.95264  1.0000
  H   H4140     1.0  0.88634  0.45481  0.75404  1.0000
  H   H4141     1.0  0.87483  0.47088  0.72067  1.0000
  C   C5196     1.0  0.79638  0.35960  0.94878  1.0000
  C   C5197     1.0  0.79338  0.43204  0.70451  1.0000
  H   H4142     1.0  0.98031  0.16222  0.96342  1.0000
  H   H4143     1.0  0.85142  0.44275  0.78669  1.0000
  H   H4144     1.0  0.83301  0.41550  0.81038  1.0000
  C   C5198     1.0  0.83361  0.28854  0.94223  1.0000
  P   P172      1.0  0.88774  0.24633  0.95117  1.0000
  H   H4145     1.0  0.94734  0.43877  0.88022  1.0000
  H   H4146     1.0  0.90150  0.42890  0.81452  1.0000
  H   H4147     1.0  0.93787  0.41118  0.80541  1.0000
  H   H4148     1.0  0.96143  0.42679  0.77348  1.0000
  H   H4149     1.0  0.94862  0.46134  0.75237  1.0000
  H   H4150     1.0  0.91200  0.47919  0.76076  1.0000
  H   H4151     1.0  0.87004  0.45271  0.83956  1.0000
  C   C5199     1.0  0.97447  0.37105  0.81906  1.0000
  H   H4152     1.0  0.98713  0.36914  0.90701  1.0000
  C   C5200     1.0  0.97704  0.04883  0.61920  1.0000
  C   C5201     1.0  0.97801  0.38338  0.79888  1.0000
  C   C5202     1.0  0.94772  0.16165  0.97027  1.0000
  H   H4153     1.0  0.87749  0.03672  0.57211  1.0000
  C   C5203     1.0  0.98256  0.36301  0.89583  1.0000
  H   H4154     1.0  0.95968  0.33119  0.80759  1.0000
  C   C5204     1.0  0.81030  0.43304  0.68732  1.0000
  H   H4155     1.0  0.91135  0.39339  0.68419  1.0000
  H   H4156     1.0  0.84509  0.47359  0.86794  1.0000
  C   C5205     1.0  0.95076  0.11749  0.58936  1.0000
  H   H4157     1.0  0.86078  0.14813  0.52065  1.0000
  C   C5206     1.0  0.98090  0.43098  0.87540  1.0000
  C   C5207     1.0  0.96196  0.18675  0.98007  1.0000
  H   H4158     1.0  0.92587  0.01205  0.53485  1.0000
  C   C5208     1.0  0.94462  0.22740  0.91407  1.0000
  S   S693      1.0  0.94721  0.47410  0.93877  1.0000
  C   C5209     1.0  0.92555  0.26034  0.93524  1.0000
  P   P173      1.0  0.96369  0.33561  0.84861  1.0000
  P   P174      1.0  0.83073  0.44631  0.68646  1.0000
  H   H4159     1.0  0.94349  0.11260  0.52379  1.0000
  C   C5210     1.0  0.86204  0.02670  0.48914  1.0000
  H   H4160     1.0  0.97805  0.27277  0.94774  1.0000
  H   H4161     1.0  0.79785  0.43483  0.89314  1.0000
  C   C5211     1.0  0.95961  0.46253  0.88663  1.0000
  C   C5212     1.0  0.87253  0.13705  0.52838  1.0000
  H   H4162     1.0  0.90549  0.37452  0.96849  1.0000
  C   C5213     1.0  0.85050  0.99801  0.55760  1.0000
  H   H4163     1.0  0.88777  0.16760  0.48964  1.0000
  C   C5214     1.0  0.95393  0.47602  0.70634  1.0000
  C   C5215     1.0  0.94576  0.10899  0.57480  1.0000
  C   C5216     1.0  0.84807  0.27012  0.94752  1.0000
  C   C5217     1.0  0.81505  0.47230  0.74693  1.0000
  H   H4164     1.0  0.94439  0.47224  0.89096  1.0000
  C   C5218     1.0  0.87129  0.22498  0.93077  1.0000
  H   H4165     1.0  0.92123  0.14487  0.49889  1.0000
  H   H4166     1.0  0.97167  0.24157  0.90477  1.0000
  H   H4167     1.0  0.87812  0.32971  0.86984  1.0000
  C   C5219     1.0  0.84960  0.47238  0.88249  1.0000
  C   C5220     1.0  0.89658  0.02817  0.59535  1.0000
  H   H4168     1.0  0.88938  0.36036  0.84392  1.0000
  H   H4169     1.0  0.85450  0.17866  0.94502  1.0000
  H   H4170     1.0  0.96526  0.35348  0.77217  1.0000
  C   C5221     1.0  0.98130  0.07038  0.51332  1.0000
  C   C5222     1.0  0.86755  0.19075  0.96433  1.0000
  C   C5223     1.0  0.83125  0.46675  0.66295  1.0000
  H   H4171     1.0  0.93152  0.05540  0.59772  1.0000
  H   H4172     1.0  0.95556  0.10996  0.55926  1.0000
  H   H4173     1.0  0.89253  0.28934  0.92668  1.0000
  C   C5224     1.0  0.97429  0.05514  0.53013  1.0000
  C   C5225     1.0  0.87781  0.22445  0.94915  1.0000
  C   C5226     1.0  0.96817  0.35819  0.78523  1.0000
  H   H4174     1.0  0.96427  0.12469  0.58498  1.0000
  P   P175      1.0  0.92160  0.08852  0.56175  1.0000
  C   C5227     1.0  0.98317  0.04675  0.58276  1.0000
  H   H4175     1.0  0.88132  0.47413  0.86701  1.0000
  C   C5228     1.0  0.97107  0.29584  0.83913  1.0000
  H   H4176     1.0  0.98504  0.47734  0.95428  1.0000
  H   H4177     1.0  0.90240  0.09171  0.60533  1.0000
  C   C5229     1.0  0.86958  0.26998  0.94220  1.0000
  H   H4178     1.0  0.86543  0.15211  0.55477  1.0000
  H   H4179     1.0  0.91180  0.10624  0.63103  1.0000
  C   C5230     1.0  0.88511  0.12049  0.51914  1.0000
  C   C5231     1.0  0.87603  0.20708  0.96587  1.0000
  C   C5232     1.0  0.88691  0.24512  0.97851  1.0000
  H   H4180     1.0  0.90975  0.09337  0.52189  1.0000
  H   H4181     1.0  0.97666  0.26538  0.83140  1.0000
  H   H4182     1.0  0.91596  0.21651  0.92575  1.0000
  C   C5233     1.0  0.80498  0.46555  0.87907  1.0000
  C   C5234     1.0  0.81295  0.43240  0.93144  1.0000
  H   H4183     1.0  0.81423  0.18444  0.94375  1.0000
  H   H4184     1.0  0.95943  0.28478  0.98073  1.0000
  H   H4185     1.0  0.96328  0.44542  0.97660  1.0000
  C   C5235     1.0  0.92123  0.10706  0.61531  1.0000
  C   C5236     1.0  0.87626  0.28863  0.93110  1.0000
  H   H4186     1.0  0.89127  0.01366  0.60293  1.0000
  C   C5237     1.0  0.82863  0.44332  0.72884  1.0000
  H   H4187     1.0  0.86709  0.32148  0.91766  1.0000
  H   H4188     1.0  0.95060  0.04809  0.55718  1.0000
  C   C5238     1.0  0.85141  0.42944  0.84629  1.0000
  C   C5239     1.0  0.86105  0.19142  0.94606  1.0000
  C   C5240     1.0  0.89006  0.12466  0.55781  1.0000
  C   C5241     1.0  0.97475  0.37707  0.78197  1.0000
  C   C5242     1.0  0.93070  0.44236  0.93524  1.0000
  H   H4189     1.0  0.94089  0.30535  0.87895  1.0000
  C   C5243     1.0  0.91416  0.24528  0.93583  1.0000
  C   C5244     1.0  0.97311  0.47156  0.71279  1.0000
  H   H4190     1.0  0.97554  0.10270  0.49794  1.0000
  C   C5245     1.0  0.87510  0.13921  0.54764  1.0000
  C   C5246     1.0  0.90015  0.10609  0.52919  1.0000
  C   C5247     1.0  0.96847  0.35173  0.82246  1.0000
  C   C5248     1.0  0.93866  0.11635  0.60964  1.0000
  H   H4191     1.0  0.82920  0.32138  0.92758  1.0000
  C   C5249     1.0  0.89331  0.45265  0.96328  1.0000
  C   C5250     1.0  0.86753  0.01119  0.50619  1.0000
  H   H4192     1.0  0.97577  0.48313  0.89277  1.0000
  C   C5251     1.0  0.84626  0.00578  0.57600  1.0000
  C   C5252     1.0  0.96485  0.16957  0.97056  1.0000
  C   C5253     1.0  0.82358  0.45103  0.74733  1.0000
  S   S694      1.0  0.99096  0.14989  0.54843  1.0000
  C   C5254     1.0  0.98221  0.45075  0.72073  1.0000
  C   C5255     1.0  0.87989  0.39624  0.68071  1.0000
  H   H4193     1.0  0.88315  0.11858  0.50428  1.0000
  H   H4194     1.0  0.98294  0.19909  0.93652  1.0000
  H   H4195     1.0  0.80122  0.08092  0.97835  1.0000
  H   H4196     1.0  0.86755  0.46877  0.93372  1.0000
  H   H4197     1.0  0.97709  0.38697  0.76641  1.0000
  H   H4198     1.0  0.95359  0.33195  0.97312  1.0000
  H   H4199     1.0  0.79725  0.21597  0.95921  1.0000
  C   C5256     1.0  0.99118  0.06529  0.57676  1.0000
  H   H4200     1.0  0.79768  0.47399  0.66570  1.0000
  C   C5257     1.0  0.85896  0.99707  0.59077  1.0000
  C   C5258     1.0  0.79836  0.45858  0.84209  1.0000
  C   C5259     1.0  0.79608  0.44339  0.86063  1.0000
  H   H4201     1.0  0.79272  0.43810  0.71815  1.0000
  H   H4202     1.0  0.84274  0.49043  0.82166  1.0000
  H   H4203     1.0  0.80624  0.48879  0.82755  1.0000
  H   H4204     1.0  0.80553  0.99254  0.91006  1.0000
  S   S695      1.0  0.99135  0.43978  0.78795  1.0000
  C   C5260     1.0  0.92617  0.58764  0.00094  1.0000
  C   C5261     1.0  0.87045  0.49561  0.02557  1.0000
  S   S696      1.0  0.90413  0.53083  0.01322  1.0000
  C   C5262     1.0  0.99095  0.53504  0.06322  1.0000
  C   C5263     1.0  0.89775  0.93933  0.25405  1.0000
  H   H4205     1.0  0.86286  0.98355  0.34064  1.0000
  H   H4206     1.0  0.89807  0.55997  0.48503  1.0000
  C   C5264     1.0  0.88525  0.95591  0.28433  1.0000
  H   H4207     1.0  0.87641  0.51485  0.05614  1.0000
  H   H4208     1.0  0.97099  0.60671  0.46553  1.0000
  H   H4209     1.0  0.94771  0.64929  0.47151  1.0000
  C   C5265     1.0  0.95402  0.60981  0.06892  1.0000
  C   C5266     1.0  0.94910  0.77565  0.47106  1.0000
  C   C5267     1.0  0.96470  0.87635  0.36585  1.0000
  C   C5268     1.0  0.96455  0.93861  0.40411  1.0000
  S   S697      1.0  0.83961  0.62680  0.47805  1.0000
  Fe  Fe347     1.0  0.96120  0.98424  0.30967  1.0000
  C   C5269     1.0  0.88574  0.81882  0.46914  1.0000
  C   C5270     1.0  0.94516  0.74167  0.46828  1.0000
  H   H4210     1.0  0.82852  0.97811  0.18521  1.0000
  S   S698      1.0  0.94876  0.97340  0.28735  1.0000
  C   C5271     1.0  0.81534  0.77176  0.45381  1.0000
  P   P176      1.0  0.86471  0.97097  0.30087  1.0000
  C   C5272     1.0  0.93374  0.77685  0.41938  1.0000
  C   C5273     1.0  0.97854  0.90331  0.47914  1.0000
  H   H4211     1.0  0.83625  0.74215  0.46115  1.0000
  C   C5274     1.0  0.86166  0.50889  0.00904  1.0000
  C   C5275     1.0  0.87450  0.52295  0.08546  1.0000
  C   C5276     1.0  0.97607  0.99121  0.44514  1.0000
  C   C5277     1.0  0.98507  0.71947  0.41715  1.0000
  C   C5278     1.0  0.95121  0.56170  0.09794  1.0000
  H   H4212     1.0  0.82085  0.71645  0.42288  1.0000
  C   C5279     1.0  0.89922  0.98525  0.43481  1.0000
  Fe  Fe348     1.0  0.90037  0.89000  0.45188  1.0000
  S   S699      1.0  0.87081  0.89509  0.44075  1.0000
  S   S700      1.0  0.92148  0.85838  0.45798  1.0000
  Fe  Fe349     1.0  0.89219  0.93517  0.45753  1.0000
  S   S701      1.0  0.86197  0.94426  0.44644  1.0000
  H   H4213     1.0  0.98302  0.74255  0.21963  1.0000
  S   S702      1.0  0.98124  0.91712  0.28528  1.0000
  Fe  Fe350     1.0  0.87950  0.92544  0.42182  1.0000
  S   S703      1.0  0.87733  0.93422  0.38780  1.0000
  S   S704      1.0  0.91046  0.91905  0.43113  1.0000
  H   H4214     1.0  0.91014  0.54338  0.13214  1.0000
  Fe  Fe351     1.0  0.97991  0.95125  0.28356  1.0000
  H   H4215     1.0  0.95581  0.54675  0.02849  1.0000
  H   H4216     1.0  0.94885  0.77886  0.42021  1.0000
  C   C5280     1.0  0.84853  0.97690  0.12647  1.0000
  C   C5281     1.0  0.95855  0.62856  0.07022  1.0000
  C   C5282     1.0  0.93838  0.55482  0.11706  1.0000
  H   H4217     1.0  0.91823  0.61951  0.00544  1.0000
  C   C5283     1.0  0.83305  0.94670  0.14420  1.0000
  C   C5284     1.0  0.86654  0.93378  0.33138  1.0000
  C   C5285     1.0  0.82228  0.97941  0.39291  1.0000
  P   P177      1.0  0.87288  0.80133  0.44233  1.0000
  C   C5286     1.0  0.90215  0.98185  0.45525  1.0000
  H   H4218     1.0  0.89613  0.98551  0.24076  1.0000
  C   C5287     1.0  0.81590  0.95966  0.15435  1.0000
  H   H4219     1.0  0.86133  0.98365  0.11601  1.0000
  C   C5288     1.0  0.93757  0.70787  0.44347  1.0000
  C   C5289     1.0  0.93372  0.90283  0.37307  1.0000
  H   H4220     1.0  0.93505  0.87648  0.35972  1.0000
  C   C5290     1.0  0.84005  0.51485  0.01127  1.0000
  H   H4221     1.0  0.91733  0.79700  0.44090  1.0000
  C   C5291     1.0  0.84395  0.98419  0.28690  1.0000
  H   H4222     1.0  0.84262  0.98881  0.21021  1.0000
  C   C5292     1.0  0.95104  0.95814  0.43214  1.0000
  C   C5293     1.0  0.94494  0.66565  0.46365  1.0000
  H   H4223     1.0  0.80168  0.76491  0.45745  1.0000
  H   H4224     1.0  0.92296  0.84603  0.38848  1.0000
  H   H4225     1.0  0.97147  0.80779  0.41995  1.0000
  H   H4226     1.0  0.91333  0.53142  0.05244  1.0000
  H   H4227     1.0  0.87173  0.51500  0.99466  1.0000
  C   C5294     1.0  0.93004  0.84135  0.40205  1.0000
  C   C5295     1.0  0.87670  0.80282  0.46749  1.0000
  C   C5296     1.0  0.98780  0.60167  0.04628  1.0000
  H   H4228     1.0  0.89688  0.97254  0.42919  1.0000
  C   C5297     1.0  0.89454  0.95100  0.37411  1.0000
  C   C5298     1.0  0.90491  0.94993  0.35345  1.0000
  C   C5299     1.0  0.92015  0.96195  0.34324  1.0000
  C   C5300     1.0  0.86846  0.49594  0.11658  1.0000
  H   H4229     1.0  0.94720  0.58404  0.48785  1.0000
  C   C5301     1.0  0.89881  0.96471  0.38419  1.0000
  H   H4230     1.0  0.90185  0.93916  0.34566  1.0000
  H   H4231     1.0  0.81506  0.71672  0.46072  1.0000
  C   C5302     1.0  0.79827  0.58857  0.45211  1.0000
  H   H4232     1.0  0.89068  0.96565  0.40006  1.0000
  C   C5303     1.0  0.80930  0.56976  0.46217  1.0000
  C   C5304     1.0  0.81613  0.88930  0.48548  1.0000
  H   H4233     1.0  0.93703  0.93340  0.27939  1.0000
  H   H4234     1.0  0.92142  0.76290  0.48521  1.0000
  C   C5305     1.0  0.96942  0.77210  0.45929  1.0000
  H   H4235     1.0  0.81036  0.51234  0.03194  1.0000
  C   C5306     1.0  0.94918  0.97697  0.41733  1.0000
  C   C5307     1.0  0.97434  0.86776  0.44680  1.0000
  C   C5308     1.0  0.95880  0.93899  0.42559  1.0000
  H   H4236     1.0  0.97217  0.86179  0.36058  1.0000
  C   C5309     1.0  0.95748  0.81985  0.41967  1.0000
  H   H4237     1.0  0.83328  0.91729  0.37648  1.0000
  C   C5310     1.0  0.81581  0.88824  0.46509  1.0000
  C   C5311     1.0  0.94560  0.56297  0.07891  1.0000
  H   H4238     1.0  0.81600  0.53606  0.46625  1.0000
  S   S705      1.0  0.88515  0.90544  0.47925  1.0000
  C   C5312     1.0  0.97090  0.60177  0.48218  1.0000
  H   H4239     1.0  0.82168  0.89975  0.45194  1.0000
  C   C5313     1.0  0.82825  0.97371  0.28743  1.0000
  C   C5314     1.0  0.91774  0.93316  0.25852  1.0000
  H   H4240     1.0  0.79994  0.60339  0.45433  1.0000
  H   H4241     1.0  0.94274  0.79022  0.47664  1.0000
  H   H4242     1.0  0.91727  0.90870  0.37338  1.0000
  C   C5315     1.0  0.97761  0.63396  0.05940  1.0000
  C   C5316     1.0  0.83131  0.98992  0.13639  1.0000
  C   C5317     1.0  0.97756  0.75346  0.45180  1.0000
  H   H4243     1.0  0.82566  0.97554  0.33180  1.0000
  C   C5318     1.0  0.87607  0.98956  0.30723  1.0000
  H   H4244     1.0  0.96050  0.92467  0.43731  1.0000
  H   H4245     1.0  0.79808  0.80356  0.44744  1.0000
  C   C5319     1.0  0.93753  0.59931  0.02661  1.0000
  C   C5320     1.0  0.81471  0.98146  0.15021  1.0000
  S   S706      1.0  0.96034  0.81429  0.38019  1.0000
  C   C5321     1.0  0.94819  0.82571  0.40220  1.0000
  C   C5322     1.0  0.98563  0.89391  0.41650  1.0000
  H   H4246     1.0  0.83381  0.92992  0.14734  1.0000
  C   C5323     1.0  0.94898  0.82978  0.43675  1.0000
  C   C5324     1.0  0.93125  0.84591  0.43641  1.0000
  C   C5325     1.0  0.92167  0.85165  0.41906  1.0000
  H   H4247     1.0  0.95671  0.82534  0.44985  1.0000
  H   H4248     1.0  0.90794  0.86407  0.41867  1.0000
  H   H4249     1.0  0.80008  0.97569  0.27694  1.0000
  H   H4250     1.0  0.88195  0.92838  0.32269  1.0000
  C   C5326     1.0  0.96868  0.59612  0.05704  1.0000
  C   C5327     1.0  0.94822  0.57878  0.03326  1.0000
  H   H4251     1.0  0.90864  0.95345  0.30209  1.0000
  C   C5328     1.0  0.83907  0.92731  0.36187  1.0000
  H   H4252     1.0  0.94626  0.95842  0.44873  1.0000
  Fe  Fe352     1.0  0.97922  0.50008  0.12356  1.0000
  C   C5329     1.0  0.92650  0.60369  0.01051  1.0000
  H   H4253     1.0  0.94327  0.55315  0.13163  1.0000
  C   C5330     1.0  0.80023  0.85738  0.47878  1.0000
  C   C5331     1.0  0.81430  0.95600  0.42656  1.0000
  H   H4254     1.0  0.93036  0.92457  0.24848  1.0000
  C   C5332     1.0  0.92686  0.55745  0.07927  1.0000
  C   C5333     1.0  0.92608  0.67479  0.45717  1.0000
  C   C5334     1.0  0.95633  0.69894  0.45050  1.0000
  C   C5335     1.0  0.92229  0.51411  0.02767  1.0000
  H   H4255     1.0  0.94329  0.99182  0.42242  1.0000
  H   H4256     1.0  0.97438  0.67019  0.46581  1.0000
  H   H4257     1.0  0.96211  0.86030  0.45729  1.0000
  H   H4258     1.0  0.81195  0.95222  0.36454  1.0000
  C   C5336     1.0  0.92397  0.51839  0.04636  1.0000
  H   H4259     1.0  0.96571  0.56568  0.09800  1.0000
  H   H4260     1.0  0.83075  0.98157  0.37678  1.0000
  C   C5337     1.0  0.87183  0.51618  0.10724  1.0000
  C   C5338     1.0  0.93601  0.49719  0.01986  1.0000
  Fe  Fe353     1.0  0.85622  0.91318  0.46631  1.0000
  H   H4261     1.0  0.92215  0.55828  0.06486  1.0000
  P   P178      1.0  0.97939  0.91512  0.39506  1.0000
  H   H4262     1.0  0.89489  0.93565  0.24040  1.0000
  C   C5339     1.0  0.85877  0.92072  0.34998  1.0000
  C   C5340     1.0  0.96972  0.88434  0.43024  1.0000
  C   C5341     1.0  0.93997  0.50632  0.05671  1.0000
  C   C5342     1.0  0.89600  0.78558  0.42946  1.0000
  H   H4263     1.0  0.92858  0.96044  0.32766  1.0000
  H   H4264     1.0  0.87737  0.53855  0.07809  1.0000
  C   C5343     1.0  0.93220  0.76503  0.40572  1.0000
  C   C5344     1.0  0.91263  0.76329  0.40400  1.0000
  C   C5345     1.0  0.89456  0.77368  0.41566  1.0000
  C   C5346     1.0  0.88151  0.95059  0.26694  1.0000
  S   S707      1.0  0.90294  0.95672  0.47126  1.0000
  H   H4265     1.0  0.92817  0.98810  0.25073  1.0000
  C   C5347     1.0  0.86943  0.82730  0.42576  1.0000
  C   C5348     1.0  0.85560  0.84422  0.43371  1.0000
  C   C5349     1.0  0.85298  0.86430  0.42098  1.0000
  C   C5350     1.0  0.86459  0.86786  0.40053  1.0000
  C   C5351     1.0  0.87837  0.85116  0.39245  1.0000
  C   C5352     1.0  0.88076  0.83094  0.40495  1.0000
  C   C5353     1.0  0.93695  0.56725  0.00737  1.0000
  C   C5354     1.0  0.95429  0.97667  0.39596  1.0000
  H   H4266     1.0  0.98110  0.64856  0.06021  1.0000
  H   H4267     1.0  0.86696  0.75778  0.45466  1.0000
  C   C5355     1.0  0.82711  0.94703  0.35518  1.0000
  C   C5356     1.0  0.92239  0.69589  0.44707  1.0000
  C   C5357     1.0  0.96527  0.73837  0.45561  1.0000
  C   C5358     1.0  0.81330  0.79354  0.44813  1.0000
  H   H4268     1.0  0.91145  0.75442  0.39313  1.0000
  H   H4269     1.0  0.87954  0.77300  0.41333  1.0000
  C   C5359     1.0  0.96177  0.95755  0.38935  1.0000
  H   H4270     1.0  0.94644  0.82705  0.48476  1.0000
  C   C5360     1.0  0.94368  0.88454  0.36551  1.0000
  H   H4271     1.0  0.84685  0.84190  0.44977  1.0000
  H   H4272     1.0  0.84231  0.87728  0.42713  1.0000
  H   H4273     1.0  0.86310  0.88365  0.39111  1.0000
  H   H4274     1.0  0.88753  0.85392  0.37663  1.0000
  H   H4275     1.0  0.89178  0.81839  0.39832  1.0000
  C   C5361     1.0  0.94782  0.56277  0.02354  1.0000
  H   H4276     1.0  0.98080  0.87626  0.31212  1.0000
  C   C5362     1.0  0.82411  0.95915  0.40538  1.0000
  H   H4277     1.0  0.94613  0.75773  0.39602  1.0000
  H   H4278     1.0  0.83337  0.52534  0.99843  1.0000
  H   H4279     1.0  0.86833  0.90572  0.35544  1.0000
  C   C5363     1.0  0.93707  0.76034  0.47576  1.0000
  H   H4280     1.0  0.93455  0.72418  0.43553  1.0000
  H   H4281     1.0  0.89979  0.54613  0.09860  1.0000
  C   C5364     1.0  0.91402  0.55066  0.09842  1.0000
  P   P179      1.0  0.96200  0.57263  0.05443  1.0000
  C   C5365     1.0  0.87382  0.50945  0.07302  1.0000
  C   C5366     1.0  0.85040  0.78984  0.44610  1.0000
  C   C5367     1.0  0.80749  0.87251  0.46179  1.0000
  H   H4282     1.0  0.86269  0.94529  0.12247  1.0000
  C   C5368     1.0  0.91977  0.54929  0.11732  1.0000
  C   C5369     1.0  0.82714  0.50755  0.03014  1.0000
  H   H4283     1.0  0.95377  0.88946  0.42800  1.0000
  C   C5370     1.0  0.92436  0.97578  0.35328  1.0000
  C   C5371     1.0  0.91574  0.78714  0.43117  1.0000
  H   H4284     1.0  0.86627  0.95546  0.26295  1.0000
  C   C5372     1.0  0.83587  0.49432  0.04678  1.0000
  C   C5373     1.0  0.96591  0.90489  0.38129  1.0000
  C   C5374     1.0  0.85460  0.95358  0.32448  1.0000
  H   H4285     1.0  0.81620  0.94033  0.43630  1.0000
  C   C5375     1.0  0.84933  0.95532  0.13022  1.0000
  C   C5376     1.0  0.83491  0.96019  0.33664  1.0000
  H   H4286     1.0  0.88728  0.49182  0.02361  1.0000
  C   C5377     1.0  0.97583  0.88651  0.37361  1.0000
  C   C5378     1.0  0.90538  0.94958  0.28873  1.0000
  H   H4287     1.0  0.98171  0.53232  0.07896  1.0000
  H   H4288     1.0  0.93900  0.60608  0.07707  1.0000
  H   H4289     1.0  0.93394  0.49294  0.00623  1.0000
  S   S708      1.0  0.98961  0.52936  0.12372  1.0000
  C   C5379     1.0  0.80533  0.72202  0.43139  1.0000
  C   C5380     1.0  0.91351  0.97724  0.37368  1.0000
  H   H4290     1.0  0.89039  0.83054  0.45548  1.0000
  H   H4291     1.0  0.93765  0.61194  0.03378  1.0000
  H   H4292     1.0  0.91426  0.66550  0.46016  1.0000
  C   C5381     1.0  0.79451  0.55023  0.44540  1.0000
  C   C5382     1.0  0.80211  0.72218  0.45269  1.0000
  S   S709      1.0  0.82628  0.56911  0.47860  1.0000
  C   C5383     1.0  0.80731  0.55065  0.45876  1.0000
  C   C5384     1.0  0.95999  0.67765  0.46046  1.0000
  C   C5385     1.0  0.83479  0.75897  0.45582  1.0000
  H   H4293     1.0  0.82860  0.95764  0.29592  1.0000
  C   C5386     1.0  0.94478  0.91313  0.38080  1.0000
  H   H4294     1.0  0.83367  0.94589  0.39880  1.0000
  H   H4295     1.0  0.93665  0.92711  0.38688  1.0000
  H   H4296     1.0  0.91678  0.98785  0.38141  1.0000
  C   C5387     1.0  0.92151  0.93820  0.27591  1.0000
  H   H4297     1.0  0.94146  0.51004  0.07082  1.0000
  H   H4298     1.0  0.96588  0.95760  0.37266  1.0000
  H   H4299     1.0  0.93566  0.72988  0.47269  1.0000
  C   C5388     1.0  0.98518  0.55305  0.04828  1.0000
  H   H4300     1.0  0.90768  0.70297  0.44219  1.0000
  H   H4301     1.0  0.96369  0.91125  0.47486  1.0000
  H   H4302     1.0  0.95218  0.99124  0.38448  1.0000
  H   H4303     1.0  0.82844  0.81949  0.44050  1.0000
  C   C5389     1.0  0.83071  0.80257  0.44432  1.0000
  C   C5390     1.0  0.85221  0.76794  0.45217  1.0000
  C   C5391     1.0  0.87116  0.78775  0.48553  1.0000
  H   H4304     1.0  0.86409  0.77524  0.48490  1.0000
  H   H4305     1.0  0.97895  0.78378  0.45601  1.0000
  H   H4306     1.0  0.79345  0.53542  0.44263  1.0000
  H   H4307     1.0  0.87264  0.52643  0.11696  1.0000
  H   H4308     1.0  0.94940  0.98989  0.47074  1.0000
  H   H4309     1.0  0.94722  0.63897  0.07949  1.0000
  P   P180      1.0  0.97593  0.71452  0.44536  1.0000
  H   H4310     1.0  0.79546  0.97069  0.45192  1.0000
  C   C5392     1.0  0.98578  0.73983  0.40522  1.0000
  H   H4311     1.0  0.98050  0.97433  0.44669  1.0000
  H   H4312     1.0  0.80697  0.87181  0.44606  1.0000
  C   C5393     1.0  0.80262  0.97314  0.43536  1.0000
  C   C5394     1.0  0.88888  0.81987  0.48855  1.0000
  H   H4313     1.0  0.80384  0.95253  0.16562  1.0000
  H   H4314     1.0  0.93687  0.55480  0.99987  1.0000
  H   H4315     1.0  0.98026  0.75341  0.41234  1.0000
  C   C5395     1.0  0.81210  0.98381  0.27669  1.0000
  S   S710      1.0  0.95177  0.50291  0.10938  1.0000
  S   S711      1.0  0.99125  0.96063  0.30772  1.0000
  H   H4316     1.0  0.99127  0.68657  0.41569  1.0000
  S   S712      1.0  0.94272  0.99172  0.34066  1.0000
  S   S713      1.0  0.94412  0.53498  0.92048  1.0000
  C   C5396     1.0  0.82533  0.53414  0.67330  1.0000
  H   H4317     1.0  0.79926  0.73659  0.89963  1.0000
  H   H4318     1.0  0.81432  0.50680  0.91694  1.0000
  C   C5397     1.0  0.82097  0.54100  0.69212  1.0000
  H   H4319     1.0  0.85295  0.90942  0.51762  1.0000
  H   H4320     1.0  0.80054  0.96680  0.57763  1.0000
  S   S714      1.0  0.83075  0.72550  0.83674  1.0000
  C   C5398     1.0  0.84622  0.50758  0.74898  1.0000
  H   H4321     1.0  0.83175  0.90090  0.55325  1.0000
  H   H4322     1.0  0.87113  0.93905  0.50770  1.0000
  Fe  Fe354     1.0  0.92190  0.68640  0.75472  1.0000
  S   S715      1.0  0.93726  0.69531  0.77604  1.0000
  S   S716      1.0  0.88745  0.68808  0.75920  1.0000
  Fe  Fe355     1.0  0.96286  0.67521  0.72461  1.0000
  H   H4323     1.0  0.93174  0.50230  0.51635  1.0000
  H   H4324     1.0  0.91976  0.54962  0.57708  1.0000
  Fe  Fe356     1.0  0.96148  0.66644  0.77129  1.0000
  Fe  Fe357     1.0  0.95562  0.71132  0.74637  1.0000
  S   S717      1.0  0.95982  0.74392  0.74426  1.0000
  S   S718      1.0  0.94479  0.65605  0.75214  1.0000
  S   S719      1.0  0.93838  0.70474  0.72524  1.0000
  S   S720      1.0  0.93343  0.66190  0.57718  1.0000
  S   S721      1.0  0.93276  0.69265  0.62006  1.0000
  S   S722      1.0  0.91642  0.69444  0.52572  1.0000
  Fe  Fe358     1.0  0.95224  0.96335  0.57799  1.0000
  C   C5399     1.0  0.91947  0.60331  0.55068  1.0000
  S   S723      1.0  0.92968  0.94212  0.58378  1.0000
  C   C5400     1.0  0.87883  0.59857  0.55439  1.0000
  H   H4325     1.0  0.89746  0.68446  0.60633  1.0000
  Fe  Fe359     1.0  0.85889  0.84569  0.71998  1.0000
  S   S724      1.0  0.85932  0.82361  0.69983  1.0000
  C   C5401     1.0  0.84434  0.93795  0.86840  1.0000
  Fe  Fe360     1.0  0.87579  0.87792  0.68344  1.0000
  S   S725      1.0  0.87793  0.85856  0.65998  1.0000
  S   S726      1.0  0.88568  0.90898  0.67705  1.0000
  Fe  Fe361     1.0  0.84657  0.85284  0.67843  1.0000
  H   H4326     1.0  0.82316  0.86200  0.60472  1.0000
  Fe  Fe362     1.0  0.89052  0.83114  0.68343  1.0000
  S   S727      1.0  0.91655  0.80557  0.67251  1.0000
  S   S728      1.0  0.84326  0.87444  0.70013  1.0000
  S   S729      1.0  0.89126  0.85086  0.70534  1.0000
  C   C5402     1.0  0.82610  0.68636  0.49754  1.0000
  S   S730      1.0  0.82186  0.58214  0.57076  1.0000
  H   H4327     1.0  0.82806  0.72594  0.57264  1.0000
  C   C5403     1.0  0.81451  0.64785  0.68565  1.0000
  Fe  Fe363     1.0  0.91543  0.54104  0.66396  1.0000
  S   S731      1.0  0.93476  0.56440  0.66147  1.0000
  S   S732      1.0  0.88632  0.55144  0.65104  1.0000
  H   H4328     1.0  0.96100  0.58368  0.96427  1.0000
  H   H4329     1.0  0.94510  0.52209  0.53437  1.0000
  C   C5404     1.0  0.79502  0.68274  0.57111  1.0000
  H   H4330     1.0  0.94594  0.85666  0.54869  1.0000
  C   C5405     1.0  0.79949  0.63481  0.93023  1.0000
  H   H4331     1.0  0.97015  0.53937  0.83392  1.0000
  C   C5406     1.0  0.84148  0.56270  0.58126  1.0000
  C   C5407     1.0  0.85855  0.55248  0.56831  1.0000
  C   C5408     1.0  0.87470  0.53809  0.57700  1.0000
  C   C5409     1.0  0.87393  0.53412  0.59863  1.0000
  C   C5410     1.0  0.85657  0.54381  0.61162  1.0000
  C   C5411     1.0  0.84020  0.55772  0.60300  1.0000
  H   H4332     1.0  0.85942  0.55575  0.55159  1.0000
  H   H4333     1.0  0.88803  0.53041  0.56690  1.0000
  H   H4334     1.0  0.85579  0.54057  0.62831  1.0000
  H   H4335     1.0  0.82688  0.56515  0.61320  1.0000
  H   H4336     1.0  0.97916  0.71895  0.86969  1.0000
  H   H4337     1.0  0.90453  0.52052  0.81438  1.0000
  H   H4338     1.0  0.87083  0.53298  0.83758  1.0000
  C   C5412     1.0  0.91787  0.93297  0.60982  1.0000
  C   C5413     1.0  0.92052  0.94040  0.62637  1.0000
  C   C5414     1.0  0.91043  0.93308  0.64700  1.0000
  C   C5415     1.0  0.89791  0.91819  0.65111  1.0000
  C   C5416     1.0  0.89534  0.91079  0.63451  1.0000
  C   C5417     1.0  0.90524  0.91822  0.61392  1.0000
  H   H4339     1.0  0.93015  0.95189  0.62328  1.0000
  H   H4340     1.0  0.91239  0.93888  0.65982  1.0000
  H   H4341     1.0  0.88542  0.89963  0.63750  1.0000
  H   H4342     1.0  0.90300  0.91257  0.60117  1.0000
  C   C5418     1.0  0.91039  0.67443  0.51690  1.0000
  C   C5419     1.0  0.89754  0.89986  0.56261  1.0000
  C   C5420     1.0  0.96799  0.81480  0.63555  1.0000
  C   C5421     1.0  0.95560  0.57805  0.59861  1.0000
  C   C5422     1.0  0.94702  0.56797  0.61880  1.0000
  C   C5423     1.0  0.94378  0.57745  0.63590  1.0000
  C   C5424     1.0  0.94843  0.59732  0.63273  1.0000
  C   C5425     1.0  0.95638  0.60769  0.61246  1.0000
  H   H4343     1.0  0.94350  0.55261  0.62128  1.0000
  H   H4344     1.0  0.94604  0.60463  0.64596  1.0000
  H   H4345     1.0  0.96005  0.62297  0.61010  1.0000
  C   C5426     1.0  0.96641  0.66956  0.67517  1.0000
  C   C5427     1.0  0.94587  0.68292  0.64115  1.0000
  C   C5428     1.0  0.93589  0.68806  0.66065  1.0000
  C   C5429     1.0  0.94604  0.68131  0.67765  1.0000
  H   H4346     1.0  0.92054  0.69783  0.66241  1.0000
  H   H4347     1.0  0.93817  0.68546  0.69255  1.0000
  C   C5430     1.0  0.94855  0.76149  0.72406  1.0000
  C   C5431     1.0  0.94999  0.75530  0.70535  1.0000
  C   C5432     1.0  0.94030  0.76909  0.68957  1.0000
  C   C5433     1.0  0.92881  0.78895  0.69254  1.0000
  C   C5434     1.0  0.92747  0.79522  0.71121  1.0000
  C   C5435     1.0  0.93764  0.78161  0.72681  1.0000
  H   H4348     1.0  0.95875  0.73994  0.70301  1.0000
  H   H4349     1.0  0.94137  0.76429  0.67519  1.0000
  H   H4350     1.0  0.91872  0.81053  0.71363  1.0000
  H   H4351     1.0  0.93660  0.78643  0.74125  1.0000
  H   H4352     1.0  0.82328  0.70916  0.54678  1.0000
  C   C5436     1.0  0.93510  0.53063  0.52345  1.0000
  C   C5437     1.0  0.85464  0.98635  0.49489  1.0000
  S   S733      1.0  0.92637  0.51120  0.65180  1.0000
  C   C5438     1.0  0.82517  0.81020  0.77902  1.0000
  C   C5439     1.0  0.98697  0.55963  0.88080  1.0000
  C   C5440     1.0  0.80094  0.54227  0.70472  1.0000
  H   H4353     1.0  0.83855  0.80175  0.78567  1.0000
  C   C5441     1.0  0.85737  0.67787  0.65893  1.0000
  H   H4354     1.0  0.97080  0.60435  0.98478  1.0000
  Fe  Fe364     1.0  0.98338  0.68509  0.55226  1.0000
  C   C5442     1.0  0.89574  0.58340  0.54740  1.0000
  C   C5443     1.0  0.84631  0.71410  0.81576  1.0000
  C   C5444     1.0  0.86793  0.70869  0.81399  1.0000
  C   C5445     1.0  0.88067  0.70035  0.79685  1.0000
  C   C5446     1.0  0.87186  0.69746  0.78139  1.0000
  C   C5447     1.0  0.85017  0.70204  0.78364  1.0000
  C   C5448     1.0  0.83745  0.71032  0.80082  1.0000
  H   H4355     1.0  0.87484  0.71121  0.82573  1.0000
  H   H4356     1.0  0.89722  0.69615  0.79572  1.0000
  H   H4357     1.0  0.84319  0.69941  0.77201  1.0000
  H   H4358     1.0  0.82083  0.71361  0.80253  1.0000
  Fe  Fe365     1.0  0.94042  0.68367  0.54620  1.0000
  Fe  Fe366     1.0  0.93741  0.50679  0.94550  1.0000
  C   C5449     1.0  0.91423  0.52984  0.49938  1.0000
  C   C5450     1.0  0.97304  0.68324  0.84505  1.0000
  C   C5451     1.0  0.85009  0.65611  0.83171  1.0000
  H   H4359     1.0  0.93888  0.65218  0.52113  1.0000
  C   C5452     1.0  0.91623  0.58595  0.54485  1.0000
  H   H4360     1.0  0.84768  0.62820  0.89835  1.0000
  H   H4361     1.0  0.81458  0.60115  0.72000  1.0000
  Fe  Fe367     1.0  0.83017  0.59802  0.53679  1.0000
  C   C5453     1.0  0.83592  0.70200  0.55492  1.0000
  C   C5454     1.0  0.84992  0.68403  0.54978  1.0000
  C   C5455     1.0  0.86664  0.67536  0.55989  1.0000
  C   C5456     1.0  0.86910  0.68436  0.57542  1.0000
  C   C5457     1.0  0.85461  0.70204  0.58117  1.0000
  C   C5458     1.0  0.83842  0.71124  0.57017  1.0000
  P   P181      1.0  0.85884  0.71483  0.59982  1.0000
  C   C5459     1.0  0.87966  0.72859  0.58609  1.0000
  C   C5460     1.0  0.89411  0.73062  0.59672  1.0000
  C   C5461     1.0  0.91080  0.74033  0.58575  1.0000
  C   C5462     1.0  0.91288  0.74864  0.56423  1.0000
  C   C5463     1.0  0.89833  0.74703  0.55360  1.0000
  C   C5464     1.0  0.88174  0.73710  0.56446  1.0000
  C   C5465     1.0  0.83544  0.73333  0.60813  1.0000
  C   C5466     1.0  0.81819  0.76843  0.61364  1.0000
  C   C5467     1.0  0.83648  0.75374  0.60876  1.0000
  H   H4362     1.0  0.84823  0.67728  0.53744  1.0000
  H   H4363     1.0  0.87827  0.66231  0.55492  1.0000
  H   H4364     1.0  0.88276  0.67790  0.58218  1.0000
  H   H4365     1.0  0.89298  0.72408  0.61333  1.0000
  H   H4366     1.0  0.92262  0.74049  0.59382  1.0000
  H   H4367     1.0  0.92618  0.75561  0.55565  1.0000
  H   H4368     1.0  0.90028  0.75277  0.53678  1.0000
  H   H4369     1.0  0.87091  0.73565  0.55577  1.0000
  C   C5468     1.0  0.85432  0.49763  0.73191  1.0000
  S   S734      1.0  0.97993  0.66214  0.69584  1.0000
  H   H4370     1.0  0.85128  0.75863  0.60488  1.0000
  C   C5469     1.0  0.93872  0.55584  0.84443  1.0000
  H   H4371     1.0  0.82847  0.92241  0.57937  1.0000
  C   C5470     1.0  0.80021  0.83169  0.69387  1.0000
  S   S735      1.0  0.84048  0.54849  0.69947  1.0000
  Fe  Fe368     1.0  0.80280  0.59280  0.82720  1.0000
  C   C5471     1.0  0.79917  0.51070  0.91285  1.0000
  H   H4372     1.0  0.86820  0.63049  0.81699  1.0000
  H   H4373     1.0  0.90739  0.49306  0.79522  1.0000
  C   C5472     1.0  0.95685  0.58255  0.51663  1.0000
  H   H4374     1.0  0.79745  0.54804  0.71908  1.0000
  H   H4375     1.0  0.91763  0.59097  0.98849  1.0000
  H   H4376     1.0  0.85525  0.86950  0.51153  1.0000
  C   C5473     1.0  0.82312  0.94664  0.87391  1.0000
  C   C5474     1.0  0.94504  0.52925  0.59051  1.0000
  C   C5475     1.0  0.92751  0.51929  0.51327  1.0000
  H   H4377     1.0  0.94795  0.52511  0.78504  1.0000
  H   H4378     1.0  0.91655  0.84197  0.50951  1.0000
  C   C5476     1.0  0.87599  0.98067  0.58710  1.0000
  H   H4379     1.0  0.91972  0.91842  0.56102  1.0000
  H   H4380     1.0  0.96816  0.87437  0.49451  1.0000
  H   H4381     1.0  0.83501  0.52235  0.74739  1.0000
  C   C5477     1.0  0.84853  0.61963  0.84634  1.0000
  H   H4382     1.0  0.82687  0.79295  0.74178  1.0000
  H   H4383     1.0  0.81194  0.83109  0.70241  1.0000
  C   C5478     1.0  0.89998  0.64266  0.50316  1.0000
  C   C5479     1.0  0.92983  0.83188  0.51549  1.0000
  H   H4384     1.0  0.82253  0.53614  0.55898  1.0000
  Fe  Fe369     1.0  0.86154  0.61758  0.50061  1.0000
  C   C5480     1.0  0.81232  0.53149  0.55167  1.0000
  H   H4385     1.0  0.83843  0.78698  0.70579  1.0000
  H   H4386     1.0  0.91791  0.59773  0.90846  1.0000
  S   S736      1.0  0.83830  0.62993  0.52711  1.0000
  S   S737      1.0  0.88885  0.57232  0.91577  1.0000
  H   H4387     1.0  0.88771  0.52885  0.91800  1.0000
  H   H4388     1.0  0.85657  0.60522  0.93107  1.0000
  C   C5481     1.0  0.94922  0.59589  0.91123  1.0000
  S   S738      1.0  0.98030  0.66222  0.58309  1.0000
  S   S739      1.0  0.82673  0.90869  0.48980  1.0000
  S   S740      1.0  0.83581  0.73953  0.50788  1.0000
  P   P182      1.0  0.80793  0.65349  0.88783  1.0000
  C   C5482     1.0  0.97164  0.56074  0.86978  1.0000
  C   C5483     1.0  0.94932  0.54975  0.55493  1.0000
  C   C5484     1.0  0.95810  0.64894  0.96259  1.0000
  C   C5485     1.0  0.83548  0.62640  0.91223  1.0000
  C   C5486     1.0  0.90857  0.55173  0.49560  1.0000
  H   H4389     1.0  0.97142  0.92133  0.58198  1.0000
  C   C5487     1.0  0.87213  0.52098  0.82892  1.0000
  H   H4390     1.0  0.81185  0.93658  0.87805  1.0000
  Fe  Fe370     1.0  0.81185  0.76638  0.51895  1.0000
  H   H4391     1.0  0.95865  0.57050  0.58545  1.0000
  C   C5488     1.0  0.80050  0.85850  0.49919  1.0000
  C   C5489     1.0  0.85256  0.82800  0.55273  1.0000
  C   C5490     1.0  0.84698  0.84322  0.53557  1.0000
  C   C5491     1.0  0.85968  0.85765  0.52484  1.0000
  C   C5492     1.0  0.87814  0.85668  0.53112  1.0000
  C   C5493     1.0  0.88410  0.84115  0.54817  1.0000
  C   C5494     1.0  0.87100  0.82693  0.55903  1.0000
  P   P183      1.0  0.90867  0.83914  0.55537  1.0000
  C   C5495     1.0  0.90937  0.82323  0.58141  1.0000
  C   C5496     1.0  0.93028  0.82754  0.53692  1.0000
  C   C5497     1.0  0.94832  0.81502  0.54372  1.0000
  C   C5498     1.0  0.83131  0.98107  0.86767  1.0000
  H   H4392     1.0  0.94432  0.98341  0.51325  1.0000
  C   C5499     1.0  0.90887  0.83235  0.59821  1.0000
  C   C5500     1.0  0.91071  0.81974  0.61791  1.0000
  C   C5501     1.0  0.91283  0.79801  0.62113  1.0000
  C   C5502     1.0  0.91301  0.78884  0.60465  1.0000
  C   C5503     1.0  0.91146  0.80134  0.58480  1.0000
  H   H4393     1.0  0.83194  0.50824  0.61056  1.0000
  C   C5504     1.0  0.86508  0.53015  0.89997  1.0000
  C   C5505     1.0  0.82525  0.61119  0.94908  1.0000
  C   C5506     1.0  0.91774  0.55388  0.85150  1.0000
  H   H4394     1.0  0.84258  0.81692  0.56106  1.0000
  H   H4395     1.0  0.83281  0.84373  0.53059  1.0000
  H   H4396     1.0  0.93965  0.92134  0.51153  1.0000
  H   H4397     1.0  0.87480  0.81497  0.57239  1.0000
  H   H4398     1.0  0.94938  0.81187  0.56002  1.0000
  S   S741      1.0  0.92320  0.56297  0.95704  1.0000
  H   H4399     1.0  0.90729  0.84912  0.59627  1.0000
  H   H4400     1.0  0.91060  0.82683  0.63074  1.0000
  H   H4401     1.0  0.91436  0.78832  0.63647  1.0000
  H   H4402     1.0  0.91445  0.77205  0.60729  1.0000
  H   H4403     1.0  0.91198  0.79397  0.57207  1.0000
  H   H4404     1.0  0.87905  0.87787  0.56378  1.0000
  C   C5507     1.0  0.79877  0.76292  0.61787  1.0000
  Fe  Fe371     1.0  0.90837  0.49689  0.68276  1.0000
  C   C5508     1.0  0.84959  0.58578  0.76270  1.0000
  C   C5509     1.0  0.83119  0.57810  0.76958  1.0000
  H   H4405     1.0  0.86412  0.57558  0.76577  1.0000
  H   H4406     1.0  0.83174  0.56187  0.77749  1.0000
  C   C5510     1.0  0.87618  0.71459  0.66884  1.0000
  C   C5511     1.0  0.87926  0.70261  0.68852  1.0000
  C   C5512     1.0  0.86622  0.70834  0.70676  1.0000
  C   C5513     1.0  0.85000  0.72597  0.70541  1.0000
  C   C5514     1.0  0.84686  0.73814  0.68570  1.0000
  C   C5515     1.0  0.86001  0.73227  0.66741  1.0000
  P   P184      1.0  0.82581  0.76079  0.68360  1.0000
  C   C5516     1.0  0.80802  0.87474  0.50255  1.0000
  C   C5517     1.0  0.81607  0.76763  0.70909  1.0000
  H   H4407     1.0  0.97857  0.93451  0.70987  1.0000
  H   H4408     1.0  0.82019  0.72323  0.67214  1.0000
  H   H4409     1.0  0.86970  0.77731  0.51876  1.0000
  S   S742      1.0  0.79267  0.66768  0.50455  1.0000
  C   C5518     1.0  0.83624  0.78209  0.66499  1.0000
  C   C5519     1.0  0.82517  0.79553  0.65002  1.0000
  C   C5520     1.0  0.83346  0.81203  0.63589  1.0000
  C   C5521     1.0  0.85261  0.81555  0.63694  1.0000
  C   C5522     1.0  0.86360  0.80238  0.65193  1.0000
  C   C5523     1.0  0.85571  0.78544  0.66557  1.0000
  H   H4410     1.0  0.88636  0.71012  0.65469  1.0000
  H   H4411     1.0  0.89186  0.68896  0.68971  1.0000
  H   H4412     1.0  0.86885  0.69925  0.72202  1.0000
  H   H4413     1.0  0.84022  0.73008  0.71982  1.0000
  H   H4414     1.0  0.85778  0.74141  0.65208  1.0000
  H   H4415     1.0  0.79302  0.73440  0.52091  1.0000
  H   H4416     1.0  0.86308  0.59656  0.55613  1.0000
  H   H4417     1.0  0.88555  0.80584  0.52146  1.0000
  C   C5524     1.0  0.93498  0.88797  0.55423  1.0000
  C   C5525     1.0  0.79220  0.49646  0.90551  1.0000
  H   H4418     1.0  0.82451  0.82275  0.62485  1.0000
  H   H4419     1.0  0.85843  0.82906  0.62682  1.0000
  H   H4420     1.0  0.87788  0.80571  0.65354  1.0000
  H   H4421     1.0  0.86453  0.77545  0.67707  1.0000
  C   C5526     1.0  0.91164  0.59977  0.86582  1.0000
  C   C5527     1.0  0.93690  0.87747  0.67752  1.0000
  C   C5528     1.0  0.93095  0.87105  0.66214  1.0000
  C   C5529     1.0  0.98279  0.59390  0.97614  1.0000
  H   H4422     1.0  0.92504  0.88415  0.68961  1.0000
  H   H4423     1.0  0.91460  0.87275  0.66240  1.0000
  H   H4424     1.0  0.97795  0.80471  0.49689  1.0000
  H   H4425     1.0  0.85324  0.60329  0.84502  1.0000
  H   H4426     1.0  0.80528  0.50231  0.72775  1.0000
  C   C5530     1.0  0.95216  0.59793  0.77658  1.0000
  H   H4427     1.0  0.89275  0.56985  0.54375  1.0000
  H   H4428     1.0  0.97298  0.51012  0.60018  1.0000
  C   C5531     1.0  0.97371  0.81106  0.59398  1.0000
  H   H4429     1.0  0.88588  0.97377  0.59852  1.0000
  H   H4430     1.0  0.93505  0.52464  0.60550  1.0000
  C   C5532     1.0  0.97875  0.68640  0.88381  1.0000
  C   C5533     1.0  0.88220  0.61645  0.55882  1.0000
  H   H4431     1.0  0.92810  0.59044  0.80336  1.0000
  H   H4432     1.0  0.95975  0.78392  0.60674  1.0000
  C   C5534     1.0  0.80100  0.72063  0.89781  1.0000
  H   H4433     1.0  0.95427  0.78748  0.64362  1.0000
  C   C5535     1.0  0.93645  0.54354  0.57435  1.0000
  P   P185      1.0  0.93811  0.56745  0.53378  1.0000
  H   H4434     1.0  0.83536  0.67295  0.49104  1.0000
  H   H4435     1.0  0.82695  0.61343  0.87554  1.0000
  H   H4436     1.0  0.96129  0.94743  0.50747  1.0000
  C   C5536     1.0  0.97718  0.58203  0.96472  1.0000
  H   H4437     1.0  0.81294  0.52438  0.65192  1.0000
  C   C5537     1.0  0.79862  0.60801  0.61188  1.0000
  C   C5538     1.0  0.81650  0.96819  0.87394  1.0000
  H   H4438     1.0  0.97631  0.80941  0.57789  1.0000
  H   H4439     1.0  0.89337  0.96004  0.56627  1.0000
  H   H4440     1.0  0.84940  0.50460  0.71714  1.0000
  C   C5539     1.0  0.79759  0.74254  0.61764  1.0000
  C   C5540     1.0  0.95743  0.58874  0.49495  1.0000
  S   S743      1.0  0.97614  0.96134  0.59654  1.0000
  C   C5541     1.0  0.92763  0.51686  0.85025  1.0000
  H   H4441     1.0  0.83813  0.68039  0.88122  1.0000
  C   C5542     1.0  0.96554  0.57913  0.85536  1.0000
  H   H4442     1.0  0.81898  0.78446  0.61310  1.0000
  C   C5543     1.0  0.97858  0.58775  0.80505  1.0000
  C   C5544     1.0  0.80972  0.83842  0.75371  1.0000
  H   H4443     1.0  0.97345  0.65063  0.85849  1.0000
  C   C5545     1.0  0.84063  0.61350  0.93081  1.0000
  S   S744      1.0  0.97318  0.64276  0.79809  1.0000
  H   H4444     1.0  0.85176  0.97095  0.49641  1.0000
  C   C5546     1.0  0.82584  0.77995  0.71600  1.0000
  H   H4445     1.0  0.96988  0.58515  0.54189  1.0000
  H   H4446     1.0  0.80789  0.87579  0.51835  1.0000
  H   H4447     1.0  0.79471  0.84700  0.51241  1.0000
  Fe  Fe372     1.0  0.91847  0.53245  0.97897  1.0000
  C   C5547     1.0  0.79921  0.60640  0.71629  1.0000
  C   C5548     1.0  0.96644  0.52099  0.58745  1.0000
  C   C5549     1.0  0.90707  0.63850  0.83786  1.0000
  C   C5550     1.0  0.89294  0.63562  0.85702  1.0000
  C   C5551     1.0  0.89530  0.61628  0.87102  1.0000
  H   H4448     1.0  0.90549  0.65360  0.82708  1.0000
  H   H4449     1.0  0.88025  0.64841  0.86103  1.0000
  H   H4450     1.0  0.88467  0.61400  0.88607  1.0000
  C   C5552     1.0  0.82277  0.68890  0.88716  1.0000
  C   C5553     1.0  0.92945  0.55266  0.51976  1.0000
  H   H4451     1.0  0.93499  0.60548  0.54968  1.0000
  H   H4452     1.0  0.81260  0.80843  0.85282  1.0000
  C   C5554     1.0  0.80049  0.64682  0.65631  1.0000
  H   H4453     1.0  0.81824  0.66522  0.80919  1.0000
  S   S745      1.0  0.82277  0.85493  0.65973  1.0000
  S   S746      1.0  0.90444  0.52171  0.95783  1.0000
  H   H4454     1.0  0.98552  0.54053  0.74694  1.0000
  C   C5555     1.0  0.79603  0.58073  0.65087  1.0000
  H   H4455     1.0  0.97254  0.72587  0.67059  1.0000
  H   H4456     1.0  0.81176  0.55894  0.52680  1.0000
  H   H4457     1.0  0.86903  0.62832  0.56384  1.0000
  C   C5556     1.0  0.79276  0.68656  0.59109  1.0000
  C   C5557     1.0  0.82363  0.72004  0.50612  1.0000
  C   C5558     1.0  0.86585  0.69521  0.62229  1.0000
  C   C5559     1.0  0.81777  0.64920  0.58053  1.0000
  H   H4458     1.0  0.85921  0.59049  0.88910  1.0000
  H   H4459     1.0  0.80376  0.65171  0.77025  1.0000
  S   S747      1.0  0.81438  0.62291  0.81267  1.0000
  C   C5560     1.0  0.81478  0.63680  0.91170  1.0000
  H   H4460     1.0  0.84935  0.92128  0.86849  1.0000
  C   C5561     1.0  0.80470  0.62195  0.94882  1.0000
  C   C5562     1.0  0.87443  0.78880  0.50490  1.0000
  H   H4461     1.0  0.95242  0.57897  0.91619  1.0000
  C   C5563     1.0  0.95395  0.53816  0.83978  1.0000
  C   C5564     1.0  0.98101  0.88253  0.49030  1.0000
  S   S748      1.0  0.80539  0.60660  0.51786  1.0000
  C   C5565     1.0  0.93228  0.86868  0.55223  1.0000
  C   C5566     1.0  0.91762  0.90350  0.55943  1.0000
  S   S749      1.0  0.85033  0.83671  0.75492  1.0000
  C   C5567     1.0  0.96544  0.80679  0.52939  1.0000
  H   H4462     1.0  0.80497  0.88617  0.62857  1.0000
  H   H4463     1.0  0.98085  0.54480  0.53658  1.0000
  H   H4464     1.0  0.81473  0.71204  0.61263  1.0000
  Fe  Fe373     1.0  0.81419  0.55142  0.85670  1.0000
  H   H4465     1.0  0.85615  0.66795  0.81909  1.0000
  H   H4466     1.0  0.93616  0.73099  0.66792  1.0000
  C   C5568     1.0  0.81936  0.78333  0.73652  1.0000
  C   C5569     1.0  0.81216  0.59125  0.76634  1.0000
  C   C5570     1.0  0.85667  0.75229  0.76703  1.0000
  C   C5571     1.0  0.87243  0.74782  0.74983  1.0000
  C   C5572     1.0  0.89258  0.75035  0.74859  1.0000
  C   C5573     1.0  0.89696  0.75736  0.76453  1.0000
  C   C5574     1.0  0.88120  0.76196  0.78185  1.0000
  C   C5575     1.0  0.86103  0.75917  0.78308  1.0000
  P   P186      1.0  0.88723  0.77135  0.80207  1.0000
  C   C5576     1.0  0.90074  0.74999  0.81927  1.0000
  C   C5577     1.0  0.90331  0.79045  0.78885  1.0000
  C   C5578     1.0  0.92116  0.79057  0.79574  1.0000
  C   C5579     1.0  0.93339  0.80553  0.78517  1.0000
  C   C5580     1.0  0.92780  0.82049  0.76779  1.0000
  C   C5581     1.0  0.91007  0.82040  0.76086  1.0000
  C   C5582     1.0  0.89803  0.80529  0.77119  1.0000
  C   C5583     1.0  0.90060  0.75208  0.83955  1.0000
  C   C5584     1.0  0.91057  0.73547  0.85319  1.0000
  C   C5585     1.0  0.92083  0.71668  0.84665  1.0000
  C   C5586     1.0  0.92131  0.71458  0.82640  1.0000
  C   C5587     1.0  0.91135  0.73118  0.81273  1.0000
  C   C5588     1.0  0.86361  0.78349  0.81795  1.0000
  C   C5589     1.0  0.85132  0.77073  0.83333  1.0000
  C   C5590     1.0  0.83299  0.77968  0.84580  1.0000
  C   C5591     1.0  0.82686  0.80150  0.84318  1.0000
  C   C5592     1.0  0.83903  0.81437  0.82797  1.0000
  C   C5593     1.0  0.85736  0.80544  0.81541  1.0000
  H   H4467     1.0  0.84113  0.75002  0.76820  1.0000
  H   H4468     1.0  0.86914  0.74205  0.73765  1.0000
  H   H4469     1.0  0.90489  0.74682  0.73533  1.0000
  H   H4470     1.0  0.91270  0.75912  0.76336  1.0000
  H   H4471     1.0  0.84862  0.76216  0.79637  1.0000
  H   H4472     1.0  0.92579  0.77909  0.80908  1.0000
  H   H4473     1.0  0.94726  0.80545  0.79040  1.0000
  H   H4474     1.0  0.93724  0.83207  0.75959  1.0000
  H   H4475     1.0  0.90563  0.83191  0.74739  1.0000
  H   H4476     1.0  0.88452  0.80521  0.76542  1.0000
  H   H4477     1.0  0.89266  0.76654  0.84486  1.0000
  H   H4478     1.0  0.91023  0.73714  0.86887  1.0000
  H   H4479     1.0  0.92841  0.70375  0.85727  1.0000
  H   H4480     1.0  0.92933  0.70004  0.82129  1.0000
  H   H4481     1.0  0.91176  0.72920  0.79719  1.0000
  H   H4482     1.0  0.85586  0.75379  0.83552  1.0000
  H   H4483     1.0  0.82345  0.76963  0.85734  1.0000
  S   S750      1.0  0.81926  0.79759  0.51706  1.0000
  H   H4484     1.0  0.83414  0.83130  0.82571  1.0000
  H   H4485     1.0  0.86625  0.81578  0.80351  1.0000
  C   C5594     1.0  0.88586  0.68240  0.62073  1.0000
  C   C5595     1.0  0.93495  0.97194  0.51501  1.0000
  C   C5596     1.0  0.94450  0.95171  0.51176  1.0000
  C   C5597     1.0  0.93232  0.93701  0.51413  1.0000
  C   C5598     1.0  0.91059  0.94247  0.51990  1.0000
  C   C5599     1.0  0.90080  0.96282  0.52310  1.0000
  C   C5600     1.0  0.91324  0.97746  0.52061  1.0000
  C   C5601     1.0  0.85970  0.94841  0.53781  1.0000
  C   C5602     1.0  0.84755  0.94338  0.55810  1.0000
  C   C5603     1.0  0.83552  0.70262  0.49779  1.0000
  C   C5604     1.0  0.83963  0.91401  0.54908  1.0000
  C   C5605     1.0  0.85165  0.91880  0.52897  1.0000
  C   C5606     1.0  0.86172  0.93580  0.52336  1.0000
  S   S751      1.0  0.89997  0.52603  0.69599  1.0000
  C   C5607     1.0  0.88604  0.66189  0.50408  1.0000
  H   H4486     1.0  0.80379  0.94970  0.91669  1.0000
  S   S752      1.0  0.97256  0.66557  0.53595  1.0000
  H   H4487     1.0  0.90170  0.93072  0.52160  1.0000
  H   H4488     1.0  0.84568  0.95251  0.56980  1.0000
  C   C5608     1.0  0.98018  0.82730  0.59842  1.0000
  S   S753      1.0  0.97543  0.96248  0.54766  1.0000
  H   H4489     1.0  0.79812  0.58486  0.77176  1.0000
  S   S754      1.0  0.87843  0.50327  0.67145  1.0000
  C   C5609     1.0  0.86403  0.99077  0.50923  1.0000
  C   C5610     1.0  0.96455  0.60708  0.90951  1.0000
  C   C5611     1.0  0.79281  0.50635  0.55031  1.0000
  H   H4490     1.0  0.80028  0.98852  0.60254  1.0000
  H   H4491     1.0  0.83053  0.63532  0.73903  1.0000
  C   C5612     1.0  0.97477  0.70248  0.84807  1.0000
  C   C5613     1.0  0.94149  0.51311  0.76115  1.0000
  H   H4492     1.0  0.97803  0.69983  0.48958  1.0000
  C   C5614     1.0  0.79849  0.68390  0.75413  1.0000
  H   H4493     1.0  0.81104  0.85201  0.74110  1.0000
  C   C5615     1.0  0.97722  0.64941  0.92663  1.0000
  C   C5616     1.0  0.89253  0.49841  0.80491  1.0000
  C   C5617     1.0  0.99062  0.87019  0.60222  1.0000
  C   C5618     1.0  0.97518  0.65295  0.96783  1.0000
  H   H4494     1.0  0.80501  0.68901  0.76468  1.0000
  Fe  Fe374     1.0  0.83072  0.59514  0.49214  1.0000
  C   C5619     1.0  0.90254  0.61870  0.55719  1.0000
  H   H4495     1.0  0.98134  0.68783  0.89855  1.0000
  C   C5620     1.0  0.79767  0.65224  0.67573  1.0000
  H   H4496     1.0  0.88417  0.91191  0.56691  1.0000
  C   C5621     1.0  0.91212  0.86488  0.55540  1.0000
  C   C5622     1.0  0.96077  0.62895  0.90265  1.0000
  H   H4497     1.0  0.89551  0.83250  0.48968  1.0000
  H   H4498     1.0  0.87135  0.66459  0.49934  1.0000
  C   C5623     1.0  0.92982  0.60647  0.90670  1.0000
  C   C5624     1.0  0.92579  0.62829  0.90012  1.0000
  C   C5625     1.0  0.94119  0.63953  0.89811  1.0000
  S   S755      1.0  0.80134  0.80830  0.57507  1.0000
  H   H4499     1.0  0.82932  0.60113  0.96342  1.0000
  C   C5626     1.0  0.96455  0.79660  0.61024  1.0000
  C   C5627     1.0  0.94444  0.59119  0.79796  1.0000
  Fe  Fe375     1.0  0.79771  0.73958  0.83321  1.0000
  H   H4500     1.0  0.85205  0.70167  0.49167  1.0000
  H   H4501     1.0  0.80998  0.79374  0.64935  1.0000
  H   H4502     1.0  0.86390  0.98232  0.85743  1.0000
  C   C5628     1.0  0.97628  0.66396  0.65582  1.0000
  C   C5629     1.0  0.79548  0.64600  0.81509  1.0000
  C   C5630     1.0  0.82062  0.70928  0.89010  1.0000
  H   H4503     1.0  0.90718  0.65783  0.63665  1.0000
  H   H4504     1.0  0.80963  0.66155  0.55007  1.0000
  C   C5631     1.0  0.95750  0.58660  0.81240  1.0000
  H   H4505     1.0  0.81154  0.49522  0.86019  1.0000
  C   C5632     1.0  0.82683  0.82789  0.76295  1.0000
  H   H4506     1.0  0.83614  0.70243  0.64343  1.0000
  H   H4507     1.0  0.93768  0.65647  0.89331  1.0000
  P   P187      1.0  0.82391  0.63066  0.62110  1.0000
  C   C5633     1.0  0.85152  0.62143  0.61249  1.0000
  C   C5634     1.0  0.83702  0.63273  0.65680  1.0000
  C   C5635     1.0  0.83402  0.63761  0.67644  1.0000
  C   C5636     1.0  0.85970  0.60017  0.61187  1.0000
  C   C5637     1.0  0.88126  0.59256  0.60842  1.0000
  C   C5638     1.0  0.89477  0.60598  0.60620  1.0000
  C   C5639     1.0  0.88678  0.62729  0.60632  1.0000
  C   C5640     1.0  0.86524  0.63507  0.60912  1.0000
  H   H4508     1.0  0.93023  0.62491  0.50789  1.0000
  H   H4509     1.0  0.98050  0.76043  0.51611  1.0000
  H   H4510     1.0  0.85226  0.62437  0.65041  1.0000
  H   H4511     1.0  0.84686  0.63331  0.68459  1.0000
  H   H4512     1.0  0.84952  0.58935  0.61443  1.0000
  H   H4513     1.0  0.88753  0.57618  0.60757  1.0000
  H   H4514     1.0  0.91147  0.59995  0.60382  1.0000
  H   H4515     1.0  0.89737  0.63767  0.60424  1.0000
  H   H4516     1.0  0.85920  0.65147  0.60979  1.0000
  C   C5641     1.0  0.80829  0.59587  0.64576  1.0000
  H   H4517     1.0  0.81699  0.59643  0.65696  1.0000
  H   H4518     1.0  0.97483  0.65336  0.98391  1.0000
  H   H4519     1.0  0.92341  0.50178  0.85248  1.0000
  H   H4520     1.0  0.91128  0.58001  0.50294  1.0000
  C   C5642     1.0  0.96061  0.57781  0.69485  1.0000
  C   C5643     1.0  0.95041  0.58826  0.71136  1.0000
  C   C5644     1.0  0.95998  0.60244  0.71578  1.0000
  P   P188      1.0  0.92591  0.58222  0.72712  1.0000
  C   C5645     1.0  0.91256  0.60048  0.74406  1.0000
  C   C5646     1.0  0.90736  0.58545  0.71094  1.0000
  C   C5647     1.0  0.90897  0.59881  0.69106  1.0000
  C   C5648     1.0  0.89418  0.60131  0.67891  1.0000
  C   C5649     1.0  0.87745  0.59093  0.68681  1.0000
  C   C5650     1.0  0.87528  0.57845  0.70698  1.0000
  C   C5651     1.0  0.89021  0.57560  0.71894  1.0000
  C   C5652     1.0  0.90175  0.59370  0.76454  1.0000
  C   C5653     1.0  0.89018  0.60839  0.77681  1.0000
  C   C5654     1.0  0.88906  0.62988  0.76858  1.0000
  C   C5655     1.0  0.89928  0.63665  0.74803  1.0000
  C   C5656     1.0  0.91080  0.62208  0.73576  1.0000
  C   C5657     1.0  0.93174  0.55524  0.74073  1.0000
  C   C5658     1.0  0.93843  0.55012  0.75985  1.0000
  C   C5659     1.0  0.94304  0.52911  0.77013  1.0000
  C   C5660     1.0  0.79326  0.97478  0.60808  1.0000
  C   C5661     1.0  0.93554  0.51805  0.74180  1.0000
  C   C5662     1.0  0.93086  0.53901  0.73153  1.0000
  C   C5663     1.0  0.80768  0.66420  0.56576  1.0000
  C   C5664     1.0  0.88327  0.80487  0.50642  1.0000
  C   C5665     1.0  0.80656  0.49691  0.49443  1.0000
  H   H4521     1.0  0.95398  0.56615  0.69178  1.0000
  H   H4522     1.0  0.95293  0.61039  0.72869  1.0000
  H   H4523     1.0  0.92206  0.60660  0.68453  1.0000
  H   H4524     1.0  0.89631  0.61044  0.66302  1.0000
  H   H4525     1.0  0.86645  0.59206  0.67719  1.0000
  H   H4526     1.0  0.86232  0.57044  0.71321  1.0000
  H   H4527     1.0  0.88853  0.56541  0.73432  1.0000
  H   H4528     1.0  0.90173  0.57721  0.77092  1.0000
  H   H4529     1.0  0.88166  0.60317  0.79252  1.0000
  H   H4530     1.0  0.88001  0.64139  0.77790  1.0000
  H   H4531     1.0  0.89820  0.65326  0.74146  1.0000
  H   H4532     1.0  0.91819  0.62775  0.71969  1.0000
  H   H4533     1.0  0.94018  0.56228  0.76677  1.0000
  C   C5666     1.0  0.96882  0.73039  0.65518  1.0000
  C   C5667     1.0  0.97884  0.73739  0.61729  1.0000
  H   H4534     1.0  0.80677  0.58620  0.69417  1.0000
  H   H4535     1.0  0.92676  0.54248  0.71627  1.0000
  C   C5668     1.0  0.97754  0.70408  0.86746  1.0000
  H   H4536     1.0  0.80418  0.89629  0.68911  1.0000
  C   C5669     1.0  0.96164  0.79852  0.63100  1.0000
  H   H4537     1.0  0.96020  0.50512  0.83916  1.0000
  C   C5670     1.0  0.85158  0.69273  0.64156  1.0000
  Fe  Fe376     1.0  0.94793  0.68139  0.58978  1.0000
  H   H4538     1.0  0.95431  0.74262  0.60063  1.0000
  S   S756      1.0  0.95161  0.70524  0.55961  1.0000
  C   C5671     1.0  0.95813  0.73982  0.61588  1.0000
  C   C5672     1.0  0.96603  0.67063  0.63884  1.0000
  C   C5673     1.0  0.79958  0.75903  0.72296  1.0000
  H   H4539     1.0  0.96952  0.61114  0.84215  1.0000
  C   C5674     1.0  0.96033  0.59788  0.59544  1.0000
  C   C5675     1.0  0.97891  0.60678  0.70318  1.0000
  C   C5676     1.0  0.80188  0.84230  0.67288  1.0000
  C   C5677     1.0  0.80327  0.77427  0.75027  1.0000
  C   C5678     1.0  0.97016  0.58945  0.52519  1.0000
  H   H4540     1.0  0.91069  0.63648  0.89671  1.0000
  C   C5679     1.0  0.82040  0.63794  0.64616  1.0000
  C   C5680     1.0  0.80939  0.60999  0.62638  1.0000
  H   H4541     1.0  0.82736  0.63478  0.57611  1.0000
  Fe  Fe377     1.0  0.87163  0.53392  0.68196  1.0000
  Fe  Fe378     1.0  0.89567  0.52022  0.64146  1.0000
  S   S757      1.0  0.89470  0.51699  0.60920  1.0000
  C   C5681     1.0  0.92419  0.65508  0.51629  1.0000
  C   C5682     1.0  0.79280  0.70501  0.51376  1.0000
  S   S758      1.0  0.79190  0.76479  0.55139  1.0000
  C   C5683     1.0  0.83362  0.62545  0.86359  1.0000
  C   C5684     1.0  0.81586  0.72768  0.61310  1.0000
  P   P189      1.0  0.87270  0.97059  0.53070  1.0000
  C   C5685     1.0  0.97932  0.58246  0.68203  1.0000
  H   H4542     1.0  0.97393  0.66653  0.62398  1.0000
  H   H4543     1.0  0.90543  0.56719  0.85462  1.0000
  H   H4544     1.0  0.94596  0.64320  0.93865  1.0000
  H   H4545     1.0  0.91367  0.58504  0.87700  1.0000
  Fe  Fe379     1.0  0.96621  0.64486  0.56771  1.0000
  H   H4546     1.0  0.82926  0.67859  0.84892  1.0000
  C   C5686     1.0  0.89148  0.66730  0.63800  1.0000
  H   H4547     1.0  0.81440  0.49858  0.50586  1.0000
  C   C5687     1.0  0.97702  0.66702  0.88088  1.0000
  H   H4548     1.0  0.79364  0.52982  0.75353  1.0000
  H   H4549     1.0  0.95051  0.89085  0.55208  1.0000
  C   C5688     1.0  0.88031  0.97297  0.56870  1.0000
  P   P190      1.0  0.94656  0.58070  0.84010  1.0000
  C   C5689     1.0  0.81453  0.65225  0.60111  1.0000
  C   C5690     1.0  0.85253  0.97233  0.86218  1.0000
  H   H4550     1.0  0.97927  0.59850  0.91353  1.0000
  S   S759      1.0  0.95105  0.51533  0.96840  1.0000
  H   H4551     1.0  0.81242  0.65161  0.70084  1.0000
  C   C5691     1.0  0.79346  0.96251  0.59408  1.0000
  C   C5692     1.0  0.86772  0.98168  0.55373  1.0000
  C   C5693     1.0  0.95801  0.87544  0.67716  1.0000
  C   C5694     1.0  0.94597  0.86273  0.64630  1.0000
  C   C5695     1.0  0.94803  0.73316  0.65373  1.0000
  H   H4552     1.0  0.94094  0.85810  0.63441  1.0000
  H   H4553     1.0  0.96255  0.88048  0.68909  1.0000
  H   H4554     1.0  0.92673  0.73878  0.63315  1.0000
  C   C5696     1.0  0.85635  0.49676  0.82007  1.0000
  H   H4555     1.0  0.99139  0.54555  0.89219  1.0000
  H   H4556     1.0  0.88086  0.69294  0.51058  1.0000
  C   C5697     1.0  0.83500  0.66203  0.84884  1.0000
  C   C5698     1.0  0.80518  0.67989  0.89145  1.0000
  H   H4557     1.0  0.83412  0.71650  0.88582  1.0000
  H   H4558     1.0  0.79302  0.54198  0.91861  1.0000
  C   C5699     1.0  0.89474  0.88060  0.56067  1.0000
  H   H4559     1.0  0.81114  0.50205  0.57359  1.0000
  C   C5700     1.0  0.87728  0.66506  0.65712  1.0000
  H   H4560     1.0  0.86350  0.61237  0.74609  1.0000
  C   C5701     1.0  0.84919  0.60648  0.75178  1.0000
  H   H4561     1.0  0.84655  0.67653  0.67392  1.0000
  C   C5702     1.0  0.91614  0.56308  0.50574  1.0000
  C   C5703     1.0  0.80468  0.68764  0.50536  1.0000
  C   C5704     1.0  0.79780  0.66272  0.75722  1.0000
  C   C5705     1.0  0.94843  0.51876  0.84276  1.0000
  C   C5706     1.0  0.98617  0.59459  0.78369  1.0000
  C   C5707     1.0  0.80255  0.67145  0.60603  1.0000
  H   H4562     1.0  0.83835  0.57477  0.87390  1.0000
  C   C5708     1.0  0.81153  0.61220  0.75572  1.0000
  C   C5709     1.0  0.80183  0.66500  0.81225  1.0000
  C   C5710     1.0  0.85110  0.54301  0.88754  1.0000
  C   C5711     1.0  0.89149  0.67791  0.51036  1.0000
  C   C5712     1.0  0.80605  0.54449  0.53365  1.0000
  Fe  Fe380     1.0  0.91194  0.55061  0.93471  1.0000
  C   C5713     1.0  0.97929  0.52669  0.56798  1.0000
  H   H4563     1.0  0.94178  0.60253  0.76571  1.0000
  Fe  Fe381     1.0  0.95494  0.54496  0.94482  1.0000
  H   H4564     1.0  0.88779  0.86800  0.52256  1.0000
  H   H4565     1.0  0.88191  0.65369  0.67060  1.0000
  C   C5714     1.0  0.85686  0.63495  0.83047  1.0000
  C   C5715     1.0  0.92336  0.62195  0.83260  1.0000
  C   C5716     1.0  0.91231  0.53440  0.85461  1.0000
  H   H4566     1.0  0.94438  0.64648  0.97462  1.0000
  H   H4567     1.0  0.97121  0.68189  0.82993  1.0000
  P   P191      1.0  0.98021  0.64361  0.90110  1.0000
  H   H4568     1.0  0.97889  0.60560  0.75297  1.0000
  Fe  Fe382     1.0  0.81599  0.63721  0.50558  1.0000
  C   C5717     1.0  0.97316  0.86695  0.66142  1.0000
  C   C5718     1.0  0.85267  0.49863  0.76802  1.0000
  C   C5719     1.0  0.87476  0.56075  0.90471  1.0000
  C   C5720     1.0  0.87697  0.53895  0.90845  1.0000
  C   C5721     1.0  0.83031  0.61956  0.74805  1.0000
  C   C5722     1.0  0.82715  0.64664  0.86525  1.0000
  C   C5723     1.0  0.85484  0.51237  0.83089  1.0000
  H   H4569     1.0  0.84016  0.51775  0.84084  1.0000
  H   H4570     1.0  0.93445  0.62482  0.81793  1.0000
  S   S760      1.0  0.83646  0.53127  0.87734  1.0000
  S   S761      1.0  0.82564  0.56295  0.82242  1.0000
  C   C5724     1.0  0.92535  0.60219  0.84631  1.0000
  S   S762      1.0  0.98636  0.55452  0.93760  1.0000
  C   C5725     1.0  0.97074  0.54081  0.55167  1.0000
  C   C5726     1.0  0.84911  0.56480  0.88349  1.0000
  C   C5727     1.0  0.94269  0.73773  0.63412  1.0000
  S   S763      1.0  0.85519  0.58479  0.51201  1.0000
  H   H4571     1.0  0.99071  0.73839  0.60306  1.0000
  C   C5728     1.0  0.89097  0.51407  0.81583  1.0000
  C   C5729     1.0  0.95909  0.64711  0.94209  1.0000
  H   H4572     1.0  0.96415  0.89375  0.61308  1.0000
  H   H4573     1.0  0.89617  0.53289  0.86047  1.0000
  C   C5730     1.0  0.86090  0.57364  0.89209  1.0000
  C   C5731     1.0  0.97438  0.59662  0.85282  1.0000
  C   C5732     1.0  0.96720  0.86052  0.64590  1.0000
  C   C5733     1.0  0.94693  0.82352  0.50124  1.0000
  C   C5734     1.0  0.97771  0.82916  0.61930  1.0000
  H   H4574     1.0  0.86669  0.51331  0.90313  1.0000
  C   C5735     1.0  0.96472  0.81097  0.50813  1.0000
  H   H4575     1.0  0.97421  0.71608  0.83528  1.0000
  H   H4576     1.0  0.80547  0.78917  0.79831  1.0000
  C   C5736     1.0  0.83767  0.92623  0.56369  1.0000
  C   C5737     1.0  0.80582  0.51235  0.55991  1.0000
  C   C5738     1.0  0.80970  0.52859  0.66699  1.0000
  H   H4577     1.0  0.97936  0.79737  0.53481  1.0000
  C   C5739     1.0  0.80640  0.80312  0.78616  1.0000
  H   H4578     1.0  0.79880  0.91233  0.65331  1.0000
  H   H4579     1.0  0.90537  0.63239  0.56082  1.0000
  H   H4580     1.0  0.80064  0.67494  0.62123  1.0000
  H   H4581     1.0  0.79194  0.69820  0.81177  1.0000
  C   C5740     1.0  0.97740  0.89013  0.60066  1.0000
  C   C5741     1.0  0.97420  0.66557  0.86134  1.0000
  C   C5742     1.0  0.80224  0.72122  0.51408  1.0000
  H   H4582     1.0  0.93471  0.50562  0.73466  1.0000
  H   H4583     1.0  0.84058  0.53375  0.66329  1.0000
  C   C5743     1.0  0.91922  0.63954  0.50888  1.0000
  S   S764      1.0  0.97144  0.61014  0.57023  1.0000
  C   C5744     1.0  0.98997  0.59532  0.86358  1.0000
  H   H4584     1.0  0.96505  0.81622  0.65179  1.0000
  H   H4585     1.0  0.90816  0.52106  0.49166  1.0000
  C   C5745     1.0  0.85905  0.95077  0.86263  1.0000
  H   H4586     1.0  0.87549  0.94404  0.85830  1.0000
  S   S765      1.0  0.80310  0.53597  0.79004  1.0000
  H   H4587     1.0  0.96449  0.54731  0.87282  1.0000
  S   S766      1.0  0.98155  0.68318  0.74358  1.0000
  H   H4588     1.0  0.98673  0.73392  0.49448  1.0000
  H   H4589     1.0  0.84622  0.50674  0.78093  1.0000
  C   C5746     1.0  0.97301  0.59973  0.76943  1.0000
  C   C5747     1.0  0.80582  0.73482  0.67234  1.0000
  C   C5748     1.0  0.79771  0.88550  0.61626  1.0000
  H   H4590     1.0  0.79282  0.62034  0.96305  1.0000
  C   C5749     1.0  0.80445  0.75471  0.67632  1.0000
  H   H4591     1.0  0.79937  0.61803  0.59652  1.0000
  H   H4592     1.0  0.79162  0.74965  0.71808  1.0000
  C   C5750     1.0  0.80819  0.87187  0.60258  1.0000
  C   C5751     1.0  0.79291  0.53866  0.52412  1.0000
  H   H4593     1.0  0.80704  0.85985  0.57615  1.0000
  C   C5752     1.0  0.98138  0.90589  0.58292  1.0000
  H   H4594     1.0  0.79490  0.57035  0.66603  1.0000
  H   H4595     1.0  0.98908  0.58415  0.81572  1.0000
  H   H4596     1.0  0.98728  0.83806  0.58539  1.0000
  H   H4597     1.0  0.98599  0.97629  0.50223  1.0000
  H   H4598     1.0  0.98112  0.72830  0.56068  1.0000
  H   H4599     1.0  0.80152  0.84688  0.80666  1.0000
  Fe  Fe383     1.0  0.79885  0.55207  0.81719  1.0000
  P   P192      1.0  0.98655  0.84979  0.62540  1.0000
  C   C5753     1.0  0.98383  0.60879  0.49094  1.0000
  C   C5754     1.0  0.98442  0.73254  0.63692  1.0000
  H   H4600     1.0  0.98218  0.76228  0.56801  1.0000
  S   S767      1.0  0.89466  0.62302  0.49320  1.0000
  H   H4601     1.0  0.94518  0.49683  0.76906  1.0000
  C   C5755     1.0  0.79917  0.87073  0.58652  1.0000
  S   S768      1.0  0.79301  0.58199  0.86210  1.0000
  C   C5756     1.0  0.83172  0.49645  0.62497  1.0000
  Fe  Fe384     1.0  0.79642  0.79764  0.54783  1.0000
  H   H4602     1.0  0.79847  0.77656  0.76621  1.0000
  H   H4603     1.0  0.98606  0.61799  0.70642  1.0000
  C   C5757     1.0  0.98346  0.60260  0.51245  1.0000
  H   H4604     1.0  0.79829  0.49974  0.63238  1.0000
  C   C5758     1.0  0.79484  0.59778  0.70147  1.0000
  H   H4605     1.0  0.98519  0.91715  0.74544  1.0000
  H   H4606     1.0  0.98944  0.86547  0.66141  1.0000
  C   C5759     1.0  0.79331  0.76225  0.74348  1.0000
  H   H4607     1.0  0.98658  0.57484  0.66882  1.0000
  C   C5760     1.0  0.98841  0.59708  0.68610  1.0000
  H   H4608     1.0  0.94707  0.49202  0.69992  1.0000
