data_image0
_chemical_formula_structural       HCH2C3HCH4C4HCH2CHCHC2HCHC2HCHCH2C5H3C2HC2HC2H3C4HC3HFeCHC3SFeS2FeSCFeSFeS3HC2HCHC6H2CH2C2FeC4HCH5C6PC2HCPCHC7H2CH7CHCH9C2H2C6HC2HCH4C11H7CHC3HPC2H2FeHCHFeHSH5C2SHSFeH2FeS2HCSCHCFeS2FeS2C2FeS3HC3PCSC4HCH3PHC4HC5H2C6HCH4CH4CH3FeHCH4CHC3H2C3PC4H2CH2C5H2C4HFeSCHC2H3C10H3C2HCHCHC2HCH2C4HC2HC2H3CHCHCHFeCSH2CHSHFeSHFeSFeS2C5HC3HC3H4CH3CHCHC3H8C2HCHCPC3HC11HCHCFePCHCH3CH5C2HC3HC3PC3H3SC2H3C2H4CHC2HC4SHC4HCH2C4SHCH2SHC2H2CH2CHC4SCSHC5FeS2FeSHFeSFeS3CHCH5SHC2HC6H4C2HC2HPHC6SC2H6C2H5C2HC2HC2H3C6PHC4H2C5H2C3H2PH2C4HCHC3H2C2HC2H5CHCHC4HFeSHFeS2FeSFeS2C2HCH3C3HC2HCHCHCSC2SHCPC14H3C2H6CH2CHCHC4PCHC4HC8HC2H2C2HCH2CH5CH2C3HCHC3H3CHC3HC3H2C3HC2H3C2H4CH2C2H5CHC2PC2H4C2PC2H2FeS2FeSCFeSFeS3C2HCH2C2SC2HCHCH2C5H2C2HCH6CHC3HCH2C2HCHCHCHCHC5HC4HC7H5C4HC2H2CHCHSHCPC2H2C2PH3CH2C2SFeSH2FeHCFeS2FeS2FeSFeS3HCSC2HC5H2CFeH2C7H4C2HC3H3CPCHC2H3C11HC2H14CH4C5HC2HCPHC2SH3CHC3HC2H2CH2CH2C3H2CH3SC2H2CH5C2PC10H2CHC2HCHCHFeCH2C2HC2HC2HCSC2HCFeHSFeCSFeSCFeHSFeS2FeS2FeSFeHS2C2HC2HC4SC7H4C3H2CHC2H2C2HC2PC18H2C2H8C2H6CH2CHC3H6C5HC6H5SC3HCHCHCPSC2H3C3H2CHCPC2SCH4CH2CH2C2H4CSCHCHCHCHCH2C2H3C4H3CH2SCHC3H2SH3C2HCH2CHCHCH2CHCHCSH4CHC3HCHC2HCH2SCSHC3HC2HCH2C
_chemical_formula_sum              "H576 C720 Fe48 S96 P24"
_cell_length_a       43.2139
_cell_length_b       43.3524
_cell_length_c       30.8454
_cell_angle_alpha    89.4259
_cell_angle_beta     90.0031
_cell_angle_gamma    118.967

_space_group_name_H-M_alt    "P 1"
_space_group_IT_number       1

loop_
  _space_group_symop_operation_xyz
  'x, y, z'

loop_
  _atom_site_type_symbol
  _atom_site_label
  _atom_site_symmetry_multiplicity
  _atom_site_fract_x
  _atom_site_fract_y
  _atom_site_fract_z
  _atom_site_occupancy
  H   H1        1.0  0.45485  0.01289  0.29576  1.0000
  C   C1        1.0  0.47850  0.20145  0.40436  1.0000
  H   H2        1.0  0.44729  0.25603  0.37029  1.0000
  H   H3        1.0  0.45565  0.20648  0.34449  1.0000
  C   C2        1.0  0.45868  0.24424  0.39165  1.0000
  C   C3        1.0  0.46917  0.98742  0.50211  1.0000
  C   C4        1.0  0.46337  0.21634  0.37707  1.0000
  H   H4        1.0  0.43673  0.18661  0.52113  1.0000
  C   C5        1.0  0.46884  0.25709  0.43366  1.0000
  H   H5        1.0  0.46496  0.27868  0.44421  1.0000
  H   H6        1.0  0.47365  0.00393  0.43500  1.0000
  H   H7        1.0  0.47952  0.01401  0.51383  1.0000
  H   H8        1.0  0.48302  0.18038  0.39287  1.0000
  C   C6        1.0  0.47965  0.01368  0.30342  1.0000
  C   C7        1.0  0.47439  0.28141  0.53422  1.0000
  C   C8        1.0  0.48375  0.24201  0.46143  1.0000
  C   C9        1.0  0.48628  0.31638  0.52043  1.0000
  H   H9        1.0  0.44644  0.00791  0.75754  1.0000
  C   C10       1.0  0.45485  0.26087  0.81398  1.0000
  H   H10       1.0  0.43653  0.23896  0.57525  1.0000
  H   H11       1.0  0.20849  0.29771  0.87804  1.0000
  C   C11       1.0  0.45469  0.21510  0.97279  1.0000
  H   H12       1.0  0.42246  0.00435  0.59578  1.0000
  C   C12       1.0  0.47567  0.22849  0.69488  1.0000
  H   H13       1.0  0.47307  0.19152  0.92590  1.0000
  C   C13       1.0  0.47120  0.00880  0.76573  1.0000
  C   C14       1.0  0.48035  0.27321  0.91645  1.0000
  H   H14       1.0  0.44891  0.09886  0.80525  1.0000
  C   C15       1.0  0.45126  0.24454  0.98365  1.0000
  H   H15       1.0  0.43475  0.24081  0.83460  1.0000
  C   C16       1.0  0.47511  0.25766  0.67576  1.0000
  C   C17       1.0  0.47522  0.01060  0.59997  1.0000
  H   H16       1.0  0.41871  0.27647  0.78600  1.0000
  C   C18       1.0  0.42925  0.28434  0.57820  1.0000
  H   H17       1.0  0.40781  0.27232  0.60151  1.0000
  C   C19       1.0  0.44571  0.26550  0.56320  1.0000
  H   H18       1.0  0.45007  0.25651  0.66866  1.0000
  H   H19       1.0  0.45105  0.20481  0.70192  1.0000
  C   C20       1.0  0.45844  0.12591  0.81504  1.0000
  C   C21       1.0  0.45430  0.17972  0.81210  1.0000
  C   C22       1.0  0.44781  0.15997  0.57293  1.0000
  C   C23       1.0  0.44574  0.28130  0.78693  1.0000
  C   C24       1.0  0.47079  0.21461  0.93363  1.0000
  H   H20       1.0  0.44185  0.06736  0.60751  1.0000
  H   H21       1.0  0.43897  0.24505  0.01406  1.0000
  H   H22       1.0  0.44493  0.19267  0.99479  1.0000
  C   C25       1.0  0.47169  0.16255  0.60511  1.0000
  C   C26       1.0  0.45027  0.02256  0.60056  1.0000
  H   H23       1.0  0.44128  0.19370  0.79936  1.0000
  C   C27       1.0  0.46443  0.27372  0.95566  1.0000
  C   C28       1.0  0.48704  0.22083  0.55115  1.0000
  H   H24       1.0  0.42335  0.13553  0.56897  1.0000
  C   C29       1.0  0.46117  0.05826  0.60701  1.0000
  C   C30       1.0  0.47156  0.30807  0.76114  1.0000
  H   H25       1.0  0.41839  0.13161  0.78003  1.0000
  H   H26       1.0  0.46580  0.14036  0.62645  1.0000
  H   H27       1.0  0.46283  0.29707  0.96446  1.0000
  C   C31       1.0  0.45545  0.18898  0.54597  1.0000
  C   C32       1.0  0.48318  0.24347  0.90475  1.0000
  C   C33       1.0  0.44117  0.14434  0.80098  1.0000
  C   C34       1.0  0.48479  0.19690  0.83762  1.0000
  H   H28       1.0  0.16879  0.32028  0.85197  1.0000
  C   C35       1.0  0.44142  0.31920  0.56458  1.0000
  C   C36       1.0  0.09126  0.44864  0.09308  1.0000
  C   C37       1.0  0.08053  0.45105  0.13518  1.0000
  H   H29       1.0  0.01093  0.33221  0.18779  1.0000
  Fe  Fe1       1.0  0.45832  0.59945  0.08525  1.0000
  C   C38       1.0  0.40478  0.62769  0.47624  1.0000
  H   H30       1.0  0.08153  0.51470  0.08989  1.0000
  C   C39       1.0  0.10251  0.43199  0.25937  1.0000
  C   C40       1.0  0.26355  0.55195  0.51107  1.0000
  C   C41       1.0  0.40232  0.59889  0.24149  1.0000
  S   S1        1.0  0.40893  0.58824  0.12211  1.0000
  Fe  Fe2       1.0  0.13253  0.54486  0.39833  1.0000
  S   S2        1.0  0.17033  0.52509  0.38126  1.0000
  S   S3        1.0  0.07497  0.50506  0.38641  1.0000
  Fe  Fe3       1.0  0.19268  0.61664  0.42058  1.0000
  S   S4        1.0  0.23483  0.60283  0.40414  1.0000
  C   C42       1.0  0.46119  0.65328  0.43891  1.0000
  Fe  Fe4       1.0  0.20143  0.57672  0.34631  1.0000
  S   S5        1.0  0.22498  0.57650  0.28101  1.0000
  Fe  Fe5       1.0  0.20058  0.55286  0.44060  1.0000
  S   S6        1.0  0.22256  0.52640  0.48523  1.0000
  S   S7        1.0  0.16192  0.59503  0.35927  1.0000
  S   S8        1.0  0.16002  0.56818  0.46125  1.0000
  H   H31       1.0  0.38385  0.57398  0.49805  1.0000
  C   C43       1.0  0.05491  0.51005  0.09542  1.0000
  C   C44       1.0  0.13771  0.50193  0.14780  1.0000
  H   H32       1.0  0.44391  0.51825  0.08303  1.0000
  C   C45       1.0  0.43348  0.59249  0.46400  1.0000
  H   H33       1.0  0.31100  0.63963  0.40220  1.0000
  C   C46       1.0  0.20113  0.63258  0.17029  1.0000
  C   C47       1.0  0.20642  0.60381  0.16179  1.0000
  C   C48       1.0  0.21467  0.58731  0.19587  1.0000
  C   C49       1.0  0.21593  0.59838  0.23871  1.0000
  C   C50       1.0  0.21019  0.62680  0.24722  1.0000
  C   C51       1.0  0.12501  0.47314  0.07821  1.0000
  H   H34       1.0  0.20460  0.59453  0.12898  1.0000
  H   H35       1.0  0.21964  0.56564  0.18918  1.0000
  C   C52       1.0  0.04919  0.53459  0.11820  1.0000
  H   H36       1.0  0.03086  0.46144  0.06004  1.0000
  H   H37       1.0  0.38349  0.57150  0.23569  1.0000
  C   C53       1.0  0.10093  0.64878  0.12111  1.0000
  C   C54       1.0  0.01879  0.45528  0.19777  1.0000
  Fe  Fe6       1.0  0.38205  0.57592  0.05739  1.0000
  C   C55       1.0  0.00082  0.51835  0.27246  1.0000
  C   C56       1.0  0.04611  0.54335  0.42366  1.0000
  C   C57       1.0  0.04000  0.51251  0.40257  1.0000
  C   C58       1.0  0.40521  0.59580  0.48073  1.0000
  H   H38       1.0  0.07292  0.56342  0.43047  1.0000
  C   C59       1.0  0.00511  0.48659  0.39407  1.0000
  H   H39       1.0  0.19522  0.50086  0.30037  1.0000
  H   H40       1.0  0.27082  0.60207  0.48792  1.0000
  H   H41       1.0  0.28816  0.62090  0.10013  1.0000
  H   H42       1.0  0.48342  0.61868  0.43014  1.0000
  H   H43       1.0  0.17190  0.43747  0.31782  1.0000
  C   C60       1.0  0.26173  0.52303  0.20934  1.0000
  C   C61       1.0  0.27363  0.52660  0.16647  1.0000
  C   C62       1.0  0.30736  0.55349  0.15528  1.0000
  C   C63       1.0  0.32922  0.57675  0.18676  1.0000
  C   C64       1.0  0.31782  0.57296  0.23009  1.0000
  C   C65       1.0  0.28369  0.54615  0.24104  1.0000
  P   P1        1.0  0.34457  0.60616  0.26895  1.0000
  C   C66       1.0  0.33553  0.58833  0.32367  1.0000
  C   C67       1.0  0.39099  0.62207  0.25737  1.0000
  H   H44       1.0  0.37664  0.48933  0.05407  1.0000
  C   C68       1.0  0.31405  0.60836  0.52862  1.0000
  P   P2        1.0  0.00660  0.56142  0.15189  1.0000
  C   C69       1.0  0.46672  0.48356  0.07907  1.0000
  H   H45       1.0  0.00448  0.37329  0.13675  1.0000
  C   C70       1.0  0.35898  0.57942  0.34488  1.0000
  C   C71       1.0  0.35186  0.56571  0.38716  1.0000
  C   C72       1.0  0.32124  0.56057  0.40863  1.0000
  C   C73       1.0  0.29764  0.56901  0.38770  1.0000
  C   C74       1.0  0.30492  0.58328  0.34562  1.0000
  C   C75       1.0  0.03160  0.44371  0.27060  1.0000
  C   C76       1.0  0.99568  0.42853  0.28127  1.0000
  H   H46       1.0  0.00022  0.46258  0.37811  1.0000
  H   H47       1.0  0.44168  0.46038  0.07272  1.0000
  C   C77       1.0  0.30066  0.64942  0.09798  1.0000
  H   H48       1.0  0.21174  0.63566  0.28014  1.0000
  H   H49       1.0  0.23523  0.50282  0.21796  1.0000
  H   H50       1.0  0.25667  0.50892  0.14173  1.0000
  H   H51       1.0  0.31652  0.55673  0.12205  1.0000
  H   H52       1.0  0.35466  0.59836  0.17699  1.0000
  H   H53       1.0  0.27350  0.54361  0.27365  1.0000
  H   H54       1.0  0.01437  0.50667  0.29010  1.0000
  C   C78       1.0  0.43810  0.61103  0.23226  1.0000
  H   H55       1.0  0.02751  0.46719  0.16622  1.0000
  C   C79       1.0  0.33411  0.64166  0.26422  1.0000
  H   H56       1.0  0.02219  0.57183  0.45294  1.0000
  H   H57       1.0  0.38281  0.58294  0.32903  1.0000
  H   H58       1.0  0.37000  0.55885  0.40320  1.0000
  H   H59       1.0  0.31559  0.54991  0.44142  1.0000
  H   H60       1.0  0.27366  0.56437  0.40433  1.0000
  H   H61       1.0  0.28657  0.59018  0.33013  1.0000
  H   H62       1.0  0.44655  0.59329  0.21879  1.0000
  H   H63       1.0  0.25172  0.65070  0.09933  1.0000
  H   H64       1.0  0.07348  0.42787  0.07182  1.0000
  C   C80       1.0  0.31696  0.64509  0.22717  1.0000
  C   C81       1.0  0.46133  0.62114  0.44277  1.0000
  H   H65       1.0  0.11272  0.39330  0.29122  1.0000
  H   H66       1.0  0.03103  0.52668  0.21413  1.0000
  C   C82       1.0  0.06902  0.61728  0.11830  1.0000
  C   C83       1.0  0.28170  0.58870  0.50721  1.0000
  C   C84       1.0  0.05617  0.62285  0.19335  1.0000
  C   C85       1.0  0.10329  0.47848  0.16236  1.0000
  C   C86       1.0  0.20340  0.64424  0.21297  1.0000
  C   C87       1.0  0.01474  0.52938  0.12405  1.0000
  H   H67       1.0  0.30876  0.62622  0.20127  1.0000
  C   C88       1.0  0.04670  0.60356  0.15467  1.0000
  C   C89       1.0  0.01736  0.54803  0.43640  1.0000
  H   H68       1.0  0.03939  0.61330  0.22183  1.0000
  C   C90       1.0  0.46290  0.64627  0.23935  1.0000
  H   H69       1.0  0.26430  0.50657  0.53911  1.0000
  H   H70       1.0  0.06222  0.60320  0.08796  1.0000
  H   H71       1.0  0.05466  0.43153  0.14639  1.0000
  H   H72       1.0  0.07177  0.55792  0.13012  1.0000
  C   C91       1.0  0.09888  0.56712  0.28231  1.0000
  C   C92       1.0  0.11028  0.59361  0.25060  1.0000
  C   C93       1.0  0.11671  0.58667  0.20840  1.0000
  C   C94       1.0  0.11206  0.55338  0.19796  1.0000
  C   C95       1.0  0.10113  0.52677  0.22989  1.0000
  C   C96       1.0  0.09485  0.53407  0.27214  1.0000
  C   C97       1.0  0.11524  0.46798  0.25058  1.0000
  C   C98       1.0  0.14884  0.49263  0.26522  1.0000
  C   C99       1.0  0.16930  0.48154  0.28897  1.0000
  C   C100      1.0  0.15618  0.44581  0.29867  1.0000
  C   C101      1.0  0.12280  0.42100  0.28379  1.0000
  H   H73       1.0  0.09338  0.57210  0.31505  1.0000
  H   H74       1.0  0.11436  0.61952  0.25882  1.0000
  H   H75       1.0  0.12561  0.60723  0.18373  1.0000
  H   H76       1.0  0.11684  0.54879  0.16493  1.0000
  H   H77       1.0  0.08632  0.51397  0.29721  1.0000
  H   H78       1.0  0.15629  0.52228  0.16892  1.0000
  H   H79       1.0  0.15931  0.52041  0.25814  1.0000
  C   C102      1.0  0.14833  0.49956  0.10572  1.0000
  H   H80       1.0  0.05021  0.44662  0.29593  1.0000
  C   C103      1.0  0.04343  0.45690  0.22850  1.0000
  C   C104      1.0  0.01009  0.52962  0.22941  1.0000
  C   C105      1.0  0.02634  0.47978  0.07900  1.0000
  H   H81       1.0  0.07698  0.41248  0.24741  1.0000
  P   P3        1.0  0.09029  0.48211  0.21697  1.0000
  C   C106      1.0  0.46787  0.51629  0.08478  1.0000
  C   C107      1.0  0.99197  0.47388  0.08563  1.0000
  H   H82       1.0  0.33286  0.42578  0.05132  1.0000
  H   H83       1.0  0.43402  0.56789  0.46801  1.0000
  Fe  Fe7       1.0  0.42288  0.64431  0.10591  1.0000
  H   H84       1.0  0.17466  0.51832  0.09423  1.0000
  C   C108      1.0  0.27816  0.53503  0.53622  1.0000
  H   H85       1.0  0.31334  0.58616  0.04359  1.0000
  Fe  Fe8       1.0  0.18059  0.62976  0.06225  1.0000
  H   H86       1.0  0.38299  0.63001  0.48989  1.0000
  S   S9        1.0  0.14212  0.57276  0.05286  1.0000
  H   H87       1.0  0.37084  0.64700  0.40978  1.0000
  H   H88       1.0  0.47978  0.36247  0.52592  1.0000
  H   H89       1.0  0.00854  0.60826  0.08062  1.0000
  H   H90       1.0  0.32794  0.63683  0.52547  1.0000
  H   H91       1.0  0.21383  0.58756  0.53488  1.0000
  C   C109      1.0  0.99302  0.54536  0.20679  1.0000
  C   C110      1.0  0.46989  0.33519  0.53566  1.0000
  S   S10       1.0  0.32962  0.52733  0.04624  1.0000
  H   H92       1.0  0.13331  0.47166  0.04545  1.0000
  S   S11       1.0  0.39284  0.63084  0.04296  1.0000
  Fe  Fe9       1.0  0.11674  0.59050  0.00206  1.0000
  H   H93       1.0  0.45640  0.40781  0.74694  1.0000
  H   H94       1.0  0.44887  0.46108  0.74271  1.0000
  Fe  Fe10      1.0  0.17945  0.57662  0.99965  1.0000
  S   S12       1.0  0.22035  0.63269  0.01288  1.0000
  S   S13       1.0  0.18959  0.53057  0.99197  1.0000
  H   H95       1.0  0.45810  0.44575  0.99491  1.0000
  C   C111      1.0  0.35684  0.41603  0.99544  1.0000
  S   S14       1.0  0.15112  0.59009  0.94740  1.0000
  C   C112      1.0  0.32850  0.59148  0.55407  1.0000
  H   H96       1.0  0.20753  0.47606  0.99868  1.0000
  C   C113      1.0  0.25520  0.34877  0.87621  1.0000
  Fe  Fe11      1.0  0.39534  0.60214  0.63264  1.0000
  S   S15       1.0  0.45042  0.60996  0.62378  1.0000
  S   S16       1.0  0.36975  0.61750  0.57888  1.0000
  Fe  Fe12      1.0  0.39578  0.58957  0.73022  1.0000
  S   S17       1.0  0.45070  0.59710  0.72889  1.0000
  S   S18       1.0  0.36544  0.57711  0.79308  1.0000
  C   C114      1.0  0.47759  0.52874  0.94608  1.0000
  C   C115      1.0  0.45249  0.51744  0.84559  1.0000
  Fe  Fe13      1.0  0.43343  0.56356  0.66958  1.0000
  S   S19       1.0  0.43868  0.51381  0.66900  1.0000
  S   S20       1.0  0.40855  0.63751  0.69024  1.0000
  S   S21       1.0  0.37704  0.55321  0.67341  1.0000
  H   H97       1.0  0.34375  0.62854  0.91338  1.0000
  C   C116      1.0  0.40618  0.48771  0.99869  1.0000
  C   C117      1.0  0.33363  0.49529  0.86024  1.0000
  C   C118      1.0  0.21911  0.32558  0.87094  1.0000
  P   P4        1.0  0.27499  0.61827  0.77962  1.0000
  C   C119      1.0  0.43692  0.63952  0.90525  1.0000
  S   S22       1.0  0.42997  0.58170  0.02211  1.0000
  C   C120      1.0  0.42731  0.62888  0.82787  1.0000
  C   C121      1.0  0.39259  0.60243  0.83586  1.0000
  C   C122      1.0  0.37987  0.59532  0.87860  1.0000
  C   C123      1.0  0.40209  0.61341  0.91329  1.0000
  H   H98       1.0  0.20810  0.55158  0.65079  1.0000
  C   C124      1.0  0.19674  0.33830  0.85629  1.0000
  H   H99       1.0  0.35306  0.57524  0.88521  1.0000
  H   H100      1.0  0.39214  0.60735  0.94620  1.0000
  H   H101      1.0  0.15495  0.59701  0.81541  1.0000
  P   P5        1.0  0.44513  0.48571  0.92714  1.0000
  H   H102      1.0  0.37894  0.44271  0.87881  1.0000
  C   C125      1.0  0.20688  0.60642  0.79645  1.0000
  C   C126      1.0  0.46384  0.45648  0.92562  1.0000
  C   C127      1.0  0.17756  0.47626  0.85492  1.0000
  C   C128      1.0  0.23018  0.45621  0.84627  1.0000
  H   H103      1.0  0.42539  0.51525  0.00148  1.0000
  C   C129      1.0  0.29428  0.57671  0.67081  1.0000
  C   C130      1.0  0.28750  0.42854  0.76202  1.0000
  C   C131      1.0  0.35638  0.50830  0.93329  1.0000
  C   C132      1.0  0.02082  0.53457  0.99492  1.0000
  C   C133      1.0  0.02353  0.50547  0.98051  1.0000
  H   H104      1.0  0.21299  0.44594  0.77933  1.0000
  H   H105      1.0  0.04931  0.50817  0.97394  1.0000
  C   C134      1.0  0.30090  0.46877  0.87612  1.0000
  C   C135      1.0  0.28654  0.48395  0.76369  1.0000
  C   C136      1.0  0.29879  0.49099  0.72095  1.0000
  C   C137      1.0  0.30589  0.46713  0.69882  1.0000
  C   C138      1.0  0.29687  0.46123  0.92079  1.0000
  C   C139      1.0  0.29163  0.53047  0.03222  1.0000
  H   H106      1.0  0.48337  0.40569  0.99343  1.0000
  C   C140      1.0  0.36134  0.51455  0.88874  1.0000
  H   H107      1.0  0.28221  0.50327  0.78067  1.0000
  H   H108      1.0  0.30337  0.51535  0.70529  1.0000
  H   H109      1.0  0.31609  0.47302  0.66589  1.0000
  H   H110      1.0  0.27230  0.44033  0.93388  1.0000
  C   C141      1.0  0.22894  0.53165  0.00959  1.0000
  H   H111      1.0  0.27153  0.53956  0.92989  1.0000
  H   H112      1.0  0.38643  0.53511  0.87619  1.0000
  H   H113      1.0  0.25935  0.55019  0.61769  1.0000
  H   H114      1.0  0.32067  0.47621  0.98379  1.0000
  C   C142      1.0  0.23305  0.56304  0.66779  1.0000
  H   H115      1.0  0.32176  0.54152  0.57683  1.0000
  H   H116      1.0  0.21399  0.58073  0.72057  1.0000
  H   H117      1.0  0.32307  0.60362  0.72739  1.0000
  Fe  Fe14      1.0  0.44314  0.63790  0.01314  1.0000
  H   H118      1.0  0.29432  0.56316  0.79456  1.0000
  C   C143      1.0  0.47564  0.44938  0.88647  1.0000
  H   H119      1.0  0.26221  0.47498  0.01895  1.0000
  H   H120      1.0  0.37719  0.52467  0.95552  1.0000
  H   H121      1.0  0.38675  0.41396  0.94106  1.0000
  H   H122      1.0  0.15771  0.48455  0.85829  1.0000
  C   C144      1.0  0.26888  0.59422  0.72984  1.0000
  H   H123      1.0  0.29449  0.53060  0.86013  1.0000
  C   C145      1.0  0.29766  0.59233  0.71121  1.0000
  C   C146      1.0  0.28042  0.45250  0.78443  1.0000
  C   C147      1.0  0.20925  0.45480  0.81061  1.0000
  H   H124      1.0  0.33807  0.50178  0.82604  1.0000
  H   H125      1.0  0.16764  0.46439  0.78710  1.0000
  C   C148      1.0  0.46664  0.44046  0.96415  1.0000
  C   C149      1.0  0.18328  0.46504  0.81489  1.0000
  C   C150      1.0  0.30035  0.43597  0.71938  1.0000
  P   P6        1.0  0.26455  0.44396  0.83977  1.0000
  C   C151      1.0  0.28380  0.54847  0.86167  1.0000
  C   C152      1.0  0.47298  0.55823  0.93793  1.0000
  C   C153      1.0  0.22360  0.46675  0.88664  1.0000
  C   C154      1.0  0.19751  0.47684  0.89078  1.0000
  H   H126      1.0  0.30620  0.41770  0.70219  1.0000
  H   H127      1.0  0.31692  0.57647  0.65595  1.0000
  C   C155      1.0  0.24650  0.39776  0.85292  1.0000
  H   H128      1.0  0.19266  0.38352  0.83548  1.0000
  H   H129      1.0  0.28340  0.40427  0.77727  1.0000
  C   C156      1.0  0.27167  0.59166  0.82650  1.0000
  C   C157      1.0  0.28376  0.56706  0.82448  1.0000
  C   C158      1.0  0.18203  0.60430  0.62751  1.0000
  C   C159      1.0  0.47763  0.43312  0.75694  1.0000
  C   C160      1.0  0.21038  0.37424  0.84708  1.0000
  H   H130      1.0  0.23886  0.46810  0.91494  1.0000
  H   H131      1.0  0.35981  0.44836  0.80527  1.0000
  C   C161      1.0  0.32435  0.48125  0.94922  1.0000
  C   C162      1.0  0.19061  0.65215  0.80430  1.0000
  C   C163      1.0  0.38428  0.43084  0.96485  1.0000
  C   C164      1.0  0.26893  0.38471  0.86703  1.0000
  H   H132      1.0  0.29703  0.40229  0.87087  1.0000
  Fe  Fe15      1.0  0.46232  0.64264  0.68398  1.0000
  S   S23       1.0  0.05851  0.57624  0.00358  1.0000
  C   C165      1.0  0.26152  0.49957  0.01984  1.0000
  H   H133      1.0  0.45042  0.55574  0.91979  1.0000
  C   C166      1.0  0.23049  0.50018  0.00844  1.0000
  C   C167      1.0  0.35396  0.43712  0.02744  1.0000
  H   H134      1.0  0.19314  0.48582  0.92172  1.0000
  H   H135      1.0  0.25018  0.61635  0.86902  1.0000
  H   H136      1.0  0.33810  0.38812  0.99478  1.0000
  C   C168      1.0  0.26198  0.56206  0.64914  1.0000
  C   C169      1.0  0.18398  0.58574  0.59170  1.0000
  C   C170      1.0  0.25896  0.59693  0.86615  1.0000
  C   C171      1.0  0.44100  0.52093  0.80438  1.0000
  C   C172      1.0  0.99273  0.47274  0.97486  1.0000
  C   C173      1.0  0.27111  0.55374  0.90097  1.0000
  C   C174      1.0  0.40764  0.49605  0.78986  1.0000
  C   C175      1.0  0.29029  0.56219  0.03375  1.0000
  C   C176      1.0  0.25787  0.57735  0.90290  1.0000
  C   C177      1.0  0.23650  0.57936  0.70772  1.0000
  H   H137      1.0  0.16030  0.59153  0.65034  1.0000
  H   H138      1.0  0.29970  0.62576  0.96664  1.0000
  H   H139      1.0  0.24722  0.58092  0.93305  1.0000
  C   C178      1.0  0.47337  0.46303  0.75462  1.0000
  C   C179      1.0  0.47645  0.51157  0.65101  1.0000
  H   H140      1.0  0.99504  0.45031  0.96395  1.0000
  C   C180      1.0  0.44944  0.64727  0.86249  1.0000
  H   H141      1.0  0.45811  0.54283  0.78336  1.0000
  C   C181      1.0  0.21210  0.60207  0.56239  1.0000
  H   H142      1.0  0.39902  0.49883  0.75767  1.0000
  C   C182      1.0  0.40888  0.46700  0.96576  1.0000
  C   C183      1.0  0.43004  0.48979  0.87359  1.0000
  H   H143      1.0  0.25769  0.58706  0.02406  1.0000
  C   C184      1.0  0.38564  0.46763  0.81670  1.0000
  H   H144      1.0  0.16382  0.55866  0.58658  1.0000
  H   H145      1.0  0.43721  0.63532  0.79503  1.0000
  C   C185      1.0  0.37868  0.47292  0.02909  1.0000
  C   C186      1.0  0.18145  0.61657  0.80572  1.0000
  C   C187      1.0  0.34820  0.65214  0.93011  1.0000
  C   C188      1.0  0.25877  0.56270  0.02280  1.0000
  H   H146      1.0  0.45158  0.45542  0.66192  1.0000
  C   C189      1.0  0.39668  0.46454  0.85846  1.0000
  C   C190      1.0  0.47540  0.47867  0.65146  1.0000
  H   H147      1.0  0.19970  0.57882  0.79927  1.0000
  C   C191      1.0  0.24176  0.63185  0.78578  1.0000
  C   C192      1.0  0.31058  0.55472  0.55771  1.0000
  H   H148      1.0  0.47883  0.53656  0.85553  1.0000
  H   H149      1.0  0.47399  0.46146  0.85631  1.0000
  H   H150      1.0  0.33882  0.64133  0.83432  1.0000
  C   C193      1.0  0.23775  0.63723  0.56808  1.0000
  H   H151      1.0  0.42935  0.33411  0.57723  1.0000
  C   C194      1.0  0.20795  0.63940  0.63367  1.0000
  H   H152      1.0  0.25898  0.64970  0.54444  1.0000
  C   C195      1.0  0.48104  0.41776  0.96354  1.0000
  H   H153      1.0  0.27257  0.33886  0.88733  1.0000
  Fe  Fe16      1.0  0.18952  0.64624  0.96480  1.0000
  C   C196      1.0  0.32320  0.65053  0.95998  1.0000
  S   S24       1.0  0.15306  0.64777  0.01543  1.0000
  H   H154      1.0  0.20607  0.65320  0.66167  1.0000
  H   H155      1.0  0.46463  0.32367  0.73960  1.0000
  C   C197      1.0  0.35372  0.70634  0.09379  1.0000
  H   H156      1.0  0.15079  0.67696  0.34500  1.0000
  S   S25       1.0  0.41768  0.84629  0.27492  1.0000
  H   H157      1.0  0.41582  0.76791  0.24606  1.0000
  Fe  Fe17      1.0  0.44473  0.84200  0.39292  1.0000
  S   S26       1.0  0.40217  0.85582  0.37688  1.0000
  H   H158      1.0  0.22506  0.66489  0.35591  1.0000
  Fe  Fe18      1.0  0.38447  0.81173  0.32966  1.0000
  S   S27       1.0  0.32874  0.77339  0.31165  1.0000
  Fe  Fe19      1.0  0.43920  0.88959  0.32394  1.0000
  S   S28       1.0  0.44032  0.94162  0.30965  1.0000
  S   S29       1.0  0.42361  0.79458  0.35001  1.0000
  C   C198      1.0  0.18239  0.81687  0.19685  1.0000
  C   C199      1.0  0.43637  0.83573  0.50430  1.0000
  C   C200      1.0  0.40097  0.82680  0.49782  1.0000
  C   C201      1.0  0.16509  0.70031  0.32476  1.0000
  C   C202      1.0  0.20370  0.76147  0.27391  1.0000
  H   H159      1.0  0.39026  0.82233  0.46542  1.0000
  C   C203      1.0  0.15698  0.72780  0.32640  1.0000
  C   C204      1.0  0.29878  0.74522  0.35072  1.0000
  C   C205      1.0  0.27120  0.71293  0.33705  1.0000
  H   H160      1.0  0.45103  0.94395  0.40608  1.0000
  C   C206      1.0  0.24647  0.70024  0.40947  1.0000
  C   C207      1.0  0.27402  0.73268  0.42343  1.0000
  C   C208      1.0  0.30062  0.75499  0.39413  1.0000
  H   H161      1.0  0.26942  0.70528  0.30353  1.0000
  H   H162      1.0  0.27534  0.74019  0.45694  1.0000
  H   H163      1.0  0.32200  0.77989  0.40486  1.0000
  H   H164      1.0  0.40877  0.77790  0.14873  1.0000
  C   C209      1.0  0.33034  0.66091  0.42144  1.0000
  H   H165      1.0  0.30252  0.74076  0.16312  1.0000
  H   H166      1.0  0.45031  0.72423  0.08467  1.0000
  H   H167      1.0  0.39996  0.73925  0.48767  1.0000
  C   C210      1.0  0.21739  0.75782  0.17022  1.0000
  H   H168      1.0  0.35658  0.66432  0.32623  1.0000
  C   C211      1.0  0.38969  0.69291  0.45080  1.0000
  H   H169      1.0  0.36388  0.84026  0.06101  1.0000
  C   C212      1.0  0.36436  0.66523  0.42589  1.0000
  C   C213      1.0  0.21186  0.73381  0.27281  1.0000
  C   C214      1.0  0.24574  0.69012  0.36660  1.0000
  H   H170      1.0  0.34576  0.71499  0.31764  1.0000
  H   H171      1.0  0.43251  0.89320  0.45660  1.0000
  H   H172      1.0  0.19440  0.73803  0.18742  1.0000
  H   H173      1.0  0.21956  0.85205  0.29423  1.0000
  H   H174      1.0  0.35313  0.65632  0.09558  1.0000
  H   H175      1.0  0.29791  0.82782  0.10490  1.0000
  H   H176      1.0  0.20263  0.72350  0.49198  1.0000
  H   H177      1.0  0.38230  0.72106  0.09296  1.0000
  C   C215      1.0  0.41251  0.72651  0.20480  1.0000
  C   C216      1.0  0.11059  0.66727  0.15996  1.0000
  H   H178      1.0  0.20689  0.72506  0.11403  1.0000
  C   C217      1.0  0.23985  0.79051  0.18922  1.0000
  H   H179      1.0  0.16952  0.77925  0.30323  1.0000
  C   C218      1.0  0.19225  0.70323  0.29766  1.0000
  P   P7        1.0  0.22925  0.80119  0.24195  1.0000
  C   C219      1.0  0.26916  0.83031  0.27102  1.0000
  C   C220      1.0  0.20355  0.82346  0.23384  1.0000
  C   C221      1.0  0.24350  0.77206  0.51830  1.0000
  H   H180      1.0  0.13568  0.69126  0.16211  1.0000
  C   C222      1.0  0.20392  0.84702  0.26507  1.0000
  C   C223      1.0  0.25326  0.77550  0.10490  1.0000
  C   C224      1.0  0.18379  0.86405  0.25905  1.0000
  C   C225      1.0  0.28053  0.81792  0.30655  1.0000
  C   C226      1.0  0.31146  0.84068  0.32862  1.0000
  C   C227      1.0  0.33153  0.87581  0.31523  1.0000
  C   C228      1.0  0.32012  0.88854  0.28045  1.0000
  C   C229      1.0  0.28889  0.86604  0.25873  1.0000
  C   C230      1.0  0.32124  0.68405  0.44169  1.0000
  C   C231      1.0  0.34651  0.71227  0.46543  1.0000
  C   C232      1.0  0.44518  0.92464  0.51403  1.0000
  H   H181      1.0  0.47390  0.81118  0.14456  1.0000
  C   C233      1.0  0.45303  0.94808  0.44085  1.0000
  H   H182      1.0  0.46662  0.77332  0.48017  1.0000
  C   C234      1.0  0.45406  0.72153  0.50503  1.0000
  Fe  Fe20      1.0  0.45841  0.83236  0.29847  1.0000
  P   P8        1.0  0.43403  0.69901  0.45521  1.0000
  C   C235      1.0  0.46786  0.73338  0.17717  1.0000
  H   H183      1.0  0.33962  0.73071  0.48028  1.0000
  C   C236      1.0  0.29613  0.70290  0.09509  1.0000
  H   H184      1.0  0.18421  0.88222  0.28324  1.0000
  H   H185      1.0  0.29705  0.67584  0.19431  1.0000
  H   H186      1.0  0.18125  0.79853  0.17253  1.0000
  C   C237      1.0  0.38073  0.71690  0.46970  1.0000
  H   H187      1.0  0.26621  0.79063  0.31708  1.0000
  H   H188      1.0  0.32044  0.83067  0.35537  1.0000
  H   H189      1.0  0.35612  0.89307  0.33155  1.0000
  H   H190      1.0  0.33578  0.91585  0.27025  1.0000
  H   H191      1.0  0.28029  0.87654  0.23218  1.0000
  C   C238      1.0  0.17611  0.75824  0.30104  1.0000
  C   C239      1.0  0.34376  0.66665  0.29723  1.0000
  H   H192      1.0  0.19865  0.68203  0.29675  1.0000
  C   C240      1.0  0.31033  0.67344  0.22288  1.0000
  C   C241      1.0  0.36545  0.83943  0.18651  1.0000
  C   C242      1.0  0.33874  0.81843  0.21576  1.0000
  H   H193      1.0  0.48347  0.67542  0.42349  1.0000
  C   C243      1.0  0.32011  0.76838  0.16841  1.0000
  C   C244      1.0  0.34714  0.78918  0.13883  1.0000
  C   C245      1.0  0.36975  0.82491  0.14829  1.0000
  P   P9        1.0  0.35361  0.77106  0.08919  1.0000
  C   C246      1.0  0.40102  0.79089  0.08311  1.0000
  C   C247      1.0  0.32126  0.69886  0.25510  1.0000
  C   C248      1.0  0.33767  0.69535  0.29246  1.0000
  H   H194      1.0  0.38405  0.71150  0.20690  1.0000
  H   H195      1.0  0.11849  0.65854  0.09327  1.0000
  H   H196      1.0  0.25846  0.76956  0.07252  1.0000
  S   S30       1.0  0.21328  0.67147  0.44519  1.0000
  C   C249      1.0  0.45832  0.81033  0.11663  1.0000
  C   C250      1.0  0.42143  0.79138  0.11879  1.0000
  H   H197      1.0  0.40844  0.67590  0.27690  1.0000
  H   H198      1.0  0.23358  0.73589  0.25318  1.0000
  H   H199      1.0  0.29465  0.68019  0.43869  1.0000
  C   C251      1.0  0.26859  0.81589  0.16488  1.0000
  C   C252      1.0  0.43098  0.71379  0.17989  1.0000
  H   H200      1.0  0.31699  0.72129  0.25107  1.0000
  H   H201      1.0  0.38365  0.86665  0.19433  1.0000
  H   H202      1.0  0.33641  0.82928  0.24624  1.0000
  H   H203      1.0  0.23757  0.78860  0.49720  1.0000
  C   C253      1.0  0.27536  0.80830  0.12309  1.0000
  H   H204      1.0  0.39150  0.84144  0.12690  1.0000
  C   C254      1.0  0.43050  0.75847  0.22700  1.0000
  C   C255      1.0  0.22423  0.75037  0.12839  1.0000
  H   H205      1.0  0.27942  0.71515  0.09457  1.0000
  C   C256      1.0  0.33317  0.72343  0.09323  1.0000
  C   C257      1.0  0.45895  0.95870  0.53096  1.0000
  C   C258      1.0  0.16302  0.85758  0.22199  1.0000
  C   C259      1.0  0.45993  0.72451  0.40923  1.0000
  S   S31       1.0  0.19154  0.65455  0.12843  1.0000
  H   H206      1.0  0.47116  0.69676  0.26097  1.0000
  C   C260      1.0  0.31597  0.78306  0.20658  1.0000
  C   C261      1.0  0.22380  0.73540  0.51540  1.0000
  C   C262      1.0  0.46735  0.77805  0.22458  1.0000
  C   C263      1.0  0.44254  0.91947  0.46927  1.0000
  H   H207      1.0  0.28618  0.84145  0.17803  1.0000
  C   C264      1.0  0.46378  0.74177  0.33349  1.0000
  H   H208      1.0  0.29560  0.76676  0.22971  1.0000
  H   H209      1.0  0.45097  0.74047  0.30297  1.0000
  C   C265      1.0  0.47515  0.82880  0.07886  1.0000
  C   C266      1.0  0.16229  0.83396  0.19095  1.0000
  C   C267      1.0  0.44366  0.72231  0.36916  1.0000
  C   C268      1.0  0.46832  0.75828  0.50751  1.0000
  S   S32       1.0  0.40639  0.67278  0.15427  1.0000
  H   H210      1.0  0.14740  0.87077  0.21738  1.0000
  C   C269      1.0  0.46150  0.74127  0.05654  1.0000
  H   H211      1.0  0.14607  0.82883  0.16229  1.0000
  H   H212      1.0  0.13612  0.72562  0.34782  1.0000
  S   S33       1.0  0.46496  0.84207  0.46042  1.0000
  H   H213      1.0  0.41545  0.70599  0.36530  1.0000
  C   C270      1.0  0.41623  0.65730  0.26512  1.0000
  C   C271      1.0  0.37942  0.82403  0.53342  1.0000
  H   H214      1.0  0.35220  0.81755  0.52823  1.0000
  H   H215      1.0  0.48236  0.72357  0.15842  1.0000
  C   C272      1.0  0.45202  0.66929  0.25616  1.0000
  H   H216      1.0  0.19941  0.66650  0.21952  1.0000
  H   H217      1.0  0.09552  0.66894  0.22606  1.0000
  C   C273      1.0  0.43291  0.65679  0.45585  1.0000
  H   H218      1.0  0.43592  0.90193  0.53550  1.0000
  C   C274      1.0  0.28013  0.66619  0.09770  1.0000
  C   C275      1.0  0.41812  0.80910  0.04495  1.0000
  C   C276      1.0  0.33736  0.66949  0.09561  1.0000
  C   C277      1.0  0.45509  0.82816  0.04305  1.0000
  S   S34       1.0  0.47461  0.65690  0.07439  1.0000
  C   C278      1.0  0.48601  0.76543  0.19958  1.0000
  S   S35       1.0  0.48329  0.87896  0.34315  1.0000
  H   H219      1.0  0.21648  0.68556  0.53837  1.0000
  C   C279      1.0  0.08804  0.65454  0.19594  1.0000
  C   C280      1.0  0.46603  0.98197  0.45727  1.0000
  C   C281      1.0  0.33505  0.78477  0.04519  1.0000
  C   C282      1.0  0.48024  0.98206  0.31191  1.0000
  C   C283      1.0  0.38113  0.81797  0.91480  1.0000
  Fe  Fe21      1.0  0.42546  0.88427  0.75885  1.0000
  S   S36       1.0  0.36967  0.84084  0.74692  1.0000
  S   S37       1.0  0.43119  0.93725  0.77825  1.0000
  Fe  Fe22      1.0  0.45736  0.83896  0.72789  1.0000
  S   S38       1.0  0.40467  0.79317  0.71295  1.0000
  H   H220      1.0  0.47710  0.84783  0.55178  1.0000
  Fe  Fe23      1.0  0.39215  0.83342  0.68464  1.0000
  S   S39       1.0  0.36560  0.82569  0.61987  1.0000
  Fe  Fe24      1.0  0.38731  0.80442  0.77682  1.0000
  S   S40       1.0  0.35977  0.75618  0.82106  1.0000
  S   S41       1.0  0.44615  0.87875  0.69461  1.0000
  S   S42       1.0  0.44150  0.84837  0.79391  1.0000
  C   C284      1.0  0.41782  0.93887  0.61309  1.0000
  H   H221      1.0  0.37307  0.71688  0.70223  1.0000
  C   C285      1.0  0.25982  0.72891  0.57148  1.0000
  H   H222      1.0  0.41234  0.71874  0.02354  1.0000
  H   H223      1.0  0.33131  0.88657  0.58576  1.0000
  H   H224      1.0  0.32514  0.88105  0.66577  1.0000
  H   H225      1.0  0.45188  0.76691  0.69780  1.0000
  H   H226      1.0  0.35501  0.81408  0.90731  1.0000
  S   S43       1.0  0.46496  0.66277  0.94822  1.0000
  H   H227      1.0  0.29706  0.65579  0.63521  1.0000
  C   C286      1.0  0.39296  0.82938  0.57567  1.0000
  C   C287      1.0  0.42807  0.83737  0.58214  1.0000
  H   H228      1.0  0.43865  0.84103  0.61456  1.0000
  C   C288      1.0  0.25318  0.71044  0.89208  1.0000
  C   C289      1.0  0.26609  0.74237  0.86874  1.0000
  C   C290      1.0  0.29889  0.75692  0.84706  1.0000
  C   C291      1.0  0.31877  0.73939  0.84820  1.0000
  C   C292      1.0  0.30618  0.70781  0.87218  1.0000
  C   C293      1.0  0.27361  0.69348  0.89436  1.0000
  H   H229      1.0  0.25059  0.75584  0.86740  1.0000
  H   H230      1.0  0.30883  0.78165  0.82952  1.0000
  H   H231      1.0  0.32170  0.69435  0.87351  1.0000
  H   H232      1.0  0.40693  0.87412  0.90369  1.0000
  C   C294      1.0  0.45397  0.76010  0.98447  1.0000
  C   C295      1.0  0.36522  0.70078  0.73142  1.0000
  H   H233      1.0  0.23219  0.70503  0.79364  1.0000
  C   C296      1.0  0.44714  0.76994  0.85089  1.0000
  C   C297      1.0  0.35426  0.90093  0.60601  1.0000
  H   H234      1.0  0.39878  0.68440  0.90019  1.0000
  P   P10       1.0  0.26868  0.70197  0.60923  1.0000
  H   H235      1.0  0.47551  0.72790  0.92097  1.0000
  C   C298      1.0  0.26808  0.72007  0.66147  1.0000
  C   C299      1.0  0.23955  0.72549  0.67253  1.0000
  C   C300      1.0  0.24088  0.74412  0.70985  1.0000
  C   C301      1.0  0.27074  0.75756  0.73630  1.0000
  C   C302      1.0  0.29892  0.75172  0.72596  1.0000
  C   C303      1.0  0.29786  0.73345  0.68848  1.0000
  S   S44       1.0  0.21170  0.69320  0.91837  1.0000
  C   C304      1.0  0.32881  0.68075  0.98190  1.0000
  C   C305      1.0  0.41961  0.79306  0.93172  1.0000
  H   H236      1.0  0.46514  0.78404  0.78503  1.0000
  H   H237      1.0  0.43627  0.94972  0.67953  1.0000
  H   H238      1.0  0.41834  0.72268  0.75554  1.0000
  H   H239      1.0  0.47547  0.83106  0.93151  1.0000
  H   H240      1.0  0.30374  0.73265  0.01772  1.0000
  H   H241      1.0  0.44508  0.67445  0.54095  1.0000
  C   C306      1.0  0.32993  0.83140  0.00667  1.0000
  C   C307      1.0  0.47668  0.76671  0.69944  1.0000
  H   H242      1.0  0.21683  0.71638  0.65141  1.0000
  H   H243      1.0  0.21905  0.74869  0.71788  1.0000
  H   H244      1.0  0.27203  0.77241  0.76490  1.0000
  H   H245      1.0  0.32199  0.76191  0.74657  1.0000
  H   H246      1.0  0.32094  0.73111  0.68013  1.0000
  C   C308      1.0  0.37301  0.73767  0.57846  1.0000
  C   C309      1.0  0.47169  0.97727  0.77528  1.0000
  H   H247      1.0  0.29864  0.77771  0.59966  1.0000
  C   C310      1.0  0.43983  0.73851  0.02154  1.0000
  C   C311      1.0  0.37919  0.68398  0.92240  1.0000
  H   H248      1.0  0.47552  0.70622  0.60659  1.0000
  C   C312      1.0  0.35073  0.89782  0.65106  1.0000
  C   C313      1.0  0.33915  0.73429  0.58043  1.0000
  H   H249      1.0  0.27757  0.68782  0.77759  1.0000
  H   H250      1.0  0.40552  0.71430  0.59553  1.0000
  H   H251      1.0  0.29356  0.81477  0.95296  1.0000
  C   C314      1.0  0.37931  0.71165  0.59680  1.0000
  C   C315      1.0  0.27846  0.76571  0.57531  1.0000
  C   C316      1.0  0.44426  0.85624  0.91943  1.0000
  C   C317      1.0  0.47346  0.72076  0.57890  1.0000
  C   C318      1.0  0.45022  0.75465  0.88984  1.0000
  C   C319      1.0  0.31792  0.67869  0.61895  1.0000
  P   P11       1.0  0.46134  0.96491  0.58916  1.0000
  H   H252      1.0  0.36279  0.76296  0.92282  1.0000
  C   C320      1.0  0.41378  0.93631  0.65839  1.0000
  C   C321      1.0  0.31107  0.76023  0.01588  1.0000
  C   C322      1.0  0.38099  0.68286  0.79864  1.0000
  C   C323      1.0  0.35179  0.68227  0.61715  1.0000
  H   H253      1.0  0.37770  0.91354  0.71216  1.0000
  H   H254      1.0  0.31023  0.67346  0.71481  1.0000
  C   C324      1.0  0.44890  0.82708  0.92860  1.0000
  C   C325      1.0  0.35971  0.71261  0.97436  1.0000
  C   C326      1.0  0.38508  0.71456  0.94429  1.0000
  C   C327      1.0  0.47733  0.73471  0.69471  1.0000
  C   C328      1.0  0.30525  0.80658  0.97863  1.0000
  H   H255      1.0  0.45298  0.71066  0.68966  1.0000
  H   H256      1.0  0.33763  0.85905  0.00261  1.0000
  C   C329      1.0  0.38569  0.78881  0.92414  1.0000
  C   C330      1.0  0.29589  0.77108  0.98332  1.0000
  C   C331      1.0  0.41038  0.85169  0.91250  1.0000
  H   H257      1.0  0.17138  0.66027  0.81322  1.0000
  H   H258      1.0  0.42977  0.78128  0.84851  1.0000
  P   P12       1.0  0.42641  0.75511  0.93779  1.0000
  H   H259      1.0  0.27669  0.75182  0.96172  1.0000
  H   H260      1.0  0.40110  0.68514  0.82133  1.0000
  C   C332      1.0  0.48512  0.77603  0.54529  1.0000
  C   C333      1.0  0.38040  0.91587  0.67719  1.0000
  C   C334      1.0  0.38754  0.92162  0.58704  1.0000
  C   C335      1.0  0.47278  0.73989  0.89138  1.0000
  H   H261      1.0  0.36431  0.73557  0.99272  1.0000
  C   C336      1.0  0.31133  0.70476  0.60070  1.0000
  H   H262      1.0  0.30939  0.67923  0.00519  1.0000
  C   C337      1.0  0.39082  0.70400  0.76134  1.0000
  C   C338      1.0  0.32968  0.67638  0.73879  1.0000
  C   C339      1.0  0.46716  0.77146  0.81461  1.0000
  H   H263      1.0  0.39452  0.76072  0.56324  1.0000
  H   H264      1.0  0.26419  0.66923  0.91282  1.0000
  C   C340      1.0  0.25066  0.66752  0.78399  1.0000
  C   C341      1.0  0.22503  0.67748  0.79310  1.0000
  H   H265      1.0  0.38927  0.92360  0.55213  1.0000
  C   C342      1.0  0.23571  0.65625  0.60358  1.0000
  C   C343      1.0  0.34548  0.65822  0.80599  1.0000
  H   H266      1.0  0.33507  0.75500  0.56668  1.0000
  H   H267      1.0  0.40311  0.80929  0.01700  1.0000
  H   H268      1.0  0.46833  0.84272  0.01399  1.0000
  H   H269      1.0  0.46706  0.88225  0.91594  1.0000
  H   H270      1.0  0.35681  0.66235  0.63189  1.0000
  C   C344      1.0  0.44975  0.84079  0.54653  1.0000
  H   H271      1.0  0.47642  0.66721  0.85608  1.0000
  C   C345      1.0  0.31952  0.65471  0.77596  1.0000
  H   H272      1.0  0.28607  0.81562  0.55123  1.0000
  C   C346      1.0  0.27082  0.78723  0.54840  1.0000
  C   C347      1.0  0.34471  0.82057  0.03986  1.0000
  C   C348      1.0  0.45635  0.70283  0.54131  1.0000
  C   C349      1.0  0.23202  0.71385  0.54164  1.0000
  H   H273      1.0  0.72653  0.30603  0.04076  1.0000
  Fe  Fe25      1.0  0.57063  0.19767  0.27218  1.0000
  S   S45       1.0  0.60908  0.17857  0.25544  1.0000
  H   H274      1.0  0.51466  0.23870  0.15441  1.0000
  Fe  Fe26      1.0  0.58467  0.19775  0.36862  1.0000
  S   S46       1.0  0.62542  0.18041  0.35935  1.0000
  S   S47       1.0  0.56692  0.20905  0.43242  1.0000
  Fe  Fe27      1.0  0.64441  0.21847  0.30366  1.0000
  S   S48       1.0  0.70099  0.25415  0.28401  1.0000
  Fe  Fe28      1.0  0.58639  0.14162  0.31259  1.0000
  S   S49       1.0  0.58308  0.08782  0.31704  1.0000
  S   S50       1.0  0.60742  0.23982  0.31694  1.0000
  C   C350      1.0  0.54313  0.04753  0.31433  1.0000
  C   C351      1.0  0.54373  0.01592  0.32281  1.0000
  H   H275      1.0  0.56850  0.01665  0.33042  1.0000
  C   C352      1.0  0.72813  0.28582  0.32169  1.0000
  H   H276      1.0  0.70913  0.25061  0.46146  1.0000
  H   H277      1.0  0.87866  0.27036  0.13717  1.0000
  H   H278      1.0  0.75533  0.29391  0.42651  1.0000
  C   C353      1.0  0.72835  0.27670  0.36523  1.0000
  C   C354      1.0  0.51098  0.04634  0.30461  1.0000
  C   C355      1.0  0.95722  0.30906  0.21118  1.0000
  H   H279      1.0  0.71007  0.25037  0.37665  1.0000
  C   C356      1.0  0.57735  0.19197  0.47874  1.0000
  C   C357      1.0  0.82516  0.30610  0.11580  1.0000
  H   H280      1.0  0.57607  0.07099  0.20857  1.0000
  C   C358      1.0  0.60070  0.17842  0.47591  1.0000
  H   H281      1.0  0.72109  0.24575  0.07474  1.0000
  C   C359      1.0  0.63521  0.28445  0.08860  1.0000
  H   H282      1.0  0.61211  0.17776  0.44530  1.0000
  C   C360      1.0  0.55809  0.25222  0.19828  1.0000
  S   S51       1.0  0.54011  0.20905  0.22025  1.0000
  C   C361      1.0  0.53945  0.25967  0.16620  1.0000
  C   C362      1.0  0.55215  0.29439  0.15040  1.0000
  S   S52       1.0  0.54429  0.15675  0.32521  1.0000
  H   H283      1.0  0.49855  0.25511  0.06054  1.0000
  C   C363      1.0  0.69970  0.12855  0.42287  1.0000
  P   P13       1.0  0.69939  0.19148  0.14356  1.0000
  C   C364      1.0  0.66040  0.15301  0.16391  1.0000
  C   C365      1.0  0.73873  0.19347  0.16676  1.0000
  C   C366      1.0  0.74852  0.20543  0.20936  1.0000
  C   C367      1.0  0.77856  0.20654  0.22789  1.0000
  C   C368      1.0  0.79926  0.19607  0.20396  1.0000
  C   C369      1.0  0.78977  0.18421  0.16155  1.0000
  C   C370      1.0  0.75963  0.18290  0.14295  1.0000
  C   C371      1.0  0.62862  0.13888  0.14048  1.0000
  C   C372      1.0  0.59841  0.10918  0.15628  1.0000
  C   C373      1.0  0.59958  0.09361  0.19570  1.0000
  C   C374      1.0  0.63105  0.10748  0.21906  1.0000
  C   C375      1.0  0.66129  0.13711  0.20345  1.0000
  C   C376      1.0  0.69773  0.23061  0.15939  1.0000
  C   C377      1.0  0.72918  0.26278  0.16292  1.0000
  H   H284      1.0  0.60992  0.27939  0.10193  1.0000
  H   H285      1.0  0.52740  0.21832  0.06547  1.0000
  H   H286      1.0  0.95990  0.29080  0.23309  1.0000
  C   C378      1.0  0.66539  0.22925  0.16901  1.0000
  C   C379      1.0  0.70522  0.23624  0.49143  1.0000
  H   H287      1.0  0.73265  0.21358  0.22847  1.0000
  H   H288      1.0  0.78565  0.21536  0.26096  1.0000
  H   H289      1.0  0.82249  0.19688  0.21844  1.0000
  H   H290      1.0  0.80567  0.17583  0.14312  1.0000
  H   H291      1.0  0.75276  0.17356  0.11012  1.0000
  H   H292      1.0  0.62703  0.15101  0.11030  1.0000
  C   C380      1.0  0.57253  0.19252  0.06864  1.0000
  H   H293      1.0  0.68501  0.14752  0.22275  1.0000
  H   H294      1.0  0.52112  0.10903  0.51905  1.0000
  C   C381      1.0  0.53928  0.24183  0.04528  1.0000
  H   H295      1.0  0.64080  0.20488  0.16676  1.0000
  C   C382      1.0  0.52315  0.07505  0.42100  1.0000
  H   H296      1.0  0.80511  0.28786  0.20285  1.0000
  C   C383      1.0  0.66594  0.31289  0.10424  1.0000
  C   C384      1.0  0.55011  0.08158  0.50469  1.0000
  C   C385      1.0  0.55939  0.06444  0.47300  1.0000
  C   C386      1.0  0.54520  0.06080  0.43124  1.0000
  P   P14       1.0  0.59177  0.05019  0.48353  1.0000
  C   C387      1.0  0.63396  0.08193  0.46050  1.0000
  H   H297      1.0  0.69551  0.31468  0.19737  1.0000
  C   C388      1.0  0.52742  0.09512  0.49463  1.0000
  C   C389      1.0  0.52690  0.13155  0.07949  1.0000
  C   C390      1.0  0.66460  0.25947  0.18276  1.0000
  C   C391      1.0  0.69076  0.15746  0.06459  1.0000
  H   H298      1.0  0.65553  0.28788  0.38925  1.0000
  C   C392      1.0  0.66510  0.08302  0.47575  1.0000
  C   C393      1.0  0.69784  0.10638  0.45715  1.0000
  C   C394      1.0  0.52689  0.27047  0.29755  1.0000
  C   C395      1.0  0.66886  0.12757  0.40741  1.0000
  C   C396      1.0  0.63612  0.10450  0.42618  1.0000
  C   C397      1.0  0.57618  0.00803  0.45750  1.0000
  C   C398      1.0  0.67448  0.30488  0.41292  1.0000
  C   C399      1.0  0.57539  0.30990  0.34298  1.0000
  H   H299      1.0  0.72173  0.10702  0.46906  1.0000
  C   C400      1.0  0.54401  0.28795  0.51680  1.0000
  C   C401      1.0  0.67746  0.29085  0.45276  1.0000
  H   H300      1.0  0.84269  0.23075  0.07872  1.0000
  H   H301      1.0  0.56090  0.08552  0.53686  1.0000
  C   C402      1.0  0.56251  0.19228  0.51909  1.0000
  C   C403      1.0  0.60319  0.30821  0.48809  1.0000
  H   H302      1.0  0.55220  0.04801  0.40609  1.0000
  C   C404      1.0  0.85807  0.27424  0.12246  1.0000
  H   H303      1.0  0.70590  0.19267  0.45964  1.0000
  H   H304      1.0  0.61779  0.02686  0.40874  1.0000
  C   C405      1.0  0.57915  0.19523  0.11333  1.0000
  H   H305      1.0  0.53714  0.30020  0.12679  1.0000
  H   H306      1.0  0.90280  0.29053  0.22786  1.0000
  H   H307      1.0  0.59851  0.21973  0.12743  1.0000
  H   H308      1.0  0.63182  0.09549  0.24977  1.0000
  H   H309      1.0  0.61277  0.10423  0.41316  1.0000
  C   C406      1.0  0.70062  0.18968  0.08512  1.0000
  H   H310      1.0  0.50047  0.20240  0.46691  1.0000
  H   H311      1.0  0.51339  0.07319  0.38826  1.0000
  C   C407      1.0  0.56005  0.16614  0.14070  1.0000
  C   C408      1.0  0.72834  0.29285  0.17705  1.0000
  C   C409      1.0  0.71310  0.22055  0.05985  1.0000
  H   H312      1.0  0.62049  0.30611  0.46441  1.0000
  C   C410      1.0  0.70367  0.20329  0.49033  1.0000
  H   H313      1.0  0.51024  0.07053  0.29802  1.0000
  C   C411      1.0  0.59441  0.00444  0.42186  1.0000
  C   C412      1.0  0.56670  0.28569  0.48594  1.0000
  C   C413      1.0  0.59011  0.27948  0.21326  1.0000
  H   H314      1.0  0.50630  0.24410  0.28993  1.0000
  H   H315      1.0  0.51852  0.11230  0.14558  1.0000
  H   H316      1.0  0.77590  0.27182  0.27407  1.0000
  C   C414      1.0  0.75372  0.30118  0.39338  1.0000
  H   H317      1.0  0.65988  0.26318  0.45990  1.0000
  C   C415      1.0  0.70309  0.31240  0.48282  1.0000
  C   C416      1.0  0.80421  0.28914  0.27202  1.0000
  C   C417      1.0  0.83768  0.25167  0.08935  1.0000
  H   H318      1.0  0.56509  0.16836  0.17524  1.0000
  C   C418      1.0  0.82094  0.29834  0.23156  1.0000
  C   C419      1.0  0.82370  0.30285  0.30982  1.0000
  C   C420      1.0  0.51431  0.09228  0.45266  1.0000
  H   H319      1.0  0.81048  0.29629  0.34112  1.0000
  H   H320      1.0  0.78513  0.28805  0.06654  1.0000
  C   C421      1.0  0.81123  0.25644  0.06935  1.0000
  C   C422      1.0  0.80502  0.28368  0.08260  1.0000
  C   C423      1.0  0.60986  0.16602  0.51307  1.0000
  H   H321      1.0  0.68581  0.31599  0.27439  1.0000
  C   C424      1.0  0.54748  0.27625  0.33463  1.0000
  C   C425      1.0  0.70095  0.29970  0.05425  1.0000
  H   H322      1.0  0.54259  0.25442  0.35621  1.0000
  H   H323      1.0  0.68157  0.13337  0.08350  1.0000
  H   H324      1.0  0.50642  0.10698  0.06648  1.0000
  C   C426      1.0  0.52289  0.26277  0.04285  1.0000
  C   C427      1.0  0.92495  0.30914  0.20829  1.0000
  H   H325      1.0  0.67012  0.14445  0.38051  1.0000
  H   H326      1.0  0.60464  0.27422  0.23798  1.0000
  H   H327      1.0  0.49785  0.10398  0.44448  1.0000
  H   H328      1.0  0.63442  0.31929  0.30197  1.0000
  C   C428      1.0  0.75264  0.31962  0.30683  1.0000
  H   H329      1.0  0.63962  0.25812  0.19077  1.0000
  H   H330      1.0  0.72500  0.14642  0.40816  1.0000
  C   C429      1.0  0.69607  0.29124  0.18688  1.0000
  C   C430      1.0  0.53374  0.13446  0.12394  1.0000
  H   H331      1.0  0.57399  0.09828  0.13818  1.0000
  H   H332      1.0  0.62795  0.15562  0.51034  1.0000
  H   H333      1.0  0.55652  0.26645  0.46044  1.0000
  H   H334      1.0  0.75437  0.26456  0.15521  1.0000
  H   H335      1.0  0.66405  0.06554  0.50175  1.0000
  C   C431      1.0  0.63704  0.26332  0.05553  1.0000
  H   H336      1.0  0.54431  0.20259  0.52142  1.0000
  C   C432      1.0  0.60288  0.31400  0.19732  1.0000
  C   C433      1.0  0.85214  0.30185  0.13565  1.0000
  P   P15       1.0  0.49695  0.25805  0.51589  1.0000
  C   C434      1.0  0.53374  0.29850  0.26933  1.0000
  C   C435      1.0  0.54619  0.16046  0.05190  1.0000
  H   H337      1.0  0.75270  0.31736  0.18085  1.0000
  H   H338      1.0  0.79583  0.23938  0.04319  1.0000
  H   H339      1.0  0.51824  0.29385  0.24011  1.0000
  H   H340      1.0  0.59181  0.31358  0.37112  1.0000
  C   C436      1.0  0.48850  0.21410  0.44638  1.0000
  C   C437      1.0  0.69887  0.32035  0.08733  1.0000
  P   P16       1.0  0.70770  0.29433  0.53388  1.0000
  C   C438      1.0  0.70187  0.25020  0.53090  1.0000
  C   C439      1.0  0.69903  0.18408  0.52868  1.0000
  H   H341      1.0  0.69729  0.15832  0.52781  1.0000
  H   H342      1.0  0.54029  0.15787  0.01756  1.0000
  Fe  Fe29      1.0  0.58107  0.13398  0.75554  1.0000
  S   S53       1.0  0.63262  0.16497  0.71979  1.0000
  S   S54       1.0  0.57266  0.08405  0.79003  1.0000
  Fe  Fe30      1.0  0.55484  0.18436  0.72612  1.0000
  S   S55       1.0  0.60349  0.21834  0.68725  1.0000
  C   C440      1.0  0.57144  0.25232  0.02346  1.0000
  Fe  Fe31      1.0  0.59916  0.16726  0.66576  1.0000
  S   S56       1.0  0.61040  0.15391  0.59949  1.0000
  Fe  Fe32      1.0  0.63270  0.21339  0.74503  1.0000
  S   S57       1.0  0.68306  0.26387  0.76087  1.0000
  S   S58       1.0  0.54782  0.13327  0.69970  1.0000
  S   S59       1.0  0.58378  0.18243  0.78585  1.0000
  C   C441      1.0  0.70541  0.18705  0.99454  1.0000
  C   C442      1.0  0.53413  0.04318  0.78079  1.0000
  H   H343      1.0  0.55917  0.01257  0.79964  1.0000
  C   C443      1.0  0.67451  0.29456  0.56870  1.0000
  H   H344      1.0  0.55420  0.30043  0.90574  1.0000
  H   H345      1.0  0.56023  0.17980  0.58761  1.0000
  C   C444      1.0  0.50669  0.28869  0.66730  1.0000
  C   C445      1.0  0.59575  0.01393  0.60639  1.0000
  S   S60       1.0  0.74533  0.30660  0.95080  1.0000
  C   C446      1.0  0.50784  0.22965  0.70449  1.0000
  C   C447      1.0  0.53959  0.26028  0.69505  1.0000
  H   H346      1.0  0.53105  0.02654  0.60435  1.0000
  C   C448      1.0  0.54983  0.26398  0.85561  1.0000
  H   H347      1.0  0.56438  0.26102  0.70229  1.0000
  C   C449      1.0  0.72781  0.29609  0.89793  1.0000
  H   H348      1.0  0.68526  0.13124  0.00370  1.0000
  H   H349      1.0  0.63485  0.24191  0.55180  1.0000
  C   C450      1.0  0.69954  0.27587  0.81399  1.0000
  C   C451      1.0  0.68219  0.25433  0.84971  1.0000
  C   C452      1.0  0.69634  0.26436  0.89153  1.0000
  C   C453      1.0  0.56897  0.25486  0.82642  1.0000
  C   C454      1.0  0.51042  0.22342  0.58426  1.0000
  H   H350      1.0  0.65822  0.22974  0.84485  1.0000
  H   H351      1.0  0.68300  0.24734  0.91898  1.0000
  C   C455      1.0  0.50309  0.19412  0.61038  1.0000
  C   C456      1.0  0.69698  0.23062  0.56927  1.0000
  H   H352      1.0  0.63007  0.10090  0.62917  1.0000
  C   C457      1.0  0.62111  0.29564  0.61894  1.0000
  H   H353      1.0  0.58864  0.20771  0.87439  1.0000
  H   H354      1.0  0.52460  0.19028  0.87281  1.0000
  H   H355      1.0  0.61307  0.04358  0.66549  1.0000
  H   H356      1.0  0.70737  0.18622  0.95953  1.0000
  H   H357      1.0  0.58115  0.23542  0.93964  1.0000
  H   H358      1.0  0.72528  0.24309  0.99539  1.0000
  C   C458      1.0  0.55841  0.31318  0.54962  1.0000
  H   H359      1.0  0.58937  0.98908  0.62204  1.0000
  C   C459      1.0  0.58697  0.28404  0.99956  1.0000
  C   C460      1.0  0.61414  0.07833  0.56570  1.0000
  C   C461      1.0  0.57050  0.30484  0.99729  1.0000
  H   H360      1.0  0.67241  0.25683  0.01108  1.0000
  C   C462      1.0  0.56826  0.29164  0.88455  1.0000
  H   H361      1.0  0.52158  0.19607  0.63532  1.0000
  H   H362      1.0  0.62063  0.26453  0.80566  1.0000
  C   C463      1.0  0.61935  0.19009  0.98540  1.0000
  C   C464      1.0  0.60524  0.30889  0.88556  1.0000
  H   H363      1.0  0.55535  0.23492  0.80212  1.0000
  C   C465      1.0  0.51116  0.03486  0.60560  1.0000
  H   H364      1.0  0.53438  0.24786  0.58998  1.0000
  C   C466      1.0  0.59853  0.04734  0.54122  1.0000
  H   H365      1.0  0.63410  0.15644  0.95004  1.0000
  C   C467      1.0  0.59313  0.21865  0.94268  1.0000
  H   H366      1.0  0.49049  0.29616  0.89528  1.0000
  C   C468      1.0  0.53476  0.01159  0.78946  1.0000
  H   H367      1.0  0.69109  0.18254  0.59782  1.0000
  C   C469      1.0  0.75110  0.31947  0.55713  1.0000
  C   C470      1.0  0.53843  0.29418  0.01877  1.0000
  C   C471      1.0  0.52181  0.07034  0.61296  1.0000
  C   C472      1.0  0.74498  0.31787  0.86224  1.0000
  C   C473      1.0  0.53900  0.29002  0.67696  1.0000
  H   H368      1.0  0.56335  0.31398  0.67067  1.0000
  C   C474      1.0  0.60593  0.27180  0.82801  1.0000
  C   C475      1.0  0.48851  0.14264  0.84090  1.0000
  C   C476      1.0  0.73089  0.30773  0.82041  1.0000
  C   C477      1.0  0.60949  0.04467  0.63080  1.0000
  H   H369      1.0  0.61236  0.29319  0.98372  1.0000
  C   C478      1.0  0.59597  0.16727  0.55352  1.0000
  C   C479      1.0  0.61903  0.07692  0.61035  1.0000
  C   C480      1.0  0.69564  0.19776  0.56811  1.0000
  C   C481      1.0  0.50144  0.17785  0.85251  1.0000
  C   C482      1.0  0.61146  0.18006  0.90815  1.0000
  C   C483      1.0  0.60420  0.21234  0.98302  1.0000
  C   C484      1.0  0.59694  0.20264  0.90546  1.0000
  H   H370      1.0  0.61410  0.16749  0.87916  1.0000
  H   H371      1.0  0.62798  0.18483  0.01625  1.0000
  H   H372      1.0  0.54255  0.29861  0.78812  1.0000
  H   H373      1.0  0.50214  0.12843  0.85129  1.0000
  H   H374      1.0  0.60050  0.29605  0.63814  1.0000
  C   C485      1.0  0.62407  0.29862  0.85782  1.0000
  C   C486      1.0  0.61414  0.26566  0.59551  1.0000
  C   C487      1.0  0.64069  0.26513  0.57030  1.0000
  C   C488      1.0  0.71548  0.21917  0.01477  1.0000
  H   H375      1.0  0.54950  0.08875  0.61830  1.0000
  C   C489      1.0  0.50236  0.04160  0.76784  1.0000
  C   C490      1.0  0.57154  0.17956  0.55647  1.0000
  H   H376      1.0  0.58814  0.24285  0.59695  1.0000
  H   H377      1.0  0.54158  0.31512  0.57426  1.0000
  C   C491      1.0  0.62282  0.17393  0.94809  1.0000
  H   H378      1.0  0.69409  0.24062  0.60018  1.0000
  C   C492      1.0  0.67014  0.27147  0.03795  1.0000
  H   H379      1.0  0.50553  0.10984  0.61811  1.0000
  S   S61       1.0  0.50694  0.19194  0.72762  1.0000
  H   H380      1.0  0.50145  0.06570  0.76131  1.0000
  C   C493      1.0  0.69296  0.15616  0.01943  1.0000
  P   P17       1.0  0.50214  0.24253  0.85284  1.0000
  C   C494      1.0  0.51545  0.29345  0.78848  1.0000
  C   C495      1.0  0.59035  0.01516  0.56182  1.0000
  H   H381      1.0  0.65274  0.31189  0.85869  1.0000
  H   H382      1.0  0.52583  0.31050  0.01704  1.0000
  C   C496      1.0  0.48977  0.26662  0.81476  1.0000
  C   C497      1.0  0.49695  0.08216  0.61312  1.0000
  P   P18       1.0  0.59651  0.22964  0.03243  1.0000
  H   H383      1.0  0.62214  0.10367  0.55037  1.0000
  H   H384      1.0  0.58036  0.99094  0.54402  1.0000
  H   H385      1.0  0.60698  0.31477  0.73147  1.0000
  C   C498      1.0  0.50640  0.31433  0.76234  1.0000
  H   H386      1.0  0.73306  0.30623  0.62374  1.0000
  H   H387      1.0  0.66395  0.31448  0.73672  1.0000
  C   C499      1.0  0.75563  0.32005  0.60228  1.0000
  C   C500      1.0  0.72349  0.34869  0.47396  1.0000
  S   S62       1.0  0.79457  0.37698  0.12994  1.0000
  Fe  Fe33      1.0  0.57986  0.38871  0.09798  1.0000
  S   S63       1.0  0.59077  0.44484  0.10592  1.0000
  H   H388      1.0  0.78384  0.49419  0.25962  1.0000
  H   H389      1.0  0.72284  0.34213  0.09984  1.0000
  Fe  Fe34      1.0  0.54100  0.42860  0.06748  1.0000
  H   H390      1.0  0.55557  0.56622  0.10536  1.0000
  C   C501      1.0  0.95481  0.59092  0.06306  1.0000
  Fe  Fe35      1.0  0.85027  0.48002  0.33329  1.0000
  S   S64       1.0  0.88153  0.45589  0.36174  1.0000
  S   S65       1.0  0.85473  0.49993  0.26486  1.0000
  Fe  Fe36      1.0  0.81605  0.48096  0.41875  1.0000
  S   S66       1.0  0.84481  0.45794  0.45593  1.0000
  S   S67       1.0  0.77802  0.49907  0.44230  1.0000
  Fe  Fe37      1.0  0.89271  0.49396  0.41601  1.0000
  S   S68       1.0  0.94687  0.52860  0.44443  1.0000
  Fe  Fe38      1.0  0.83153  0.42161  0.39910  1.0000
  S   S69       1.0  0.81047  0.36410  0.41412  1.0000
  S   S70       1.0  0.86517  0.52077  0.38446  1.0000
  S   S71       1.0  0.79898  0.44173  0.36499  1.0000
  H   H391      1.0  0.95968  0.49447  0.11057  1.0000
  C   C502      1.0  0.86008  0.32572  0.30720  1.0000
  S   S72       1.0  0.59933  0.36628  0.15161  1.0000
  C   C503      1.0  0.89543  0.44141  0.13325  1.0000
  C   C504      1.0  0.73505  0.50545  0.33790  1.0000
  H   H392      1.0  0.94969  0.47082  0.40083  1.0000
  C   C505      1.0  0.98123  0.59014  0.08853  1.0000
  C   C506      1.0  0.71877  0.37236  0.26861  1.0000
  C   C507      1.0  0.89161  0.43256  0.17729  1.0000
  C   C508      1.0  0.98598  0.33240  0.18569  1.0000
  C   C509      1.0  0.74951  0.47626  0.48576  1.0000
  H   H393      1.0  0.74123  0.37097  0.25545  1.0000
  H   H394      1.0  0.96431  0.43975  0.18461  1.0000
  C   C510      1.0  0.68751  0.34155  0.27881  1.0000
  Fe  Fe39      1.0  0.80900  0.39498  0.06095  1.0000
  H   H395      1.0  0.77198  0.44233  0.49854  1.0000
  H   H396      1.0  0.67470  0.39375  0.17430  1.0000
  C   C511      1.0  0.92142  0.33309  0.18045  1.0000
  C   C512      1.0  0.80825  0.41103  0.16747  1.0000
  C   C513      1.0  0.82107  0.44595  0.15367  1.0000
  C   C514      1.0  0.83426  0.47316  0.18403  1.0000
  C   C515      1.0  0.83493  0.46546  0.22805  1.0000
  C   C516      1.0  0.82130  0.43049  0.24201  1.0000
  C   C517      1.0  0.80790  0.40325  0.21169  1.0000
  H   H397      1.0  0.82116  0.45202  0.11962  1.0000
  H   H398      1.0  0.84440  0.50021  0.17343  1.0000
  H   H399      1.0  0.82201  0.42453  0.27599  1.0000
  H   H400      1.0  0.79844  0.37630  0.22236  1.0000
  C   C518      1.0  0.72249  0.52191  0.26747  1.0000
  C   C519      1.0  0.71608  0.51709  0.31216  1.0000
  H   H401      1.0  0.55367  0.50859  0.09380  1.0000
  C   C520      1.0  0.69930  0.46618  0.53139  1.0000
  C   C521      1.0  0.72346  0.48502  0.49800  1.0000
  C   C522      1.0  0.74694  0.44181  0.11076  1.0000
  H   H402      1.0  0.70582  0.38803  0.10982  1.0000
  H   H403      1.0  0.89653  0.46569  0.12235  1.0000
  H   H404      1.0  0.72980  0.61849  0.16632  1.0000
  C   C523      1.0  0.52977  0.51063  0.09098  1.0000
  P   P19       1.0  0.62281  0.37967  0.32168  1.0000
  C   C524      1.0  0.62663  0.38883  0.37888  1.0000
  H   H405      1.0  0.83764  0.36721  0.52660  1.0000
  C   C525      1.0  0.69224  0.40735  0.29218  1.0000
  C   C526      1.0  0.72122  0.40520  0.27554  1.0000
  H   H406      1.0  0.73080  0.50247  0.37272  1.0000
  H   H407      1.0  0.79582  0.37058  0.32375  1.0000
  H   H408      1.0  0.65684  0.51998  0.10890  1.0000
  C   C527      1.0  0.59670  0.38368  0.40263  1.0000
  C   C528      1.0  0.59933  0.39074  0.44702  1.0000
  C   C529      1.0  0.63171  0.40259  0.46797  1.0000
  C   C530      1.0  0.66132  0.40695  0.44468  1.0000
  C   C531      1.0  0.65899  0.40053  0.40023  1.0000
  C   C532      1.0  0.62134  0.41497  0.29165  1.0000
  C   C533      1.0  0.61606  0.44076  0.31245  1.0000
  C   C534      1.0  0.61611  0.46835  0.28834  1.0000
  C   C535      1.0  0.62155  0.47044  0.24346  1.0000
  C   C536      1.0  0.62709  0.44505  0.22271  1.0000
  C   C537      1.0  0.62712  0.41757  0.24671  1.0000
  H   H409      1.0  0.69747  0.45136  0.21007  1.0000
  C   C538      1.0  0.53077  0.54322  0.09761  1.0000
  C   C539      1.0  0.97643  0.49126  0.40681  1.0000
  H   H410      1.0  0.69452  0.43304  0.29732  1.0000
  H   H411      1.0  0.74570  0.42888  0.26785  1.0000
  H   H412      1.0  0.69477  0.35141  0.37229  1.0000
  H   H413      1.0  0.76074  0.43903  0.08305  1.0000
  H   H414      1.0  0.76509  0.59178  0.19457  1.0000
  H   H415      1.0  0.57143  0.37446  0.38674  1.0000
  H   H416      1.0  0.57634  0.38697  0.46533  1.0000
  H   H417      1.0  0.63371  0.40792  0.50243  1.0000
  H   H418      1.0  0.68619  0.41533  0.46105  1.0000
  H   H419      1.0  0.68251  0.40471  0.38294  1.0000
  H   H420      1.0  0.61199  0.43986  0.34711  1.0000
  H   H421      1.0  0.62120  0.49155  0.22467  1.0000
  H   H422      1.0  0.63102  0.44629  0.18788  1.0000
  H   H423      1.0  0.63156  0.39815  0.23016  1.0000
  C   C540      1.0  0.88716  0.37596  0.16030  1.0000
  H   H424      1.0  0.93730  0.54217  0.28747  1.0000
  H   H425      1.0  0.83341  0.53466  0.50473  1.0000
  H   H426      1.0  0.88620  0.58500  0.21531  1.0000
  H   H427      1.0  0.74220  0.36630  0.49737  1.0000
  C   C541      1.0  0.71617  0.41288  0.12625  1.0000
  C   C542      1.0  0.95032  0.35609  0.15446  1.0000
  C   C543      1.0  0.91006  0.54203  0.10449  1.0000
  C   C544      1.0  0.58367  0.32173  0.16650  1.0000
  C   C545      1.0  0.75984  0.47451  0.13063  1.0000
  H   H428      1.0  0.92864  0.52132  0.15534  1.0000
  C   C546      1.0  0.77673  0.34466  0.33553  1.0000
  C   C547      1.0  0.72032  0.36265  0.43425  1.0000
  H   H429      1.0  0.96987  0.45095  0.07168  1.0000
  C   C548      1.0  0.93639  0.54124  0.13010  1.0000
  P   P20       1.0  0.87949  0.33267  0.17644  1.0000
  H   H430      1.0  0.73704  0.39046  0.42710  1.0000
  C   C549      1.0  0.71163  0.44892  0.18260  1.0000
  C   C550      1.0  0.69866  0.41627  0.16242  1.0000
  S   S73       1.0  0.49436  0.43839  0.07760  1.0000
  H   H431      1.0  0.77453  0.48898  0.33890  1.0000
  H   H432      1.0  0.69668  0.52276  0.32697  1.0000
  H   H433      1.0  0.98698  0.41933  0.31416  1.0000
  C   C551      1.0  0.66049  0.37651  0.30179  1.0000
  H   H434      1.0  0.61170  0.48801  0.30441  1.0000
  C   C552      1.0  0.87704  0.33455  0.26678  1.0000
  C   C553      1.0  0.89275  0.38592  0.11630  1.0000
  C   C554      1.0  0.97230  0.56522  0.12229  1.0000
  H   H435      1.0  0.95506  0.56441  0.21287  1.0000
  C   C555      1.0  0.74209  0.47841  0.16653  1.0000
  C   C556      1.0  0.97438  0.52260  0.29314  1.0000
  H   H436      1.0  0.56760  0.35293  0.25379  1.0000
  H   H437      1.0  0.77830  0.33425  0.49524  1.0000
  C   C557      1.0  0.65838  0.34356  0.29501  1.0000
  H   H438      1.0  0.94382  0.41642  0.25910  1.0000
  H   H439      1.0  0.88250  0.52302  0.11011  1.0000
  C   C558      1.0  0.72156  0.59104  0.16005  1.0000
  H   H440      1.0  0.72161  0.50606  0.48111  1.0000
  H   H441      1.0  0.70735  0.53093  0.24844  1.0000
  C   C559      1.0  0.75969  0.49769  0.31876  1.0000
  C   C560      1.0  0.75184  0.44908  0.50763  1.0000
  C   C561      1.0  0.74155  0.57589  0.17578  1.0000
  H   H442      1.0  0.67548  0.58250  0.12366  1.0000
  H   H443      1.0  0.78987  0.55898  0.11025  1.0000
  C   C562      1.0  0.89681  0.41848  0.10292  1.0000
  H   H444      1.0  0.89312  0.36823  0.09197  1.0000
  H   H445      1.0  0.64562  0.35048  0.52282  1.0000
  H   H446      1.0  0.82492  0.54912  0.23843  1.0000
  S   S74       1.0  0.52781  0.37143  0.06443  1.0000
  C   C563      1.0  0.69628  0.34066  0.40346  1.0000
  C   C564      1.0  0.88680  0.39965  0.19081  1.0000
  H   H447      1.0  0.85204  0.59627  0.08802  1.0000
  H   H448      1.0  0.88911  0.53256  0.51625  1.0000
  C   C565      1.0  0.69093  0.57081  0.13617  1.0000
  H   H449      1.0  0.69174  0.49295  0.13574  1.0000
  H   H450      1.0  0.94826  0.37431  0.13200  1.0000
  H   H451      1.0  0.78347  0.49643  0.11742  1.0000
  H   H452      1.0  0.89062  0.45050  0.20079  1.0000
  H   H453      1.0  0.88185  0.39270  0.22480  1.0000
  C   C566      1.0  0.74798  0.51502  0.24808  1.0000
  C   C567      1.0  0.76546  0.50151  0.27394  1.0000
  P   P21       1.0  0.75646  0.52109  0.19021  1.0000
  C   C568      1.0  0.73105  0.54035  0.16763  1.0000
  C   C569      1.0  0.80231  0.55063  0.17596  1.0000
  C   C570      1.0  0.82994  0.55882  0.20547  1.0000
  C   C571      1.0  0.86517  0.57969  0.19247  1.0000
  C   C572      1.0  0.87319  0.59316  0.15019  1.0000
  C   C573      1.0  0.84592  0.58591  0.12088  1.0000
  C   C574      1.0  0.81067  0.56488  0.13370  1.0000
  C   C575      1.0  0.70034  0.52023  0.14334  1.0000
  C   C576      1.0  0.68033  0.53547  0.12796  1.0000
  C   C577      1.0  0.58317  0.33801  0.31400  1.0000
  H   H454      1.0  0.90031  0.42561  0.06881  1.0000
  H   H455      1.0  0.50868  0.32934  0.49858  1.0000
  C   C578      1.0  0.85754  0.32093  0.22861  1.0000
  H   H456      1.0  0.62727  0.33502  0.20989  1.0000
  C   C579      1.0  0.78100  0.33587  0.53013  1.0000
  C   C580      1.0  0.95767  0.53872  0.27116  1.0000
  H   H457      1.0  0.90054  0.60912  0.14017  1.0000
  C   C581      1.0  0.91926  0.56676  0.07086  1.0000
  H   H458      1.0  0.96714  0.51393  0.32647  1.0000
  C   C582      1.0  0.96742  0.55072  0.22848  1.0000
  H   H459      1.0  0.82007  0.32721  0.12544  1.0000
  Fe  Fe40      1.0  0.61803  0.45412  0.04128  1.0000
  C   C583      1.0  0.61729  0.33314  0.52093  1.0000
  H   H460      1.0  0.66407  0.32885  0.12985  1.0000
  H   H461      1.0  0.90525  0.35226  0.26532  1.0000
  C   C584      1.0  0.77766  0.33520  0.37875  1.0000
  C   C585      1.0  0.97135  0.42683  0.25024  1.0000
  H   H462      1.0  0.87494  0.33689  0.33660  1.0000
  C   C586      1.0  0.49760  0.48053  0.08239  1.0000
  C   C587      1.0  0.98243  0.52207  0.42790  1.0000
  H   H463      1.0  0.75365  0.32603  0.27275  1.0000
  C   C588      1.0  0.56193  0.33212  0.27727  1.0000
  C   C589      1.0  0.98290  0.44004  0.20840  1.0000
  H   H464      1.0  0.89886  0.56679  0.05042  1.0000
  C   C590      1.0  0.49984  0.54618  0.09459  1.0000
  S   S75       1.0  0.50197  0.58726  0.10499  1.0000
  C   C591      1.0  0.98624  0.49870  0.10768  1.0000
  C   C592      1.0  0.98243  0.35570  0.15714  1.0000
  H   H465      1.0  0.67891  0.47266  0.54020  1.0000
  C   C593      1.0  0.84046  0.53039  0.53712  1.0000
  Fe  Fe41      1.0  0.80855  0.43860  0.98457  1.0000
  H   H466      1.0  0.60566  0.35503  0.57698  1.0000
  S   S76       1.0  0.80125  0.48461  0.96340  1.0000
  Fe  Fe42      1.0  0.86485  0.41615  0.99007  1.0000
  C   C594      1.0  0.50624  0.53276  0.97156  1.0000
  S   S77       1.0  0.92121  0.42664  0.97845  1.0000
  Fe  Fe43      1.0  0.78676  0.36111  0.97230  1.0000
  S   S78       1.0  0.82615  0.41052  0.93759  1.0000
  C   C595      1.0  0.53319  0.49906  0.78112  1.0000
  Fe  Fe44      1.0  0.55974  0.38791  0.00272  1.0000
  H   H467      1.0  0.67832  0.63591  0.73216  1.0000
  S   S79       1.0  0.54292  0.35862  0.93974  1.0000
  Fe  Fe45      1.0  0.60353  0.43607  0.71037  1.0000
  S   S80       1.0  0.55028  0.42364  0.68508  1.0000
  S   S81       1.0  0.62216  0.45599  0.77770  1.0000
  Fe  Fe46      1.0  0.62889  0.42409  0.62239  1.0000
  S   S82       1.0  0.57762  0.41133  0.58974  1.0000
  S   S83       1.0  0.67193  0.41439  0.59492  1.0000
  Fe  Fe47      1.0  0.58015  0.45675  0.62776  1.0000
  S   S84       1.0  0.57150  0.50115  0.60232  1.0000
  Fe  Fe48      1.0  0.55246  0.37946  0.65010  1.0000
  H   H468      1.0  0.65887  0.34923  0.63282  1.0000
  S   S85       1.0  0.63393  0.47218  0.65526  1.0000
  S   S86       1.0  0.60326  0.38916  0.68046  1.0000
  C   C596      1.0  0.53529  0.50506  0.62280  1.0000
  C   C597      1.0  0.53634  0.53799  0.62198  1.0000
  H   H469      1.0  0.50980  0.51044  0.98008  1.0000
  C   C598      1.0  0.59482  0.33581  0.55140  1.0000
  C   C599      1.0  0.72793  0.43051  0.54129  1.0000
  H   H470      1.0  0.80375  0.57964  0.68785  1.0000
  C   C600      1.0  0.81481  0.35422  0.54794  1.0000
  C   C601      1.0  0.98708  0.53070  0.00297  1.0000
  C   C602      1.0  0.53729  0.46887  0.78341  1.0000
  C   C603      1.0  0.65431  0.32555  0.61620  1.0000
  S   S87       1.0  0.66989  0.50164  0.02351  1.0000
  C   C604      1.0  0.73496  0.52345  0.98774  1.0000
  C   C605      1.0  0.56476  0.38579  0.89467  1.0000
  C   C606      1.0  0.59545  0.41810  0.90017  1.0000
  C   C607      1.0  0.61262  0.43956  0.86403  1.0000
  C   C608      1.0  0.59911  0.42900  0.82228  1.0000
  C   C609      1.0  0.56830  0.39682  0.81672  1.0000
  C   C610      1.0  0.55124  0.37515  0.85287  1.0000
  H   H471      1.0  0.60628  0.42647  0.93219  1.0000
  H   H472      1.0  0.63670  0.46424  0.86842  1.0000
  H   H473      1.0  0.55781  0.38868  0.78455  1.0000
  H   H474      1.0  0.52738  0.35032  0.84852  1.0000
  C   C611      1.0  0.95902  0.46879  0.98360  1.0000
  C   C612      1.0  0.95633  0.49798  0.99759  1.0000
  C   C613      1.0  0.88074  0.52319  0.58518  1.0000
  H   H475      1.0  0.50350  0.44994  0.63839  1.0000
  H   H476      1.0  0.86834  0.56363  0.81920  1.0000
  C   C614      1.0  0.76458  0.48815  0.98231  1.0000
  H   H477      1.0  0.80673  0.45105  0.63733  1.0000
  C   C615      1.0  0.76399  0.51971  0.97455  1.0000
  C   C616      1.0  0.68787  0.35971  0.77841  1.0000
  H   H478      1.0  0.52861  0.62205  0.73995  1.0000
  H   H479      1.0  0.81533  0.43126  0.73767  1.0000
  C   C617      1.0  0.52520  0.59489  0.97990  1.0000
  C   C618      1.0  0.62049  0.53701  0.84899  1.0000
  H   H480      1.0  0.70627  0.34897  0.58793  1.0000
  C   C619      1.0  0.68374  0.38629  0.79884  1.0000
  C   C620      1.0  0.65079  0.38521  0.79706  1.0000
  P   P22       1.0  0.71765  0.41821  0.83322  1.0000
  C   C621      1.0  0.70313  0.40101  0.88705  1.0000
  C   C622      1.0  0.76199  0.42639  0.82201  1.0000
  C   C623      1.0  0.78776  0.44049  0.85440  1.0000
  C   C624      1.0  0.82325  0.45150  0.84468  1.0000
  C   C625      1.0  0.83314  0.44771  0.80282  1.0000
  C   C626      1.0  0.80765  0.43371  0.77034  1.0000
  C   C627      1.0  0.77234  0.42363  0.77978  1.0000
  C   C628      1.0  0.68004  0.40950  0.90928  1.0000
  C   C629      1.0  0.66641  0.39423  0.94962  1.0000
  C   C630      1.0  0.67517  0.36991  0.96800  1.0000
  C   C631      1.0  0.69729  0.36047  0.94538  1.0000
  C   C632      1.0  0.71149  0.37617  0.90513  1.0000
  C   C633      1.0  0.72068  0.46110  0.82806  1.0000
  C   C634      1.0  0.70883  0.47073  0.79060  1.0000
  C   C635      1.0  0.71186  0.50427  0.78689  1.0000
  C   C636      1.0  0.72675  0.52839  0.82050  1.0000
  C   C637      1.0  0.73905  0.51916  0.85765  1.0000
  C   C638      1.0  0.73628  0.48574  0.86131  1.0000
  H   H481      1.0  0.50446  0.39379  0.92431  1.0000
  H   H482      1.0  0.69721  0.52201  0.59514  1.0000
  C   C639      1.0  0.70147  0.43881  0.55299  1.0000
  C   C640      1.0  0.50715  0.54135  0.63648  1.0000
  H   H483      1.0  0.64633  0.40413  0.81473  1.0000
  H   H484      1.0  0.78060  0.44383  0.88696  1.0000
  H   H485      1.0  0.84313  0.46324  0.86967  1.0000
  H   H486      1.0  0.86062  0.45596  0.79557  1.0000
  H   H487      1.0  0.70366  0.34118  0.95917  1.0000
  H   H488      1.0  0.75339  0.41455  0.75395  1.0000
  H   H489      1.0  0.67224  0.42777  0.89549  1.0000
  H   H490      1.0  0.64911  0.40155  0.96631  1.0000
  C   C641      1.0  0.63107  0.59380  0.76083  1.0000
  C   C642      1.0  0.54044  0.61155  0.84700  1.0000
  H   H491      1.0  0.72864  0.36871  0.88800  1.0000
  H   H492      1.0  0.69657  0.45227  0.76455  1.0000
  H   H493      1.0  0.70151  0.51104  0.75848  1.0000
  H   H494      1.0  0.72834  0.55406  0.81795  1.0000
  H   H495      1.0  0.75040  0.53769  0.88392  1.0000
  H   H496      1.0  0.74597  0.47900  0.89033  1.0000
  C   C643      1.0  0.66049  0.33451  0.75329  1.0000
  H   H497      1.0  0.62022  0.50919  0.95268  1.0000
  H   H498      1.0  0.90495  0.52190  0.58992  1.0000
  C   C644      1.0  0.78049  0.56661  0.66779  1.0000
  H   H499      1.0  0.84543  0.36915  0.60659  1.0000
  C   C645      1.0  0.72539  0.39135  0.67412  1.0000
  C   C646      1.0  0.71270  0.41416  0.68634  1.0000
  C   C647      1.0  0.73413  0.45061  0.68147  1.0000
  H   H500      1.0  0.80781  0.51257  0.81878  1.0000
  H   H501      1.0  0.77686  0.48983  0.74979  1.0000
  H   H502      1.0  0.70906  0.36315  0.67847  1.0000
  H   H503      1.0  0.68602  0.40361  0.69896  1.0000
  H   H504      1.0  0.72378  0.46782  0.69106  1.0000
  H   H505      1.0  0.78604  0.54135  0.95810  1.0000
  C   C648      1.0  0.72043  0.53448  0.61553  1.0000
  C   C649      1.0  0.80341  0.51187  0.74912  1.0000
  C   C650      1.0  0.82080  0.52485  0.78842  1.0000
  C   C651      1.0  0.76016  0.58326  0.66007  1.0000
  C   C652      1.0  0.78957  0.33788  0.62005  1.0000
  H   H506      1.0  0.49754  0.51870  0.76205  1.0000
  C   C653      1.0  0.85488  0.55372  0.78866  1.0000
  C   C654      1.0  0.75924  0.40493  0.65638  1.0000
  C   C655      1.0  0.55199  0.58651  0.84393  1.0000
  C   C656      1.0  0.76836  0.46453  0.66390  1.0000
  C   C657      1.0  0.73014  0.56719  0.63392  1.0000
  C   C658      1.0  0.60240  0.53970  0.71984  1.0000
  H   H507      1.0  0.71189  0.35804  0.78209  1.0000
  H   H508      1.0  0.50823  0.56681  0.63580  1.0000
  H   H509      1.0  0.72993  0.40960  0.55824  1.0000
  H   H510      1.0  0.93062  0.49539  0.00437  1.0000
  H   H511      1.0  0.55933  0.57802  0.87333  1.0000
  S   S88       1.0  0.82684  0.36397  0.02065  1.0000
  C   C659      1.0  0.82014  0.52742  0.70962  1.0000
  C   C660      1.0  0.78067  0.44131  0.65126  1.0000
  C   C661      1.0  0.77072  0.53359  0.64955  1.0000
  H   H512      1.0  0.54814  0.57742  0.73392  1.0000
  C   C662      1.0  0.61066  0.51579  0.92338  1.0000
  H   H513      1.0  0.76777  0.60871  0.67418  1.0000
  C   C663      1.0  0.70606  0.49563  0.00869  1.0000
  H   H514      1.0  0.58288  0.32958  0.97939  1.0000
  C   C664      1.0  0.87137  0.57001  0.74959  1.0000
  P   P23       1.0  0.79668  0.51171  0.65913  1.0000
  S   S89       1.0  0.56947  0.44334  0.00364  1.0000
  C   C665      1.0  0.85393  0.55720  0.71022  1.0000
  C   C666      1.0  0.74057  0.51774  0.62341  1.0000
  H   H515      1.0  0.86675  0.57073  0.68036  1.0000
  H   H516      1.0  0.79293  0.33791  0.65488  1.0000
  H   H517      1.0  0.73593  0.43576  0.00945  1.0000
  C   C667      1.0  0.53475  0.61181  0.76903  1.0000
  C   C668      1.0  0.57619  0.51074  0.92164  1.0000
  C   C669      1.0  0.70679  0.46415  0.01722  1.0000
  H   H518      1.0  0.76886  0.38724  0.64639  1.0000
  H   H519      1.0  0.56198  0.47071  0.79430  1.0000
  C   C670      1.0  0.50483  0.47549  0.63813  1.0000
  H   H520      1.0  0.73269  0.49238  0.60916  1.0000
  C   C671      1.0  0.65616  0.58955  0.69249  1.0000
  P   P24       1.0  0.56916  0.54106  0.79742  1.0000
  C   C672      1.0  0.85829  0.51844  0.62032  1.0000
  C   C673      1.0  0.81788  0.52557  0.57209  1.0000
  S   S90       1.0  0.61015  0.39954  0.03580  1.0000
  C   C674      1.0  0.63271  0.52879  0.88704  1.0000
  H   H521      1.0  0.76947  0.34215  0.86675  1.0000
  H   H522      1.0  0.55976  0.56097  0.60996  1.0000
  H   H523      1.0  0.63206  0.60926  0.78871  1.0000
  H   H524      1.0  0.54283  0.62013  0.99424  1.0000
  C   C675      1.0  0.82675  0.51988  0.61414  1.0000
  H   H525      1.0  0.86529  0.51301  0.65210  1.0000
  H   H526      1.0  0.53708  0.51468  0.88269  1.0000
  C   C676      1.0  0.54600  0.58663  0.76580  1.0000
  H   H527      1.0  0.55889  0.49993  0.94960  1.0000
  H   H528      1.0  0.67609  0.60143  0.66733  1.0000
  C   C677      1.0  0.68095  0.32524  0.59079  1.0000
  C   C678      1.0  0.53002  0.56577  0.98811  1.0000
  H   H529      1.0  0.98475  0.55313  0.01360  1.0000
  H   H530      1.0  0.63767  0.54576  0.82084  1.0000
  H   H531      1.0  0.55147  0.56852  0.00879  1.0000
  H   H532      1.0  0.73474  0.54793  0.98134  1.0000
  C   C679      1.0  0.53158  0.62398  0.80963  1.0000
  S   S91       1.0  0.76648  0.38897  0.01524  1.0000
  C   C680      1.0  0.58616  0.53284  0.84728  1.0000
  H   H533      1.0  0.79335  0.52580  0.56582  1.0000
  C   C681      1.0  0.55420  0.57330  0.80325  1.0000
  H   H534      1.0  0.74468  0.32433  0.79283  1.0000
  C   C682      1.0  0.60339  0.55910  0.75649  1.0000
  H   H535      1.0  0.53865  0.62166  0.87833  1.0000
  C   C683      1.0  0.50121  0.49595  0.76588  1.0000
  H   H536      1.0  0.61927  0.33059  0.90745  1.0000
  C   C684      1.0  0.81913  0.35529  0.59290  1.0000
  H   H537      1.0  0.62777  0.54009  0.65962  1.0000
  H   H538      1.0  0.65908  0.53175  0.88817  1.0000
  C   C685      1.0  0.62827  0.33453  0.75037  1.0000
  C   C686      1.0  0.56393  0.51909  0.88371  1.0000
  H   H539      1.0  0.66484  0.35843  0.99965  1.0000
  H   H540      1.0  0.58115  0.51308  0.71510  1.0000
  H   H541      1.0  0.59794  0.35898  0.77176  1.0000
  C   C687      1.0  0.62321  0.35947  0.77293  1.0000
  C   C688      1.0  0.73593  0.46033  0.00374  1.0000
  C   C689      1.0  0.62885  0.55495  0.68811  1.0000
  C   C690      1.0  0.49685  0.59116  0.95457  1.0000
  H   H542      1.0  0.51317  0.41300  0.77267  1.0000
  H   H543      1.0  0.52626  0.33485  0.74192  1.0000
  H   H544      1.0  0.89760  0.59275  0.74985  1.0000
  C   C691      1.0  0.65734  0.60896  0.72892  1.0000
  H   H545      1.0  0.71444  0.58006  0.62767  1.0000
  H   H546      1.0  0.49273  0.61365  0.94896  1.0000
  S   S92       1.0  0.84987  0.44753  0.03455  1.0000
  C   C692      1.0  0.50963  0.43608  0.77120  1.0000
  H   H547      1.0  0.96204  0.60966  0.03640  1.0000
  C   C693      1.0  0.87184  0.52919  0.54360  1.0000
  C   C694      1.0  0.49298  0.41107  0.92463  1.0000
  C   C695      1.0  0.49036  0.42686  0.88621  1.0000
  H   H548      1.0  0.50008  0.42165  0.85646  1.0000
  H   H549      1.0  0.52260  0.64337  0.81199  1.0000
  S   S93       1.0  0.50437  0.32569  0.64706  1.0000
  H   H550      1.0  0.68511  0.44284  0.03434  1.0000
  H   H551      1.0  0.51319  0.95918  0.32856  1.0000
  H   H552      1.0  0.51455  0.78046  0.19767  1.0000
  C   C696      1.0  0.49672  0.74603  0.41282  1.0000
  C   C697      1.0  0.53336  0.94564  0.45309  1.0000
  H   H553      1.0  0.50377  0.84356  0.07742  1.0000
  C   C698      1.0  0.51240  0.98331  0.32185  1.0000
  H   H554      1.0  0.54293  0.91655  0.40372  1.0000
  H   H555      1.0  0.54496  0.78272  0.38012  1.0000
  C   C699      1.0  0.51672  0.76565  0.37705  1.0000
  H   H556      1.0  0.51431  0.76700  0.08199  1.0000
  C   C700      1.0  0.49760  0.76530  0.05491  1.0000
  H   H557      1.0  0.50997  0.74777  0.44324  1.0000
  C   C701      1.0  0.55204  0.94215  0.41831  1.0000
  H   H558      1.0  0.51553  0.77922  0.30978  1.0000
  H   H559      1.0  0.50985  0.92266  0.46521  1.0000
  C   C702      1.0  0.50022  0.76361  0.33741  1.0000
  H   H560      1.0  0.59630  0.96889  0.37479  1.0000
  C   C703      1.0  0.58229  0.97159  0.40235  1.0000
  H   H561      1.0  0.53020  0.98085  0.49897  1.0000
  C   C704      1.0  0.54502  0.97856  0.47214  1.0000
  S   S94       1.0  0.49049  0.81829  0.25234  1.0000
  H   H562      1.0  0.49048  0.65581  0.23125  1.0000
  H   H563      1.0  0.54766  0.91855  0.67795  1.0000
  H   H564      1.0  0.49817  0.98352  0.67302  1.0000
  H   H565      1.0  0.52646  0.89727  0.60395  1.0000
  C   C705      1.0  0.50951  0.73418  0.69615  1.0000
  H   H566      1.0  0.50521  0.75801  0.78827  1.0000
  C   C706      1.0  0.53307  0.92895  0.65998  1.0000
  C   C707      1.0  0.52098  0.91686  0.61828  1.0000
  C   C708      1.0  0.54091  0.76589  0.70176  1.0000
  H   H567      1.0  0.56592  0.76584  0.70266  1.0000
  C   C709      1.0  0.52547  0.95366  0.67892  1.0000
  H   H568      1.0  0.56470  0.82192  0.71158  1.0000
  C   C710      1.0  0.54024  0.79770  0.70669  1.0000
  C   C711      1.0  0.50814  0.79826  0.70612  1.0000
  H   H569      1.0  0.50251  0.79962  0.95413  1.0000
  C   C712      1.0  0.49260  0.74119  0.85491  1.0000
  H   H570      1.0  0.50441  0.95466  0.79407  1.0000
  H   H571      1.0  0.54027  0.80461  0.01641  1.0000
  S   S95       1.0  0.50868  0.83877  0.71476  1.0000
  C   C713      1.0  0.50468  0.96530  0.65687  1.0000
  S   S96       1.0  0.51204  0.69487  0.69097  1.0000
  H   H572      1.0  0.53454  0.96280  0.71144  1.0000
  C   C714      1.0  0.48788  0.75734  0.58088  1.0000
  C   C715      1.0  0.51211  0.78657  0.01808  1.0000
  C   C716      1.0  0.50378  0.97873  0.78618  1.0000
  H   H573      1.0  0.51030  0.73013  0.85651  1.0000
  C   C717      1.0  0.50059  0.92880  0.59584  1.0000
  C   C718      1.0  0.49153  0.95259  0.61527  1.0000
  H   H574      1.0  0.50122  0.77122  0.61000  1.0000
  C   C719      1.0  0.48979  0.75695  0.81649  1.0000
  H   H575      1.0  0.49626  0.80437  0.54683  1.0000
  H   H576      1.0  0.49133  0.91845  0.56401  1.0000
  C   C720      1.0  0.49047  0.78394  0.98297  1.0000
