data_image0
_chemical_formula_structural       CHFeSHFeSFeH2SC2SHCSCSHC2FeCH3C3HCH3CSC2HCH3C5H2FeCHCHCHCH2C4HCH2CSCH2C2HCHCH3C5H5CHCHSHCSC7H2CHCHCHC2SHCHSHPC3HC6H3C5HSC3Fe2SCH3CH5CH2CHC2HC5H2C2PH3FeHCHSCPC3HC5HSC3PHSC3H2FeHCHCH3CSHCSH2CS2HC2PFeC3HCSCH3C2H4C4HSH6C2H3C2H5SC3HC3HCHC3HFeC2HC2HC4HC2SHC2HC3HC9H2CH3FeHCH3CH3SH2FeCHFeCH3FeC4H2C2SC2HC5HC5HCH4CHC2HCHCHCFeS2FeS2FeSFeS3FeS2FeSFeSC5HCH2CHC6H5PC4HCH2C3H2SHSFeSFeSCFeSFeSHS2CH2C4H3CHC2HCH5CPC7HC6H11SCHCH12C2HCH2C5HCHSH4CHCH4C3HCH3CHC2HCHC2HC4SHCH2C3HC5H2CH3C3PC19H11CH4C2H2CH2C2H2C4HCHSCH2C5SHC4PC3HCPCFeSCH2CH2C4HCFeH3C4HCHCH2C2HC2HC2HC2HCHC5H3C3HC12HC3H3C3H2CHCH3CSCH2CSC2H2CH3CH3C2H2PC2HC4H2C3HCH3CHS2FeSHFeS2FeS2FeHFeS3C3HC2HC2H2CS2C4H2CHCHCFeCHC4H2CH3C2FeC3HCHC6H3FeS2FeSFeS2Fe2SH3CHCS2CH2CHSH3C6H2CH2CH2PC2H2C6HC7HSHCHCH4CH3CH4CHCHCHCHCHCHC6H2CHC4H5CHCHCHC2SC2PH2SCHCHCHC2HC7H2C3H4FeH2C4PC18H2C2H16PC3HCSCHCH3C6PC15H7CH10CHC5H2C6H5C5HC3HCH4SCHC2HCH2C3HPC2HC2H3C2PC5H2C2HSHFeS2FeSFeSCSFeSFeS2FeSFeS3PS2CS2FeSFeS2C7H4C3HC2HCH2C6H4CH2C5H3C4HCH2CHSC4H3CH2CHCHC4H2SHC4HC5H2CHCSC5FeC2H5C6HCH3CHCHFeHPC2HCH2CHC3H2C3H3CH5C11FeCHCH3C3H11C2H4PHCHCHCHCHCH2C4HC3HC4HCH4CHCHC2HCH2CH2CHCPH2C2H6CPC6PC3HC14H6C3H4CH6C6HC2PC2HC2H3CSC3PHCFeCHC2HPHSH2CHCH2C5FeCHC2H2CH2PCHC5HCHC2HCHS2FeSHFeS2FeS2FeSFeS3CSCHSHFeSHC3HC2HSHCSHC6H6C2H2CH3SH2C3HC7FeH3C3FeC2HC7H2PHSH3CH3CHFeSCHC3HCHCHC2HC2HC2H2CHC3H2CSC2HC2HCHCHC2H2CH2C2HCHC2HCHC3H2CH3CH2C4H3CHCSCHC2PCSC3H2C6Fe2C3H3C3H9C2H2CH5C6H3C2FeHSPC7PC16H6CH11SHCHC3H2C2H2C8HC3H2CH2C3HSH2C6HC3H5CHCHC2HSC2HCHC2HCHC2HC3HCH4CHCHC3S2FeSFeCFeCHCH2C2HS4FeH4CH8C3SH4CHC4HC6H3C2HCHC2HSC5HCHCHCH2CH2C3HC6HC6SCHC5HC2HPCSH2C2HCH6CHCHC5HCH3C2H2CPCH2CHC4HPC4HC3H2C2HFeC4H2FeHC2HCSCHC2H2CH3C2HCHCH2CH4C3HCHCHC2FeC2HPCH7SCHCH2C2S2CHC2HFeCSFeCHCHS2FeCSH3FeSH3CH2C3PCH4CH3CSCSC2H3CH2CH2C4HCSH2C2H2C4H3CHCHC6SCH2SH2CHPHC4H3CH7CH2CHC4HCHCHSC3H3C3H2FeHC3PC18H6C2H2C3HFeC2HCHC2SH2C2H4FeCSHCHC2FeHCH3C7HCH2CSHC2FeS2FeS2FeSFeS3FeS2FeSFeS2C3HSCH2CHC6H4C3H6C4H4CHSHSHFeSFeSH2CHCHC4H2FeCH5SC7PC19H12CH6CHC2HCH3SH2C4H4PHCHCH2CH4C2HC8H2CHC3HC3HCH6C2SH2CHC4HC2H3C2HC4HCSH2CH3C4HCHCHCHC5HC4PC18H15CH2FeH3CHC5HC3HC5HPHC2H2C2H2C2HC2H3CHC2HC2HC2H3C3HC3HCH3C2HSHC2HC2HCHCHCH3FeC2HCP2S2FeSCFeS2FeS2FeCFeS4CFeHC2HC3H2C3HC5HC2H3CHC3H2CH2C2HC3HCH2C6H3FeS2FeSFeS2FeCSFeCHCHCS3C3H3CHC6H4C2HFeHCSCHCHC11H2CPH2C2SH5PCHC3HPC7HCHC3H3C2H2CH2CH2CH2SH2CHPH3CH2C3H2CHCH2C4H3C5H5CHCHC5PC5HC15H4SC2H10C4HC2PCSH8C3SC3H2CHCHC4HCH2CHC2HC6PC3HC14H18CHC4H3C4H2C2H2C2H2C3H4CHSC3HCH3FeC4SCFeS2FeSFeS3FeSFeS2FeSFeS3HSC2SHCSFeSH2C6H4C2H3CHC2HC6H2CH2C6H3CHC4HPH3CHC2FeH3CHC2H2C4HC2HC4HC4H4CH5CHCHFeH2C3H5CH4CH2CSCH2C6PC4HC4HC6H8CH10CSCHCH2C2SC4HCHC3HC2HS2H6CHC4H2C2H3C2H6CH2CH2CHCH2C6PC14H2CH2C4HCHCH4C3HC3HCH2C2PCHCHC2HCH2C3H3CHC3HCH3C3PCS2FeSCFeS2FeS2FeSFeS3HSH2CHFeS3HCH2CH2C3HC6H4CHCH3CHC2HSC2H3C5H3FeC6H3C6SH4C2H4C2HC2PC14H3C4PH3C2H5CH2CFeSH2CHSH4CHC2PC4H2SC3HC7HCHCH2C2H5CH3PC3H2CHC4H4CHC2SC2HC2HCH2C3HFeC2HCHC3HC4PC8H2C8HFeC2HCH6C2H6CH7C3HC2HC2H2C2HC4HCH3CH3C3H5C4FeCPCH2C5H2CSC2HPHC3
_chemical_formula_sum              "C1920 H1536 Fe128 S256 P64"
_cell_length_a       50.0032
_cell_length_b       50.0072
_cell_length_c       44.4958
_cell_angle_alpha    84.7071
_cell_angle_beta     84.7758
_cell_angle_gamma    92.109

_space_group_name_H-M_alt    "P 1"
_space_group_IT_number       1

loop_
  _space_group_symop_operation_xyz
  'x, y, z'

loop_
  _atom_site_type_symbol
  _atom_site_label
  _atom_site_symmetry_multiplicity
  _atom_site_fract_x
  _atom_site_fract_y
  _atom_site_fract_z
  _atom_site_occupancy
  C   C1        1.0  0.45336  0.98780  0.33698  1.0000
  H   H1        1.0  0.45280  0.14734  0.02352  1.0000
  Fe  Fe1       1.0  0.00577  0.05615  0.17005  1.0000
  S   S1        1.0  0.04861  0.06046  0.14941  1.0000
  H   H2        1.0  0.01163  0.26825  0.31608  1.0000
  Fe  Fe2       1.0  0.03396  0.03608  0.11368  1.0000
  S   S2        1.0  0.04463  0.04858  0.06389  1.0000
  Fe  Fe3       1.0  0.05344  0.02036  0.17557  1.0000
  H   H3        1.0  0.47226  0.98941  0.26132  1.0000
  H   H4        1.0  0.33235  0.99885  0.38036  1.0000
  S   S3        1.0  0.01168  0.01772  0.19935  1.0000
  C   C2        1.0  0.99987  0.26782  0.33778  1.0000
  C   C3        1.0  0.47971  0.27695  0.30523  1.0000
  S   S4        1.0  0.08991  0.00515  0.19695  1.0000
  H   H5        1.0  0.00409  0.09558  0.25749  1.0000
  C   C4        1.0  0.10687  0.00934  0.03021  1.0000
  S   S5        1.0  0.99112  0.03353  0.13290  1.0000
  C   C5        1.0  0.99744  0.98977  0.27114  1.0000
  S   S6        1.0  0.44648  0.26002  0.17746  1.0000
  H   H6        1.0  0.38326  0.02669  0.29985  1.0000
  C   C6        1.0  0.46824  0.13985  0.08241  1.0000
  C   C7        1.0  0.42782  0.04735  0.23110  1.0000
  Fe  Fe4       1.0  0.44157  0.29442  0.20667  1.0000
  C   C8        1.0  0.47747  0.29652  0.03611  1.0000
  H   H7        1.0  0.01366  0.20117  0.02859  1.0000
  H   H8        1.0  0.28804  0.00247  0.43222  1.0000
  H   H9        1.0  0.04999  0.16604  0.13610  1.0000
  C   C9        1.0  0.40701  0.29458  0.32435  1.0000
  C   C10       1.0  0.40694  0.28987  0.29379  1.0000
  C   C11       1.0  0.08965  0.99846  0.05516  1.0000
  H   H10       1.0  0.06136  0.27128  0.36878  1.0000
  C   C12       1.0  0.45718  0.02484  0.44223  1.0000
  H   H11       1.0  0.40628  0.27775  0.34157  1.0000
  H   H12       1.0  0.40555  0.26952  0.28753  1.0000
  H   H13       1.0  0.03021  0.10628  0.05699  1.0000
  C   C13       1.0  0.45082  0.98613  0.30606  1.0000
  S   S7        1.0  0.98609  0.28136  0.23060  1.0000
  C   C14       1.0  0.01340  0.12952  0.19776  1.0000
  C   C15       1.0  0.01919  0.15536  0.20654  1.0000
  H   H14       1.0  0.09370  0.00251  0.07788  1.0000
  C   C16       1.0  0.44724  0.04036  0.41829  1.0000
  H   H15       1.0  0.44460  0.14940  0.18847  1.0000
  H   H16       1.0  0.02803  0.11418  0.19944  1.0000
  H   H17       1.0  0.03833  0.15973  0.21497  1.0000
  C   C17       1.0  0.44802  0.99794  0.44968  1.0000
  C   C18       1.0  0.47662  0.02301  0.06595  1.0000
  C   C19       1.0  0.07317  0.01602  0.28586  1.0000
  C   C20       1.0  0.07200  0.01738  0.25431  1.0000
  C   C21       1.0  0.08909  0.00217  0.23674  1.0000
  H   H18       1.0  0.06051  0.02842  0.29927  1.0000
  H   H19       1.0  0.05853  0.03082  0.24347  1.0000
  Fe  Fe5       1.0  0.00133  0.99577  0.15991  1.0000
  C   C22       1.0  0.06535  0.28814  0.38161  1.0000
  H   H20       1.0  0.47982  0.99645  0.37071  1.0000
  C   C23       1.0  0.45862  0.08429  0.09626  1.0000
  H   H21       1.0  0.35632  0.02196  0.51473  1.0000
  C   C24       1.0  0.01108  0.25824  0.05656  1.0000
  H   H22       1.0  0.12437  0.02169  0.03369  1.0000
  C   C25       1.0  0.00379  0.28767  0.35754  1.0000
  H   H23       1.0  0.02988  0.24895  0.06013  1.0000
  H   H24       1.0  0.99993  0.07013  0.50964  1.0000
  C   C26       1.0  0.04584  0.15319  0.11858  1.0000
  C   C27       1.0  0.99309  0.99637  0.36356  1.0000
  C   C28       1.0  0.41834  0.00264  0.40943  1.0000
  C   C29       1.0  0.06095  0.13062  0.11454  1.0000
  H   H25       1.0  0.43641  0.02099  0.05178  1.0000
  C   C30       1.0  0.01783  0.04529  0.04120  1.0000
  H   H26       1.0  0.46102  0.30845  0.02957  1.0000
  H   H27       1.0  0.34584  0.03389  0.33773  1.0000
  C   C31       1.0  0.42789  0.02921  0.40179  1.0000
  S   S8        1.0  0.00340  0.26842  0.16044  1.0000
  C   C32       1.0  0.35686  0.01568  0.34010  1.0000
  H   H28       1.0  0.08013  0.31001  0.22895  1.0000
  H   H29       1.0  0.44613  0.24972  0.30103  1.0000
  C   C33       1.0  0.34931  0.99607  0.36413  1.0000
  C   C34       1.0  0.98830  0.12337  0.18796  1.0000
  H   H30       1.0  0.99634  0.10139  0.31232  1.0000
  C   C35       1.0  0.47380  0.18119  0.19342  1.0000
  H   H31       1.0  0.20938  0.01979  0.40677  1.0000
  C   C36       1.0  0.48326  0.23482  0.28247  1.0000
  H   H32       1.0  0.38589  0.00679  0.47247  1.0000
  H   H33       1.0  0.41615  0.05261  0.18567  1.0000
  H   H34       1.0  0.43804  0.03640  0.27616  1.0000
  C   C37       1.0  0.46765  0.25339  0.29686  1.0000
  C   C38       1.0  0.40387  0.01319  0.20761  1.0000
  C   C39       1.0  0.99126  0.25863  0.08090  1.0000
  C   C40       1.0  0.42828  0.02970  0.25726  1.0000
  C   C41       1.0  0.25009  0.01319  0.41706  1.0000
  H   H35       1.0  0.99172  0.00484  0.34050  1.0000
  H   H36       1.0  0.45462  0.06100  0.41242  1.0000
  H   H37       1.0  0.03640  0.99824  0.35907  1.0000
  H   H38       1.0  0.47227  0.03372  0.45476  1.0000
  H   H39       1.0  0.09428  0.26729  0.40703  1.0000
  C   C42       1.0  0.09098  0.99902  0.30001  1.0000
  H   H40       1.0  0.33100  0.28570  0.30272  1.0000
  C   C43       1.0  0.33859  0.30745  0.34083  1.0000
  H   H41       1.0  0.43377  0.30496  0.42152  1.0000
  S   S9        1.0  0.04316  0.99655  0.13745  1.0000
  H   H42       1.0  0.45483  0.06288  0.10169  1.0000
  C   C44       1.0  0.05549  0.11405  0.09199  1.0000
  S   S10       1.0  0.47251  0.10074  0.18553  1.0000
  C   C45       1.0  0.22696  0.98675  0.47186  1.0000
  C   C46       1.0  0.45757  0.02451  0.04443  1.0000
  C   C47       1.0  0.03447  0.11958  0.07403  1.0000
  C   C48       1.0  0.01884  0.14186  0.07839  1.0000
  C   C49       1.0  0.25511  0.98829  0.46567  1.0000
  C   C50       1.0  0.39207  0.98760  0.32111  1.0000
  C   C51       1.0  0.32108  0.00007  0.50392  1.0000
  H   H43       1.0  0.25897  0.02298  0.39554  1.0000
  H   H44       1.0  0.46719  0.29123  0.31601  1.0000
  C   C52       1.0  0.37816  0.01150  0.31861  1.0000
  H   H45       1.0  0.06723  0.09658  0.08873  1.0000
  C   C53       1.0  0.41578  0.03907  0.20620  1.0000
  H   H46       1.0  0.07681  0.12589  0.12893  1.0000
  C   C54       1.0  0.07086  0.99395  0.47933  1.0000
  H   H47       1.0  0.18888  0.99635  0.45532  1.0000
  C   C55       1.0  0.41666  0.00353  0.25875  1.0000
  C   C56       1.0  0.00663  0.26978  0.02767  1.0000
  S   S11       1.0  0.09307  0.99895  0.33930  1.0000
  H   H48       1.0  0.43727  0.06734  0.22986  1.0000
  C   C57       1.0  0.99131  0.08110  0.27250  1.0000
  H   H49       1.0  0.99464  0.24927  0.10299  1.0000
  S   S12       1.0  0.45380  0.29590  0.09380  1.0000
  H   H50       1.0  0.10714  0.30561  0.27320  1.0000
  P   P1        1.0  0.47397  0.17563  0.07304  1.0000
  C   C58       1.0  0.47894  0.28750  0.06662  1.0000
  C   C59       1.0  0.26654  0.00163  0.43807  1.0000
  C   C60       1.0  0.43754  0.10048  0.08902  1.0000
  H   H51       1.0  0.04008  0.00405  0.45041  1.0000
  C   C61       1.0  0.47294  0.18443  0.03281  1.0000
  C   C62       1.0  0.40414  0.99550  0.23385  1.0000
  C   C63       1.0  0.36488  0.00015  0.47569  1.0000
  C   C64       1.0  0.44231  0.12816  0.08207  1.0000
  C   C65       1.0  0.40764  0.31140  0.27137  1.0000
  C   C66       1.0  0.44859  0.19260  0.09470  1.0000
  H   H52       1.0  0.45729  0.08849  0.02893  1.0000
  H   H53       1.0  0.08342  0.01171  0.47116  1.0000
  H   H54       1.0  0.02124  0.29972  0.10261  1.0000
  C   C67       1.0  0.43764  0.18085  0.12329  1.0000
  C   C68       1.0  0.41885  0.19429  0.14084  1.0000
  C   C69       1.0  0.41079  0.21954  0.12998  1.0000
  C   C70       1.0  0.42158  0.23136  0.10159  1.0000
  C   C71       1.0  0.44056  0.21810  0.08407  1.0000
  H   H55       1.0  0.40339  0.99403  0.39664  1.0000
  S   S13       1.0  0.00739  0.20696  0.21852  1.0000
  C   C72       1.0  0.21060  0.99821  0.45075  1.0000
  C   C73       1.0  0.08400  0.28583  0.40323  1.0000
  C   C74       1.0  0.00026  0.17547  0.20482  1.0000
  Fe  Fe6       1.0  0.99936  0.30503  0.18600  1.0000
  Fe  Fe7       1.0  0.98622  0.24490  0.20384  1.0000
  S   S14       1.0  0.40369  0.30501  0.23375  1.0000
  C   C75       1.0  0.07067  0.31108  0.25170  1.0000
  H   H56       1.0  0.42030  0.04112  0.38306  1.0000
  H   H57       1.0  0.42575  0.14051  0.07654  1.0000
  H   H58       1.0  0.08558  0.30841  0.32473  1.0000
  C   C76       1.0  0.04316  0.31499  0.25607  1.0000
  H   H59       1.0  0.44407  0.16155  0.13239  1.0000
  H   H60       1.0  0.41093  0.18534  0.16313  1.0000
  H   H61       1.0  0.39665  0.23024  0.14381  1.0000
  H   H62       1.0  0.41577  0.25121  0.09348  1.0000
  H   H63       1.0  0.44917  0.22815  0.06265  1.0000
  C   C77       1.0  0.10669  0.98497  0.25095  1.0000
  H   H64       1.0  0.39512  0.00652  0.18805  1.0000
  H   H65       1.0  0.41750  0.09153  0.08886  1.0000
  C   C78       1.0  0.98686  0.08438  0.30336  1.0000
  H   H66       1.0  0.47015  0.01789  0.08970  1.0000
  C   C79       1.0  0.01831  0.99262  0.37402  1.0000
  C   C80       1.0  0.08936  0.30740  0.41998  1.0000
  H   H67       1.0  0.45920  0.19662  0.19405  1.0000
  C   C81       1.0  0.22215  0.01137  0.42334  1.0000
  C   C82       1.0  0.04554  0.31323  0.31041  1.0000
  C   C83       1.0  0.04654  0.98917  0.46712  1.0000
  C   C84       1.0  0.02515  0.15909  0.10024  1.0000
  C   C85       1.0  0.98839  0.28600  0.38571  1.0000
  H   H68       1.0  0.34093  0.28953  0.35584  1.0000
  H   H69       1.0  0.99560  0.01543  0.07224  1.0000
  C   C86       1.0  0.34819  0.00876  0.49948  1.0000
  C   C87       1.0  0.03059  0.31609  0.28521  1.0000
  P   P2        1.0  0.02869  0.31489  0.34775  1.0000
  H   H70       1.0  0.47383  0.21703  0.27500  1.0000
  H   H71       1.0  0.99107  0.30117  0.40122  1.0000
  H   H72       1.0  0.01411  0.17698  0.10341  1.0000
  Fe  Fe8       1.0  0.46505  0.29158  0.14170  1.0000
  H   H73       1.0  0.10382  0.30571  0.43671  1.0000
  C   C88       1.0  0.99604  0.02728  0.05070  1.0000
  H   H74       1.0  0.00438  0.00896  0.27763  1.0000
  S   S15       1.0  0.47624  0.03355  0.15398  1.0000
  C   C89       1.0  0.47362  0.31158  0.43502  1.0000
  P   P3        1.0  0.99134  0.14824  0.05554  1.0000
  C   C90       1.0  0.44559  0.31124  0.43911  1.0000
  C   C91       1.0  0.47375  0.99085  0.28528  1.0000
  C   C92       1.0  0.46560  0.15443  0.19015  1.0000
  H   H75       1.0  0.01217  0.02451  0.49759  1.0000
  C   C93       1.0  0.33315  0.30532  0.31092  1.0000
  C   C94       1.0  0.05210  0.31218  0.37640  1.0000
  C   C95       1.0  0.47815  0.99510  0.34681  1.0000
  C   C96       1.0  0.08579  0.30861  0.27661  1.0000
  C   C97       1.0  0.07336  0.30991  0.30589  1.0000
  H   H76       1.0  0.03148  0.31711  0.23681  1.0000
  S   S16       1.0  0.48167  0.29024  0.22508  1.0000
  C   C98       1.0  0.42825  0.98702  0.43329  1.0000
  C   C99       1.0  0.45407  0.99547  0.51376  1.0000
  C   C100      1.0  0.00598  0.16030  0.01784  1.0000
  P   P4        1.0  0.04070  0.99774  0.59908  1.0000
  H   H77       1.0  0.06385  0.03128  0.64252  1.0000
  S   S17       1.0  0.41627  0.00611  0.70466  1.0000
  C   C101      1.0  0.98908  0.21462  0.78654  1.0000
  C   C102      1.0  0.01834  0.19685  0.87566  1.0000
  C   C103      1.0  0.33177  0.99767  0.77966  1.0000
  H   H78       1.0  0.45833  0.28174  0.78491  1.0000
  H   H79       1.0  0.12922  0.01743  0.54004  1.0000
  Fe  Fe9       1.0  0.44320  0.02812  0.87230  1.0000
  H   H80       1.0  0.41066  0.31715  0.92812  1.0000
  C   C104      1.0  0.24059  0.99611  0.56939  1.0000
  H   H81       1.0  0.12306  0.29165  0.85710  1.0000
  C   C105      1.0  0.03294  0.03356  0.67864  1.0000
  H   H82       1.0  0.02579  0.28988  0.78245  1.0000
  H   H83       1.0  0.22014  0.27722  0.79842  1.0000
  H   H84       1.0  0.15525  0.00290  0.58317  1.0000
  C   C106      1.0  0.99058  0.11646  0.79775  1.0000
  S   S18       1.0  0.44601  0.06400  0.89951  1.0000
  H   H85       1.0  0.98627  0.12573  0.81863  1.0000
  C   C107      1.0  0.13351  0.26125  0.82742  1.0000
  S   S19       1.0  0.04163  0.26728  0.91079  1.0000
  H   H86       1.0  0.44612  0.24766  0.82801  1.0000
  H   H87       1.0  0.11368  0.01515  0.98172  1.0000
  C   C108      1.0  0.46995  0.09639  0.00882  1.0000
  S   S20       1.0  0.44187  0.03271  0.98656  1.0000
  S   S21       1.0  0.03223  0.26985  0.99793  1.0000
  H   H88       1.0  0.07249  0.30084  0.77236  1.0000
  C   C109      1.0  0.02822  0.00721  0.63587  1.0000
  C   C110      1.0  0.47332  0.19856  0.97014  1.0000
  P   P5        1.0  0.06878  0.98726  0.95790  1.0000
  Fe  Fe10      1.0  0.04704  0.31050  0.89137  1.0000
  C   C111      1.0  0.01663  0.31028  0.74001  1.0000
  C   C112      1.0  0.13348  0.00230  0.58620  1.0000
  C   C113      1.0  0.42122  0.00771  0.55327  1.0000
  H   H89       1.0  0.00544  0.08430  0.56080  1.0000
  C   C114      1.0  0.39991  0.98880  0.76430  1.0000
  S   S22       1.0  0.00532  0.04554  0.91492  1.0000
  C   C115      1.0  0.13582  0.28678  0.83749  1.0000
  H   H90       1.0  0.99744  0.22384  0.80500  1.0000
  H   H91       1.0  0.99511  0.99524  0.81508  1.0000
  H   H92       1.0  0.99735  0.00191  0.75896  1.0000
  C   C116      1.0  0.47502  0.16914  0.87569  1.0000
  C   C117      1.0  0.46701  0.02575  0.55027  1.0000
  H   H93       1.0  0.13133  0.98674  0.63323  1.0000
  H   H94       1.0  0.24330  0.00917  0.52197  1.0000
  H   H95       1.0  0.26756  0.26898  0.80489  1.0000
  H   H96       1.0  0.04835  0.16694  0.87429  1.0000
  C   C118      1.0  0.41614  0.00704  0.74425  1.0000
  C   C119      1.0  0.43181  0.02687  0.75588  1.0000
  C   C120      1.0  0.43093  0.02865  0.78739  1.0000
  C   C121      1.0  0.41384  0.01100  0.80730  1.0000
  H   H97       1.0  0.07975  0.01610  0.54691  1.0000
  S   S23       1.0  0.00818  0.31069  0.86977  1.0000
  H   H98       1.0  0.44435  0.04111  0.74048  1.0000
  H   H99       1.0  0.44263  0.04429  0.79615  1.0000
  H   H100      1.0  0.14738  0.23544  0.79371  1.0000
  H   H101      1.0  0.03508  0.07489  0.00591  1.0000
  H   H102      1.0  0.46734  0.11035  0.93294  1.0000
  H   H103      1.0  0.02898  0.99272  0.53646  1.0000
  C   C122      1.0  0.44869  0.26867  0.83182  1.0000
  C   C123      1.0  0.46974  0.30319  0.69020  1.0000
  H   H104      1.0  0.44650  0.30875  0.88942  1.0000
  H   H105      1.0  0.22827  0.01244  0.57576  1.0000
  H   H106      1.0  0.02301  0.13835  0.94840  1.0000
  C   C124      1.0  0.00993  0.14247  0.99530  1.0000
  C   C125      1.0  0.14945  0.25515  0.80173  1.0000
  H   H107      1.0  0.00449  0.12125  0.00016  1.0000
  H   H108      1.0  0.01517  0.00825  0.96816  1.0000
  H   H109      1.0  0.43585  0.03365  0.58475  1.0000
  H   H110      1.0  0.03281  0.21759  0.97687  1.0000
  H   H111      1.0  0.02316  0.05327  0.59956  1.0000
  S   S24       1.0  0.02077  0.11590  0.87321  1.0000
  C   C126      1.0  0.01281  0.98696  0.96582  1.0000
  C   C127      1.0  0.12004  0.99309  0.61436  1.0000
  C   C128      1.0  0.17018  0.30037  0.79609  1.0000
  H   H112      1.0  0.37439  0.29645  0.90205  1.0000
  C   C129      1.0  0.44091  0.02336  0.56472  1.0000
  C   C130      1.0  0.02708  0.17042  0.87523  1.0000
  C   C131      1.0  0.01832  0.08750  0.76855  1.0000
  H   H113      1.0  0.30857  0.00687  0.52262  1.0000
  C   C132      1.0  0.02071  0.04658  0.57749  1.0000
  H   H114      1.0  0.03285  0.21355  0.87479  1.0000
  C   C133      1.0  0.02875  0.17911  0.95932  1.0000
  C   C134      1.0  0.44876  0.30309  0.86649  1.0000
  C   C135      1.0  0.23495  0.29365  0.79300  1.0000
  H   H115      1.0  0.43986  0.26104  0.88019  1.0000
  Fe  Fe11      1.0  0.45766  0.03436  0.93689  1.0000
  C   C136      1.0  0.99744  0.05783  0.99455  1.0000
  C   C137      1.0  0.32575  0.98733  0.75285  1.0000
  H   H116      1.0  0.14679  0.31475  0.74178  1.0000
  C   C138      1.0  0.00294  0.09248  0.74412  1.0000
  C   C139      1.0  0.07703  0.31526  0.81589  1.0000
  H   H117      1.0  0.03702  0.18656  0.93661  1.0000
  C   C140      1.0  0.00856  0.14854  0.87561  1.0000
  C   C141      1.0  0.45616  0.28806  0.80751  1.0000
  C   C142      1.0  0.00759  0.05635  0.52671  1.0000
  C   C143      1.0  0.16771  0.27460  0.78611  1.0000
  H   H118      1.0  0.07447  0.05354  0.86733  1.0000
  C   C144      1.0  0.45908  0.09957  0.98095  1.0000
  C   C145      1.0  0.09069  0.00964  0.56595  1.0000
  S   S25       1.0  0.45040  0.99857  0.91151  1.0000
  H   H119      1.0  0.30259  0.30570  0.79151  1.0000
  C   C146      1.0  0.46191  0.17374  0.98299  1.0000
  C   C147      1.0  0.44504  0.27619  0.86130  1.0000
  H   H120      1.0  0.17966  0.26966  0.76600  1.0000
  C   C148      1.0  0.10080  0.00545  0.00081  1.0000
  C   C149      1.0  0.47353  0.01212  0.52470  1.0000
  C   C150      1.0  0.02734  0.02055  0.57092  1.0000
  H   H121      1.0  0.04510  0.04646  0.69077  1.0000
  C   C151      1.0  0.06894  0.02074  0.93854  1.0000
  C   C152      1.0  0.06581  0.04319  0.95517  1.0000
  C   C153      1.0  0.06644  0.06911  0.94026  1.0000
  C   C154      1.0  0.07000  0.07287  0.90863  1.0000
  C   C155      1.0  0.07272  0.05067  0.89187  1.0000
  C   C156      1.0  0.07208  0.02470  0.90671  1.0000
  C   C157      1.0  0.02625  0.19664  0.98201  1.0000
  C   C158      1.0  0.99096  0.20168  0.87598  1.0000
  C   C159      1.0  0.07704  0.00016  0.59412  1.0000
  H   H122      1.0  0.45443  0.17433  0.87349  1.0000
  H   H123      1.0  0.45323  0.16001  0.96868  1.0000
  C   C160      1.0  0.11881  0.01051  0.56198  1.0000
  H   H124      1.0  0.99788  0.07008  0.97317  1.0000
  H   H125      1.0  0.03462  0.30426  0.72731  1.0000
  H   H126      1.0  0.47030  0.29507  0.66842  1.0000
  Fe  Fe12      1.0  0.00091  0.26860  0.89312  1.0000
  H   H127      1.0  0.06561  0.29844  0.82859  1.0000
  C   C161      1.0  0.02082  0.15198  0.96601  1.0000
  H   H128      1.0  0.03496  0.07428  0.76692  1.0000
  H   H129      1.0  0.46714  0.12709  0.87042  1.0000
  H   H130      1.0  0.33637  0.01902  0.77980  1.0000
  C   C162      1.0  0.04366  0.02449  0.65143  1.0000
  H   H131      1.0  0.06250  0.04076  0.97966  1.0000
  H   H132      1.0  0.06355  0.08628  0.95319  1.0000
  H   H133      1.0  0.06973  0.09291  0.89707  1.0000
  S   S26       1.0  0.40904  0.01452  0.84652  1.0000
  H   H134      1.0  0.44927  0.31657  0.55349  1.0000
  H   H135      1.0  0.33826  0.98903  0.82628  1.0000
  Fe  Fe13      1.0  0.99524  0.01605  0.88215  1.0000
  C   C163      1.0  0.00157  0.00027  0.64734  1.0000
  H   H136      1.0  0.02452  0.09628  0.81397  1.0000
  Fe  Fe14      1.0  0.99365  0.07790  0.88078  1.0000
  C   C164      1.0  0.99081  0.00971  0.67421  1.0000
  H   H137      1.0  0.99795  0.03329  0.71090  1.0000
  H   H138      1.0  0.11906  0.24636  0.83934  1.0000
  H   H139      1.0  0.47358  0.20405  0.94594  1.0000
  Fe  Fe15      1.0  0.02099  0.28402  0.95151  1.0000
  C   C165      1.0  0.01236  0.09980  0.79515  1.0000
  C   C166      1.0  0.00647  0.02618  0.69001  1.0000
  C   C167      1.0  0.02400  0.01266  0.54200  1.0000
  C   C168      1.0  0.15388  0.30637  0.82180  1.0000
  H   H140      1.0  0.43802  0.09432  0.97962  1.0000
  H   H141      1.0  0.98889  0.98755  0.63575  1.0000
  C   C169      1.0  0.01438  0.03059  0.51994  1.0000
  C   C170      1.0  0.46588  0.03027  0.01342  1.0000
  S   S27       1.0  0.98794  0.04864  0.84586  1.0000
  C   C171      1.0  0.01846  0.06061  0.01313  1.0000
  C   C172      1.0  0.26191  0.28888  0.79672  1.0000
  H   H142      1.0  0.40095  0.00590  0.56446  1.0000
  C   C173      1.0  0.28164  0.30957  0.78933  1.0000
  C   C174      1.0  0.07758  0.99027  0.99611  1.0000
  C   C175      1.0  0.24888  0.99394  0.53885  1.0000
  C   C176      1.0  0.01072  0.06433  0.55550  1.0000
  C   C177      1.0  0.01521  0.18726  0.01126  1.0000
  H   H143      1.0  0.07338  0.00785  0.89317  1.0000
  C   C178      1.0  0.48216  0.14231  0.87399  1.0000
  C   C179      1.0  0.98948  0.31132  0.78777  1.0000
  C   C180      1.0  0.47562  0.10833  0.95466  1.0000
  C   C181      1.0  0.01181  0.30234  0.77104  1.0000
  C   C182      1.0  0.09196  0.99159  0.61820  1.0000
  H   H144      1.0  0.14108  0.31429  0.68750  1.0000
  C   C183      1.0  0.08078  0.31667  0.78416  1.0000
  H   H145      1.0  0.00772  0.08325  0.72334  1.0000
  H   H146      1.0  0.34953  0.99190  0.93758  1.0000
  H   H147      1.0  0.98697  0.30600  0.81199  1.0000
  H   H148      1.0  0.32553  0.00064  0.73221  1.0000
  C   C184      1.0  0.39870  0.99091  0.79562  1.0000
  H   H149      1.0  0.00157  0.24767  0.75312  1.0000
  C   C185      1.0  0.42767  0.99397  0.52778  1.0000
  C   C186      1.0  0.99140  0.22800  0.75737  1.0000
  H   H150      1.0  0.48008  0.02757  0.68036  1.0000
  C   C187      1.0  0.46170  0.16665  0.01421  1.0000
  H   H151      1.0  0.48219  0.03820  0.55891  1.0000
  C   C188      1.0  0.46050  0.31515  0.81258  1.0000
  H   H152      1.0  0.48223  0.00578  0.73165  1.0000
  C   C189      1.0  0.11221  0.36666  0.33759  1.0000
  Fe  Fe16      1.0  0.14442  0.48007  0.36873  1.0000
  S   S28       1.0  0.14296  0.43772  0.35571  1.0000
  S   S29       1.0  0.14707  0.51720  0.33566  1.0000
  Fe  Fe17      1.0  0.14416  0.46246  0.43585  1.0000
  S   S30       1.0  0.14231  0.41888  0.42800  1.0000
  S   S31       1.0  0.14626  0.47833  0.48150  1.0000
  Fe  Fe18      1.0  0.17374  0.43028  0.38925  1.0000
  S   S32       1.0  0.20815  0.40201  0.38385  1.0000
  Fe  Fe19      1.0  0.11186  0.43062  0.39575  1.0000
  S   S33       1.0  0.07419  0.40409  0.39718  1.0000
  S   S34       1.0  0.17765  0.47331  0.39912  1.0000
  S   S35       1.0  0.11129  0.47342  0.40647  1.0000
  Fe  Fe20      1.0  0.38669  0.38602  0.45062  1.0000
  S   S36       1.0  0.38879  0.42912  0.43152  1.0000
  S   S37       1.0  0.39958  0.40725  0.36391  1.0000
  Fe  Fe21      1.0  0.42409  0.41829  0.40117  1.0000
  S   S38       1.0  0.46152  0.44572  0.39420  1.0000
  Fe  Fe22      1.0  0.36366  0.41465  0.39629  1.0000
  S   S39       1.0  0.33055  0.44220  0.38357  1.0000
  C   C190      1.0  0.46424  0.45936  0.12361  1.0000
  C   C191      1.0  0.04265  0.41878  0.39825  1.0000
  C   C192      1.0  0.03963  0.44503  0.38544  1.0000
  C   C193      1.0  0.01372  0.45489  0.38375  1.0000
  C   C194      1.0  0.98742  0.64298  0.21624  1.0000
  H   H153      1.0  0.08320  0.57311  0.32388  1.0000
  C   C195      1.0  0.01978  0.40296  0.41025  1.0000
  H   H154      1.0  0.05715  0.45735  0.37593  1.0000
  H   H155      1.0  0.09076  0.61466  0.21470  1.0000
  C   C196      1.0  0.46630  0.46239  0.30780  1.0000
  H   H156      1.0  0.02188  0.38275  0.42038  1.0000
  C   C197      1.0  0.24192  0.41348  0.38531  1.0000
  C   C198      1.0  0.26187  0.39464  0.38886  1.0000
  C   C199      1.0  0.28910  0.40311  0.38858  1.0000
  C   C200      1.0  0.29659  0.43052  0.38449  1.0000
  C   C201      1.0  0.27669  0.44930  0.38058  1.0000
  C   C202      1.0  0.24945  0.44087  0.38135  1.0000
  H   H157      1.0  0.25625  0.37340  0.39160  1.0000
  H   H158      1.0  0.30428  0.38844  0.39106  1.0000
  H   H159      1.0  0.28234  0.47051  0.37700  1.0000
  H   H160      1.0  0.23435  0.45555  0.37824  1.0000
  H   H161      1.0  0.06880  0.44956  0.12350  1.0000
  P   P6        1.0  0.24479  0.41416  0.51413  1.0000
  C   C203      1.0  0.14386  0.45372  0.51269  1.0000
  C   C204      1.0  0.01461  0.37254  0.18391  1.0000
  C   C205      1.0  0.03045  0.39621  0.17546  1.0000
  C   C206      1.0  0.01993  0.42144  0.17960  1.0000
  H   H162      1.0  0.30137  0.40224  0.22467  1.0000
  C   C207      1.0  0.40743  0.34254  0.31048  1.0000
  H   H163      1.0  0.05103  0.39504  0.16600  1.0000
  H   H164      1.0  0.03262  0.43925  0.17371  1.0000
  C   C208      1.0  0.13143  0.51626  0.30189  1.0000
  C   C209      1.0  0.10018  0.49634  0.27045  1.0000
  C   C210      1.0  0.11101  0.49709  0.29857  1.0000
  H   H165      1.0  0.08495  0.48114  0.26772  1.0000
  H   H166      1.0  0.10395  0.48260  0.31745  1.0000
  S   S40       1.0  0.45426  0.60066  0.18601  1.0000
  H   H167      1.0  0.12952  0.42174  0.48840  1.0000
  S   S41       1.0  0.42393  0.37645  0.42319  1.0000
  Fe  Fe23      1.0  0.00665  0.49265  0.18824  1.0000
  S   S42       1.0  0.04641  0.49236  0.16117  1.0000
  Fe  Fe24      1.0  0.01274  0.55371  0.19246  1.0000
  S   S43       1.0  0.05304  0.55714  0.16551  1.0000
  C   C211      1.0  0.04378  0.45908  0.08745  1.0000
  Fe  Fe25      1.0  0.03412  0.52965  0.13545  1.0000
  S   S44       1.0  0.04442  0.53179  0.08489  1.0000
  Fe  Fe26      1.0  0.06122  0.51935  0.19396  1.0000
  S   S45       1.0  0.10209  0.51021  0.20854  1.0000
  H   H168      1.0  0.05084  0.36982  0.33591  1.0000
  S   S46       1.0  0.02215  0.51746  0.22313  1.0000
  S   S47       1.0  0.47145  0.53192  0.15244  1.0000
  C   C212      1.0  0.03012  0.63011  0.19336  1.0000
  H   H169      1.0  0.35936  0.42066  0.49194  1.0000
  H   H170      1.0  0.04303  0.61480  0.18556  1.0000
  C   C213      1.0  0.07739  0.57555  0.23627  1.0000
  C   C214      1.0  0.14039  0.53501  0.27743  1.0000
  C   C215      1.0  0.13020  0.53377  0.24930  1.0000
  C   C216      1.0  0.11020  0.51440  0.24558  1.0000
  H   H171      1.0  0.15612  0.54987  0.27991  1.0000
  H   H172      1.0  0.13837  0.54744  0.23014  1.0000
  H   H173      1.0  0.41039  0.46586  0.29130  1.0000
  C   C217      1.0  0.33936  0.36725  0.17609  1.0000
  H   H174      1.0  0.31631  0.50980  0.46696  1.0000
  C   C218      1.0  0.01826  0.53438  0.06114  1.0000
  C   C219      1.0  0.99708  0.61440  0.08996  1.0000
  H   H175      1.0  0.44128  0.51739  0.05094  1.0000
  C   C220      1.0  0.43687  0.55067  0.46965  1.0000
  H   H176      1.0  0.36880  0.45941  0.32686  1.0000
  H   H177      1.0  0.32580  0.32622  0.26865  1.0000
  H   H178      1.0  0.01736  0.52393  0.37238  1.0000
  H   H179      1.0  0.42693  0.64440  0.07068  1.0000
  H   H180      1.0  0.45422  0.65026  0.01775  1.0000
  C   C221      1.0  0.33508  0.35409  0.30136  1.0000
  P   P7        1.0  0.33108  0.38426  0.27681  1.0000
  C   C222      1.0  0.02381  0.53082  0.03039  1.0000
  C   C223      1.0  0.29853  0.39704  0.28754  1.0000
  C   C224      1.0  0.27825  0.38024  0.30431  1.0000
  C   C225      1.0  0.25370  0.39064  0.31403  1.0000
  C   C226      1.0  0.24916  0.41780  0.30709  1.0000
  C   C227      1.0  0.26906  0.43458  0.29005  1.0000
  C   C228      1.0  0.29362  0.42425  0.28018  1.0000
  H   H181      1.0  0.45144  0.44684  0.31727  1.0000
  C   C229      1.0  0.35704  0.40918  0.28215  1.0000
  C   C230      1.0  0.35306  0.42610  0.30552  1.0000
  C   C231      1.0  0.37219  0.44648  0.30875  1.0000
  C   C232      1.0  0.39566  0.44995  0.28895  1.0000
  C   C233      1.0  0.40014  0.43284  0.26608  1.0000
  C   C234      1.0  0.38097  0.41250  0.26269  1.0000
  H   H182      1.0  0.04674  0.35196  0.39115  1.0000
  H   H183      1.0  0.34254  0.37541  0.34028  1.0000
  H   H184      1.0  0.28144  0.35924  0.31052  1.0000
  H   H185      1.0  0.23841  0.37789  0.32788  1.0000
  H   H186      1.0  0.23040  0.42589  0.31558  1.0000
  H   H187      1.0  0.26559  0.45571  0.28507  1.0000
  H   H188      1.0  0.30898  0.43760  0.26737  1.0000
  H   H189      1.0  0.15476  0.34568  0.49796  1.0000
  H   H190      1.0  0.41838  0.43557  0.25072  1.0000
  H   H191      1.0  0.38497  0.39969  0.24469  1.0000
  H   H192      1.0  0.03214  0.47305  0.09985  1.0000
  S   S48       1.0  0.35905  0.37204  0.41780  1.0000
  C   C235      1.0  0.45082  0.55943  0.35281  1.0000
  H   H193      1.0  0.33507  0.42374  0.32126  1.0000
  C   C236      1.0  0.04388  0.36465  0.10150  1.0000
  H   H194      1.0  0.08828  0.56489  0.21929  1.0000
  H   H195      1.0  0.45928  0.47177  0.14183  1.0000
  H   H196      1.0  0.10065  0.56845  0.07916  1.0000
  H   H197      1.0  0.47515  0.50404  0.38983  1.0000
  H   H198      1.0  0.45391  0.63360  0.29293  1.0000
  H   H199      1.0  0.43722  0.33656  0.50717  1.0000
  H   H200      1.0  0.06203  0.37635  0.10384  1.0000
  H   H201      1.0  0.44067  0.40390  0.09429  1.0000
  H   H202      1.0  0.06283  0.32671  0.10699  1.0000
  H   H203      1.0  0.45510  0.42579  0.46064  1.0000
  H   H204      1.0  0.28725  0.48072  0.43298  1.0000
  H   H205      1.0  0.01139  0.47482  0.37300  1.0000
  C   C237      1.0  0.99080  0.43873  0.39512  1.0000
  C   C238      1.0  0.38787  0.50672  0.49479  1.0000
  H   H206      1.0  0.43152  0.61860  0.24253  1.0000
  C   C239      1.0  0.06184  0.56119  0.26062  1.0000
  H   H207      1.0  0.14676  0.35315  0.25924  1.0000
  H   H208      1.0  0.33146  0.34795  0.48336  1.0000
  C   C240      1.0  0.38523  0.60885  0.30412  1.0000
  C   C241      1.0  0.38395  0.58068  0.30757  1.0000
  C   C242      1.0  0.39974  0.56632  0.28764  1.0000
  C   C243      1.0  0.41682  0.58011  0.26423  1.0000
  C   C244      1.0  0.14301  0.34173  0.30706  1.0000
  H   H209      1.0  0.11673  0.58498  0.12554  1.0000
  C   C245      1.0  0.99403  0.41295  0.40887  1.0000
  H   H210      1.0  0.26524  0.39422  0.45750  1.0000
  S   S49       1.0  0.38531  0.36985  0.49956  1.0000
  H   H211      1.0  0.21451  0.40653  0.46171  1.0000
  H   H212      1.0  0.37041  0.56993  0.32541  1.0000
  H   H213      1.0  0.39848  0.54452  0.29002  1.0000
  H   H214      1.0  0.42871  0.56911  0.24826  1.0000
  C   C246      1.0  0.46203  0.52032  0.38468  1.0000
  H   H215      1.0  0.07980  0.34795  0.42839  1.0000
  C   C247      1.0  0.26921  0.47472  0.44780  1.0000
  H   H216      1.0  0.28783  0.44228  0.47153  1.0000
  H   H217      1.0  0.20376  0.49059  0.46056  1.0000
  H   H218      1.0  0.03023  0.41378  0.33226  1.0000
  H   H219      1.0  0.45330  0.36049  0.07981  1.0000
  C   C248      1.0  0.43147  0.47053  0.50911  1.0000
  C   C249      1.0  0.46820  0.53849  0.35874  1.0000
  C   C250      1.0  0.98912  0.57854  0.35409  1.0000
  H   H220      1.0  0.41705  0.33187  0.06418  1.0000
  C   C251      1.0  0.44743  0.43724  0.11985  1.0000
  H   H221      1.0  0.13590  0.33513  0.35581  1.0000
  H   H222      1.0  0.41099  0.32074  0.46802  1.0000
  H   H223      1.0  0.41601  0.55581  0.47122  1.0000
  C   C252      1.0  0.01755  0.39558  0.33662  1.0000
  H   H224      1.0  0.37190  0.34238  0.18824  1.0000
  C   C253      1.0  0.44497  0.63506  0.07736  1.0000
  C   C254      1.0  0.05385  0.43733  0.04137  1.0000
  H   H225      1.0  0.00028  0.42070  0.25520  1.0000
  C   C255      1.0  0.44380  0.60765  0.08722  1.0000
  H   H226      1.0  0.30220  0.36506  0.44424  1.0000
  C   C256      1.0  0.31484  0.36036  0.48937  1.0000
  C   C257      1.0  0.33996  0.35602  0.33168  1.0000
  H   H227      1.0  0.36729  0.35133  0.24163  1.0000
  C   C258      1.0  0.44817  0.43358  0.48182  1.0000
  C   C259      1.0  0.48070  0.46025  0.27986  1.0000
  C   C260      1.0  0.26937  0.45266  0.46951  1.0000
  C   C261      1.0  0.99042  0.51985  0.29496  1.0000
  S   S50       1.0  0.99298  0.52850  0.16035  1.0000
  H   H228      1.0  0.44407  0.47332  0.46091  1.0000
  C   C262      1.0  0.46235  0.52230  0.04417  1.0000
  H   H229      1.0  0.42965  0.43242  0.13549  1.0000
  H   H230      1.0  0.40880  0.35458  0.26249  1.0000
  C   C263      1.0  0.24569  0.44386  0.48773  1.0000
  C   C264      1.0  0.20548  0.39339  0.48099  1.0000
  C   C265      1.0  0.46678  0.59538  0.09620  1.0000
  H   H231      1.0  0.06249  0.58866  0.05636  1.0000
  C   C266      1.0  0.99347  0.42331  0.19232  1.0000
  C   C267      1.0  0.22219  0.48017  0.46316  1.0000
  C   C268      1.0  0.36340  0.41681  0.51533  1.0000
  C   C269      1.0  0.43807  0.52187  0.40309  1.0000
  C   C270      1.0  0.44449  0.41638  0.50856  1.0000
  H   H232      1.0  0.09347  0.62169  0.14963  1.0000
  H   H233      1.0  0.03618  0.45946  0.30653  1.0000
  C   C271      1.0  0.40246  0.62281  0.28071  1.0000
  H   H234      1.0  0.34557  0.47275  0.45391  1.0000
  H   H235      1.0  0.15772  0.32642  0.30547  1.0000
  H   H236      1.0  0.04624  0.51178  0.41325  1.0000
  C   C272      1.0  0.13672  0.35697  0.28086  1.0000
  C   C273      1.0  0.11790  0.37706  0.28284  1.0000
  C   C274      1.0  0.10591  0.38198  0.31149  1.0000
  P   P8        1.0  0.11131  0.39851  0.24959  1.0000
  C   C275      1.0  0.07628  0.40638  0.25277  1.0000
  C   C276      1.0  0.13281  0.42869  0.24661  1.0000
  C   C277      1.0  0.14528  0.43629  0.27176  1.0000
  C   C278      1.0  0.16165  0.45980  0.26936  1.0000
  C   C279      1.0  0.16584  0.47582  0.24180  1.0000
  C   C280      1.0  0.15371  0.46831  0.21660  1.0000
  C   C281      1.0  0.13719  0.44488  0.21897  1.0000
  C   C282      1.0  0.05674  0.38624  0.26418  1.0000
  C   C283      1.0  0.02943  0.39135  0.26482  1.0000
  C   C284      1.0  0.02147  0.41689  0.25510  1.0000
  C   C285      1.0  0.04077  0.43719  0.24405  1.0000
  C   C286      1.0  0.06810  0.43192  0.24252  1.0000
  C   C287      1.0  0.11821  0.38135  0.21584  1.0000
  C   C288      1.0  0.09739  0.36867  0.20240  1.0000
  C   C289      1.0  0.10312  0.35544  0.17638  1.0000
  C   C290      1.0  0.42651  0.34795  0.04829  1.0000
  C   C291      1.0  0.15041  0.36738  0.17664  1.0000
  C   C292      1.0  0.14477  0.38067  0.20266  1.0000
  C   C293      1.0  0.35383  0.36065  0.22654  1.0000
  H   H237      1.0  0.41358  0.57715  0.36665  1.0000
  H   H238      1.0  0.17095  0.36686  0.16664  1.0000
  H   H239      1.0  0.38584  0.63218  0.22386  1.0000
  H   H240      1.0  0.09220  0.39813  0.31383  1.0000
  H   H241      1.0  0.14220  0.42440  0.29339  1.0000
  H   H242      1.0  0.17041  0.46609  0.28915  1.0000
  H   H243      1.0  0.17770  0.49455  0.24030  1.0000
  H   H244      1.0  0.15608  0.48133  0.19559  1.0000
  H   H245      1.0  0.12727  0.43983  0.19945  1.0000
  H   H246      1.0  0.06263  0.36636  0.27179  1.0000
  H   H247      1.0  0.01439  0.37549  0.27268  1.0000
  C   C294      1.0  0.27262  0.39348  0.50483  1.0000
  H   H248      1.0  0.03446  0.45680  0.23572  1.0000
  H   H249      1.0  0.08259  0.44771  0.23291  1.0000
  H   H250      1.0  0.07663  0.36884  0.21166  1.0000
  H   H251      1.0  0.30628  0.39316  0.17102  1.0000
  C   C295      1.0  0.43274  0.31991  0.46546  1.0000
  C   C296      1.0  0.02334  0.47626  0.30337  1.0000
  H   H252      1.0  0.16113  0.39034  0.21258  1.0000
  H   H253      1.0  0.03888  0.61418  0.29689  1.0000
  C   C297      1.0  0.27760  0.38671  0.47495  1.0000
  H   H254      1.0  0.99018  0.45231  0.29080  1.0000
  H   H255      1.0  0.24521  0.50497  0.42709  1.0000
  C   C298      1.0  0.29858  0.37019  0.46731  1.0000
  C   C299      1.0  0.05594  0.61735  0.08972  1.0000
  H   H256      1.0  0.37261  0.61958  0.31954  1.0000
  H   H257      1.0  0.40180  0.54316  0.41066  1.0000
  C   C300      1.0  0.12959  0.35474  0.16352  1.0000
  C   C301      1.0  0.47602  0.32785  0.48467  1.0000
  C   C302      1.0  0.24557  0.48833  0.44443  1.0000
  C   C303      1.0  0.22224  0.45809  0.48483  1.0000
  H   H258      1.0  0.44816  0.39518  0.50819  1.0000
  C   C304      1.0  0.07523  0.42479  0.05461  1.0000
  H   H259      1.0  0.46788  0.36645  0.20780  1.0000
  S   S51       1.0  0.45615  0.32591  0.16921  1.0000
  C   C305      1.0  0.09116  0.58511  0.08912  1.0000
  H   H260      1.0  0.99517  0.35384  0.03666  1.0000
  H   H261      1.0  0.45157  0.39700  0.31152  1.0000
  C   C306      1.0  0.44697  0.36443  0.05719  1.0000
  C   C307      1.0  0.99433  0.60455  0.12072  1.0000
  C   C308      1.0  0.08039  0.53617  0.39204  1.0000
  C   C309      1.0  0.07439  0.56051  0.34364  1.0000
  C   C310      1.0  0.45588  0.56798  0.45180  1.0000
  S   S52       1.0  0.46358  0.46432  0.20575  1.0000
  H   H262      1.0  0.08810  0.41198  0.04194  1.0000
  C   C311      1.0  0.03259  0.50200  0.30845  1.0000
  C   C312      1.0  0.04942  0.60313  0.28004  1.0000
  C   C313      1.0  0.06491  0.61742  0.25562  1.0000
  C   C314      1.0  0.07891  0.60361  0.23374  1.0000
  P   P9        1.0  0.02742  0.55663  0.31419  1.0000
  C   C315      1.0  0.31681  0.38916  0.21709  1.0000
  C   C316      1.0  0.34154  0.33275  0.35131  1.0000
  C   C317      1.0  0.48004  0.52607  0.06637  1.0000
  H   H263      1.0  0.05262  0.50466  0.31553  1.0000
  C   C318      1.0  0.06926  0.59661  0.07628  1.0000
  P   P10       1.0  0.02764  0.63256  0.07335  1.0000
  C   C319      1.0  0.02919  0.37061  0.33897  1.0000
  Fe  Fe27      1.0  0.39689  0.36572  0.38842  1.0000
  S   S53       1.0  0.02881  0.34112  0.17960  1.0000
  C   C320      1.0  0.35282  0.48828  0.46709  1.0000
  H   H264      1.0  0.43283  0.50686  0.42205  1.0000
  H   H265      1.0  0.09697  0.41937  0.09429  1.0000
  C   C321      1.0  0.13575  0.42716  0.50959  1.0000
  H   H266      1.0  0.47519  0.45765  0.01909  1.0000
  H   H267      1.0  0.44465  0.40893  0.21260  1.0000
  C   C322      1.0  0.17194  0.35862  0.50104  1.0000
  C   C323      1.0  0.40687  0.32086  0.33284  1.0000
  C   C324      1.0  0.98804  0.37436  0.19622  1.0000
  C   C325      1.0  0.02383  0.60598  0.02119  1.0000
  H   H268      1.0  0.06117  0.53946  0.26236  1.0000
  C   C326      1.0  0.33395  0.37744  0.23738  1.0000
  Fe  Fe28      1.0  0.48122  0.56552  0.18060  1.0000
  H   H269      1.0  0.34588  0.33423  0.37448  1.0000
  H   H270      1.0  0.17643  0.37622  0.45465  1.0000
  H   H271      1.0  0.02042  0.39913  0.09476  1.0000
  C   C327      1.0  0.13075  0.34658  0.33542  1.0000
  C   C328      1.0  0.09066  0.55336  0.36678  1.0000
  C   C329      1.0  0.33635  0.50916  0.47439  1.0000
  C   C330      1.0  0.44784  0.32869  0.48791  1.0000
  H   H272      1.0  0.47248  0.52389  0.08997  1.0000
  C   C331      1.0  0.04437  0.33667  0.10334  1.0000
  H   H273      1.0  0.10319  0.37079  0.35965  1.0000
  C   C332      1.0  0.01306  0.34691  0.34588  1.0000
  H   H274      1.0  0.01063  0.60697  0.13482  1.0000
  H   H275      1.0  0.02235  0.46552  0.04825  1.0000
  C   C333      1.0  0.42054  0.54225  0.39654  1.0000
  C   C334      1.0  0.37842  0.48703  0.47731  1.0000
  H   H276      1.0  0.09325  0.53032  0.40965  1.0000
  C   C335      1.0  0.03834  0.45478  0.05796  1.0000
  C   C336      1.0  0.44490  0.52703  0.48518  1.0000
  H   H277      1.0  0.03796  0.38135  0.03631  1.0000
  C   C337      1.0  0.41941  0.35116  0.01859  1.0000
  C   C338      1.0  0.18389  0.37603  0.47679  1.0000
  H   H278      1.0  0.39041  0.47028  0.47209  1.0000
  C   C339      1.0  0.33081  0.32851  0.29143  1.0000
  C   C340      1.0  0.35649  0.35554  0.19611  1.0000
  H   H279      1.0  0.11160  0.56034  0.36463  1.0000
  C   C341      1.0  0.01596  0.52392  0.30500  1.0000
  H   H280      1.0  0.45902  0.48581  0.34487  1.0000
  C   C342      1.0  0.42713  0.56128  0.37169  1.0000
  C   C343      1.0  0.08694  0.61491  0.12894  1.0000
  C   C344      1.0  0.06465  0.44608  0.10066  1.0000
  C   C345      1.0  0.04746  0.57488  0.28248  1.0000
  C   C346      1.0  0.01992  0.37744  0.09713  1.0000
  H   H281      1.0  0.04915  0.33512  0.02590  1.0000
  H   H282      1.0  0.40709  0.36286  0.31687  1.0000
  H   H283      1.0  0.42506  0.59590  0.08809  1.0000
  C   C347      1.0  0.05388  0.52582  0.39409  1.0000
  C   C348      1.0  0.99669  0.33403  0.09788  1.0000
  C   C349      1.0  0.06485  0.62623  0.11637  1.0000
  H   H284      1.0  0.45286  0.36559  0.35767  1.0000
  C   C350      1.0  0.03757  0.53284  0.37094  1.0000
  C   C351      1.0  0.47223  0.52128  0.48301  1.0000
  C   C352      1.0  0.00401  0.62286  0.20625  1.0000
  C   C353      1.0  0.41828  0.60819  0.26089  1.0000
  C   C354      1.0  0.03101  0.63025  0.03267  1.0000
  C   C355      1.0  0.04761  0.55045  0.34563  1.0000
  C   C356      1.0  0.40820  0.33781  0.27973  1.0000
  C   C357      1.0  0.05714  0.33348  0.39385  1.0000
  C   C358      1.0  0.45973  0.38508  0.03676  1.0000
  C   C359      1.0  0.10010  0.59432  0.11533  1.0000
  C   C360      1.0  0.08048  0.42907  0.08418  1.0000
  C   C361      1.0  0.02083  0.32141  0.10126  1.0000
  H   H285      1.0  0.45513  0.57420  0.33355  1.0000
  C   C362      1.0  0.21529  0.39351  0.50962  1.0000
  C   C363      1.0  0.46861  0.63357  0.18619  1.0000
  C   C364      1.0  0.47724  0.42696  0.07657  1.0000
  H   H286      1.0  0.45554  0.58019  0.03135  1.0000
  H   H287      1.0  0.04387  0.52611  0.02180  1.0000
  H   H288      1.0  0.44955  0.58613  0.43973  1.0000
  C   C365      1.0  0.44180  0.46057  0.48207  1.0000
  C   C366      1.0  0.46627  0.36325  0.33765  1.0000
  C   C367      1.0  0.99599  0.36216  0.09559  1.0000
  H   H289      1.0  0.47656  0.44333  0.26718  1.0000
  H   H290      1.0  0.98795  0.54362  0.09565  1.0000
  C   C368      1.0  0.98966  0.39708  0.34086  1.0000
  H   H291      1.0  0.34149  0.36325  0.15249  1.0000
  C   C369      1.0  0.45384  0.42107  0.09641  1.0000
  H   H292      1.0  0.01675  0.58855  0.03644  1.0000
  H   H293      1.0  0.13392  0.34437  0.14342  1.0000
  H   H294      1.0  0.33263  0.54491  0.49765  1.0000
  C   C370      1.0  0.99757  0.47225  0.29439  1.0000
  S   S54       1.0  0.40537  0.32541  0.37170  1.0000
  C   C371      1.0  0.46551  0.38094  0.31161  1.0000
  H   H295      1.0  0.37797  0.54313  0.51540  1.0000
  H   H296      1.0  0.08688  0.34570  0.16623  1.0000
  C   C372      1.0  0.31953  0.38406  0.18657  1.0000
  S   S55       1.0  0.99147  0.58895  0.21131  1.0000
  C   C373      1.0  0.47091  0.48468  0.32366  1.0000
  C   C374      1.0  0.34559  0.52894  0.49166  1.0000
  H   H297      1.0  0.46592  0.57415  0.10375  1.0000
  H   H298      1.0  0.47954  0.59594  0.24472  1.0000
  C   C375      1.0  0.07584  0.33116  0.41535  1.0000
  H   H299      1.0  0.47428  0.38949  0.39998  1.0000
  H   H300      1.0  0.99886  0.56887  0.37260  1.0000
  H   H301      1.0  0.20376  0.45177  0.49880  1.0000
  C   C376      1.0  0.46604  0.40958  0.20602  1.0000
  H   H302      1.0  0.05459  0.64172  0.12772  1.0000
  H   H303      1.0  0.01551  0.42836  0.51295  1.0000
  H   H304      1.0  0.99229  0.58762  0.27688  1.0000
  C   C377      1.0  0.99858  0.57609  0.32380  1.0000
  C   C378      1.0  0.00239  0.44395  0.50566  1.0000
  H   H305      1.0  0.46792  0.55830  0.28441  1.0000
  H   H306      1.0  0.06579  0.63921  0.25340  1.0000
  P   P11       1.0  0.42072  0.50472  0.50880  1.0000
  C   C379      1.0  0.46925  0.65036  0.07622  1.0000
  C   C380      1.0  0.47916  0.38544  0.20293  1.0000
  H   H307      1.0  0.01451  0.44126  0.45833  1.0000
  C   C381      1.0  0.48050  0.43438  0.20074  1.0000
  C   C382      1.0  0.37127  0.52781  0.50173  1.0000
  C   C383      1.0  0.99233  0.54052  0.07205  1.0000
  C   C384      1.0  0.00170  0.45101  0.47460  1.0000
  H   H308      1.0  0.47889  0.50368  0.49564  1.0000
  H   H309      1.0  0.36166  0.64828  0.18082  1.0000
  C   C385      1.0  0.98419  0.47027  0.46449  1.0000
  C   C386      1.0  0.98499  0.34855  0.34966  1.0000
  C   C387      1.0  0.98543  0.58927  0.30045  1.0000
  H   H310      1.0  0.48116  0.39075  0.26509  1.0000
  C   C388      1.0  0.48299  0.56185  0.44938  1.0000
  H   H311      1.0  0.98443  0.41218  0.13171  1.0000
  H   H312      1.0  0.48343  0.32824  0.35789  1.0000
  H   H313      1.0  0.98544  0.46115  0.13457  1.0000
  C   C389      1.0  0.48209  0.37734  0.28545  1.0000
  H   H314      1.0  0.00915  0.31901  0.28807  1.0000
  S   S56       1.0  0.36213  0.40311  0.66205  1.0000
  S   S57       1.0  0.30279  0.40271  0.72357  1.0000
  Fe  Fe29      1.0  0.40117  0.41405  0.68044  1.0000
  S   S58       1.0  0.43673  0.38722  0.68157  1.0000
  H   H315      1.0  0.22543  0.33364  0.66543  1.0000
  Fe  Fe30      1.0  0.15361  0.42790  0.69133  1.0000
  S   S59       1.0  0.15563  0.38605  0.67738  1.0000
  S   S60       1.0  0.18948  0.45184  0.70461  1.0000
  Fe  Fe31      1.0  0.09465  0.43254  0.67778  1.0000
  S   S61       1.0  0.09277  0.39138  0.66232  1.0000
  S   S62       1.0  0.05897  0.45910  0.67564  1.0000
  Fe  Fe32      1.0  0.11459  0.37931  0.70271  1.0000
  H   H316      1.0  0.43109  0.41266  0.55612  1.0000
  Fe  Fe33      1.0  0.13358  0.40203  0.63843  1.0000
  S   S63       1.0  0.14345  0.38879  0.59200  1.0000
  S   S64       1.0  0.11405  0.42002  0.72022  1.0000
  S   S65       1.0  0.13406  0.44451  0.65045  1.0000
  C   C390      1.0  0.35617  0.42847  0.85219  1.0000
  C   C391      1.0  0.01891  0.42194  0.90145  1.0000
  C   C392      1.0  0.05591  0.35205  0.00958  1.0000
  H   H317      1.0  0.45135  0.44844  0.59534  1.0000
  C   C393      1.0  0.14260  0.41428  0.56220  1.0000
  C   C394      1.0  0.00290  0.44433  0.89914  1.0000
  H   H318      1.0  0.37478  0.48342  0.81979  1.0000
  C   C395      1.0  0.15050  0.46071  0.54097  1.0000
  C   C396      1.0  0.14973  0.44104  0.56576  1.0000
  H   H319      1.0  0.32236  0.35887  0.53632  1.0000
  H   H320      1.0  0.15556  0.44645  0.58724  1.0000
  C   C397      1.0  0.39760  0.32974  0.91536  1.0000
  S   S66       1.0  0.00612  0.54401  0.92618  1.0000
  S   S67       1.0  0.01823  0.47686  0.89157  1.0000
  C   C398      1.0  0.18196  0.35816  0.52939  1.0000
  C   C399      1.0  0.10670  0.35864  0.78280  1.0000
  C   C400      1.0  0.40333  0.43294  0.99108  1.0000
  C   C401      1.0  0.00358  0.53348  0.01061  1.0000
  H   H321      1.0  0.11768  0.37562  0.77007  1.0000
  H   H322      1.0  0.43082  0.34130  0.73429  1.0000
  C   C402      1.0  0.44512  0.36669  0.78267  1.0000
  H   H323      1.0  0.20180  0.42083  0.56269  1.0000
  C   C403      1.0  0.44750  0.32922  0.72765  1.0000
  H   H324      1.0  0.15666  0.48127  0.54358  1.0000
  C   C404      1.0  0.17281  0.50865  0.77942  1.0000
  Fe  Fe34      1.0  0.46263  0.52876  0.93620  1.0000
  C   C405      1.0  0.45084  0.39159  0.76561  1.0000
  H   H325      1.0  0.31079  0.46606  0.90809  1.0000
  C   C406      1.0  0.39447  0.51550  0.59653  1.0000
  C   C407      1.0  0.36143  0.43052  0.56647  1.0000
  C   C408      1.0  0.37303  0.40662  0.57624  1.0000
  C   C409      1.0  0.37954  0.38772  0.55568  1.0000
  H   H326      1.0  0.45519  0.48463  0.62927  1.0000
  H   H327      1.0  0.01496  0.46873  0.73973  1.0000
  C   C410      1.0  0.35636  0.43547  0.53607  1.0000
  H   H328      1.0  0.37724  0.40275  0.59952  1.0000
  H   H329      1.0  0.38860  0.36930  0.56331  1.0000
  H   H330      1.0  0.08583  0.44872  0.55410  1.0000
  C   C411      1.0  0.99871  0.32675  0.72561  1.0000
  C   C412      1.0  0.00717  0.48687  0.74791  1.0000
  Fe  Fe35      1.0  0.99218  0.51246  0.89767  1.0000
  C   C413      1.0  0.02200  0.41633  0.69058  1.0000
  C   C414      1.0  0.02631  0.44368  0.68096  1.0000
  C   C415      1.0  0.00412  0.45938  0.67630  1.0000
  H   H331      1.0  0.44856  0.47821  0.82922  1.0000
  C   C416      1.0  0.38477  0.37432  0.89703  1.0000
  H   H332      1.0  0.03891  0.40404  0.69453  1.0000
  C   C417      1.0  0.27226  0.41655  0.71377  1.0000
  C   C418      1.0  0.26963  0.44438  0.70956  1.0000
  C   C419      1.0  0.24420  0.45490  0.70633  1.0000
  C   C420      1.0  0.22135  0.43774  0.70617  1.0000
  C   C421      1.0  0.22422  0.40992  0.70880  1.0000
  C   C422      1.0  0.24952  0.39943  0.71298  1.0000
  H   H333      1.0  0.24218  0.47643  0.70413  1.0000
  H   H334      1.0  0.20690  0.39648  0.70827  1.0000
  H   H335      1.0  0.25156  0.37797  0.71547  1.0000
  Fe  Fe36      1.0  0.38394  0.46880  0.69473  1.0000
  S   S68       1.0  0.38041  0.42883  0.72226  1.0000
  S   S69       1.0  0.40343  0.50549  0.71124  1.0000
  Fe  Fe37      1.0  0.36556  0.44484  0.63877  1.0000
  S   S70       1.0  0.35380  0.45478  0.59164  1.0000
  Fe  Fe38      1.0  0.34174  0.42271  0.70077  1.0000
  S   S71       1.0  0.34360  0.46416  0.67661  1.0000
  S   S72       1.0  0.40612  0.45424  0.65366  1.0000
  Fe  Fe39      1.0  0.44279  0.53041  0.87255  1.0000
  Fe  Fe40      1.0  0.99284  0.57439  0.89094  1.0000
  S   S73       1.0  0.40471  0.52009  0.85115  1.0000
  H   H336      1.0  0.43507  0.46019  0.96906  1.0000
  H   H337      1.0  0.22670  0.53788  0.80694  1.0000
  H   H338      1.0  0.37466  0.47628  0.76527  1.0000
  C   C423      1.0  0.24490  0.42605  0.55134  1.0000
  H   H339      1.0  0.17242  0.34502  0.54838  1.0000
  C   C424      1.0  0.46091  0.41175  0.83935  1.0000
  S   S74       1.0  0.44749  0.56179  0.90530  1.0000
  S   S75       1.0  0.45363  0.49717  0.90572  1.0000
  C   C425      1.0  0.42767  0.45300  0.53581  1.0000
  H   H340      1.0  0.41848  0.45962  0.55667  1.0000
  H   H341      1.0  0.01959  0.37876  0.90781  1.0000
  C   C426      1.0  0.10404  0.35663  0.81462  1.0000
  H   H342      1.0  0.02383  0.54082  0.78525  1.0000
  S   S76       1.0  0.44861  0.52089  0.98617  1.0000
  H   H343      1.0  0.00732  0.48060  0.66925  1.0000
  H   H344      1.0  0.45755  0.44300  0.67700  1.0000
  H   H345      1.0  0.28695  0.45784  0.71015  1.0000
  C   C427      1.0  0.40574  0.50688  0.75049  1.0000
  C   C428      1.0  0.42410  0.52551  0.76002  1.0000
  C   C429      1.0  0.42497  0.52869  0.79102  1.0000
  C   C430      1.0  0.40680  0.51391  0.81259  1.0000
  C   C431      1.0  0.38879  0.49489  0.80314  1.0000
  C   C432      1.0  0.38864  0.49094  0.77226  1.0000
  H   H346      1.0  0.43733  0.53792  0.74333  1.0000
  H   H347      1.0  0.43879  0.54351  0.79809  1.0000
  C   C433      1.0  0.46969  0.40212  0.67758  1.0000
  H   H348      1.0  0.01847  0.48193  0.99605  1.0000
  H   H349      1.0  0.00738  0.52263  0.62663  1.0000
  C   C434      1.0  0.20391  0.37513  0.53352  1.0000
  H   H350      1.0  0.15440  0.32621  0.82957  1.0000
  H   H351      1.0  0.28972  0.35110  0.77216  1.0000
  P   P12       1.0  0.04916  0.43366  0.00211  1.0000
  C   C435      1.0  0.05776  0.40008  0.99399  1.0000
  C   C436      1.0  0.01480  0.43892  0.99420  1.0000
  H   H352      1.0  0.42884  0.44718  0.91791  1.0000
  H   H353      1.0  0.07500  0.32717  0.97772  1.0000
  C   C437      1.0  0.45562  0.59538  0.98455  1.0000
  C   C438      1.0  0.02541  0.60402  0.98993  1.0000
  C   C439      1.0  0.26905  0.43566  0.56124  1.0000
  C   C440      1.0  0.07197  0.39535  0.96642  1.0000
  C   C441      1.0  0.07833  0.36914  0.96070  1.0000
  C   C442      1.0  0.07052  0.34756  0.98239  1.0000
  H   H354      1.0  0.45909  0.40271  0.92994  1.0000
  C   C443      1.0  0.47196  0.48104  0.61318  1.0000
  C   C444      1.0  0.06986  0.45909  0.97833  1.0000
  C   C445      1.0  0.27437  0.33519  0.77868  1.0000
  C   C446      1.0  0.10488  0.49476  0.97164  1.0000
  C   C447      1.0  0.09915  0.50092  0.94168  1.0000
  C   C448      1.0  0.07891  0.48619  0.92997  1.0000
  C   C449      1.0  0.06434  0.46540  0.94823  1.0000
  H   H355      1.0  0.35092  0.37480  0.86980  1.0000
  S   S77       1.0  0.02993  0.32687  0.93372  1.0000
  H   H356      1.0  0.15263  0.51294  0.77394  1.0000
  C   C450      1.0  0.98842  0.40403  0.82733  1.0000
  H   H357      1.0  0.00275  0.33340  0.70169  1.0000
  C   C451      1.0  0.22135  0.43506  0.59940  1.0000
  H   H358      1.0  0.32653  0.54140  0.85102  1.0000
  H   H359      1.0  0.33005  0.44229  0.81860  1.0000
  H   H360      1.0  0.07789  0.41168  0.94916  1.0000
  H   H361      1.0  0.08876  0.36538  0.93912  1.0000
  C   C452      1.0  0.98545  0.64984  0.89494  1.0000
  H   H362      1.0  0.30089  0.46604  0.85459  1.0000
  H   H363      1.0  0.36418  0.39142  0.95523  1.0000
  H   H364      1.0  0.12032  0.50641  0.98088  1.0000
  C   C453      1.0  0.45587  0.33544  0.56117  1.0000
  H   H365      1.0  0.11011  0.51732  0.92763  1.0000
  H   H366      1.0  0.07402  0.49113  0.90691  1.0000
  H   H367      1.0  0.04831  0.45456  0.93908  1.0000
  H   H368      1.0  0.11321  0.37203  0.82638  1.0000
  C   C454      1.0  0.47413  0.38217  0.58414  1.0000
  H   H369      1.0  0.28768  0.43643  0.54662  1.0000
  C   C455      1.0  0.06968  0.41861  0.58938  1.0000
  H   H370      1.0  0.00356  0.40561  0.61217  1.0000
  C   C456      1.0  0.41601  0.43784  0.93699  1.0000
  H   H371      1.0  0.37635  0.51034  0.61162  1.0000
  C   C457      1.0  0.41967  0.44504  0.96603  1.0000
  H   H372      1.0  0.41463  0.34273  0.81242  1.0000
  C   C458      1.0  0.40845  0.40771  0.78575  1.0000
  H   H373      1.0  0.40622  0.43858  0.01356  1.0000
  C   C459      1.0  0.43260  0.41202  0.76729  1.0000
  H   H374      1.0  0.36914  0.41883  0.83618  1.0000
  C   C460      1.0  0.47171  0.52511  0.01332  1.0000
  C   C461      1.0  0.46705  0.59111  0.01198  1.0000
  C   C462      1.0  0.03459  0.62614  0.96974  1.0000
  C   C463      1.0  0.41916  0.51473  0.54696  1.0000
  C   C464      1.0  0.47069  0.60869  0.95926  1.0000
  C   C465      1.0  0.00543  0.46508  0.99223  1.0000
  H   H375      1.0  0.43684  0.43106  0.75377  1.0000
  H   H376      1.0  0.45921  0.34329  0.84690  1.0000
  C   C466      1.0  0.18302  0.32335  0.67299  1.0000
  H   H377      1.0  0.04130  0.46425  0.54226  1.0000
  C   C467      1.0  0.24739  0.34015  0.77549  1.0000
  C   C468      1.0  0.24566  0.44334  0.60963  1.0000
  C   C469      1.0  0.40204  0.38258  0.80173  1.0000
  C   C470      1.0  0.45640  0.32254  0.84230  1.0000
  H   H378      1.0  0.21169  0.37404  0.55549  1.0000
  H   H379      1.0  0.01918  0.48451  0.59770  1.0000
  H   H380      1.0  0.03568  0.62462  0.94546  1.0000
  H   H381      1.0  0.47600  0.39775  0.83313  1.0000
  H   H382      1.0  0.45756  0.54322  0.59622  1.0000
  C   C471      1.0  0.47432  0.43002  0.67564  1.0000
  H   H383      1.0  0.34710  0.45380  0.52855  1.0000
  C   C472      1.0  0.22751  0.31930  0.78208  1.0000
  H   H384      1.0  0.47765  0.44918  0.91592  1.0000
  C   C473      1.0  0.18836  0.52781  0.79192  1.0000
  H   H385      1.0  0.18019  0.54702  0.79616  1.0000
  C   C474      1.0  0.44023  0.53381  0.58782  1.0000
  C   C475      1.0  0.41677  0.52779  0.60724  1.0000
  S   S78       1.0  0.02151  0.61117  0.87964  1.0000
  C   C476      1.0  0.46982  0.46074  0.59390  1.0000
  C   C477      1.0  0.04242  0.44784  0.55969  1.0000
  P   P13       1.0  0.46908  0.34061  0.78117  1.0000
  H   H386      1.0  0.24597  0.44944  0.63238  1.0000
  H   H387      1.0  0.18023  0.32385  0.64906  1.0000
  S   S79       1.0  0.08515  0.33310  0.87085  1.0000
  C   C478      1.0  0.02255  0.50298  0.76478  1.0000
  H   H388      1.0  0.46019  0.53119  0.54357  1.0000
  C   C479      1.0  0.26947  0.44390  0.59043  1.0000
  H   H389      1.0  0.39450  0.42373  0.78689  1.0000
  C   C480      1.0  0.01208  0.64420  0.88619  1.0000
  H   H390      1.0  0.20278  0.43497  0.61409  1.0000
  C   C481      1.0  0.41914  0.42108  0.86818  1.0000
  C   C482      1.0  0.37521  0.39302  0.52511  1.0000
  H   H391      1.0  0.04797  0.39086  0.62374  1.0000
  C   C483      1.0  0.30969  0.36653  0.51927  1.0000
  C   C484      1.0  0.18619  0.35880  0.78533  1.0000
  C   C485      1.0  0.17484  0.37760  0.76543  1.0000
  C   C486      1.0  0.17008  0.40344  0.77367  1.0000
  C   C487      1.0  0.17619  0.41056  0.80197  1.0000
  C   C488      1.0  0.18749  0.39195  0.82192  1.0000
  C   C489      1.0  0.19272  0.36624  0.81355  1.0000
  H   H392      1.0  0.46239  0.40325  0.99018  1.0000
  H   H393      1.0  0.24214  0.36010  0.76704  1.0000
  C   C490      1.0  0.04643  0.40658  0.60564  1.0000
  C   C491      1.0  0.34508  0.44146  0.90275  1.0000
  C   C492      1.0  0.39601  0.41863  0.93268  1.0000
  H   H394      1.0  0.16944  0.37242  0.74362  1.0000
  H   H395      1.0  0.16146  0.41787  0.75808  1.0000
  H   H396      1.0  0.17198  0.43041  0.80848  1.0000
  H   H397      1.0  0.19197  0.39738  0.84396  1.0000
  Fe  Fe41      1.0  0.99084  0.32459  0.91359  1.0000
  H   H398      1.0  0.41793  0.36629  0.92411  1.0000
  H   H399      1.0  0.28835  0.45053  0.59821  1.0000
  C   C493      1.0  0.33410  0.44188  0.84217  1.0000
  C   C494      1.0  0.00701  0.39581  0.90658  1.0000
  C   C495      1.0  0.99566  0.40487  0.69552  1.0000
  C   C496      1.0  0.47718  0.40632  0.91467  1.0000
  P   P14       1.0  0.05605  0.49371  0.77301  1.0000
  C   C497      1.0  0.07896  0.49993  0.73910  1.0000
  C   C498      1.0  0.06711  0.51363  0.80194  1.0000
  C   C499      1.0  0.09139  0.52919  0.79714  1.0000
  C   C500      1.0  0.09879  0.54581  0.81894  1.0000
  C   C501      1.0  0.08201  0.54712  0.84560  1.0000
  C   C502      1.0  0.05791  0.53170  0.85055  1.0000
  C   C503      1.0  0.05044  0.51513  0.82880  1.0000
  C   C504      1.0  0.10389  0.48780  0.73758  1.0000
  C   C505      1.0  0.12183  0.49247  0.71145  1.0000
  C   C506      1.0  0.11494  0.50908  0.68662  1.0000
  C   C507      1.0  0.09028  0.52142  0.68807  1.0000
  C   C508      1.0  0.07235  0.51697  0.71426  1.0000
  C   C509      1.0  0.05570  0.45804  0.78520  1.0000
  C   C510      1.0  0.05514  0.43933  0.76351  1.0000
  C   C511      1.0  0.05453  0.41172  0.77230  1.0000
  C   C512      1.0  0.05492  0.40249  0.80281  1.0000
  C   C513      1.0  0.05615  0.42085  0.82451  1.0000
  C   C514      1.0  0.05636  0.44852  0.81588  1.0000
  H   H400      1.0  0.46201  0.61180  0.93783  1.0000
  H   H401      1.0  0.42531  0.33244  0.59896  1.0000
  C   C515      1.0  0.46872  0.32540  0.74593  1.0000
  C   C516      1.0  0.28839  0.38267  0.52714  1.0000
  H   H402      1.0  0.01941  0.58536  0.98129  1.0000
  H   H403      1.0  0.10434  0.52911  0.77635  1.0000
  H   H404      1.0  0.11725  0.55814  0.81489  1.0000
  H   H405      1.0  0.08733  0.56043  0.86224  1.0000
  H   H406      1.0  0.04473  0.53287  0.87106  1.0000
  H   H407      1.0  0.03129  0.50389  0.83261  1.0000
  H   H408      1.0  0.10927  0.47441  0.75640  1.0000
  H   H409      1.0  0.14080  0.48263  0.71006  1.0000
  H   H410      1.0  0.12846  0.51190  0.66601  1.0000
  H   H411      1.0  0.08468  0.53373  0.66853  1.0000
  H   H412      1.0  0.05316  0.52632  0.71469  1.0000
  H   H413      1.0  0.05527  0.44600  0.73967  1.0000
  H   H414      1.0  0.05391  0.39745  0.75540  1.0000
  H   H415      1.0  0.05418  0.38107  0.80963  1.0000
  H   H416      1.0  0.05660  0.41351  0.84812  1.0000
  H   H417      1.0  0.05691  0.46213  0.83333  1.0000
  P   P15       1.0  0.39044  0.41036  0.89495  1.0000
  C   C517      1.0  0.08878  0.33518  0.83114  1.0000
  C   C518      1.0  0.47769  0.35084  0.54538  1.0000
  C   C519      1.0  0.04957  0.37820  0.01535  1.0000
  H   H418      1.0  0.99259  0.38379  0.70305  1.0000
  C   C520      1.0  0.22091  0.42674  0.57026  1.0000
  S   S80       1.0  0.09851  0.34012  0.72790  1.0000
  C   C521      1.0  0.31768  0.45527  0.86238  1.0000
  H   H419      1.0  0.37816  0.49956  0.55866  1.0000
  C   C522      1.0  0.09513  0.33860  0.76758  1.0000
  H   H420      1.0  0.48339  0.50961  0.75666  1.0000
  H   H421      1.0  0.43531  0.58775  0.98271  1.0000
  H   H422      1.0  0.20147  0.35197  0.82921  1.0000
  C   C523      1.0  0.28684  0.52415  0.71319  1.0000
  C   C524      1.0  0.31380  0.51761  0.71058  1.0000
  C   C525      1.0  0.32419  0.50237  0.73432  1.0000
  C   C526      1.0  0.30769  0.49351  0.76067  1.0000
  C   C527      1.0  0.28067  0.50047  0.76382  1.0000
  C   C528      1.0  0.27037  0.51584  0.73976  1.0000
  P   P16       1.0  0.25984  0.49108  0.79898  1.0000
  C   C529      1.0  0.26069  0.45551  0.81079  1.0000
  C   C530      1.0  0.27073  0.50975  0.82913  1.0000
  C   C531      1.0  0.25304  0.51245  0.85501  1.0000
  C   C532      1.0  0.26175  0.52546  0.87913  1.0000
  C   C533      1.0  0.28822  0.53582  0.87774  1.0000
  C   C534      1.0  0.30592  0.53342  0.85211  1.0000
  C   C535      1.0  0.29722  0.52065  0.82784  1.0000
  C   C536      1.0  0.24905  0.44515  0.83967  1.0000
  C   C537      1.0  0.24909  0.41760  0.84875  1.0000
  C   C538      1.0  0.26031  0.40009  0.82890  1.0000
  C   C539      1.0  0.27157  0.41017  0.80006  1.0000
  C   C540      1.0  0.27175  0.43769  0.79099  1.0000
  C   C541      1.0  0.22538  0.49760  0.79262  1.0000
  C   C542      1.0  0.20976  0.47865  0.77959  1.0000
  C   C543      1.0  0.18355  0.48417  0.77318  1.0000
  H   H423      1.0  0.27869  0.53566  0.69458  1.0000
  H   H424      1.0  0.32666  0.52414  0.69007  1.0000
  H   H425      1.0  0.34511  0.49738  0.73208  1.0000
  H   H426      1.0  0.31616  0.48155  0.77869  1.0000
  H   H427      1.0  0.24963  0.52139  0.74115  1.0000
  H   H428      1.0  0.23247  0.50451  0.85662  1.0000
  H   H429      1.0  0.24800  0.52749  0.89899  1.0000
  C   C544      1.0  0.40153  0.35767  0.91331  1.0000
  H   H430      1.0  0.31153  0.51933  0.80843  1.0000
  H   H431      1.0  0.23971  0.45817  0.85518  1.0000
  H   H432      1.0  0.24013  0.40978  0.87107  1.0000
  H   H433      1.0  0.26003  0.37870  0.83567  1.0000
  H   H434      1.0  0.27996  0.39666  0.78444  1.0000
  H   H435      1.0  0.28025  0.44476  0.76836  1.0000
  H   H436      1.0  0.21797  0.45987  0.77354  1.0000
  H   H437      1.0  0.17177  0.46967  0.76261  1.0000
  H   H438      1.0  0.42769  0.37318  0.97459  1.0000
  H   H439      1.0  0.00485  0.39743  0.98732  1.0000
  C   C545      1.0  0.99791  0.41762  0.98754  1.0000
  H   H440      1.0  0.43639  0.38191  0.86775  1.0000
  C   C546      1.0  0.36164  0.42776  0.88263  1.0000
  C   C547      1.0  0.13531  0.40748  0.53419  1.0000
  C   C548      1.0  0.45167  0.36741  0.59880  1.0000
  C   C549      1.0  0.38343  0.41353  0.98710  1.0000
  C   C550      1.0  0.02114  0.41498  0.59885  1.0000
  H   H441      1.0  0.29505  0.54580  0.89647  1.0000
  H   H442      1.0  0.04056  0.42474  0.89908  1.0000
  C   C551      1.0  0.21464  0.52243  0.79826  1.0000
  C   C552      1.0  0.42282  0.44822  0.85680  1.0000
  C   C553      1.0  0.43466  0.42621  0.53559  1.0000
  C   C554      1.0  0.46463  0.43888  0.82859  1.0000
  C   C555      1.0  0.37978  0.40634  0.95801  1.0000
  C   C556      1.0  0.32322  0.45517  0.89259  1.0000
  H   H443      1.0  0.34914  0.44212  0.92612  1.0000
  H   H444      1.0  0.41590  0.53232  0.63071  1.0000
  H   H445      1.0  0.44161  0.37381  0.61940  1.0000
  H   H446      1.0  0.38290  0.37881  0.81511  1.0000
  H   H447      1.0  0.00814  0.53062  0.98708  1.0000
  C   C557      1.0  0.09031  0.47393  0.98996  1.0000
  C   C558      1.0  0.39560  0.50923  0.56649  1.0000
  C   C559      1.0  0.36422  0.36256  0.88242  1.0000
  C   C560      1.0  0.01888  0.43531  0.57538  1.0000
  C   C561      1.0  0.44159  0.52703  0.55788  1.0000
  H   H448      1.0  0.40853  0.46275  0.86374  1.0000
  C   C562      1.0  0.42023  0.36211  0.80015  1.0000
  C   C563      1.0  0.43830  0.40284  0.85910  1.0000
  C   C564      1.0  0.44552  0.45708  0.83719  1.0000
  H   H449      1.0  0.40423  0.33772  0.01148  1.0000
  C   C565      1.0  0.44253  0.34407  0.58730  1.0000
  H   H450      1.0  0.28433  0.38640  0.55062  1.0000
  H   H451      1.0  0.08926  0.41208  0.59472  1.0000
  H   H452      1.0  0.46909  0.39510  0.75059  1.0000
  H   H453      1.0  0.47021  0.46487  0.74207  1.0000
  S   S81       1.0  0.47499  0.35200  0.91138  1.0000
  C   C566      1.0  0.06770  0.43929  0.56647  1.0000
  H   H454      1.0  0.45990  0.62176  0.87429  1.0000
  C   C567      1.0  0.47257  0.63946  0.87592  1.0000
  C   C568      1.0  0.99837  0.48979  0.60057  1.0000
  H   H455      1.0  0.09475  0.46991  0.01325  1.0000
  C   C569      1.0  0.01221  0.52724  0.77340  1.0000
  H   H456      1.0  0.34470  0.32551  0.87287  1.0000
  H   H457      1.0  0.12913  0.38695  0.53154  1.0000
  C   C570      1.0  0.99175  0.51152  0.61706  1.0000
  C   C571      1.0  0.43255  0.37111  0.99786  1.0000
  C   C572      1.0  0.21182  0.32910  0.71309  1.0000
  H   H458      1.0  0.99904  0.44361  0.80519  1.0000
  P   P17       1.0  0.19318  0.32556  0.77483  1.0000
  C   C573      1.0  0.20843  0.32896  0.68223  1.0000
  C   C574      1.0  0.36054  0.33454  0.88418  1.0000
  H   H459      1.0  0.23164  0.33359  0.71959  1.0000
  C   C575      1.0  0.44807  0.31817  0.69986  1.0000
  C   C576      1.0  0.45242  0.38819  0.00690  1.0000
  H   H460      1.0  0.37092  0.40402  0.00660  1.0000
  H   H461      1.0  0.99945  0.40712  0.84656  1.0000
  H   H462      1.0  0.43199  0.32198  0.68547  1.0000
  C   C577      1.0  0.18972  0.32372  0.73497  1.0000
  C   C578      1.0  0.98600  0.45664  0.52692  1.0000
  P   P18       1.0  0.98626  0.44688  0.56708  1.0000
  C   C579      1.0  0.04238  0.65016  0.98086  1.0000
  C   C580      1.0  0.98839  0.42458  0.80383  1.0000
  C   C581      1.0  0.98654  0.53449  0.76659  1.0000
  C   C582      1.0  0.16426  0.31829  0.72543  1.0000
  C   C583      1.0  0.16098  0.31791  0.69461  1.0000
  H   H463      1.0  0.48170  0.39952  0.59410  1.0000
  H   H464      1.0  0.48259  0.44591  0.81413  1.0000
  C   C584      1.0  0.37721  0.31814  0.90067  1.0000
  C   C585      1.0  0.27836  0.88331  0.46408  1.0000
  H   H465      1.0  0.45802  0.79673  0.37589  1.0000
  S   S82       1.0  0.11639  0.92351  0.34629  1.0000
  H   H466      1.0  0.45789  0.88465  0.32501  1.0000
  Fe  Fe42      1.0  0.12973  0.94515  0.42531  1.0000
  S   S83       1.0  0.13336  0.90273  0.41375  1.0000
  S   S84       1.0  0.14034  0.95927  0.46957  1.0000
  Fe  Fe43      1.0  0.15456  0.92167  0.36986  1.0000
  S   S85       1.0  0.19215  0.90236  0.35095  1.0000
  Fe  Fe44      1.0  0.09505  0.90863  0.39157  1.0000
  S   S86       1.0  0.05972  0.87836  0.39640  1.0000
  C   C586      1.0  0.03072  0.72611  0.01693  1.0000
  S   S87       1.0  0.08953  0.94928  0.40755  1.0000
  Fe  Fe45      1.0  0.36837  0.87009  0.44713  1.0000
  S   S88       1.0  0.37315  0.91267  0.42650  1.0000
  Fe  Fe46      1.0  0.36668  0.84889  0.38518  1.0000
  S   S89       1.0  0.37091  0.89020  0.35994  1.0000
  S   S90       1.0  0.35770  0.80911  0.36731  1.0000
  Fe  Fe47      1.0  0.40261  0.89724  0.39186  1.0000
  S   S91       1.0  0.44102  0.92304  0.37953  1.0000
  Fe  Fe48      1.0  0.34096  0.90158  0.39710  1.0000
  S   S92       1.0  0.30682  0.93039  0.39483  1.0000
  S   S93       1.0  0.40018  0.85511  0.41462  1.0000
  S   S94       1.0  0.33456  0.85986  0.42006  1.0000
  P   P19       1.0  0.99890  0.95943  0.46169  1.0000
  S   S95       1.0  0.43613  0.81972  0.17586  1.0000
  S   S96       1.0  0.02394  0.84750  0.21090  1.0000
  C   C587      1.0  0.34775  0.68939  0.33394  1.0000
  S   S97       1.0  0.43651  0.75449  0.16989  1.0000
  S   S98       1.0  0.03669  0.71069  0.20087  1.0000
  Fe  Fe49      1.0  0.45045  0.79239  0.14083  1.0000
  S   S99       1.0  0.43872  0.79922  0.09295  1.0000
  Fe  Fe50      1.0  0.42613  0.78172  0.20634  1.0000
  S   S100      1.0  0.38824  0.77099  0.23715  1.0000
  S   S101      1.0  0.01908  0.78143  0.16811  1.0000
  C   C588      1.0  0.02661  0.78907  0.02998  1.0000
  C   C589      1.0  0.36606  0.80185  0.32962  1.0000
  C   C590      1.0  0.35182  0.78029  0.31964  1.0000
  C   C591      1.0  0.35882  0.77164  0.29112  1.0000
  C   C592      1.0  0.38040  0.78415  0.27218  1.0000
  C   C593      1.0  0.39481  0.80595  0.28183  1.0000
  C   C594      1.0  0.38747  0.81497  0.31057  1.0000
  H   H467      1.0  0.33541  0.76999  0.33422  1.0000
  H   H468      1.0  0.34761  0.75488  0.28383  1.0000
  H   H469      1.0  0.41159  0.81565  0.26731  1.0000
  H   H470      1.0  0.39884  0.83140  0.31831  1.0000
  C   C595      1.0  0.02918  0.89186  0.38621  1.0000
  C   C596      1.0  0.02873  0.91745  0.37065  1.0000
  C   C597      1.0  0.00448  0.92709  0.36123  1.0000
  H   H471      1.0  0.41133  0.77784  0.38421  1.0000
  C   C598      1.0  0.00138  0.80827  0.33218  1.0000
  C   C599      1.0  0.00503  0.87644  0.39291  1.0000
  H   H472      1.0  0.04721  0.92954  0.36496  1.0000
  C   C600      1.0  0.05538  0.80115  0.40851  1.0000
  H   H473      1.0  0.36109  0.91508  0.48718  1.0000
  H   H474      1.0  0.00522  0.85651  0.40453  1.0000
  C   C601      1.0  0.22373  0.90991  0.36403  1.0000
  C   C602      1.0  0.24532  0.89343  0.35770  1.0000
  C   C603      1.0  0.27084  0.89926  0.36725  1.0000
  C   C604      1.0  0.27505  0.92187  0.38281  1.0000
  C   C605      1.0  0.25349  0.93840  0.38898  1.0000
  C   C606      1.0  0.22784  0.93223  0.38010  1.0000
  H   H475      1.0  0.24235  0.87620  0.34517  1.0000
  H   H476      1.0  0.28742  0.88670  0.36184  1.0000
  H   H477      1.0  0.25661  0.95604  0.40075  1.0000
  H   H478      1.0  0.21145  0.94515  0.38498  1.0000
  C   C607      1.0  0.06323  0.90988  0.01695  1.0000
  H   H479      1.0  0.39287  0.75120  0.34613  1.0000
  H   H480      1.0  0.46026  0.83667  0.34076  1.0000
  C   C608      1.0  0.01009  0.87800  0.19740  1.0000
  C   C609      1.0  0.02384  0.90257  0.19994  1.0000
  C   C610      1.0  0.01377  0.92706  0.18857  1.0000
  C   C611      1.0  0.42932  0.75479  0.31606  1.0000
  C   C612      1.0  0.36261  0.69698  0.35712  1.0000
  H   H481      1.0  0.04240  0.90274  0.21063  1.0000
  H   H482      1.0  0.02455  0.94586  0.19071  1.0000
  H   H483      1.0  0.02587  0.75115  0.45905  1.0000
  C   C613      1.0  0.41354  0.70083  0.13197  1.0000
  C   C614      1.0  0.45117  0.92849  0.45992  1.0000
  C   C615      1.0  0.41358  0.75880  0.34269  1.0000
  C   C616      1.0  0.00402  0.71765  0.02608  1.0000
  H   H484      1.0  0.43477  0.80196  0.02897  1.0000
  C   C617      1.0  0.07431  0.90510  0.14327  1.0000
  H   H485      1.0  0.16437  0.80607  0.18236  1.0000
  H   H486      1.0  0.99632  0.71957  0.04918  1.0000
  C   C618      1.0  0.31054  0.98244  0.48470  1.0000
  H   H487      1.0  0.07946  0.85192  0.31999  1.0000
  S   S102      1.0  0.15279  0.96407  0.38251  1.0000
  C   C619      1.0  0.00755  0.94419  0.26139  1.0000
  C   C620      1.0  0.46231  0.68170  0.18779  1.0000
  C   C621      1.0  0.45374  0.91197  0.20127  1.0000
  C   C622      1.0  0.03415  0.78864  0.05952  1.0000
  H   H488      1.0  0.06421  0.78484  0.45282  1.0000
  H   H489      1.0  0.01189  0.95280  0.10995  1.0000
  H   H490      1.0  0.05519  0.79064  0.06313  1.0000
  C   C623      1.0  0.38095  0.65307  0.22149  1.0000
  H   H491      1.0  0.11488  0.90540  0.47789  1.0000
  H   H492      1.0  0.45029  0.86909  0.19936  1.0000
  C   C624      1.0  0.03096  0.71719  0.10655  1.0000
  H   H493      1.0  0.47960  0.73331  0.02092  1.0000
  C   C625      1.0  0.98737  0.78311  0.08009  1.0000
  H   H494      1.0  0.08096  0.86926  0.17088  1.0000
  C   C626      1.0  0.00596  0.90910  0.05622  1.0000
  C   C627      1.0  0.01637  0.78086  0.38886  1.0000
  C   C628      1.0  0.43400  0.68922  0.11481  1.0000
  C   C629      1.0  0.39006  0.69233  0.35611  1.0000
  H   H495      1.0  0.09903  0.96778  0.15232  1.0000
  H   H496      1.0  0.05835  0.92361  0.03378  1.0000
  S   S103      1.0  0.36486  0.85715  0.49750  1.0000
  H   H497      1.0  0.00217  0.87663  0.32083  1.0000
  C   C630      1.0  0.29712  0.89266  0.48249  1.0000
  C   C631      1.0  0.45171  0.65534  0.18689  1.0000
  C   C632      1.0  0.02931  0.84436  0.12952  1.0000
  C   C633      1.0  0.38463  0.96823  0.34561  1.0000
  H   H498      1.0  0.06942  0.84935  0.05056  1.0000
  C   C634      1.0  0.24902  0.81811  0.49295  1.0000
  C   C635      1.0  0.38825  0.67088  0.24237  1.0000
  C   C636      1.0  0.36011  0.68893  0.19296  1.0000
  C   C637      1.0  0.99691  0.67005  0.21378  1.0000
  C   C638      1.0  0.46228  0.79308  0.06272  1.0000
  H   H499      1.0  0.04003  0.97674  0.41027  1.0000
  H   H500      1.0  0.06998  0.94419  0.11998  1.0000
  C   C639      1.0  0.03276  0.86001  0.07603  1.0000
  H   H501      1.0  0.44239  0.89024  0.44358  1.0000
  C   C640      1.0  0.12231  0.79650  0.19535  1.0000
  S   S104      1.0  0.45777  0.96640  0.20464  1.0000
  C   C641      1.0  0.02769  0.66680  0.08351  1.0000
  C   C642      1.0  0.02741  0.82468  0.28494  1.0000
  C   C643      1.0  0.13388  0.93560  0.50133  1.0000
  C   C644      1.0  0.06914  0.83598  0.09752  1.0000
  C   C645      1.0  0.14539  0.81360  0.19091  1.0000
  Fe  Fe51      1.0  0.00879  0.74556  0.20196  1.0000
  C   C646      1.0  0.40145  0.72358  0.11975  1.0000
  C   C647      1.0  0.00478  0.72789  0.35317  1.0000
  H   H502      1.0  0.06313  0.82383  0.14548  1.0000
  H   H503      1.0  0.38621  0.73315  0.13338  1.0000
  H   H504      1.0  0.02168  0.92836  0.26004  1.0000
  H   H505      1.0  0.21075  0.92809  0.50723  1.0000
  H   H506      1.0  0.16206  0.85333  0.19360  1.0000
  C   C648      1.0  0.43054  0.72334  0.07319  1.0000
  C   C649      1.0  0.09555  0.94615  0.15616  1.0000
  C   C650      1.0  0.99085  0.92381  0.46373  1.0000
  C   C651      1.0  0.08572  0.89059  0.16687  1.0000
  C   C652      1.0  0.17251  0.85037  0.49696  1.0000
  C   C653      1.0  0.47090  0.93424  0.20405  1.0000
  H   H507      1.0  0.34939  0.69597  0.17387  1.0000
  C   C654      1.0  0.03083  0.96551  0.47658  1.0000
  H   H508      1.0  0.06901  0.67614  0.06539  1.0000
  H   H509      1.0  0.11914  0.94262  0.19404  1.0000
  H   H510      1.0  0.45924  0.86829  0.39118  1.0000
  C   C655      1.0  0.45487  0.79614  0.03297  1.0000
  H   H511      1.0  0.43723  0.73304  0.05096  1.0000
  C   C656      1.0  0.00575  0.85611  0.31625  1.0000
  H   H512      1.0  0.23495  0.81166  0.47767  1.0000
  Fe  Fe52      1.0  0.47780  0.75533  0.18536  1.0000
  H   H513      1.0  0.20598  0.92822  0.17883  1.0000
  P   P20       1.0  0.47015  0.68587  0.06402  1.0000
  C   C657      1.0  0.45558  0.76590  0.31084  1.0000
  C   C658      1.0  0.08096  0.86848  0.30231  1.0000
  H   H514      1.0  0.05972  0.89479  0.33028  1.0000
  C   C659      1.0  0.44207  0.90152  0.46323  1.0000
  H   H515      1.0  0.17457  0.89222  0.50428  1.0000
  H   H516      1.0  0.07133  0.72077  0.08492  1.0000
  C   C660      1.0  0.44710  0.69734  0.26087  1.0000
  H   H517      1.0  0.02680  0.92987  0.50880  1.0000
  C   C661      1.0  0.98522  0.92123  0.04147  1.0000
  C   C662      1.0  0.43953  0.67067  0.27194  1.0000
  C   C663      1.0  0.47657  0.88216  0.38806  1.0000
  H   H518      1.0  0.05231  0.97659  0.07001  1.0000
  H   H519      1.0  0.31970  0.96065  0.44536  1.0000
  C   C664      1.0  0.27644  0.81414  0.48695  1.0000
  C   C665      1.0  0.36732  0.70678  0.21348  1.0000
  C   C666      1.0  0.38118  0.69782  0.23813  1.0000
  H   H520      1.0  0.43260  0.91476  0.19921  1.0000
  H   H521      1.0  0.11586  0.74312  0.42919  1.0000
  H   H522      1.0  0.43262  0.71100  0.25252  1.0000
  C   C667      1.0  0.99941  0.78576  0.02556  1.0000
  H   H523      1.0  0.04613  0.67129  0.02004  1.0000
  H   H524      1.0  0.01689  0.72856  0.37200  1.0000
  H   H525      1.0  0.36213  0.72767  0.21036  1.0000
  H   H526      1.0  0.38596  0.71199  0.25408  1.0000
  H   H527      1.0  0.00460  0.94614  0.34768  1.0000
  C   C668      1.0  0.29463  0.82281  0.50646  1.0000
  C   C669      1.0  0.38206  0.90845  0.27899  1.0000
  C   C670      1.0  0.40383  0.89267  0.27209  1.0000
  C   C671      1.0  0.43001  0.90366  0.27096  1.0000
  C   C672      1.0  0.43458  0.93034  0.27700  1.0000
  C   C673      1.0  0.41284  0.94619  0.28449  1.0000
  C   C674      1.0  0.38650  0.93515  0.28495  1.0000
  C   C675      1.0  0.17750  0.87769  0.48787  1.0000
  C   C676      1.0  0.14858  0.73335  0.45597  1.0000
  C   C677      1.0  0.43263  0.88916  0.49182  1.0000
  C   C678      1.0  0.17355  0.74194  0.46426  1.0000
  Fe  Fe53      1.0  0.11266  0.96422  0.36324  1.0000
  C   C679      1.0  0.36528  0.91005  0.51023  1.0000
  H   H528      1.0  0.14513  0.89498  0.26994  1.0000
  C   C680      1.0  0.44984  0.94363  0.48501  1.0000
  H   H529      1.0  0.35290  0.70672  0.37572  1.0000
  H   H530      1.0  0.06027  0.66247  0.18221  1.0000
  H   H531      1.0  0.13961  0.71391  0.46521  1.0000
  C   C681      1.0  0.07163  0.91436  0.28580  1.0000
  C   C682      1.0  0.00563  0.67601  0.10090  1.0000
  C   C683      1.0  0.44261  0.70029  0.08519  1.0000
  H   H532      1.0  0.42024  0.96659  0.43878  1.0000
  H   H533      1.0  0.42075  0.74401  0.29889  1.0000
  H   H534      1.0  0.98899  0.68517  0.30130  1.0000
  H   H535      1.0  0.06360  0.93345  0.29090  1.0000
  H   H536      1.0  0.16124  0.90798  0.17246  1.0000
  H   H537      1.0  0.36174  0.89997  0.27971  1.0000
  H   H538      1.0  0.40043  0.87203  0.26722  1.0000
  H   H539      1.0  0.40161  0.69843  0.37398  1.0000
  H   H540      1.0  0.44678  0.89160  0.26462  1.0000
  H   H541      1.0  0.36934  0.94712  0.28998  1.0000
  H   H542      1.0  0.36732  0.97582  0.43802  1.0000
  C   C684      1.0  0.02116  0.85102  0.28980  1.0000
  C   C685      1.0  0.99127  0.85924  0.03191  1.0000
  H   H543      1.0  0.45500  0.93861  0.27531  1.0000
  H   H544      1.0  0.35740  0.95723  0.38537  1.0000
  H   H545      1.0  0.07985  0.79300  0.20969  1.0000
  H   H546      1.0  0.22028  0.93176  0.23036  1.0000
  P   P21       1.0  0.27588  0.97004  0.49102  1.0000
  H   H547      1.0  0.39512  0.94966  0.34800  1.0000
  C   C686      1.0  0.35446  0.98284  0.45627  1.0000
  H   H548      1.0  0.01776  0.84204  0.15131  1.0000
  C   C687      1.0  0.02330  0.67722  0.20176  1.0000
  H   H549      1.0  0.03577  0.97247  0.27632  1.0000
  C   C688      1.0  0.11945  0.85029  0.20841  1.0000
  H   H550      1.0  0.03234  0.91256  0.09187  1.0000
  C   C689      1.0  0.10696  0.93174  0.17986  1.0000
  H   H551      1.0  0.03985  0.82075  0.26476  1.0000
  C   C690      1.0  0.42404  0.77384  0.36419  1.0000
  H   H552      1.0  0.06117  0.89481  0.12963  1.0000
  H   H553      1.0  0.10388  0.84712  0.27027  1.0000
  C   C691      1.0  0.09644  0.83290  0.21297  1.0000
  C   C692      1.0  0.09625  0.88731  0.25105  1.0000
  C   C693      1.0  0.01138  0.90577  0.45928  1.0000
  C   C694      1.0  0.05478  0.83389  0.12607  1.0000
  H   H554      1.0  0.21754  0.97596  0.49253  1.0000
  C   C695      1.0  0.27529  0.93526  0.48279  1.0000
  C   C696      1.0  0.25625  0.92542  0.46466  1.0000
  C   C697      1.0  0.25776  0.89953  0.45551  1.0000
  H   H555      1.0  0.32651  0.69318  0.33460  1.0000
  C   C698      1.0  0.09783  0.80617  0.20637  1.0000
  C   C699      1.0  0.00549  0.87806  0.46318  1.0000
  C   C700      1.0  0.18346  0.91329  0.25316  1.0000
  C   C701      1.0  0.14966  0.90005  0.22064  1.0000
  H   H556      1.0  0.28024  0.86385  0.45562  1.0000
  C   C702      1.0  0.16723  0.90936  0.19508  1.0000
  H   H557      1.0  0.08654  0.92889  0.24042  1.0000
  H   H558      1.0  0.03198  0.91305  0.45275  1.0000
  H   H559      1.0  0.42534  0.86831  0.49436  1.0000
  H   H560      1.0  0.03231  0.73638  0.11596  1.0000
  C   C703      1.0  0.05140  0.68318  0.07779  1.0000
  H   H561      1.0  0.02072  0.78664  0.10683  1.0000
  C   C704      1.0  0.03983  0.65712  0.19149  1.0000
  H   H562      1.0  0.28371  0.80474  0.46693  1.0000
  C   C705      1.0  0.01785  0.80341  0.30616  1.0000
  C   C706      1.0  0.14400  0.84043  0.19736  1.0000
  H   H563      1.0  0.02861  0.86748  0.27320  1.0000
  C   C707      1.0  0.46377  0.88605  0.20126  1.0000
  H   H564      1.0  0.24072  0.93781  0.45646  1.0000
  H   H565      1.0  0.24371  0.89263  0.44047  1.0000
  C   C708      1.0  0.10222  0.90376  0.18538  1.0000
  H   H566      1.0  0.18966  0.91495  0.27573  1.0000
  H   H567      1.0  0.45909  0.93757  0.43769  1.0000
  C   C709      1.0  0.45037  0.78479  0.35917  1.0000
  H   H568      1.0  0.12335  0.77576  0.19022  1.0000
  C   C710      1.0  0.01599  0.92108  0.08049  1.0000
  P   P22       1.0  0.01917  0.87824  0.04426  1.0000
  H   H569      1.0  0.07734  0.84014  0.22142  1.0000
  H   H570      1.0  0.40782  0.69272  0.15511  1.0000
  C   C711      1.0  0.32739  0.97416  0.46060  1.0000
  C   C712      1.0  0.01848  0.85768  0.10485  1.0000
  H   H571      1.0  0.07158  0.81647  0.40614  1.0000
  H   H572      1.0  0.31346  0.88025  0.48859  1.0000
  H   H573      1.0  0.40140  0.75312  0.08136  1.0000
  H   H574      1.0  0.44903  0.69821  0.18848  1.0000
  H   H575      1.0  0.12132  0.97016  0.29327  1.0000
  H   H576      1.0  0.02360  0.78327  0.30227  1.0000
  C   C713      1.0  0.07919  0.93287  0.13791  1.0000
  P   P23       1.0  0.11696  0.88509  0.21606  1.0000
  C   C714      1.0  0.17040  0.84024  0.33021  1.0000
  C   C715      1.0  0.14507  0.85087  0.33481  1.0000
  C   C716      1.0  0.13229  0.85045  0.36411  1.0000
  C   C717      1.0  0.14511  0.83988  0.38892  1.0000
  C   C718      1.0  0.17074  0.82946  0.38455  1.0000
  C   C719      1.0  0.18321  0.82948  0.35496  1.0000
  P   P24       1.0  0.18706  0.81613  0.41694  1.0000
  C   C720      1.0  0.18359  0.84000  0.44506  1.0000
  C   C721      1.0  0.17180  0.78372  0.43198  1.0000
  C   C722      1.0  0.18514  0.76700  0.45232  1.0000
  H   H577      1.0  0.04168  0.81429  0.36579  1.0000
  C   C723      1.0  0.01205  0.76338  0.41559  1.0000
  C   C724      1.0  0.13519  0.74982  0.43570  1.0000
  C   C725      1.0  0.14673  0.77490  0.42371  1.0000
  C   C726      1.0  0.18791  0.86762  0.43611  1.0000
  C   C727      1.0  0.18510  0.88636  0.45749  1.0000
  C   C728      1.0  0.12176  0.91028  0.49912  1.0000
  C   C729      1.0  0.02948  0.76455  0.43837  1.0000
  C   C730      1.0  0.17566  0.83151  0.47570  1.0000
  C   C731      1.0  0.22233  0.81222  0.40572  1.0000
  C   C732      1.0  0.23071  0.78830  0.39426  1.0000
  C   C733      1.0  0.25786  0.78528  0.38499  1.0000
  C   C734      1.0  0.27680  0.80617  0.38682  1.0000
  C   C735      1.0  0.26857  0.83008  0.39786  1.0000
  C   C736      1.0  0.24151  0.83318  0.40719  1.0000
  H   H578      1.0  0.18057  0.84127  0.30755  1.0000
  H   H579      1.0  0.13571  0.86016  0.31577  1.0000
  H   H580      1.0  0.11281  0.85909  0.36770  1.0000
  H   H581      1.0  0.13520  0.84029  0.41155  1.0000
  H   H582      1.0  0.20311  0.82202  0.35085  1.0000
  H   H583      1.0  0.20449  0.77338  0.45899  1.0000
  C   C737      1.0  0.40998  0.73482  0.09040  1.0000
  C   C738      1.0  0.00736  0.70106  0.11243  1.0000
  C   C739      1.0  0.46632  0.78109  0.33230  1.0000
  H   H584      1.0  0.13598  0.78714  0.40796  1.0000
  H   H585      1.0  0.19310  0.87475  0.41248  1.0000
  H   H586      1.0  0.18794  0.90769  0.45030  1.0000
  H   H587      1.0  0.46713  0.76301  0.28978  1.0000
  C   C740      1.0  0.05109  0.78348  0.43488  1.0000
  H   H588      1.0  0.17137  0.81052  0.48329  1.0000
  H   H589      1.0  0.21626  0.77211  0.39202  1.0000
  H   H590      1.0  0.26424  0.76692  0.37592  1.0000
  H   H591      1.0  0.29782  0.80406  0.37921  1.0000
  H   H592      1.0  0.28314  0.84651  0.39854  1.0000
  H   H593      1.0  0.23577  0.85218  0.41482  1.0000
  C   C741      1.0  0.08475  0.91167  0.25721  1.0000
  C   C742      1.0  0.46706  0.69129  0.02373  1.0000
  C   C743      1.0  0.05810  0.84870  0.07251  1.0000
  C   C744      1.0  0.20070  0.92276  0.22761  1.0000
  C   C745      1.0  0.47452  0.87359  0.31582  1.0000
  C   C746      1.0  0.03908  0.94761  0.49990  1.0000
  H   H594      1.0  0.08862  0.82729  0.09460  1.0000
  C   C747      1.0  0.01460  0.78604  0.08443  1.0000
  C   C748      1.0  0.09437  0.86577  0.27392  1.0000
  P   P25       1.0  0.99191  0.78121  0.36125  1.0000
  C   C749      1.0  0.05295  0.70831  0.08916  1.0000
  C   C750      1.0  0.06964  0.89273  0.30817  1.0000
  H   H595      1.0  0.44357  0.67203  0.12503  1.0000
  C   C751      1.0  0.15809  0.90191  0.24973  1.0000
  C   C752      1.0  0.19261  0.92076  0.19860  1.0000
  H   H596      1.0  0.31598  0.82007  0.50160  1.0000
  H   H597      1.0  0.42413  0.67751  0.33108  1.0000
  H   H598      1.0  0.47977  0.72702  0.25080  1.0000
  C   C753      1.0  0.00461  0.94407  0.09067  1.0000
  S   S105      1.0  0.46630  0.77965  0.22416  1.0000
  C   C754      1.0  0.99523  0.83477  0.33697  1.0000
  C   C755      1.0  0.40277  0.68049  0.33168  1.0000
  C   C756      1.0  0.47386  0.70669  0.26011  1.0000
  P   P26       1.0  0.46190  0.97836  0.48020  1.0000
  H   H599      1.0  0.02152  0.86433  0.45969  1.0000
  C   C757      1.0  0.98598  0.87822  0.18370  1.0000
  Fe  Fe54      1.0  0.00381  0.80711  0.20430  1.0000
  C   C758      1.0  0.36033  0.67732  0.30961  1.0000
  H   H600      1.0  0.18393  0.72912  0.47995  1.0000
  C   C759      1.0  0.01547  0.96905  0.27041  1.0000
  C   C760      1.0  0.29562  0.91850  0.49186  1.0000
  H   H601      1.0  0.99918  0.86651  0.10860  1.0000
  P   P27       1.0  0.40454  0.65918  0.27564  1.0000
  H   H602      1.0  0.04303  0.73458  0.03278  1.0000
  S   S106      1.0  0.99852  0.77157  0.23989  1.0000
  H   H603      1.0  0.34850  0.67171  0.29174  1.0000
  H   H604      1.0  0.12013  0.97338  0.23743  1.0000
  C   C761      1.0  0.06018  0.97974  0.02139  1.0000
  H   H605      1.0  0.45899  0.96442  0.03754  1.0000
  C   C762      1.0  0.98942  0.92718  0.17535  1.0000
  H   H606      1.0  0.01549  0.68747  0.34561  1.0000
  H   H607      1.0  0.99485  0.74922  0.41903  1.0000
  C   C763      1.0  0.00417  0.70450  0.33814  1.0000
  C   C764      1.0  0.03820  0.79984  0.38555  1.0000
  C   C765      1.0  0.99705  0.97325  0.42291  1.0000
  C   C766      1.0  0.99032  0.75012  0.34338  1.0000
  C   C767      1.0  0.38802  0.67312  0.30809  1.0000
  Fe  Fe55      1.0  0.47750  0.81608  0.19132  1.0000
  C   C768      1.0  0.06334  0.95252  0.51216  1.0000
  H   H608      1.0  0.99065  0.70782  0.12659  1.0000
  C   C769      1.0  0.36702  0.66211  0.19690  1.0000
  C   C770      1.0  0.98925  0.70315  0.31318  1.0000
  H   H609      1.0  0.31107  0.92578  0.50498  1.0000
  H   H610      1.0  0.04141  0.96916  0.01872  1.0000
  C   C771      1.0  0.47604  0.84620  0.32479  1.0000
  H   H611      1.0  0.98739  0.66361  0.10653  1.0000
  H   H612      1.0  0.43032  0.65182  0.18648  1.0000
  P   P28       1.0  0.41821  0.98072  0.29243  1.0000
  C   C772      1.0  0.36331  0.97247  0.36691  1.0000
  H   H613      1.0  0.39558  0.97529  0.23409  1.0000
  C   C773      1.0  0.45913  0.65390  0.28311  1.0000
  C   C774      1.0  0.47316  0.90976  0.38233  1.0000
  C   C775      1.0  0.02031  0.98055  0.40332  1.0000
  C   C776      1.0  0.06631  0.98373  0.05072  1.0000
  C   C777      1.0  0.07926  0.97560  0.50175  1.0000
  H   H614      1.0  0.09828  0.97914  0.51088  1.0000
  C   C778      1.0  0.10739  0.98312  0.28256  1.0000
  H   H615      1.0  0.43634  0.98341  0.35360  1.0000
  C   C779      1.0  0.44080  0.93093  0.51379  1.0000
  C   C780      1.0  0.45489  0.95705  0.01627  1.0000
  H   H616      1.0  0.98402  0.68527  0.22193  1.0000
  C   C781      1.0  0.98352  0.95561  0.07640  1.0000
  H   H617      1.0  0.23306  0.88527  0.51586  1.0000
  S   S107      1.0  0.38304  0.90091  0.65501  1.0000
  S   S108      1.0  0.31850  0.89974  0.70919  1.0000
  Fe  Fe56      1.0  0.41935  0.91329  0.67776  1.0000
  S   S109      1.0  0.45460  0.88693  0.68552  1.0000
  H   H618      1.0  0.99869  0.83426  0.69067  1.0000
  Fe  Fe57      1.0  0.16991  0.91508  0.66787  1.0000
  S   S110      1.0  0.16938  0.87289  0.65460  1.0000
  S   S111      1.0  0.20818  0.94148  0.66546  1.0000
  Fe  Fe58      1.0  0.10809  0.91534  0.67710  1.0000
  S   S112      1.0  0.10349  0.87326  0.66484  1.0000
  S   S113      1.0  0.07237  0.94050  0.68856  1.0000
  Fe  Fe59      1.0  0.13729  0.86464  0.69347  1.0000
  S   S114      1.0  0.13489  0.82527  0.72298  1.0000
  Fe  Fe60      1.0  0.13558  0.88544  0.62724  1.0000
  S   S115      1.0  0.12952  0.87122  0.58151  1.0000
  S   S116      1.0  0.13994  0.90613  0.70885  1.0000
  S   S117      1.0  0.13824  0.92838  0.63751  1.0000
  C   C782      1.0  0.31987  0.97140  0.91454  1.0000
  S   S118      1.0  0.05612  0.77133  0.91624  1.0000
  C   C783      1.0  0.03850  0.91613  0.59351  1.0000
  H   H619      1.0  0.47289  0.68355  0.78102  1.0000
  S   S119      1.0  0.04538  0.83503  0.92364  1.0000
  H   H620      1.0  0.27355  0.85924  0.90110  1.0000
  Fe  Fe61      1.0  0.05986  0.81044  0.88628  1.0000
  S   S120      1.0  0.09762  0.83122  0.86184  1.0000
  H   H621      1.0  0.00270  0.89230  0.75492  1.0000
  C   C784      1.0  0.44251  0.94341  0.79314  1.0000
  C   C785      1.0  0.00542  0.75769  0.81616  1.0000
  C   C786      1.0  0.22914  0.80312  0.60122  1.0000
  H   H622      1.0  0.30407  0.95086  0.67889  1.0000
  C   C787      1.0  0.46711  0.91187  0.87482  1.0000
  C   C788      1.0  0.12896  0.89681  0.55169  1.0000
  H   H623      1.0  0.12582  0.97397  0.96319  1.0000
  S   S121      1.0  0.38132  0.95118  0.58088  1.0000
  H   H624      1.0  0.07324  0.82236  0.73097  1.0000
  C   C789      1.0  0.13949  0.92267  0.55428  1.0000
  S   S122      1.0  0.42547  0.95295  0.64980  1.0000
  H   H625      1.0  0.14688  0.92747  0.57519  1.0000
  C   C790      1.0  0.12303  0.82734  0.76114  1.0000
  C   C791      1.0  0.12793  0.85070  0.77504  1.0000
  C   C792      1.0  0.11990  0.85161  0.80592  1.0000
  C   C793      1.0  0.10564  0.82969  0.82274  1.0000
  C   C794      1.0  0.09999  0.80651  0.80870  1.0000
  C   C795      1.0  0.10924  0.80514  0.77807  1.0000
  H   H626      1.0  0.13843  0.86786  0.76218  1.0000
  H   H627      1.0  0.12449  0.86949  0.81678  1.0000
  H   H628      1.0  0.08934  0.78939  0.82168  1.0000
  H   H629      1.0  0.10558  0.78693  0.76742  1.0000
  H   H630      1.0  0.36310  0.89998  0.88252  1.0000
  H   H631      1.0  0.24162  0.97884  0.61547  1.0000
  C   C796      1.0  0.01501  0.89941  0.88444  1.0000
  C   C797      1.0  0.32852  0.95253  0.80570  1.0000
  H   H632      1.0  0.26077  0.96676  0.66326  1.0000
  H   H633      1.0  0.47170  0.97371  0.59054  1.0000
  C   C798      1.0  0.28547  0.83536  0.53206  1.0000
  H   H634      1.0  0.02793  0.88294  0.88076  1.0000
  H   H635      1.0  0.23224  0.87140  0.87712  1.0000
  H   H636      1.0  0.00293  0.91071  0.95832  1.0000
  S   S123      1.0  0.01912  0.80567  0.86909  1.0000
  H   H637      1.0  0.98645  0.69881  0.95857  1.0000
  H   H638      1.0  0.46471  0.83638  0.65756  1.0000
  C   C799      1.0  0.99863  0.70624  0.97521  1.0000
  C   C800      1.0  0.48229  0.87314  0.57317  1.0000
  C   C801      1.0  0.12846  0.93834  0.90184  1.0000
  H   H639      1.0  0.44010  0.66667  0.87339  1.0000
  C   C802      1.0  0.37485  0.92456  0.55895  1.0000
  C   C803      1.0  0.44800  0.84105  0.56127  1.0000
  C   C804      1.0  0.25792  0.83946  0.53823  1.0000
  C   C805      1.0  0.98694  0.97488  0.96836  1.0000
  C   C806      1.0  0.37145  0.87697  0.55185  1.0000
  C   C807      1.0  0.37571  0.89764  0.57051  1.0000
  C   C808      1.0  0.01301  0.80516  0.77656  1.0000
  Fe  Fe62      1.0  0.38720  0.94215  0.63042  1.0000
  H   H640      1.0  0.37255  0.85621  0.56073  1.0000
  H   H641      1.0  0.38006  0.89269  0.59358  1.0000
  H   H642      1.0  0.06999  0.93831  0.52955  1.0000
  C   C809      1.0  0.02511  0.71530  0.96604  1.0000
  C   C810      1.0  0.03477  0.90486  0.66998  1.0000
  C   C811      1.0  0.03954  0.92926  0.68204  1.0000
  Fe  Fe63      1.0  0.35851  0.92091  0.69064  1.0000
  C   C812      1.0  0.23978  0.83049  0.51864  1.0000
  C   C813      1.0  0.36914  0.93065  0.52893  1.0000
  H   H643      1.0  0.05120  0.89227  0.66456  1.0000
  C   C814      1.0  0.28840  0.91089  0.69479  1.0000
  C   C815      1.0  0.28666  0.93715  0.68152  1.0000
  C   C816      1.0  0.26200  0.94614  0.67255  1.0000
  C   C817      1.0  0.23894  0.92885  0.67606  1.0000
  C   C818      1.0  0.24081  0.90230  0.68836  1.0000
  C   C819      1.0  0.26540  0.89347  0.69788  1.0000
  C   C820      1.0  0.05814  0.81439  0.65949  1.0000
  H   H644      1.0  0.22319  0.88880  0.69114  1.0000
  H   H645      1.0  0.26654  0.87309  0.70774  1.0000
  P   P29       1.0  0.33146  0.92989  0.83935  1.0000
  H   H646      1.0  0.14227  0.92686  0.88853  1.0000
  S   S124      1.0  0.05179  0.79290  0.99934  1.0000
  H   H647      1.0  0.06765  0.80954  0.63793  1.0000
  H   H648      1.0  0.31668  0.88371  0.88396  1.0000
  H   H649      1.0  0.31752  0.92107  0.77799  1.0000
  C   C821      1.0  0.21044  0.78352  0.61581  1.0000
  H   H650      1.0  0.05536  0.88057  0.72458  1.0000
  H   H651      1.0  0.36808  0.95138  0.51996  1.0000
  H   H652      1.0  0.18632  0.85382  0.58901  1.0000
  C   C822      1.0  0.22606  0.89565  0.53509  1.0000
  H   H653      1.0  0.98876  0.97362  0.58712  1.0000
  Fe  Fe64      1.0  0.00477  0.82793  0.90853  1.0000
  S   S125      1.0  0.98774  0.73107  0.89676  1.0000
  C   C823      1.0  0.17504  0.81497  0.61151  1.0000
  H   H654      1.0  0.21686  0.76367  0.62298  1.0000
  C   C824      1.0  0.03159  0.94380  0.95872  1.0000
  C   C825      1.0  0.07831  0.87360  0.97511  1.0000
  C   C826      1.0  0.09399  0.89713  0.97606  1.0000
  H   H655      1.0  0.42570  0.89406  0.53939  1.0000
  C   C827      1.0  0.47327  0.94134  0.00084  1.0000
  H   H656      1.0  0.00514  0.87805  0.65479  1.0000
  C   C828      1.0  0.04697  0.88660  0.01565  1.0000
  H   H657      1.0  0.21846  0.83302  0.52339  1.0000
  C   C829      1.0  0.36329  0.95812  0.87544  1.0000
  C   C830      1.0  0.46767  0.93324  0.97257  1.0000
  H   H658      1.0  0.05929  0.87434  0.83602  1.0000
  C   C831      1.0  0.10229  0.94128  0.89391  1.0000
  C   C832      1.0  0.19361  0.83450  0.59673  1.0000
  H   H659      1.0  0.17392  0.92486  0.75671  1.0000
  C   C833      1.0  0.45647  0.67535  0.97598  1.0000
  C   C834      1.0  0.22094  0.82892  0.59208  1.0000
  H   H660      1.0  0.08453  0.85913  0.95946  1.0000
  H   H661      1.0  0.11209  0.90107  0.96077  1.0000
  C   C835      1.0  0.44085  0.86450  0.60630  1.0000
  H   H662      1.0  0.21090  0.95976  0.74718  1.0000
  C   C836      1.0  0.46616  0.87758  0.59964  1.0000
  C   C837      1.0  0.05630  0.87875  0.74890  1.0000
  C   C838      1.0  0.37079  0.89619  0.85984  1.0000
  H   H663      1.0  0.47302  0.89112  0.61533  1.0000
  H   H664      1.0  0.03110  0.84138  0.81389  1.0000
  C   C839      1.0  0.11885  0.96504  0.94401  1.0000
  S   S126      1.0  0.46281  0.72010  0.87504  1.0000
  C   C840      1.0  0.04728  0.94242  0.59709  1.0000
  C   C841      1.0  0.47925  0.93667  0.87994  1.0000
  H   H665      1.0  0.25776  0.94760  0.75384  1.0000
  C   C842      1.0  0.47758  0.68826  0.87704  1.0000
  C   C843      1.0  0.21518  0.93924  0.75462  1.0000
  H   H666      1.0  0.47307  0.92992  0.56942  1.0000
  C   C844      1.0  0.27447  0.87529  0.88287  1.0000
  H   H667      1.0  0.46088  0.70477  0.93721  1.0000
  C   C845      1.0  0.14192  0.94202  0.52918  1.0000
  H   H668      1.0  0.15074  0.96178  0.53112  1.0000
  C   C846      1.0  0.01773  0.94528  0.68890  1.0000
  C   C847      1.0  0.29898  0.88913  0.87294  1.0000
  H   H669      1.0  0.46675  0.78891  0.77691  1.0000
  H   H670      1.0  0.44608  0.92727  0.74973  1.0000
  C   C848      1.0  0.02953  0.96354  0.59482  1.0000
  H   H671      1.0  0.09576  0.93218  0.87446  1.0000
  H   H672      1.0  0.43983  0.93395  0.93839  1.0000
  C   C849      1.0  0.47334  0.79178  0.00836  1.0000
  C   C850      1.0  0.47106  0.72175  0.97756  1.0000
  H   H673      1.0  0.30004  0.84163  0.54685  1.0000
  C   C851      1.0  0.39295  0.88010  0.85637  1.0000
  H   H674      1.0  0.28557  0.93820  0.54767  1.0000
  C   C852      1.0  0.98731  0.85264  0.74677  1.0000
  C   C853      1.0  0.03389  0.82796  0.71526  1.0000
  H   H675      1.0  0.31579  0.95181  0.73174  1.0000
  C   C854      1.0  0.30035  0.91017  0.84957  1.0000
  H   H676      1.0  0.03299  0.71490  0.94260  1.0000
  C   C855      1.0  0.07197  0.89766  0.76164  1.0000
  C   C856      1.0  0.99154  0.93736  0.68294  1.0000
  C   C857      1.0  0.04116  0.72530  0.98687  1.0000
  H   H677      1.0  0.42847  0.86835  0.62663  1.0000
  H   H678      1.0  0.40221  0.87172  0.87609  1.0000
  C   C858      1.0  0.98830  0.85783  0.00096  1.0000
  H   H679      1.0  0.44794  0.82397  0.80665  1.0000
  H   H680      1.0  0.44384  0.96371  0.83347  1.0000
  H   H681      1.0  0.15718  0.94828  0.93277  1.0000
  C   C859      1.0  0.45479  0.95951  0.81240  1.0000
  H   H682      1.0  0.09908  0.93302  0.99867  1.0000
  H   H683      1.0  0.27679  0.93389  0.81916  1.0000
  C   C860      1.0  0.42553  0.95557  0.97598  1.0000
  C   C861      1.0  0.43165  0.84644  0.58699  1.0000
  C   C862      1.0  0.40367  0.87516  0.82747  1.0000
  C   C863      1.0  0.98817  0.79877  0.79367  1.0000
  H   H684      1.0  0.27081  0.94220  0.60135  1.0000
  H   H685      1.0  0.44013  0.94171  0.53379  1.0000
  H   H686      1.0  0.24999  0.79819  0.59701  1.0000
  C   C864      1.0  0.99802  0.69777  0.89364  1.0000
  H   H687      1.0  0.41210  0.98179  0.51940  1.0000
  C   C865      1.0  0.26447  0.97252  0.53044  1.0000
  S   S127      1.0  0.02142  0.98114  0.87209  1.0000
  C   C866      1.0  0.39227  0.88631  0.80193  1.0000
  H   H688      1.0  0.47327  0.94309  0.67293  1.0000
  C   C867      1.0  0.03536  0.97162  0.96038  1.0000
  C   C868      1.0  0.27273  0.95420  0.55326  1.0000
  P   P30       1.0  0.24518  0.85363  0.57234  1.0000
  C   C869      1.0  0.27170  0.86229  0.59506  1.0000
  S   S128      1.0  0.46460  0.85689  0.87491  1.0000
  C   C870      1.0  0.13679  0.95035  0.92677  1.0000
  C   C871      1.0  0.01927  0.82835  0.68969  1.0000
  C   C872      1.0  0.03174  0.66543  0.88194  1.0000
  H   H689      1.0  0.08500  0.91089  0.80287  1.0000
  H   H690      1.0  0.05222  0.89993  0.59584  1.0000
  C   C873      1.0  0.29084  0.88273  0.58337  1.0000
  C   C874      1.0  0.30999  0.89188  0.60146  1.0000
  C   C875      1.0  0.31069  0.88014  0.63105  1.0000
  C   C876      1.0  0.29193  0.85956  0.64277  1.0000
  C   C877      1.0  0.27215  0.85096  0.62507  1.0000
  C   C878      1.0  0.22915  0.88495  0.56476  1.0000
  Fe  Fe65      1.0  0.39949  0.96812  0.68786  1.0000
  Fe  Fe66      1.0  0.01396  0.76825  0.90222  1.0000
  C   C879      1.0  0.20453  0.93401  0.55449  1.0000
  C   C880      1.0  0.20739  0.92338  0.58406  1.0000
  C   C881      1.0  0.21995  0.89913  0.58922  1.0000
  H   H691      1.0  0.40740  0.96159  0.96613  1.0000
  H   H692      1.0  0.38610  0.97679  0.81091  1.0000
  H   H693      1.0  0.44091  0.82686  0.54644  1.0000
  C   C882      1.0  0.98439  0.77507  0.81322  1.0000
  C   C883      1.0  0.37035  0.90278  0.80527  1.0000
  C   C884      1.0  0.32163  0.94241  0.77883  1.0000
  H   H694      1.0  0.29067  0.89186  0.56037  1.0000
  H   H695      1.0  0.32411  0.90831  0.59272  1.0000
  H   H696      1.0  0.32544  0.88736  0.64512  1.0000
  H   H697      1.0  0.29228  0.85096  0.66598  1.0000
  H   H698      1.0  0.25702  0.83605  0.63516  1.0000
  H   H699      1.0  0.19502  0.95295  0.55060  1.0000
  H   H700      1.0  0.20011  0.93409  0.60305  1.0000
  H   H701      1.0  0.22235  0.89143  0.61236  1.0000
  H   H702      1.0  0.04004  0.70826  0.88191  1.0000
  C   C885      1.0  0.08444  0.95616  0.91092  1.0000
  C   C886      1.0  0.11942  0.89085  0.52428  1.0000
  H   H703      1.0  0.30307  0.97685  0.92954  1.0000
  H   H704      1.0  0.06147  0.73307  0.97962  1.0000
  C   C887      1.0  0.02481  0.69208  0.88578  1.0000
  H   H705      1.0  0.44970  0.91147  0.86209  1.0000
  H   H706      1.0  0.36266  0.91174  0.78500  1.0000
  H   H707      1.0  0.05239  0.66127  0.87519  1.0000
  H   H708      1.0  0.04848  0.93125  0.95512  1.0000
  H   H709      1.0  0.00315  0.86695  0.98357  1.0000
  C   C888      1.0  0.35931  0.90788  0.83431  1.0000
  C   C889      1.0  0.02474  0.92613  0.87627  1.0000
  C   C890      1.0  0.24155  0.93236  0.75839  1.0000
  C   C891      1.0  0.18344  0.78955  0.62124  1.0000
  C   C892      1.0  0.25234  0.90306  0.84613  1.0000
  C   C893      1.0  0.01181  0.91057  0.58833  1.0000
  H   H710      1.0  0.06781  0.94588  0.60206  1.0000
  H   H711      1.0  0.04681  0.75092  0.80263  1.0000
  H   H712      1.0  0.08317  0.91361  0.74713  1.0000
  C   C894      1.0  0.07285  0.81406  0.68471  1.0000
  C   C895      1.0  0.00570  0.93186  0.96113  1.0000
  Fe  Fe67      1.0  0.03817  0.79587  0.95219  1.0000
  H   H713      1.0  0.05377  0.79245  0.76839  1.0000
  S   S129      1.0  0.36150  0.96197  0.66521  1.0000
  P   P31       1.0  0.01844  0.83605  0.75155  1.0000
  C   C896      1.0  0.45577  0.93922  0.76512  1.0000
  C   C897      1.0  0.25192  0.80412  0.70862  1.0000
  C   C898      1.0  0.22978  0.80706  0.69180  1.0000
  C   C899      1.0  0.20901  0.82317  0.70116  1.0000
  C   C900      1.0  0.21045  0.83664  0.72717  1.0000
  C   C901      1.0  0.23279  0.83415  0.74409  1.0000
  C   C902      1.0  0.25328  0.81729  0.73488  1.0000
  P   P32       1.0  0.23345  0.85022  0.77889  1.0000
  C   C903      1.0  0.26578  0.84644  0.79392  1.0000
  C   C904      1.0  0.22654  0.88542  0.77088  1.0000
  C   C905      1.0  0.24723  0.90566  0.76667  1.0000
  C   C906      1.0  0.19437  0.91950  0.75974  1.0000
  C   C907      1.0  0.19999  0.89276  0.76783  1.0000
  C   C908      1.0  0.26758  0.83427  0.82337  1.0000
  C   C909      1.0  0.29270  0.83145  0.83462  1.0000
  C   C910      1.0  0.31616  0.84099  0.81674  1.0000
  C   C911      1.0  0.31457  0.85269  0.78728  1.0000
  C   C912      1.0  0.28958  0.85502  0.77582  1.0000
  C   C913      1.0  0.20687  0.83418  0.80546  1.0000
  C   C914      1.0  0.19756  0.80773  0.80274  1.0000
  C   C915      1.0  0.17640  0.79571  0.82271  1.0000
  C   C916      1.0  0.16458  0.80984  0.84570  1.0000
  C   C917      1.0  0.17381  0.83607  0.84871  1.0000
  C   C918      1.0  0.19496  0.84821  0.82875  1.0000
  H   H714      1.0  0.26785  0.79129  0.70160  1.0000
  H   H715      1.0  0.22845  0.79651  0.67180  1.0000
  H   H716      1.0  0.19142  0.82486  0.68866  1.0000
  H   H717      1.0  0.19373  0.84845  0.73424  1.0000
  H   H718      1.0  0.27020  0.81388  0.74798  1.0000
  H   H719      1.0  0.26790  0.90116  0.76872  1.0000
  C   C919      1.0  0.07285  0.89624  0.79303  1.0000
  H   H720      1.0  0.18358  0.87777  0.77128  1.0000
  H   H721      1.0  0.24971  0.82690  0.83772  1.0000
  H   H722      1.0  0.29399  0.82200  0.85732  1.0000
  H   H723      1.0  0.33558  0.83909  0.82558  1.0000
  H   H724      1.0  0.33270  0.85981  0.77307  1.0000
  H   H725      1.0  0.28881  0.86345  0.75269  1.0000
  H   H726      1.0  0.20621  0.79646  0.78491  1.0000
  H   H727      1.0  0.16868  0.77563  0.81998  1.0000
  H   H728      1.0  0.14768  0.80075  0.86067  1.0000
  H   H729      1.0  0.16385  0.84715  0.86598  1.0000
  H   H730      1.0  0.20152  0.86870  0.83104  1.0000
  S   S130      1.0  0.39442  0.92858  0.71661  1.0000
  H   H731      1.0  0.09381  0.80904  0.68275  1.0000
  C   C920      1.0  0.03034  0.76413  0.79983  1.0000
  H   H732      1.0  0.42235  0.93503  0.79956  1.0000
  C   C921      1.0  0.47950  0.85355  0.79029  1.0000
  C   C922      1.0  0.04250  0.85687  0.79904  1.0000
  C   C923      1.0  0.04142  0.85821  0.76756  1.0000
  H   H733      1.0  0.42105  0.86294  0.82502  1.0000
  H   H734      1.0  0.40086  0.88275  0.77944  1.0000
  C   C924      1.0  0.36767  0.97319  0.89962  1.0000
  C   C925      1.0  0.03140  0.82171  0.66194  1.0000
  H   H735      1.0  0.16895  0.77452  0.63280  1.0000
  H   H736      1.0  0.06437  0.95861  0.90408  1.0000
  C   C926      1.0  0.47340  0.85407  0.55457  1.0000
  C   C927      1.0  0.47309  0.71696  0.00863  1.0000
  C   C928      1.0  0.00287  0.95778  0.58899  1.0000
  C   C929      1.0  0.03415  0.78775  0.78022  1.0000
  C   C930      1.0  0.05501  0.86822  0.99496  1.0000
  C   C931      1.0  0.05820  0.87578  0.81171  1.0000
  C   C932      1.0  0.25119  0.88218  0.86940  1.0000
  C   C933      1.0  0.00820  0.94772  0.88124  1.0000
  H   H737      1.0  0.04985  0.66710  0.96504  1.0000
  C   C934      1.0  0.06099  0.82138  0.71225  1.0000
  C   C935      1.0  0.00857  0.89677  0.66447  1.0000
  C   C936      1.0  0.08659  0.91514  0.99722  1.0000
  H   H738      1.0  0.15404  0.81968  0.61535  1.0000
  H   H739      1.0  0.47449  0.69756  0.72581  1.0000
  C   C937      1.0  0.46138  0.66497  0.87536  1.0000
  H   H740      1.0  0.04514  0.93006  0.86615  1.0000
  H   H741      1.0  0.02118  0.96399  0.69863  1.0000
  C   C938      1.0  0.48064  0.97101  0.80408  1.0000
  C   C939      1.0  0.27672  0.91718  0.83643  1.0000
  C   C940      1.0  0.98849  0.89412  0.89709  1.0000
  H   H742      1.0  0.02009  0.82250  0.64227  1.0000
  S   S131      1.0  0.46949  0.78523  0.91927  1.0000
  H   H743      1.0  0.23427  0.90865  0.83583  1.0000
  H   H744      1.0  0.41190  0.83652  0.59208  1.0000
  C   C941      1.0  0.43112  0.96408  0.00386  1.0000
  C   C942      1.0  0.45877  0.67039  0.00710  1.0000
  C   C943      1.0  0.32042  0.95977  0.75255  1.0000
  C   C944      1.0  0.26467  0.95660  0.58381  1.0000
  C   C945      1.0  0.44379  0.94009  0.96036  1.0000
  C   C946      1.0  0.46267  0.70098  0.96125  1.0000
  H   H745      1.0  0.38791  0.98030  0.90271  1.0000
  C   C947      1.0  0.31538  0.95625  0.89040  1.0000
  C   C948      1.0  0.48025  0.82224  0.66138  1.0000
  C   C949      1.0  0.21369  0.92010  0.53006  1.0000
  H   H746      1.0  0.47820  0.88159  0.00596  1.0000
  H   H747      1.0  0.46738  0.79410  0.98556  1.0000
  H   H748      1.0  0.44985  0.65940  0.96314  1.0000
  H   H749      1.0  0.11097  0.87096  0.52219  1.0000
  H   H750      1.0  0.08186  0.98352  0.63992  1.0000
  C   C950      1.0  0.33711  0.94927  0.87079  1.0000
  H   H751      1.0  0.04392  0.84923  0.99490  1.0000
  C   C951      1.0  0.47802  0.88765  0.88519  1.0000
  H   H752      1.0  0.47107  0.95529  0.87169  1.0000
  C   C952      1.0  0.33293  0.98043  0.80605  1.0000
  C   C953      1.0  0.36696  0.88318  0.52141  1.0000
  H   H753      1.0  0.00472  0.89005  0.58683  1.0000
  S   S132      1.0  0.99600  0.79056  0.94024  1.0000
  C   C954      1.0  0.48122  0.95132  0.75636  1.0000
  C   C955      1.0  0.43248  0.90375  0.51713  1.0000
  H   H754      1.0  0.29494  0.95026  0.88700  1.0000
  C   C956      1.0  0.98693  0.91311  0.67052  1.0000
  H   H755      1.0  0.99332  0.78554  0.00302  1.0000
  C   C957      1.0  0.98762  0.70793  0.00513  1.0000
  C   C958      1.0  0.48094  0.70339  0.77195  1.0000
  H   H756      1.0  0.38770  0.97352  0.75567  1.0000
  C   C959      1.0  0.98566  0.88033  0.74948  1.0000
  H   H757      1.0  0.38041  0.95373  0.86027  1.0000
  C   C960      1.0  0.46657  0.82816  0.79227  1.0000
  C   C961      1.0  0.24833  0.97735  0.59183  1.0000
  H   H758      1.0  0.16568  0.84400  0.52048  1.0000
  C   C962      1.0  0.48187  0.71133  0.74090  1.0000
  C   C963      1.0  0.47767  0.80811  0.77579  1.0000
  C   C964      1.0  0.04041  0.65234  0.01215  1.0000
  H   H759      1.0  0.47603  0.74162  0.96620  1.0000
  C   C965      1.0  0.09231  0.96776  0.93650  1.0000
  H   H760      1.0  0.00252  0.73944  0.83150  1.0000
  H   H761      1.0  0.48184  0.92196  0.95963  1.0000
  H   H762      1.0  0.99335  0.87262  0.83000  1.0000
  H   H763      1.0  0.47449  0.82269  0.70950  1.0000
  C   C966      1.0  0.34601  0.97985  0.91915  1.0000
  H   H764      1.0  0.47069  0.86909  0.80293  1.0000
  C   C967      1.0  0.99398  0.93136  0.58622  1.0000
  H   H765      1.0  0.41744  0.97689  0.01547  1.0000
  C   C968      1.0  0.52944  0.18617  0.06279  1.0000
  C   C969      1.0  0.49854  0.99812  0.29518  1.0000
  C   C970      1.0  0.48447  0.09573  0.09680  1.0000
  S   S133      1.0  0.53737  0.06015  0.15591  1.0000
  S   S134      1.0  0.50330  0.03138  0.21881  1.0000
  Fe  Fe68      1.0  0.51732  0.02864  0.13165  1.0000
  S   S135      1.0  0.52889  0.02524  0.08207  1.0000
  Fe  Fe69      1.0  0.54267  0.02614  0.19161  1.0000
  C   C971      1.0  0.93233  0.20538  0.09919  1.0000
  Fe  Fe70      1.0  0.48661  0.00180  0.18941  1.0000
  C   C972      1.0  0.97927  0.05915  0.26081  1.0000
  H   H766      1.0  0.91568  0.04848  0.14806  1.0000
  C   C973      1.0  0.55513  0.11340  0.04699  1.0000
  H   H767      1.0  0.77643  0.02654  0.49101  1.0000
  H   H768      1.0  0.92427  0.05416  0.05314  1.0000
  C   C974      1.0  0.79419  0.98582  0.43585  1.0000
  C   C975      1.0  0.96919  0.09755  0.07861  1.0000
  H   H769      1.0  0.95663  0.26444  0.41514  1.0000
  S   S136      1.0  0.94286  0.24790  0.19413  1.0000
  S   S137      1.0  0.51183  0.22088  0.20241  1.0000
  S   S138      1.0  0.91078  0.30640  0.24261  1.0000
  S   S139      1.0  0.94275  0.27299  0.10715  1.0000
  Fe  Fe71      1.0  0.94437  0.28642  0.21684  1.0000
  H   H770      1.0  0.91890  0.21908  0.10970  1.0000
  H   H771      1.0  0.57616  0.21173  0.10477  1.0000
  H   H772      1.0  0.69655  0.99528  0.25854  1.0000
  H   H773      1.0  0.54429  0.13174  0.04689  1.0000
  C   C976      1.0  0.89203  0.00515  0.28190  1.0000
  H   H774      1.0  0.55260  0.28604  0.43197  1.0000
  H   H775      1.0  0.81721  0.99301  0.51146  1.0000
  H   H776      1.0  0.57526  0.03308  0.31371  1.0000
  H   H777      1.0  0.95032  0.98925  0.37373  1.0000
  H   H778      1.0  0.76873  0.28118  0.37882  1.0000
  H   H779      1.0  0.55787  0.11063  0.09530  1.0000
  H   H780      1.0  0.59212  0.04661  0.04901  1.0000
  H   H781      1.0  0.94514  0.02969  0.32605  1.0000
  C   C977      1.0  0.96893  0.26514  0.39371  1.0000
  C   C978      1.0  0.51129  0.14072  0.19205  1.0000
  C   C979      1.0  0.51941  0.16740  0.19595  1.0000
  S   S140      1.0  0.52605  0.99467  0.16485  1.0000
  H   H782      1.0  0.92487  0.06192  0.24032  1.0000
  H   H783      1.0  0.97259  0.01128  0.45629  1.0000
  H   H784      1.0  0.52583  0.12524  0.19160  1.0000
  H   H785      1.0  0.54029  0.17228  0.19847  1.0000
  C   C980      1.0  0.76051  0.02414  0.26987  1.0000
  H   H786      1.0  0.88890  0.01863  0.26223  1.0000
  C   C981      1.0  0.58295  0.01978  0.29746  1.0000
  C   C982      1.0  0.57548  0.02279  0.26763  1.0000
  C   C983      1.0  0.96236  0.28197  0.04749  1.0000
  C   C984      1.0  0.97022  0.06574  0.32254  1.0000
  H   H787      1.0  0.56216  0.03837  0.26097  1.0000
  C   C985      1.0  0.78365  0.99323  0.46403  1.0000
  C   C986      1.0  0.50401  0.02761  0.05650  1.0000
  C   C987      1.0  0.56285  0.10158  0.07439  1.0000
  C   C988      1.0  0.55450  0.19521  0.07048  1.0000
  C   C989      1.0  0.96019  0.16693  0.10345  1.0000
  C   C990      1.0  0.52031  0.26583  0.05263  1.0000
  H   H788      1.0  0.94362  0.29139  0.04399  1.0000
  H   H789      1.0  0.50124  0.26442  0.09827  1.0000
  H   H790      1.0  0.53671  0.25369  0.05903  1.0000
  C   C991      1.0  0.53259  0.30294  0.35005  1.0000
  C   C992      1.0  0.96707  0.27090  0.07652  1.0000
  H   H791      1.0  0.93413  0.28658  0.34648  1.0000
  C   C993      1.0  0.66449  0.02098  0.24871  1.0000
  H   H792      1.0  0.58157  0.06796  0.09639  1.0000
  C   C994      1.0  0.92713  0.29657  0.29980  1.0000
  C   C995      1.0  0.55684  0.20446  0.09885  1.0000
  H   H793      1.0  0.87970  0.26263  0.28550  1.0000
  S   S141      1.0  0.61341  0.99992  0.34190  1.0000
  C   C996      1.0  0.68148  0.01976  0.39895  1.0000
  C   C997      1.0  0.93752  0.09284  0.03049  1.0000
  C   C998      1.0  0.97496  0.02451  0.03221  1.0000
  C   C999      1.0  0.92644  0.04861  0.22244  1.0000
  C   C1000     1.0  0.82357  0.28469  0.32340  1.0000
  H   H794      1.0  0.98114  0.09906  0.09760  1.0000
  C   C1001     1.0  0.84059  0.24226  0.29013  1.0000
  H   H795      1.0  0.66121  0.02059  0.40971  1.0000
  C   C1002     1.0  0.67714  0.98510  0.49536  1.0000
  H   H796      1.0  0.84721  0.22611  0.27701  1.0000
  C   C1003     1.0  0.84670  0.29754  0.38811  1.0000
  H   H797      1.0  0.93409  0.00324  0.15639  1.0000
  H   H798      1.0  0.79950  0.22698  0.29796  1.0000
  C   C1004     1.0  0.98046  0.24692  0.34591  1.0000
  H   H799      1.0  0.54487  0.26578  0.28167  1.0000
  H   H800      1.0  0.96079  0.18478  0.19266  1.0000
  C   C1005     1.0  0.50760  0.28199  0.29928  1.0000
  C   C1006     1.0  0.53189  0.27611  0.36282  1.0000
  C   C1007     1.0  0.92636  0.30120  0.33051  1.0000
  H   H801      1.0  0.94228  0.03337  0.49220  1.0000
  C   C1008     1.0  0.92094  0.04112  0.17032  1.0000
  C   C1009     1.0  0.60462  0.98722  0.25472  1.0000
  C   C1010     1.0  0.64931  0.04228  0.25761  1.0000
  C   C1011     1.0  0.65490  0.05466  0.28336  1.0000
  C   C1012     1.0  0.67552  0.04561  0.30042  1.0000
  C   C1013     1.0  0.69004  0.02339  0.29244  1.0000
  H   H802      1.0  0.79375  0.03368  0.23570  1.0000
  C   C1014     1.0  0.83838  0.30571  0.44093  1.0000
  C   C1015     1.0  0.74679  0.03140  0.29665  1.0000
  C   C1016     1.0  0.71162  0.01557  0.35379  1.0000
  C   C1017     1.0  0.73353  0.01584  0.37144  1.0000
  C   C1018     1.0  0.72944  0.01879  0.40246  1.0000
  C   C1019     1.0  0.79703  0.03983  0.44732  1.0000
  S   S142      1.0  0.95793  0.31167  0.17372  1.0000
  C   C1020     1.0  0.54683  0.29071  0.40926  1.0000
  H   H803      1.0  0.84954  0.99930  0.29564  1.0000
  C   C1021     1.0  0.78314  0.03944  0.25628  1.0000
  C   C1022     1.0  0.79192  0.06234  0.26903  1.0000
  C   C1023     1.0  0.77792  0.07010  0.29522  1.0000
  C   C1024     1.0  0.75530  0.05482  0.30887  1.0000
  C   C1025     1.0  0.93989  0.20915  0.06803  1.0000
  H   H804      1.0  0.96690  0.06825  0.34649  1.0000
  C   C1026     1.0  0.91806  0.99844  0.28844  1.0000
  C   C1027     1.0  0.80520  0.26396  0.31843  1.0000
  H   H805      1.0  0.87364  0.28741  0.42207  1.0000
  P   P33       1.0  0.71725  0.01197  0.31372  1.0000
  C   C1028     1.0  0.48425  0.13408  0.18934  1.0000
  S   S143      1.0  0.58266  0.01375  0.20720  1.0000
  H   H806      1.0  0.64294  0.07104  0.29032  1.0000
  H   H807      1.0  0.67980  0.05576  0.32001  1.0000
  C   C1029     1.0  0.96950  0.14354  0.18596  1.0000
  C   C1030     1.0  0.51217  0.03345  0.02567  1.0000
  H   H808      1.0  0.93523  0.27830  0.29225  1.0000
  C   C1031     1.0  0.80790  0.03221  0.41947  1.0000
  H   H809      1.0  0.91129  0.07763  0.19016  1.0000
  H   H810      1.0  0.94970  0.22960  0.37991  1.0000
  H   H811      1.0  0.80938  0.07427  0.25839  1.0000
  H   H812      1.0  0.78446  0.08811  0.30480  1.0000
  H   H813      1.0  0.74434  0.06148  0.32876  1.0000
  H   H814      1.0  0.50535  0.09825  0.03215  1.0000
  C   C1032     1.0  0.50647  0.18649  0.08344  1.0000
  H   H815      1.0  0.53589  0.21191  0.14156  1.0000
  C   C1033     1.0  0.78481  0.02042  0.46951  1.0000
  H   H816      1.0  0.50924  0.13203  0.09142  1.0000
  C   C1034     1.0  0.50031  0.27199  0.07487  1.0000
  C   C1035     1.0  0.95227  0.07472  0.07820  1.0000
  C   C1036     1.0  0.86961  0.99427  0.30079  1.0000
  C   C1037     1.0  0.96984  0.98772  0.38229  1.0000
  C   C1038     1.0  0.93132  0.01569  0.17502  1.0000
  H   H817      1.0  0.71958  0.28633  0.38432  1.0000
  C   C1039     1.0  0.93739  0.02325  0.22723  1.0000
  H   H818      1.0  0.81476  0.99910  0.39219  1.0000
  H   H819      1.0  0.57201  0.19547  0.05426  1.0000
  H   H820      1.0  0.54741  0.99162  0.41406  1.0000
  C   C1040     1.0  0.85893  0.26277  0.29498  1.0000
  C   C1041     1.0  0.68490  0.01166  0.26592  1.0000
  H   H821      1.0  0.81757  0.04718  0.40237  1.0000
  H   H822      1.0  0.66811  0.01463  0.35538  1.0000
  C   C1042     1.0  0.93945  0.00676  0.20334  1.0000
  P   P34       1.0  0.94729  0.01198  0.26431  1.0000
  C   C1043     1.0  0.96233  0.04046  0.27982  1.0000
  H   H823      1.0  0.52008  0.00569  0.33349  1.0000
  H   H824      1.0  0.75375  0.01359  0.36129  1.0000
  C   C1044     1.0  0.52326  0.26274  0.28579  1.0000
  H   H825      1.0  0.52308  0.22508  0.26575  1.0000
  C   C1045     1.0  0.50078  0.00020  0.32593  1.0000
  C   C1046     1.0  0.53893  0.27007  0.39235  1.0000
  C   C1047     1.0  0.93662  0.07227  0.05404  1.0000
  C   C1048     1.0  0.57640  0.07764  0.07500  1.0000
  H   H826      1.0  0.52797  0.17938  0.04056  1.0000
  P   P35       1.0  0.52368  0.31129  0.31193  1.0000
  C   C1049     1.0  0.70347  0.02119  0.41610  1.0000
  C   C1050     1.0  0.48928  0.12347  0.09009  1.0000
  C   C1051     1.0  0.81375  0.24281  0.30192  1.0000
  C   C1052     1.0  0.80638  0.00522  0.41372  1.0000
  H   H827      1.0  0.93673  0.18149  0.14108  1.0000
  C   C1053     1.0  0.58691  0.00697  0.24599  1.0000
  C   C1054     1.0  0.91832  0.05749  0.19409  1.0000
  C   C1055     1.0  0.97118  0.98565  0.26296  1.0000
  H   H828      1.0  0.65996  0.01140  0.22876  1.0000
  H   H829      1.0  0.70030  0.02363  0.44009  1.0000
  C   C1056     1.0  0.57465  0.07738  0.02076  1.0000
  C   C1057     1.0  0.50074  0.18777  0.19662  1.0000
  H   H830      1.0  0.86007  0.29046  0.37035  1.0000
  Fe  Fe72      1.0  0.96021  0.27327  0.15210  1.0000
  C   C1058     1.0  0.82253  0.30927  0.38172  1.0000
  C   C1059     1.0  0.56077  0.10126  0.02002  1.0000
  C   C1060     1.0  0.94947  0.01373  0.49879  1.0000
  C   C1061     1.0  0.95779  0.19196  0.05451  1.0000
  H   H831      1.0  0.75367  0.00672  0.25943  1.0000
  H   H832      1.0  0.49308  0.22329  0.03344  1.0000
  Fe  Fe73      1.0  0.49649  0.06312  0.18093  1.0000
  H   H833      1.0  0.95000  0.13892  0.17855  1.0000
  C   C1062     1.0  0.51883  0.27504  0.02213  1.0000
  C   C1063     1.0  0.85449  0.29569  0.41761  1.0000
  H   H834      1.0  0.78428  0.26412  0.32686  1.0000
  C   C1064     1.0  0.95790  0.04387  0.31083  1.0000
  S   S144      1.0  0.50709  0.28831  0.15479  1.0000
  C   C1065     1.0  0.76014  0.29715  0.36517  1.0000
  H   H835      1.0  0.79819  0.06075  0.45182  1.0000
  C   C1066     1.0  0.94243  0.18425  0.11689  1.0000
  C   C1067     1.0  0.53795  0.98546  0.43668  1.0000
  H   H836      1.0  0.63294  0.04893  0.24475  1.0000
  H   H837      1.0  0.89486  0.30873  0.12918  1.0000
  C   C1068     1.0  0.68549  0.01661  0.36799  1.0000
  H   H838      1.0  0.50069  0.08305  0.10277  1.0000
  H   H839      1.0  0.95812  0.01058  0.03971  1.0000
  H   H840      1.0  0.53844  0.24934  0.40199  1.0000
  C   C1069     1.0  0.96498  0.24559  0.37384  1.0000
  C   C1070     1.0  0.58238  0.06561  0.04821  1.0000
  H   H841      1.0  0.52599  0.25978  0.35014  1.0000
  C   C1071     1.0  0.48425  0.20929  0.01964  1.0000
  H   H842      1.0  0.65580  0.98849  0.49642  1.0000
  C   C1072     1.0  0.53415  0.20460  0.11959  1.0000
  H   H843      1.0  0.50244  0.28134  0.49908  1.0000
  H   H844      1.0  0.96767  0.15048  0.11746  1.0000
  C   C1073     1.0  0.60104  0.00030  0.30602  1.0000
  H   H845      1.0  0.51600  0.00254  0.27895  1.0000
  H   H846      1.0  0.94804  0.98736  0.20602  1.0000
  H   H847      1.0  0.74638  0.01900  0.41598  1.0000
  H   H848      1.0  0.86497  0.29964  0.31490  1.0000
  C   C1074     1.0  0.97556  0.16956  0.19392  1.0000
  C   C1075     1.0  0.50907  0.19558  0.11202  1.0000
  C   C1076     1.0  0.96856  0.17108  0.07228  1.0000
  H   H849      1.0  0.98315  0.05689  0.23686  1.0000
  C   C1077     1.0  0.85049  0.28383  0.31159  1.0000
  H   H850      1.0  0.95166  0.05871  0.09634  1.0000
  C   C1078     1.0  0.96635  0.00092  0.47838  1.0000
  H   H851      1.0  0.84492  0.30495  0.46354  1.0000
  C   C1079     1.0  0.73233  0.30000  0.36836  1.0000
  C   C1080     1.0  0.95401  0.11592  0.03108  1.0000
  Fe  Fe74      1.0  0.48825  0.25841  0.19247  1.0000
  C   C1081     1.0  0.91576  0.31471  0.27935  1.0000
  C   C1082     1.0  0.51106  0.23942  0.27716  1.0000
  H   H852      1.0  0.49183  0.19599  0.12852  1.0000
  P   P36       1.0  0.81296  0.31299  0.34335  1.0000
  C   C1083     1.0  0.97051  0.11814  0.05474  1.0000
  H   H853      1.0  0.53477  0.31280  0.24599  1.0000
  H   H854      1.0  0.58403  0.99119  0.02889  1.0000
  H   H855      1.0  0.58403  0.98448  0.13429  1.0000
  H   H856      1.0  0.53322  0.03721  0.01826  1.0000
  H   H857      1.0  0.49373  0.01478  0.51356  1.0000
  H   H858      1.0  0.49813  0.99040  0.42390  1.0000
  H   H859      1.0  0.93227  0.22579  0.05447  1.0000
  S   S145      1.0  0.97856  0.09042  0.18024  1.0000
  C   C1084     1.0  0.98213  0.28138  0.02306  1.0000
  H   H860      1.0  0.97730  0.23189  0.33036  1.0000
  C   C1085     1.0  0.77684  0.31529  0.34512  1.0000
  H   H861      1.0  0.96309  0.19512  0.03029  1.0000
  H   H862      1.0  0.48355  0.30555  0.41419  1.0000
  C   C1086     1.0  0.51000  0.98488  0.44245  1.0000
  C   C1087     1.0  0.92282  0.13729  0.75089  1.0000
  S   S146      1.0  0.51899  0.10229  0.87164  1.0000
  S   S147      1.0  0.91990  0.02276  0.69945  1.0000
  C   C1088     1.0  0.98136  0.98925  0.77156  1.0000
  H   H863      1.0  0.89646  0.17589  0.86540  1.0000
  C   C1089     1.0  0.69247  0.99422  0.51737  1.0000
  C   C1090     1.0  0.58209  0.16126  0.99344  1.0000
  H   H864      1.0  0.62093  0.26805  0.88433  1.0000
  Fe  Fe75      1.0  0.94524  0.04468  0.86653  1.0000
  C   C1091     1.0  0.51413  0.11068  0.98409  1.0000
  S   S148      1.0  0.90923  0.03965  0.83972  1.0000
  Fe  Fe76      1.0  0.96171  0.04233  0.93125  1.0000
  C   C1092     1.0  0.93833  0.03927  0.75129  1.0000
  H   H865      1.0  0.89179  0.99716  0.89777  1.0000
  C   C1093     1.0  0.56843  0.98696  0.01441  1.0000
  H   H866      1.0  0.55858  0.29174  0.81873  1.0000
  S   S149      1.0  0.50149  0.03808  0.92132  1.0000
  S   S150      1.0  0.95024  0.07627  0.89904  1.0000
  Fe  Fe77      1.0  0.50866  0.25860  0.89324  1.0000
  C   C1094     1.0  0.90839  0.15804  0.73753  1.0000
  S   S151      1.0  0.55022  0.25766  0.90817  1.0000
  H   H867      1.0  0.96660  0.13666  0.87694  1.0000
  H   H868      1.0  0.73125  0.99661  0.53379  1.0000
  H   H869      1.0  0.54177  0.06611  0.95822  1.0000
  Fe  Fe78      1.0  0.53311  0.27923  0.94708  1.0000
  S   S152      1.0  0.54334  0.26653  0.99432  1.0000
  H   H870      1.0  0.55254  0.25087  0.56636  1.0000
  H   H871      1.0  0.95229  0.05409  0.79152  1.0000
  H   H872      1.0  0.92582  0.09061  0.01145  1.0000
  C   C1095     1.0  0.97239  0.17979  0.87671  1.0000
  H   H873      1.0  0.54510  0.00993  0.94782  1.0000
  H   H874      1.0  0.49359  0.23544  0.97892  1.0000
  C   C1096     1.0  0.53167  0.03628  0.77885  1.0000
  C   C1097     1.0  0.49430  0.18931  0.87979  1.0000
  C   C1098     1.0  0.57349  0.30527  0.77273  1.0000
  P   P37       1.0  0.54990  0.11651  0.98508  1.0000
  C   C1099     1.0  0.50882  0.13544  0.87591  1.0000
  H   H875      1.0  0.95529  0.04821  0.73653  1.0000
  H   H876      1.0  0.61360  0.23029  0.92482  1.0000
  H   H877      1.0  0.55820  0.29397  0.76290  1.0000
  H   H878      1.0  0.65189  0.21286  0.80555  1.0000
  C   C1100     1.0  0.54174  0.17083  0.96879  1.0000
  H   H879      1.0  0.95121  0.18339  0.87696  1.0000
  H   H880      1.0  0.87595  0.01045  0.80362  1.0000
  H   H881      1.0  0.96057  0.18084  0.72037  1.0000
  C   C1101     1.0  0.56942  0.06779  0.91810  1.0000
  S   S153      1.0  0.48424  0.22293  0.88003  1.0000
  C   C1102     1.0  0.91807  0.02462  0.73910  1.0000
  S   S154      1.0  0.97983  0.28272  0.93532  1.0000
  C   C1103     1.0  0.93665  0.04264  0.78246  1.0000
  C   C1104     1.0  0.91400  0.03249  0.80143  1.0000
  H   H882      1.0  0.69040  0.23844  0.77619  1.0000
  H   H883      1.0  0.55275  0.29482  0.58806  1.0000
  H   H884      1.0  0.49989  0.04012  0.98093  1.0000
  C   C1105     1.0  0.88855  0.15216  0.71854  1.0000
  H   H885      1.0  0.58161  0.01926  0.98020  1.0000
  H   H886      1.0  0.55388  0.06408  0.83962  1.0000
  C   C1106     1.0  0.52087  0.18232  0.88270  1.0000
  H   H887      1.0  0.59611  0.18576  0.91288  1.0000
  H   H888      1.0  0.52330  0.16452  0.96000  1.0000
  C   C1107     1.0  0.89626  0.10469  0.72743  1.0000
  C   C1108     1.0  0.48446  0.21629  0.98856  1.0000
  C   C1109     1.0  0.58968  0.08287  0.89959  1.0000
  C   C1110     1.0  0.52809  0.15550  0.88055  1.0000
  H   H889      1.0  0.58759  0.17848  0.86060  1.0000
  C   C1111     1.0  0.51187  0.24436  0.77843  1.0000
  S   S155      1.0  0.51617  0.29857  0.86508  1.0000
  H   H890      1.0  0.51565  0.12002  0.93556  1.0000
  H   H891      1.0  0.97031  0.11378  0.72690  1.0000
  C   C1112     1.0  0.56644  0.10301  0.95229  1.0000
  C   C1113     1.0  0.52933  0.23360  0.75688  1.0000
  H   H892      1.0  0.58669  0.10239  0.79011  1.0000
  H   H893      1.0  0.54866  0.15018  0.88249  1.0000
  C   C1114     1.0  0.50301  0.11379  0.95621  1.0000
  C   C1115     1.0  0.51932  0.24639  0.80766  1.0000
  C   C1116     1.0  0.89600  0.01347  0.75832  1.0000
  C   C1117     1.0  0.98102  0.21575  0.73363  1.0000
  H   H894      1.0  0.59778  0.25818  0.75243  1.0000
  H   H895      1.0  0.86729  0.12090  0.69863  1.0000
  H   H896      1.0  0.52348  0.23185  0.73427  1.0000
  C   C1118     1.0  0.59866  0.10781  0.90754  1.0000
  H   H897      1.0  0.59816  0.07536  0.87890  1.0000
  C   C1119     1.0  0.58945  0.18867  0.99043  1.0000
  H   H898      1.0  0.49244  0.25079  0.77258  1.0000
  C   C1120     1.0  0.97612  0.18917  0.79202  1.0000
  C   C1121     1.0  0.80464  0.98461  0.53143  1.0000
  C   C1122     1.0  0.52503  0.99932  0.72563  1.0000
  C   C1123     1.0  0.53880  0.05606  0.79735  1.0000
  C   C1124     1.0  0.92648  0.27906  0.85962  1.0000
  C   C1125     1.0  0.90397  0.15864  0.85482  1.0000
  S   S156      1.0  0.49101  0.27775  0.93373  1.0000
  C   C1126     1.0  0.54170  0.26727  0.55631  1.0000
  H   H899      1.0  0.92858  0.01101  0.54363  1.0000
  H   H900      1.0  0.63205  0.17765  0.77572  1.0000
  S   S157      1.0  0.95223  0.01056  0.90094  1.0000
  H   H901      1.0  0.62856  0.12908  0.77070  1.0000
  H   H902      1.0  0.53556  0.07699  0.79073  1.0000
  C   C1127     1.0  0.98004  0.98560  0.80316  1.0000
  H   H903      1.0  0.54801  0.12479  0.81442  1.0000
  P   P38       1.0  0.94794  0.14426  0.77616  1.0000
  H   H904      1.0  0.87758  0.16823  0.70807  1.0000
  C   C1128     1.0  0.55213  0.02166  0.83418  1.0000
  C   C1129     1.0  0.91941  0.16228  0.82680  1.0000
  C   C1130     1.0  0.50051  0.00845  0.71643  1.0000
  C   C1131     1.0  0.49927  0.02109  0.68728  1.0000
  H   H905      1.0  0.92572  0.09411  0.75792  1.0000
  H   H906      1.0  0.59423  0.13733  0.93925  1.0000
  H   H907      1.0  0.92718  0.25735  0.86069  1.0000
  C   C1132     1.0  0.54631  0.99782  0.96902  1.0000
  H   H908      1.0  0.80566  0.29852  0.53018  1.0000
  H   H909      1.0  0.49650  0.29822  0.99065  1.0000
  H   H910      1.0  0.95413  0.13187  0.01286  1.0000
  H   H911      1.0  0.68301  0.00476  0.53543  1.0000
  H   H912      1.0  0.88621  0.12987  0.89084  1.0000
  H   H913      1.0  0.61425  0.11956  0.89306  1.0000
  H   H914      1.0  0.53585  0.19764  0.88605  1.0000
  C   C1133     1.0  0.89371  0.01794  0.78921  1.0000
  H   H915      1.0  0.90262  0.09042  0.86608  1.0000
  H   H916      1.0  0.57902  0.06745  0.00044  1.0000
  C   C1134     1.0  0.51392  0.30989  0.53006  1.0000
  H   H917      1.0  0.61145  0.26155  0.83216  1.0000
  C   C1135     1.0  0.54835  0.00361  0.70548  1.0000
  C   C1136     1.0  0.58718  0.11784  0.93383  1.0000
  C   C1137     1.0  0.54917  0.19822  0.96593  1.0000
  C   C1138     1.0  0.90769  0.11054  0.85536  1.0000
  H   H918      1.0  0.52335  0.04243  0.75782  1.0000
  C   C1139     1.0  0.55815  0.15213  0.98266  1.0000
  H   H919      1.0  0.56211  0.04873  0.91153  1.0000
  C   C1140     1.0  0.97482  0.12127  0.77347  1.0000
  H   H920      1.0  0.55911  0.01584  0.85610  1.0000
  S   S158      1.0  0.94872  0.03635  0.98146  1.0000
  C   C1141     1.0  0.71983  0.98925  0.51649  1.0000
  C   C1142     1.0  0.53492  0.00898  0.78777  1.0000
  C   C1143     1.0  0.49750  0.29054  0.01397  1.0000
  H   H921      1.0  0.50706  0.30713  0.74992  1.0000
  H   H922      1.0  0.92299  0.18243  0.81569  1.0000
  H   H923      1.0  0.60787  0.19569  0.99881  1.0000
  C   C1144     1.0  0.55788  0.07775  0.94442  1.0000
  C   C1145     1.0  0.89819  0.13277  0.86915  1.0000
  C   C1146     1.0  0.54919  0.04878  0.82491  1.0000
  H   H924      1.0  0.68266  0.27368  0.73521  1.0000
  H   H925      1.0  0.51206  0.99257  0.61125  1.0000
  Fe  Fe79      1.0  0.49356  0.00406  0.89373  1.0000
  H   H926      1.0  0.50563  0.25441  0.82448  1.0000
  C   C1147     1.0  0.54428  0.23771  0.81545  1.0000
  C   C1148     1.0  0.56210  0.22724  0.79377  1.0000
  C   C1149     1.0  0.55425  0.22484  0.76459  1.0000
  P   P39       1.0  0.59389  0.21467  0.80339  1.0000
  C   C1150     1.0  0.59916  0.21939  0.84224  1.0000
  C   C1151     1.0  0.59199  0.17917  0.79853  1.0000
  C   C1152     1.0  0.56820  0.16394  0.80890  1.0000
  C   C1153     1.0  0.56638  0.13636  0.80598  1.0000
  C   C1154     1.0  0.58817  0.12377  0.79237  1.0000
  C   C1155     1.0  0.61176  0.13882  0.78152  1.0000
  C   C1156     1.0  0.61370  0.16644  0.78453  1.0000
  C   C1157     1.0  0.59490  0.19810  0.86531  1.0000
  C   C1158     1.0  0.60000  0.20204  0.89503  1.0000
  C   C1159     1.0  0.60981  0.22710  0.90180  1.0000
  C   C1160     1.0  0.61402  0.24837  0.87900  1.0000
  C   C1161     1.0  0.60847  0.24464  0.84941  1.0000
  C   C1162     1.0  0.62186  0.23259  0.78043  1.0000
  C   C1163     1.0  0.61773  0.25288  0.75750  1.0000
  C   C1164     1.0  0.63963  0.26746  0.74119  1.0000
  C   C1165     1.0  0.66579  0.26212  0.74775  1.0000
  C   C1166     1.0  0.67011  0.24227  0.77079  1.0000
  C   C1167     1.0  0.64825  0.22770  0.78723  1.0000
  H   H927      1.0  0.63620  0.28330  0.72378  1.0000
  H   H928      1.0  0.89148  0.08391  0.72387  1.0000
  H   H929      1.0  0.55105  0.17332  0.81954  1.0000
  H   H930      1.0  0.54942  0.23917  0.83838  1.0000
  H   H931      1.0  0.56748  0.21620  0.74778  1.0000
  H   H932      1.0  0.56744  0.99661  0.71198  1.0000
  C   C1168     1.0  0.88265  0.12551  0.71330  1.0000
  C   C1169     1.0  0.97561  0.03977  0.00406  1.0000
  H   H933      1.0  0.53639  0.21264  0.95545  1.0000
  H   H934      1.0  0.56510  0.01884  0.66067  1.0000
  C   C1170     1.0  0.57299  0.20713  0.97669  1.0000
  C   C1171     1.0  0.54490  0.00186  0.81581  1.0000
  C   C1172     1.0  0.54708  0.01633  0.67632  1.0000
  H   H935      1.0  0.91433  0.27925  0.90727  1.0000
  Fe  Fe80      1.0  0.90295  0.98635  0.67919  1.0000
  C   C1173     1.0  0.93004  0.14007  0.81346  1.0000
  C   C1174     1.0  0.92371  0.11412  0.82773  1.0000
  H   H936      1.0  0.97022  0.00414  0.68271  1.0000
  C   C1175     1.0  0.91596  0.11054  0.74648  1.0000
  H   H937      1.0  0.93076  0.09657  0.81737  1.0000
  C   C1176     1.0  0.57365  0.30398  0.80430  1.0000
  C   C1177     1.0  0.54181  0.29201  0.56853  1.0000
  S   S159      1.0  0.97953  0.23483  0.87235  1.0000
  H   H938      1.0  0.91218  0.17867  0.74203  1.0000
  H   H939      1.0  0.97519  0.17882  0.81457  1.0000
  C   C1178     1.0  0.49086  0.29912  0.70842  1.0000
  C   C1179     1.0  0.96460  0.17720  0.76862  1.0000
  H   H940      1.0  0.93957  0.28475  0.81218  1.0000
  H   H941      1.0  0.83310  0.99667  0.56181  1.0000
  H   H942      1.0  0.50790  0.28788  0.70080  1.0000
  H   H943      1.0  0.52157  0.03475  0.64458  1.0000
  Fe  Fe81      1.0  0.55648  0.29905  0.88347  1.0000
  C   C1180     1.0  0.52256  0.02507  0.66721  1.0000
  S   S160      1.0  0.48623  0.03161  0.85277  1.0000
  H   H944      1.0  0.96960  0.98690  0.97187  1.0000
  C   C1181     1.0  0.91916  0.29139  0.88587  1.0000
  H   H945      1.0  0.75804  0.30468  0.54856  1.0000
  C   C1182     1.0  0.56698  0.00285  0.98713  1.0000
  C   C1183     1.0  0.94183  0.00121  0.52782  1.0000
  Fe  Fe82      1.0  0.48997  0.06565  0.88250  1.0000
  H   H946      1.0  0.52717  0.24434  0.52199  1.0000
  C   C1184     1.0  0.96788  0.19031  0.73914  1.0000
  H   H947      1.0  0.97855  0.29018  0.00080  1.0000
  H   H948      1.0  0.88015  0.00239  0.74913  1.0000
  H   H949      1.0  0.57865  0.22839  0.97441  1.0000
  C   C1185     1.0  0.49325  0.03479  0.00431  1.0000
  C   C1186     1.0  0.81384  0.98660  0.55995  1.0000
  C   C1187     1.0  0.52784  0.31317  0.55560  1.0000
  C   C1188     1.0  0.93385  0.29471  0.83223  1.0000
  C   C1189     1.0  0.52748  0.26363  0.53125  1.0000
  C   C1190     1.0  0.98109  0.15329  0.87673  1.0000
  C   C1191     1.0  0.49034  0.31011  0.73622  1.0000
  H   H950      1.0  0.59524  0.14717  0.00386  1.0000
  C   C1192     1.0  0.49737  0.10190  0.01047  1.0000
  H   H951      1.0  0.58426  0.98595  0.77289  1.0000
  H   H952      1.0  0.92180  0.31576  0.74768  1.0000
  C   C1193     1.0  0.98151  0.10962  0.74637  1.0000
  S   S161      1.0  0.59468  0.31592  0.85655  1.0000
  H   H953      1.0  0.98335  0.22592  0.71090  1.0000
  C   C1194     1.0  0.51355  0.28482  0.51817  1.0000
  C   C1195     1.0  0.90471  0.32771  0.13270  1.0000
  Fe  Fe83      1.0  0.64016  0.46246  0.35141  1.0000
  S   S162      1.0  0.64055  0.41989  0.33927  1.0000
  S   S163      1.0  0.64310  0.49869  0.31680  1.0000
  Fe  Fe84      1.0  0.63994  0.44536  0.41947  1.0000
  S   S164      1.0  0.63931  0.40174  0.41190  1.0000
  S   S165      1.0  0.63775  0.46032  0.46600  1.0000
  Fe  Fe85      1.0  0.67103  0.41429  0.37351  1.0000
  S   S166      1.0  0.70792  0.38914  0.36897  1.0000
  Fe  Fe86      1.0  0.60924  0.41244  0.37898  1.0000
  S   S167      1.0  0.57129  0.38678  0.37960  1.0000
  S   S168      1.0  0.67307  0.45757  0.38272  1.0000
  S   S169      1.0  0.60739  0.45523  0.38938  1.0000
  Fe  Fe87      1.0  0.88529  0.39204  0.45651  1.0000
  S   S170      1.0  0.88518  0.43355  0.43293  1.0000
  S   S171      1.0  0.89891  0.40639  0.36953  1.0000
  Fe  Fe88      1.0  0.92231  0.42214  0.40539  1.0000
  S   S172      1.0  0.95844  0.45087  0.39098  1.0000
  Fe  Fe89      1.0  0.86160  0.41390  0.39953  1.0000
  S   S173      1.0  0.82596  0.43634  0.38318  1.0000
  S   S174      1.0  0.52387  0.35597  0.19071  1.0000
  C   C1196     1.0  0.54088  0.40355  0.38124  1.0000
  C   C1197     1.0  0.54024  0.43146  0.37473  1.0000
  C   C1198     1.0  0.51574  0.44432  0.37821  1.0000
  H   H954      1.0  0.92943  0.32951  0.09068  1.0000
  S   S175      1.0  0.85958  0.37288  0.42480  1.0000
  C   C1199     1.0  0.51678  0.38859  0.38997  1.0000
  H   H955      1.0  0.55848  0.44313  0.36678  1.0000
  H   H956      1.0  0.84642  0.37216  0.25140  1.0000
  C   C1200     1.0  0.97758  0.42505  0.11330  1.0000
  H   H957      1.0  0.51688  0.36713  0.39546  1.0000
  C   C1201     1.0  0.74021  0.40263  0.37483  1.0000
  C   C1202     1.0  0.76015  0.38519  0.38358  1.0000
  C   C1203     1.0  0.78622  0.39524  0.38746  1.0000
  C   C1204     1.0  0.79284  0.42278  0.38164  1.0000
  C   C1205     1.0  0.77281  0.44021  0.37322  1.0000
  C   C1206     1.0  0.74658  0.43025  0.37008  1.0000
  H   H958      1.0  0.75528  0.36385  0.38763  1.0000
  H   H959      1.0  0.80120  0.38174  0.39478  1.0000
  H   H960      1.0  0.77765  0.46156  0.36887  1.0000
  H   H961      1.0  0.73150  0.44392  0.36332  1.0000
  C   C1207     1.0  0.55283  0.62455  0.02777  1.0000
  C   C1208     1.0  0.50821  0.43478  0.19257  1.0000
  C   C1209     1.0  0.52132  0.41069  0.18942  1.0000
  H   H962      1.0  0.51050  0.32023  0.45406  1.0000
  H   H963      1.0  0.53957  0.47645  0.42242  1.0000
  H   H964      1.0  0.79197  0.42240  0.46312  1.0000
  H   H965      1.0  0.51970  0.45354  0.18900  1.0000
  H   H966      1.0  0.54270  0.41126  0.18293  1.0000
  H   H967      1.0  0.54913  0.58185  0.04152  1.0000
  C   C1210     1.0  0.51086  0.38465  0.47629  1.0000
  C   C1211     1.0  0.61939  0.51202  0.29293  1.0000
  C   C1212     1.0  0.58104  0.50912  0.26264  1.0000
  C   C1213     1.0  0.59784  0.49695  0.28353  1.0000
  H   H968      1.0  0.56500  0.49740  0.25465  1.0000
  H   H969      1.0  0.59450  0.47594  0.29175  1.0000
  H   H970      1.0  0.53794  0.53913  0.02029  1.0000
  H   H971      1.0  0.65150  0.40405  0.47048  1.0000
  C   C1214     1.0  0.74057  0.40639  0.49200  1.0000
  H   H972      1.0  0.54275  0.36674  0.12675  1.0000
  S   S176      1.0  0.52904  0.50655  0.17017  1.0000
  H   H973      1.0  0.97673  0.40034  0.41785  1.0000
  S   S177      1.0  0.52387  0.57155  0.16059  1.0000
  H   H974      1.0  0.93628  0.59053  0.23495  1.0000
  Fe  Fe90      1.0  0.51494  0.53632  0.13476  1.0000
  S   S178      1.0  0.53027  0.53667  0.08527  1.0000
  Fe  Fe91      1.0  0.53296  0.54113  0.19837  1.0000
  S   S179      1.0  0.56705  0.55368  0.22472  1.0000
  H   H975      1.0  0.54571  0.56976  0.31741  1.0000
  H   H976      1.0  0.58776  0.37669  0.47647  1.0000
  C   C1215     1.0  0.54052  0.47400  0.44677  1.0000
  H   H977      1.0  0.98339  0.47544  0.44042  1.0000
  C   C1216     1.0  0.97014  0.46987  0.09127  1.0000
  H   H978      1.0  0.50957  0.62184  0.18612  1.0000
  C   C1217     1.0  0.48877  0.31993  0.45764  1.0000
  C   C1218     1.0  0.62357  0.53905  0.28190  1.0000
  C   C1219     1.0  0.60673  0.55115  0.26183  1.0000
  C   C1220     1.0  0.58565  0.53637  0.25171  1.0000
  H   H979      1.0  0.64014  0.55080  0.28885  1.0000
  H   H980      1.0  0.61051  0.57210  0.25351  1.0000
  Fe  Fe92      1.0  0.89873  0.36677  0.39753  1.0000
  C   C1221     1.0  0.49176  0.42928  0.38765  1.0000
  H   H981      1.0  0.55378  0.54542  0.41668  1.0000
  H   H982      1.0  0.92362  0.64217  0.11073  1.0000
  H   H983      1.0  0.88441  0.32941  0.17728  1.0000
  H   H984      1.0  0.95187  0.54727  0.06078  1.0000
  H   H985      1.0  0.85211  0.40553  0.33628  1.0000
  S   S180      1.0  0.92412  0.38202  0.43187  1.0000
  C   C1222     1.0  0.64697  0.40991  0.49294  1.0000
  C   C1223     1.0  0.93148  0.42458  0.29693  1.0000
  C   C1224     1.0  0.92770  0.41693  0.26820  1.0000
  C   C1225     1.0  0.91313  0.43293  0.24875  1.0000
  C   C1226     1.0  0.90187  0.45627  0.25833  1.0000
  C   C1227     1.0  0.90568  0.46416  0.28721  1.0000
  C   C1228     1.0  0.92078  0.44820  0.30639  1.0000
  P   P40       1.0  0.89000  0.49379  0.29954  1.0000
  C   C1229     1.0  0.90485  0.52417  0.27861  1.0000
  C   C1230     1.0  0.85480  0.48952  0.29413  1.0000
  C   C1231     1.0  0.84122  0.50955  0.27820  1.0000
  C   C1232     1.0  0.81382  0.50571  0.27480  1.0000
  C   C1233     1.0  0.79987  0.48186  0.28711  1.0000
  C   C1234     1.0  0.81338  0.46173  0.30258  1.0000
  C   C1235     1.0  0.84073  0.46552  0.30594  1.0000
  C   C1236     1.0  0.89859  0.54912  0.28892  1.0000
  C   C1237     1.0  0.90978  0.57297  0.27314  1.0000
  C   C1238     1.0  0.52035  0.36301  0.49403  1.0000
  C   C1239     1.0  0.93405  0.54731  0.23693  1.0000
  C   C1240     1.0  0.92279  0.52341  0.25253  1.0000
  C   C1241     1.0  0.89412  0.49715  0.33903  1.0000
  C   C1242     1.0  0.91959  0.50430  0.34752  1.0000
  C   C1243     1.0  0.92328  0.50674  0.37792  1.0000
  C   C1244     1.0  0.90156  0.50219  0.40010  1.0000
  C   C1245     1.0  0.87603  0.49566  0.39179  1.0000
  C   C1246     1.0  0.87225  0.49325  0.36140  1.0000
  C   C1247     1.0  0.51016  0.38137  0.06353  1.0000
  H   H986      1.0  0.93607  0.39856  0.26109  1.0000
  H   H987      1.0  0.91068  0.42724  0.22621  1.0000
  H   H988      1.0  0.89029  0.46826  0.24315  1.0000
  H   H989      1.0  0.92404  0.45354  0.32885  1.0000
  H   H990      1.0  0.85158  0.52814  0.26849  1.0000
  H   H991      1.0  0.80330  0.52131  0.26282  1.0000
  H   H992      1.0  0.77856  0.47904  0.28493  1.0000
  H   H993      1.0  0.80261  0.44336  0.31260  1.0000
  H   H994      1.0  0.85081  0.45011  0.31867  1.0000
  H   H995      1.0  0.88497  0.55010  0.30914  1.0000
  H   H996      1.0  0.85021  0.47952  0.48758  1.0000
  H   H997      1.0  0.48951  0.38664  0.47490  1.0000
  C   C1248     1.0  0.70741  0.41365  0.44470  1.0000
  H   H998      1.0  0.92846  0.50459  0.24418  1.0000
  H   H999      1.0  0.93676  0.50737  0.33077  1.0000
  H   H1000     1.0  0.55629  0.34346  0.50686  1.0000
  H   H1001     1.0  0.90463  0.50318  0.42378  1.0000
  H   H1002     1.0  0.85918  0.49178  0.40897  1.0000
  H   H1003     1.0  0.85225  0.48809  0.35583  1.0000
  C   C1249     1.0  0.51696  0.46922  0.46624  1.0000
  H   H1004     1.0  0.59044  0.51816  0.39604  1.0000
  C   C1250     1.0  0.91489  0.32425  0.34083  1.0000
  C   C1251     1.0  0.96342  0.60481  0.30722  1.0000
  H   H1005     1.0  0.77750  0.35085  0.31304  1.0000
  C   C1252     1.0  0.80018  0.43322  0.48048  1.0000
  H   H1006     1.0  0.51246  0.45402  0.06599  1.0000
  H   H1007     1.0  0.71001  0.40159  0.22882  1.0000
  H   H1008     1.0  0.90480  0.59216  0.28110  1.0000
  S   S181      1.0  0.91206  0.32785  0.37999  1.0000
  H   H1009     1.0  0.52424  0.61954  0.24060  1.0000
  H   H1010     1.0  0.57467  0.32641  0.21108  1.0000
  C   C1253     1.0  0.51682  0.53459  0.02710  1.0000
  C   C1254     1.0  0.92747  0.57206  0.24713  1.0000
  C   C1255     1.0  0.50737  0.53213  0.05795  1.0000
  C   C1256     1.0  0.89883  0.33935  0.15973  1.0000
  H   H1011     1.0  0.89633  0.36111  0.32776  1.0000
  H   H1012     1.0  0.94243  0.41195  0.31205  1.0000
  H   H1013     1.0  0.70387  0.45409  0.45686  1.0000
  H   H1014     1.0  0.54559  0.50228  0.32174  1.0000
  P   P41       1.0  0.96507  0.37779  0.08748  1.0000
  H   H1015     1.0  0.78872  0.33026  0.40074  1.0000
  C   C1257     1.0  0.57230  0.52050  0.38458  1.0000
  H   H1016     1.0  0.97745  0.53640  0.29110  1.0000
  C   C1258     1.0  0.84327  0.37026  0.27593  1.0000
  H   H1017     1.0  0.55383  0.33350  0.40962  1.0000
  H   H1018     1.0  0.53686  0.32132  0.05013  1.0000
  C   C1259     1.0  0.53588  0.36469  0.10465  1.0000
  H   H1019     1.0  0.51309  0.55175  0.38947  1.0000
  H   H1020     1.0  0.95536  0.47263  0.04725  1.0000
  H   H1021     1.0  0.95336  0.49699  0.47753  1.0000
  H   H1022     1.0  0.49780  0.46794  0.45674  1.0000
  C   C1260     1.0  0.93865  0.36343  0.11570  1.0000
  C   C1261     1.0  0.97748  0.39963  0.20017  1.0000
  H   H1023     1.0  0.94323  0.51109  0.38444  1.0000
  C   C1262     1.0  0.73505  0.38510  0.47467  1.0000
  C   C1263     1.0  0.57672  0.33207  0.29718  1.0000
  C   C1264     1.0  0.50684  0.38593  0.19447  1.0000
  C   C1265     1.0  0.96027  0.43138  0.06421  1.0000
  C   C1266     1.0  0.93239  0.37508  0.14294  1.0000
  C   C1267     1.0  0.91264  0.36304  0.16482  1.0000
  C   C1268     1.0  0.85042  0.39172  0.29202  1.0000
  C   C1269     1.0  0.95639  0.36914  0.05083  1.0000
  H   H1024     1.0  0.57054  0.41454  0.44518  1.0000
  H   H1025     1.0  0.57780  0.33405  0.32100  1.0000
  C   C1270     1.0  0.69468  0.41440  0.23745  1.0000
  H   H1026     1.0  0.69958  0.32385  0.35477  1.0000
  C   C1271     1.0  0.55322  0.32186  0.28636  1.0000
  C   C1272     1.0  0.71274  0.43491  0.46181  1.0000
  C   C1273     1.0  0.93023  0.37295  0.04261  1.0000
  H   H1027     1.0  0.89873  0.43620  0.49760  1.0000
  C   C1274     1.0  0.97025  0.59144  0.13369  1.0000
  C   C1275     1.0  0.52014  0.38435  0.09166  1.0000
  C   C1276     1.0  0.64041  0.43632  0.49713  1.0000
  H   H1028     1.0  0.69485  0.41648  0.42625  1.0000
  C   C1277     1.0  0.52892  0.40322  0.45899  1.0000
  H   H1029     1.0  0.51194  0.35372  0.26458  1.0000
  H   H1030     1.0  0.51526  0.40130  0.10424  1.0000
  H   H1031     1.0  0.58596  0.49684  0.34868  1.0000
  H   H1032     1.0  0.95331  0.42368  0.04427  1.0000
  H   H1033     1.0  0.94296  0.39299  0.14803  1.0000
  H   H1034     1.0  0.90875  0.37151  0.18625  1.0000
  C   C1278     1.0  0.50082  0.33851  0.31160  1.0000
  C   C1279     1.0  0.96139  0.45922  0.06575  1.0000
  S   S182      1.0  0.87534  0.38144  0.50666  1.0000
  H   H1035     1.0  0.61625  0.34417  0.23047  1.0000
  H   H1036     1.0  0.82956  0.45530  0.44842  1.0000
  C   C1280     1.0  0.76523  0.33612  0.32812  1.0000
  H   H1037     1.0  0.91555  0.38180  0.05769  1.0000
  C   C1281     1.0  0.69884  0.42838  0.26254  1.0000
  C   C1282     1.0  0.95128  0.59800  0.08568  1.0000
  C   C1283     1.0  0.94888  0.58785  0.11613  1.0000
  C   C1284     1.0  0.57545  0.32792  0.23512  1.0000
  H   H1038     1.0  0.95963  0.59564  0.38421  1.0000
  C   C1285     1.0  0.56672  0.47067  0.48995  1.0000
  C   C1286     1.0  0.52593  0.52700  0.35396  1.0000
  H   H1039     1.0  0.85896  0.41036  0.28005  1.0000
  H   H1040     1.0  0.71728  0.42641  0.27346  1.0000
  H   H1041     1.0  0.58380  0.47794  0.44374  1.0000
  C   C1287     1.0  0.54675  0.51157  0.34262  1.0000
  C   C1288     1.0  0.97833  0.45281  0.11495  1.0000
  H   H1042     1.0  0.61016  0.37066  0.12066  1.0000
  C   C1289     1.0  0.56763  0.62909  0.08665  1.0000
  C   C1290     1.0  0.56537  0.47472  0.45867  1.0000
  C   C1291     1.0  0.49041  0.50483  0.31203  1.0000
  C   C1292     1.0  0.51875  0.60394  0.25892  1.0000
  H   H1043     1.0  0.55726  0.60602  0.27677  1.0000
  C   C1293     1.0  0.52858  0.53921  0.38080  1.0000
  S   S183      1.0  0.49054  0.53709  0.21986  1.0000
  H   H1044     1.0  0.96823  0.58380  0.15736  1.0000
  H   H1045     1.0  0.96717  0.63761  0.22616  1.0000
  C   C1294     1.0  0.90498  0.34319  0.32006  1.0000
  H   H1046     1.0  0.74379  0.36582  0.47883  1.0000
  H   H1047     1.0  0.93479  0.59513  0.07190  1.0000
  H   H1048     1.0  0.93052  0.57713  0.12614  1.0000
  C   C1295     1.0  0.95406  0.60705  0.33740  1.0000
  C   C1296     1.0  0.81451  0.31784  0.43472  1.0000
  C   C1297     1.0  0.49632  0.63840  0.18649  1.0000
  C   C1298     1.0  0.54024  0.32348  0.36733  1.0000
  H   H1049     1.0  0.57301  0.63079  0.10948  1.0000
  C   C1299     1.0  0.96734  0.48250  0.48541  1.0000
  H   H1050     1.0  0.89652  0.35239  0.27362  1.0000
  C   C1300     1.0  0.97199  0.54284  0.05224  1.0000
  H   H1051     1.0  0.51534  0.46588  0.37353  1.0000
  C   C1301     1.0  0.83313  0.46557  0.49398  1.0000
  H   H1052     1.0  0.72866  0.35557  0.31907  1.0000
  C   C1302     1.0  0.84674  0.38902  0.32365  1.0000
  C   C1303     1.0  0.54195  0.34200  0.08969  1.0000
  C   C1304     1.0  0.90516  0.33827  0.28943  1.0000
  C   C1305     1.0  0.82164  0.45186  0.47202  1.0000
  C   C1306     1.0  0.96797  0.41397  0.08825  1.0000
  H   H1053     1.0  0.95177  0.37463  0.35136  1.0000
  C   C1307     1.0  0.67899  0.44467  0.27388  1.0000
  C   C1308     1.0  0.65488  0.44677  0.26042  1.0000
  C   C1309     1.0  0.65063  0.43321  0.23486  1.0000
  C   C1310     1.0  0.67070  0.41678  0.22362  1.0000
  P   P42       1.0  0.61909  0.43610  0.21791  1.0000
  C   C1311     1.0  0.59151  0.42735  0.24671  1.0000
  C   C1312     1.0  0.61571  0.46974  0.20008  1.0000
  C   C1313     1.0  0.59953  0.47365  0.17591  1.0000
  C   C1314     1.0  0.59725  0.49935  0.16136  1.0000
  C   C1315     1.0  0.61049  0.52149  0.17126  1.0000
  C   C1316     1.0  0.62660  0.51786  0.19520  1.0000
  C   C1317     1.0  0.62932  0.49214  0.20950  1.0000
  C   C1318     1.0  0.56529  0.43416  0.24130  1.0000
  C   C1319     1.0  0.54363  0.42547  0.26251  1.0000
  C   C1320     1.0  0.54801  0.41073  0.28970  1.0000
  C   C1321     1.0  0.57404  0.40393  0.29524  1.0000
  C   C1322     1.0  0.59568  0.41188  0.27375  1.0000
  C   C1323     1.0  0.61719  0.41398  0.18812  1.0000
  C   C1324     1.0  0.59763  0.39278  0.19046  1.0000
  C   C1325     1.0  0.59525  0.37723  0.16618  1.0000
  C   C1326     1.0  0.61233  0.38260  0.13951  1.0000
  C   C1327     1.0  0.63187  0.40359  0.13702  1.0000
  C   C1328     1.0  0.63422  0.41931  0.16115  1.0000
  H   H1054     1.0  0.95697  0.40074  0.20974  1.0000
  H   H1055     1.0  0.68204  0.45545  0.29348  1.0000
  H   H1056     1.0  0.63942  0.45879  0.27027  1.0000
  H   H1057     1.0  0.66789  0.40546  0.20452  1.0000
  H   H1058     1.0  0.58850  0.45690  0.16827  1.0000
  H   H1059     1.0  0.58479  0.50222  0.14273  1.0000
  H   H1060     1.0  0.60781  0.54155  0.16084  1.0000
  H   H1061     1.0  0.63636  0.53514  0.20332  1.0000
  H   H1062     1.0  0.64166  0.49026  0.22815  1.0000
  H   H1063     1.0  0.56141  0.44558  0.22043  1.0000
  H   H1064     1.0  0.52339  0.42979  0.25760  1.0000
  H   H1065     1.0  0.53127  0.40434  0.30637  1.0000
  H   H1066     1.0  0.57743  0.39215  0.31608  1.0000
  H   H1067     1.0  0.61550  0.40562  0.27831  1.0000
  H   H1068     1.0  0.58369  0.38845  0.21057  1.0000
  C   C1329     1.0  0.55164  0.53583  0.39614  1.0000
  H   H1069     1.0  0.64492  0.40794  0.11620  1.0000
  H   H1070     1.0  0.64904  0.43593  0.15867  1.0000
  Fe  Fe93      1.0  0.49646  0.32001  0.18586  1.0000
  H   H1071     1.0  0.93508  0.65019  0.05547  1.0000
  H   H1072     1.0  0.52145  0.41918  0.44439  1.0000
  H   H1073     1.0  0.81691  0.38297  0.50359  1.0000
  C   C1330     1.0  0.49963  0.35619  0.28533  1.0000
  H   H1074     1.0  0.94812  0.54666  0.21699  1.0000
  C   C1331     1.0  0.53727  0.59646  0.27948  1.0000
  C   C1332     1.0  0.55391  0.60159  0.04823  1.0000
  C   C1333     1.0  0.82882  0.34333  0.32335  1.0000
  C   C1334     1.0  0.83240  0.34616  0.29150  1.0000
  C   C1335     1.0  0.83627  0.36487  0.33930  1.0000
  H   H1075     1.0  0.52064  0.51726  0.27477  1.0000
  C   C1336     1.0  0.97509  0.61158  0.07277  1.0000
  C   C1337     1.0  0.59935  0.34009  0.27707  1.0000
  C   C1338     1.0  0.73743  0.33885  0.33134  1.0000
  H   H1076     1.0  0.95375  0.61515  0.28895  1.0000
  C   C1339     1.0  0.56624  0.37894  0.47672  1.0000
  C   C1340     1.0  0.56978  0.50838  0.35790  1.0000
  C   C1341     1.0  0.50527  0.56205  0.30501  1.0000
  C   C1342     1.0  0.49240  0.40137  0.39294  1.0000
  C   C1343     1.0  0.51823  0.46525  0.49768  1.0000
  H   H1077     1.0  0.50845  0.60092  0.10308  1.0000
  P   P43       1.0  0.49730  0.53340  0.33279  1.0000
  H   H1078     1.0  0.93695  0.61907  0.34264  1.0000
  C   C1344     1.0  0.71844  0.38877  0.45115  1.0000
  C   C1345     1.0  0.53060  0.57567  0.30250  1.0000
  H   H1079     1.0  0.50241  0.59478  0.03509  1.0000
  H   H1080     1.0  0.83407  0.36315  0.36378  1.0000
  C   C1346     1.0  0.56138  0.60385  0.07744  1.0000
  C   C1347     1.0  0.92456  0.33959  0.11087  1.0000
  H   H1081     1.0  0.73377  0.44815  0.49809  1.0000
  H   H1082     1.0  0.96175  0.49089  0.28185  1.0000
  C   C1348     1.0  0.50024  0.48009  0.26810  1.0000
  C   C1349     1.0  0.50530  0.50215  0.28424  1.0000
  H   H1083     1.0  0.51122  0.47855  0.24621  1.0000
  C   C1350     1.0  0.54748  0.31740  0.39673  1.0000
  C   C1351     1.0  0.55658  0.40044  0.45921  1.0000
  H   H1084     1.0  0.56197  0.58594  0.09307  1.0000
  H   H1085     1.0  0.54093  0.34423  0.35775  1.0000
  H   H1086     1.0  0.57974  0.36131  0.16783  1.0000
  C   C1352     1.0  0.72948  0.43139  0.48523  1.0000
  H   H1087     1.0  0.51091  0.64937  0.08576  1.0000
  C   C1353     1.0  0.48370  0.34203  0.33765  1.0000
  C   C1354     1.0  0.51628  0.35839  0.04874  1.0000
  H   H1088     1.0  0.51220  0.53372  0.46331  1.0000
  C   C1355     1.0  0.49407  0.44923  0.08063  1.0000
  C   C1356     1.0  0.97497  0.35737  0.03097  1.0000
  H   H1089     1.0  0.58634  0.47073  0.49848  1.0000
  C   C1357     1.0  0.49351  0.59062  0.26132  1.0000
  C   C1358     1.0  0.98133  0.49406  0.28971  1.0000
  H   H1090     1.0  0.50812  0.35507  0.02757  1.0000
  H   H1091     1.0  0.49767  0.57533  0.43561  1.0000
  H   H1092     1.0  0.71441  0.37252  0.43745  1.0000
  C   C1359     1.0  0.48695  0.56946  0.28394  1.0000
  C   C1360     1.0  0.59875  0.33794  0.24606  1.0000
  C   C1361     1.0  0.55961  0.64985  0.03706  1.0000
  H   H1093     1.0  0.82682  0.32977  0.27868  1.0000
  C   C1362     1.0  0.78981  0.42826  0.51103  1.0000
  C   C1363     1.0  0.54823  0.36020  0.49402  1.0000
  C   C1364     1.0  0.53239  0.33903  0.06160  1.0000
  H   H1094     1.0  0.50081  0.48227  0.10728  1.0000
  C   C1365     1.0  0.97764  0.53969  0.02137  1.0000
  H   H1095     1.0  0.97629  0.61956  0.04928  1.0000
  H   H1096     1.0  0.55355  0.32644  0.10012  1.0000
  H   H1097     1.0  0.97068  0.49134  0.09271  1.0000
  C   C1366     1.0  0.96687  0.59387  0.36080  1.0000
  C   C1367     1.0  0.49117  0.53847  0.46497  1.0000
  H   H1098     1.0  0.61732  0.34806  0.28561  1.0000
  S   S184      1.0  0.98021  0.45460  0.20021  1.0000
  H   H1099     1.0  0.65328  0.37056  0.51449  1.0000
  C   C1368     1.0  0.49217  0.63795  0.08567  1.0000
  C   C1369     1.0  0.55277  0.32006  0.25510  1.0000
  H   H1100     1.0  0.80247  0.32647  0.45258  1.0000
  C   C1370     1.0  0.72101  0.32096  0.35159  1.0000
  C   C1371     1.0  0.54318  0.46629  0.50987  1.0000
  H   H1101     1.0  0.49974  0.46119  0.51211  1.0000
  C   C1372     1.0  0.49086  0.61053  0.09563  1.0000
  H   H1102     1.0  0.97572  0.35630  0.20333  1.0000
  C   C1373     1.0  0.97340  0.37358  0.34745  1.0000
  H   H1103     1.0  0.97864  0.32180  0.09650  1.0000
  C   C1374     1.0  0.80676  0.31990  0.40521  1.0000
  H   H1104     1.0  0.50106  0.64999  0.28952  1.0000
  H   H1105     1.0  0.83482  0.33797  0.50785  1.0000
  H   H1106     1.0  0.97185  0.33074  0.35438  1.0000
  Fe  Fe94      1.0  0.48589  0.50403  0.18950  1.0000
  C   C1375     1.0  0.80364  0.36612  0.51313  1.0000
  C   C1376     1.0  0.81392  0.34046  0.51548  1.0000
  H   H1107     1.0  0.98077  0.41653  0.34004  1.0000
  C   C1377     1.0  0.48761  0.46528  0.10411  1.0000
  P   P44       1.0  0.49649  0.33785  0.51364  1.0000
  P   P45       1.0  0.48740  0.40505  0.04785  1.0000
  S   S185      1.0  0.87349  0.41700  0.66120  1.0000
  S   S186      1.0  0.80460  0.39916  0.70937  1.0000
  Fe  Fe95      1.0  0.90381  0.42993  0.69185  1.0000
  S   S187      1.0  0.94056  0.40542  0.69828  1.0000
  C   C1378     1.0  0.70432  0.41262  0.58966  1.0000
  Fe  Fe96      1.0  0.65058  0.40838  0.68056  1.0000
  S   S188      1.0  0.65317  0.36708  0.66471  1.0000
  S   S189      1.0  0.68481  0.43361  0.69554  1.0000
  Fe  Fe97      1.0  0.59172  0.41319  0.66601  1.0000
  S   S190      1.0  0.59052  0.37282  0.64858  1.0000
  S   S191      1.0  0.55582  0.43963  0.66600  1.0000
  Fe  Fe98      1.0  0.61176  0.35966  0.68912  1.0000
  C   C1379     1.0  0.81566  0.40591  0.89787  1.0000
  Fe  Fe99      1.0  0.63155  0.38431  0.62565  1.0000
  S   S192      1.0  0.64268  0.37327  0.57822  1.0000
  S   S193      1.0  0.61064  0.39964  0.70835  1.0000
  S   S194      1.0  0.63145  0.42610  0.63984  1.0000
  S   S195      1.0  0.50564  0.53467  0.91736  1.0000
  C   C1380     1.0  0.58077  0.50669  0.54386  1.0000
  Fe  Fe100     1.0  0.49569  0.50504  0.88470  1.0000
  H   H1108     1.0  0.86162  0.38814  0.77529  1.0000
  C   C1381     1.0  0.64263  0.39817  0.54752  1.0000
  C   C1382     1.0  0.71782  0.40824  0.61566  1.0000
  H   H1109     1.0  0.92676  0.50426  0.82070  1.0000
  C   C1383     1.0  0.97135  0.32784  0.77352  1.0000
  C   C1384     1.0  0.63642  0.42467  0.55184  1.0000
  C   C1385     1.0  0.54210  0.36570  0.80711  1.0000
  H   H1110     1.0  0.63212  0.43040  0.57447  1.0000
  H   H1111     1.0  0.83720  0.53105  0.88519  1.0000
  C   C1386     1.0  0.56986  0.56119  0.93780  1.0000
  C   C1387     1.0  0.74501  0.40247  0.61309  1.0000
  C   C1388     1.0  0.92037  0.37983  0.59475  1.0000
  H   H1112     1.0  0.76034  0.48797  0.90110  1.0000
  C   C1389     1.0  0.82489  0.40872  0.86693  1.0000
  C   C1390     1.0  0.79751  0.31830  0.52813  1.0000
  C   C1391     1.0  0.82289  0.46088  0.52437  1.0000
  C   C1392     1.0  0.96267  0.44849  0.97829  1.0000
  C   C1393     1.0  0.96302  0.41434  0.90713  1.0000
  H   H1113     1.0  0.89137  0.64126  0.96482  1.0000
  C   C1394     1.0  0.49178  0.38560  0.67652  1.0000
  C   C1395     1.0  0.71795  0.41142  0.56099  1.0000
  H   H1114     1.0  0.94277  0.45228  0.97155  1.0000
  H   H1115     1.0  0.94137  0.41149  0.90924  1.0000
  H   H1116     1.0  0.96273  0.45766  0.90037  1.0000
  C   C1396     1.0  0.78132  0.48893  0.89232  1.0000
  H   H1117     1.0  0.68308  0.41644  0.59175  1.0000
  C   C1397     1.0  0.87735  0.44853  0.56994  1.0000
  C   C1398     1.0  0.86420  0.42367  0.57972  1.0000
  C   C1399     1.0  0.86350  0.40338  0.55998  1.0000
  H   H1118     1.0  0.50542  0.34768  0.82969  1.0000
  H   H1119     1.0  0.87298  0.43645  0.79502  1.0000
  C   C1400     1.0  0.88954  0.45309  0.54012  1.0000
  H   H1120     1.0  0.85411  0.42022  0.60232  1.0000
  H   H1121     1.0  0.85335  0.38418  0.56776  1.0000
  C   C1401     1.0  0.95136  0.48201  0.59352  1.0000
  C   C1402     1.0  0.71681  0.41071  0.78373  1.0000
  H   H1122     1.0  0.85606  0.49391  0.85950  1.0000
  C   C1403     1.0  0.50914  0.61268  0.98859  1.0000
  C   C1404     1.0  0.51824  0.39681  0.67361  1.0000
  C   C1405     1.0  0.52287  0.42472  0.67100  1.0000
  H   H1123     1.0  0.54958  0.42301  0.95420  1.0000
  C   C1406     1.0  0.94484  0.50389  0.60972  1.0000
  H   H1124     1.0  0.72380  0.45846  0.84671  1.0000
  H   H1125     1.0  0.53504  0.38381  0.67336  1.0000
  C   C1407     1.0  0.77176  0.40801  0.70117  1.0000
  C   C1408     1.0  0.76646  0.43392  0.68919  1.0000
  C   C1409     1.0  0.73978  0.44122  0.68655  1.0000
  C   C1410     1.0  0.71815  0.42250  0.69474  1.0000
  C   C1411     1.0  0.72352  0.39603  0.70463  1.0000
  C   C1412     1.0  0.75018  0.38896  0.70829  1.0000
  H   H1126     1.0  0.73591  0.46146  0.67803  1.0000
  H   H1127     1.0  0.70707  0.38133  0.71083  1.0000
  H   H1128     1.0  0.75406  0.36875  0.71718  1.0000
  Fe  Fe101     1.0  0.87318  0.47845  0.70834  1.0000
  S   S196      1.0  0.87200  0.43594  0.72962  1.0000
  S   S197      1.0  0.87089  0.51569  0.73379  1.0000
  Fe  Fe102     1.0  0.87419  0.46061  0.64423  1.0000
  S   S198      1.0  0.87772  0.47453  0.59414  1.0000
  Fe  Fe103     1.0  0.84164  0.42748  0.69665  1.0000
  S   S199      1.0  0.84059  0.47057  0.67786  1.0000
  S   S200      1.0  0.90662  0.47299  0.67262  1.0000
  Fe  Fe104     1.0  0.94163  0.54065  0.88458  1.0000
  C   C1413     1.0  0.75870  0.40104  0.58445  1.0000
  S   S201      1.0  0.90125  0.53860  0.86508  1.0000
  Fe  Fe105     1.0  0.96351  0.54244  0.94659  1.0000
  C   C1414     1.0  0.93013  0.38540  0.56432  1.0000
  H   H1129     1.0  0.91333  0.49339  0.77008  1.0000
  C   C1415     1.0  0.82450  0.51325  0.88344  1.0000
  H   H1130     1.0  0.77282  0.41632  0.77009  1.0000
  C   C1416     1.0  0.49049  0.46877  0.74776  1.0000
  S   S202      1.0  0.95070  0.57453  0.91291  1.0000
  S   S203      1.0  0.95028  0.50860  0.92077  1.0000
  S   S204      1.0  0.95203  0.54387  0.99682  1.0000
  C   C1417     1.0  0.72476  0.41767  0.83531  1.0000
  C   C1418     1.0  0.97780  0.44785  0.68100  1.0000
  C   C1419     1.0  0.79886  0.42672  0.80377  1.0000
  H   H1131     1.0  0.62133  0.56137  0.98273  1.0000
  H   H1132     1.0  0.80411  0.37820  0.93737  1.0000
  H   H1133     1.0  0.50417  0.46284  0.67054  1.0000
  C   C1420     1.0  0.79215  0.46740  0.87807  1.0000
  H   H1134     1.0  0.78287  0.44859  0.68274  1.0000
  C   C1421     1.0  0.88070  0.52035  0.77025  1.0000
  C   C1422     1.0  0.86647  0.53857  0.78681  1.0000
  C   C1423     1.0  0.87333  0.54387  0.81553  1.0000
  C   C1424     1.0  0.89529  0.53195  0.82779  1.0000
  C   C1425     1.0  0.90992  0.51378  0.81126  1.0000
  C   C1426     1.0  0.90227  0.50756  0.78270  1.0000
  H   H1135     1.0  0.84994  0.54864  0.77732  1.0000
  H   H1136     1.0  0.86179  0.55773  0.82815  1.0000
  H   H1137     1.0  0.80427  0.51058  0.82036  1.0000
  H   H1138     1.0  0.70662  0.41409  0.54145  1.0000
  C   C1427     1.0  0.81939  0.46849  0.86693  1.0000
  C   C1428     1.0  0.91143  0.44169  0.81182  1.0000
  H   H1139     1.0  0.71439  0.39725  0.76634  1.0000
  Fe  Fe106     1.0  0.49031  0.56614  0.88447  1.0000
  H   H1140     1.0  0.50695  0.36729  0.73304  1.0000
  C   C1429     1.0  0.97818  0.47493  0.58856  1.0000
  S   S205      1.0  0.48473  0.53694  0.84934  1.0000
  C   C1430     1.0  0.79754  0.51180  0.89513  1.0000
  H   H1141     1.0  0.83043  0.34237  0.85626  1.0000
  C   C1431     1.0  0.90898  0.33176  0.75379  1.0000
  H   H1142     1.0  0.98186  0.34049  0.98817  1.0000
  C   C1432     1.0  0.93085  0.39426  0.61676  1.0000
  C   C1433     1.0  0.87483  0.37237  0.76945  1.0000
  C   C1434     1.0  0.61984  0.51150  0.57165  1.0000
  C   C1435     1.0  0.52305  0.45538  0.96031  1.0000
  C   C1436     1.0  0.82597  0.36009  0.86780  1.0000
  C   C1437     1.0  0.60348  0.52171  0.54989  1.0000
  C   C1438     1.0  0.74544  0.40604  0.55809  1.0000
  C   C1439     1.0  0.51048  0.43772  0.88603  1.0000
  C   C1440     1.0  0.97341  0.42055  0.69089  1.0000
  C   C1441     1.0  0.96499  0.51855  0.62167  1.0000
  C   C1442     1.0  0.86914  0.35680  0.74611  1.0000
  H   H1143     1.0  0.96813  0.60968  0.98004  1.0000
  H   H1144     1.0  0.93547  0.34656  0.97455  1.0000
  C   C1443     1.0  0.97480  0.42042  0.77852  1.0000
  P   P46       1.0  0.76316  0.40274  0.52137  1.0000
  H   H1145     1.0  0.78924  0.52850  0.90615  1.0000
  H   H1146     1.0  0.95930  0.40606  0.97381  1.0000
  C   C1444     1.0  0.86894  0.44380  0.84239  1.0000
  C   C1445     1.0  0.51640  0.36687  0.75395  1.0000
  S   S206      1.0  0.52276  0.47098  0.87370  1.0000
  H   H1147     1.0  0.80371  0.55916  0.80497  1.0000
  H   H1148     1.0  0.97617  0.36330  0.84355  1.0000
  H   H1149     1.0  0.57670  0.38297  0.77849  1.0000
  H   H1150     1.0  0.90443  0.36458  0.60121  1.0000
  H   H1151     1.0  0.83204  0.47128  0.54147  1.0000
  P   P47       1.0  0.54454  0.62097  0.98946  1.0000
  C   C1446     1.0  0.97619  0.33560  0.74229  1.0000
  H   H1152     1.0  0.49322  0.48371  0.97151  1.0000
  C   C1447     1.0  0.96744  0.34951  0.00347  1.0000
  C   C1448     1.0  0.51799  0.49122  0.59235  1.0000
  C   C1449     1.0  0.51616  0.47069  0.57295  1.0000
  H   H1153     1.0  0.62899  0.34458  0.80815  1.0000
  P   P48       1.0  0.54573  0.46131  0.55040  1.0000
  C   C1450     1.0  0.57448  0.48110  0.55926  1.0000
  C   C1451     1.0  0.55173  0.42641  0.56064  1.0000
  C   C1452     1.0  0.56942  0.41264  0.54187  1.0000
  C   C1453     1.0  0.57575  0.38629  0.55084  1.0000
  C   C1454     1.0  0.56420  0.37332  0.57828  1.0000
  C   C1455     1.0  0.54615  0.38665  0.59680  1.0000
  C   C1456     1.0  0.54041  0.41330  0.58844  1.0000
  H   H1154     1.0  0.81255  0.42337  0.91021  1.0000
  C   C1457     1.0  0.96070  0.42035  0.57777  1.0000
  H   H1155     1.0  0.63778  0.52285  0.57585  1.0000
  C   C1458     1.0  0.61323  0.48647  0.58776  1.0000
  C   C1459     1.0  0.59049  0.47139  0.58187  1.0000
  C   C1460     1.0  0.51391  0.38930  0.88397  1.0000
  H   H1156     1.0  0.97011  0.63377  0.89833  1.0000
  H   H1157     1.0  0.95148  0.52391  0.74473  1.0000
  H   H1158     1.0  0.89964  0.47231  0.53240  1.0000
  C   C1461     1.0  0.55492  0.58148  0.94978  1.0000
  C   C1462     1.0  0.49378  0.59946  0.01398  1.0000
  H   H1159     1.0  0.92171  0.37448  0.54717  1.0000
  H   H1160     1.0  0.95979  0.53518  0.63472  1.0000
  C   C1463     1.0  0.58813  0.58758  0.98524  1.0000
  H   H1161     1.0  0.53662  0.50273  0.59309  1.0000
  H   H1162     1.0  0.62818  0.34770  0.75215  1.0000
  C   C1464     1.0  0.92615  0.33512  0.85727  1.0000
  H   H1163     1.0  0.60868  0.54108  0.53732  1.0000
  H   H1164     1.0  0.56998  0.35327  0.58563  1.0000
  C   C1465     1.0  0.49190  0.45006  0.00561  1.0000
  H   H1165     1.0  0.52779  0.42371  0.60419  1.0000
  H   H1166     1.0  0.59041  0.37621  0.53700  1.0000
  S   S207      1.0  0.96334  0.35945  0.91525  1.0000
  H   H1167     1.0  0.62611  0.47845  0.60435  1.0000
  H   H1168     1.0  0.58578  0.45201  0.59466  1.0000
  C   C1466     1.0  0.49902  0.53139  0.00485  1.0000
  H   H1169     1.0  0.92328  0.60458  0.96160  1.0000
  P   P49       1.0  0.83278  0.44145  0.84686  1.0000
  H   H1170     1.0  0.77962  0.39588  0.58290  1.0000
  H   H1171     1.0  0.84177  0.48204  0.79570  1.0000
  H   H1172     1.0  0.92241  0.43953  0.79012  1.0000
  C   C1467     1.0  0.81112  0.38030  0.91346  1.0000
  H   H1173     1.0  0.79421  0.43886  0.55665  1.0000
  H   H1174     1.0  0.79207  0.40932  0.81915  1.0000
  C   C1468     1.0  0.81439  0.47212  0.76363  1.0000
  C   C1469     1.0  0.79486  0.45376  0.75652  1.0000
  C   C1470     1.0  0.50265  0.35548  0.78136  1.0000
  H   H1175     1.0  0.92340  0.38989  0.64039  1.0000
  H   H1176     1.0  0.53057  0.46679  0.93913  1.0000
  C   C1471     1.0  0.82657  0.46762  0.79054  1.0000
  H   H1177     1.0  0.55348  0.38495  0.73155  1.0000
  C   C1472     1.0  0.56374  0.59463  0.97391  1.0000
  H   H1178     1.0  0.77931  0.44999  0.87556  1.0000
  H   H1179     1.0  0.75540  0.39887  0.63335  1.0000
  C   C1473     1.0  0.71485  0.43840  0.77697  1.0000
  C   C1474     1.0  0.92527  0.44672  0.83680  1.0000
  C   C1475     1.0  0.91098  0.44995  0.86457  1.0000
  C   C1476     1.0  0.88298  0.44805  0.86753  1.0000
  H   H1180     1.0  0.82024  0.48975  0.74808  1.0000
  H   H1181     1.0  0.78589  0.45710  0.73539  1.0000
  H   H1182     1.0  0.56839  0.51485  0.52682  1.0000
  C   C1477     1.0  0.97492  0.37929  0.82562  1.0000
  C   C1478     1.0  0.95074  0.41461  0.60833  1.0000
  C   C1479     1.0  0.97498  0.44045  0.90212  1.0000
  C   C1480     1.0  0.88610  0.33636  0.73846  1.0000
  C   C1481     1.0  0.59365  0.55376  0.94982  1.0000
  H   H1183     1.0  0.83862  0.38744  0.82861  1.0000
  H   H1184     1.0  0.94700  0.44859  0.83466  1.0000
  H   H1185     1.0  0.92151  0.45435  0.88380  1.0000
  H   H1186     1.0  0.87230  0.45048  0.88933  1.0000
  H   H1187     1.0  0.56285  0.55116  0.91923  1.0000
  C   C1482     1.0  0.83533  0.49183  0.86916  1.0000
  H   H1188     1.0  0.85168  0.36074  0.73382  1.0000
  C   C1483     1.0  0.52397  0.41584  0.87529  1.0000
  H   H1189     1.0  0.56511  0.44905  0.81671  1.0000
  C   C1484     1.0  0.77680  0.36979  0.52357  1.0000
  C   C1485     1.0  0.72192  0.40035  0.81278  1.0000
  C   C1486     1.0  0.50201  0.46494  0.97856  1.0000
  C   C1487     1.0  0.71769  0.45595  0.79950  1.0000
  C   C1488     1.0  0.50016  0.63704  0.87787  1.0000
  P   P50       1.0  0.71188  0.49133  0.79247  1.0000
  C   C1489     1.0  0.68273  0.49738  0.81775  1.0000
  C   C1490     1.0  0.74083  0.51260  0.79786  1.0000
  C   C1491     1.0  0.74091  0.54028  0.78868  1.0000
  C   C1492     1.0  0.76340  0.55703  0.79146  1.0000
  C   C1493     1.0  0.78610  0.54628  0.80317  1.0000
  H   H1190     1.0  0.55236  0.36464  0.82760  1.0000
  C   C1494     1.0  0.76393  0.50190  0.80918  1.0000
  C   C1495     1.0  0.68155  0.52044  0.83354  1.0000
  C   C1496     1.0  0.65883  0.52448  0.85316  1.0000
  C   C1497     1.0  0.63720  0.50557  0.85718  1.0000
  C   C1498     1.0  0.63826  0.48256  0.84166  1.0000
  C   C1499     1.0  0.66097  0.47837  0.82221  1.0000
  C   C1500     1.0  0.70496  0.49884  0.75351  1.0000
  C   C1501     1.0  0.67846  0.49954  0.74543  1.0000
  C   C1502     1.0  0.67359  0.50464  0.71502  1.0000
  C   C1503     1.0  0.69506  0.50931  0.69254  1.0000
  C   C1504     1.0  0.72146  0.50900  0.70044  1.0000
  C   C1505     1.0  0.72643  0.50344  0.73073  1.0000
  C   C1506     1.0  0.97124  0.51807  0.75033  1.0000
  C   C1507     1.0  0.51549  0.35568  0.80812  1.0000
  C   C1508     1.0  0.95024  0.40554  0.55580  1.0000
  H   H1191     1.0  0.76516  0.48058  0.81512  1.0000
  H   H1192     1.0  0.71076  0.44579  0.75426  1.0000
  H   H1193     1.0  0.72369  0.54886  0.77896  1.0000
  H   H1194     1.0  0.76344  0.57831  0.78409  1.0000
  S   S208      1.0  0.59325  0.32153  0.71447  1.0000
  C   C1509     1.0  0.78635  0.51879  0.81197  1.0000
  C   C1510     1.0  0.49011  0.38456  0.90313  1.0000
  H   H1195     1.0  0.69806  0.53526  0.83105  1.0000
  H   H1196     1.0  0.65797  0.54232  0.86526  1.0000
  H   H1197     1.0  0.61949  0.50878  0.87217  1.0000
  H   H1198     1.0  0.62144  0.46793  0.84476  1.0000
  H   H1199     1.0  0.66150  0.46031  0.81053  1.0000
  H   H1200     1.0  0.66154  0.49575  0.76233  1.0000
  H   H1201     1.0  0.65319  0.50440  0.70871  1.0000
  H   H1202     1.0  0.69128  0.51261  0.66892  1.0000
  H   H1203     1.0  0.73813  0.51224  0.68293  1.0000
  H   H1204     1.0  0.74707  0.50240  0.73625  1.0000
  C   C1511     1.0  0.54286  0.37703  0.75302  1.0000
  C   C1512     1.0  0.72236  0.44534  0.82881  1.0000
  C   C1513     1.0  0.88332  0.44020  0.81459  1.0000
  C   C1514     1.0  0.50295  0.42549  0.01476  1.0000
  H   H1205     1.0  0.53658  0.58682  0.93999  1.0000
  C   C1515     1.0  0.91543  0.34813  0.77633  1.0000
  C   C1516     1.0  0.49723  0.61752  0.96131  1.0000
  P   P51       1.0  0.94515  0.34299  0.79594  1.0000
  C   C1517     1.0  0.96056  0.37531  0.80062  1.0000
  S   S209      1.0  0.51531  0.60551  0.87748  1.0000
  H   H1206     1.0  0.50650  0.53383  0.98123  1.0000
  H   H1207     1.0  0.52418  0.37255  0.87531  1.0000
  H   H1208     1.0  0.60492  0.53772  0.94081  1.0000
  H   H1209     1.0  0.54199  0.41940  0.85994  1.0000
  H   H1210     1.0  0.59584  0.59784  0.00324  1.0000
  H   H1211     1.0  0.49772  0.51167  0.62780  1.0000
  H   H1212     1.0  0.93540  0.47059  0.58486  1.0000
  H   H1213     1.0  0.96312  0.34928  0.73102  1.0000
  C   C1518     1.0  0.97900  0.39192  0.90937  1.0000
  C   C1519     1.0  0.96087  0.39597  0.77703  1.0000
  C   C1520     1.0  0.81893  0.44490  0.81081  1.0000
  S   S210      1.0  0.98307  0.54281  0.85971  1.0000
  C   C1521     1.0  0.92889  0.62285  0.97130  1.0000
  C   C1522     1.0  0.96151  0.64919  0.99450  1.0000
  C   C1523     1.0  0.55583  0.37612  0.77952  1.0000
  H   H1214     1.0  0.57923  0.42245  0.52084  1.0000
  H   H1215     1.0  0.58746  0.40877  0.83692  1.0000
  C   C1524     1.0  0.77074  0.32179  0.53850  1.0000
  H   H1216     1.0  0.70705  0.40896  0.63778  1.0000
  C   C1525     1.0  0.49177  0.45565  0.57372  1.0000
  H   H1217     1.0  0.92602  0.35680  0.85691  1.0000
  C   C1526     1.0  0.83048  0.38564  0.85216  1.0000
  C   C1527     1.0  0.50078  0.44125  0.67209  1.0000
  C   C1528     1.0  0.78732  0.43093  0.77636  1.0000
  C   C1529     1.0  0.97193  0.42244  0.97976  1.0000
  H   H1218     1.0  0.97514  0.43593  0.75982  1.0000
  C   C1530     1.0  0.49594  0.49638  0.61227  1.0000
  H   H1219     1.0  0.95079  0.39295  0.75710  1.0000
  H   H1220     1.0  0.50461  0.38568  0.54656  1.0000
  C   C1531     1.0  0.48700  0.37415  0.55733  1.0000
  H   H1221     1.0  0.72839  0.40956  0.85793  1.0000
  C   C1532     1.0  0.95422  0.62573  0.98181  1.0000
  C   C1533     1.0  0.81620  0.35740  0.89842  1.0000
  H   H1222     1.0  0.96101  0.46021  0.67713  1.0000
  C   C1534     1.0  0.60402  0.49250  0.67407  1.0000
  C   C1535     1.0  0.60822  0.52007  0.66599  1.0000
  C   C1536     1.0  0.60349  0.53812  0.68786  1.0000
  C   C1537     1.0  0.59481  0.52855  0.71786  1.0000
  C   C1538     1.0  0.59174  0.50076  0.72641  1.0000
  C   C1539     1.0  0.59558  0.48290  0.70402  1.0000
  P   P52       1.0  0.57842  0.48798  0.76431  1.0000
  C   C1540     1.0  0.58214  0.51214  0.79165  1.0000
  C   C1541     1.0  0.54353  0.47982  0.76044  1.0000
  C   C1542     1.0  0.52454  0.49982  0.76155  1.0000
  H   H1223     1.0  0.73968  0.34993  0.54463  1.0000
  C   C1543     1.0  0.61332  0.33388  0.79827  1.0000
  C   C1544     1.0  0.97943  0.46980  0.98452  1.0000
  C   C1545     1.0  0.53575  0.45430  0.75262  1.0000
  C   C1546     1.0  0.56202  0.51384  0.81546  1.0000
  C   C1547     1.0  0.56443  0.53313  0.83600  1.0000
  C   C1548     1.0  0.58708  0.55069  0.83315  1.0000
  C   C1549     1.0  0.60773  0.54843  0.81023  1.0000
  C   C1550     1.0  0.60550  0.52890  0.78987  1.0000
  C   C1551     1.0  0.59492  0.45845  0.77837  1.0000
  C   C1552     1.0  0.61919  0.45074  0.76380  1.0000
  C   C1553     1.0  0.63156  0.42781  0.77520  1.0000
  C   C1554     1.0  0.62016  0.41275  0.80158  1.0000
  C   C1555     1.0  0.59633  0.42058  0.81654  1.0000
  C   C1556     1.0  0.58368  0.44329  0.80495  1.0000
  H   H1224     1.0  0.60651  0.47841  0.65706  1.0000
  H   H1225     1.0  0.61446  0.52743  0.64264  1.0000
  H   H1226     1.0  0.60593  0.55957  0.68143  1.0000
  H   H1227     1.0  0.58990  0.54293  0.73401  1.0000
  H   H1228     1.0  0.59146  0.46148  0.70951  1.0000
  H   H1229     1.0  0.53023  0.51996  0.76641  1.0000
  H   H1230     1.0  0.92402  0.50915  0.61333  1.0000
  H   H1231     1.0  0.97243  0.49010  0.98285  1.0000
  H   H1232     1.0  0.58867  0.63950  0.94272  1.0000
  H   H1233     1.0  0.55026  0.43889  0.75027  1.0000
  H   H1234     1.0  0.54430  0.50042  0.81816  1.0000
  H   H1235     1.0  0.54852  0.53455  0.85400  1.0000
  H   H1236     1.0  0.58855  0.56598  0.84877  1.0000
  H   H1237     1.0  0.62546  0.56181  0.80828  1.0000
  H   H1238     1.0  0.62181  0.52716  0.77252  1.0000
  H   H1239     1.0  0.62867  0.46209  0.74355  1.0000
  H   H1240     1.0  0.64994  0.42164  0.76335  1.0000
  H   H1241     1.0  0.62965  0.39487  0.81030  1.0000
  C   C1557     1.0  0.61286  0.33566  0.76666  1.0000
  H   H1242     1.0  0.72351  0.37887  0.81780  1.0000
  C   C1558     1.0  0.60284  0.56704  0.97344  1.0000
  C   C1559     1.0  0.91089  0.64349  0.97329  1.0000
  C   C1560     1.0  0.88886  0.43274  0.52033  1.0000
  C   C1561     1.0  0.94127  0.35298  0.99574  1.0000
  H   H1243     1.0  0.50375  0.42940  0.73932  1.0000
  H   H1244     1.0  0.95832  0.42584  0.62571  1.0000
  H   H1245     1.0  0.90220  0.38053  0.80234  1.0000
  C   C1562     1.0  0.52384  0.41583  0.99602  1.0000
  C   C1563     1.0  0.50932  0.44883  0.74632  1.0000
  C   C1564     1.0  0.80138  0.44225  0.53294  1.0000
  C   C1565     1.0  0.49802  0.49415  0.75569  1.0000
  H   H1246     1.0  0.63069  0.46420  0.53006  1.0000
  H   H1247     1.0  0.53747  0.37669  0.61830  1.0000
  C   C1566     1.0  0.53384  0.43077  0.96891  1.0000
  C   C1567     1.0  0.98158  0.49433  0.74092  1.0000
  H   H1248     1.0  0.50871  0.62736  0.94124  1.0000
  H   H1249     1.0  0.49008  0.43923  0.55970  1.0000
  C   C1568     1.0  0.63548  0.44374  0.52668  1.0000
  C   C1569     1.0  0.89785  0.36805  0.78457  1.0000
  H   H1250     1.0  0.48844  0.36400  0.67822  1.0000
  H   H1251     1.0  0.95471  0.48520  0.53221  1.0000
  C   C1570     1.0  0.76042  0.34745  0.53630  1.0000
  C   C1571     1.0  0.87582  0.40783  0.53028  1.0000
  C   C1572     1.0  0.64818  0.39095  0.51801  1.0000
  H   H1252     1.0  0.81297  0.33758  0.91061  1.0000
  H   H1253     1.0  0.95718  0.40960  0.53202  1.0000
  H   H1254     1.0  0.96978  0.48183  0.72796  1.0000
  H   H1255     1.0  0.52796  0.33217  0.56542  1.0000
  C   C1573     1.0  0.48745  0.43274  0.90635  1.0000
  H   H1256     1.0  0.88166  0.32433  0.72034  1.0000
  S   S211      1.0  0.54335  0.32043  0.92404  1.0000
  C   C1574     1.0  0.92272  0.36486  0.01519  1.0000
  C   C1575     1.0  0.91860  0.31938  0.88458  1.0000
  C   C1576     1.0  0.93460  0.32289  0.83109  1.0000
  H   H1257     1.0  0.53218  0.39662  0.00188  1.0000
  C   C1577     1.0  0.59308  0.32112  0.75390  1.0000
  H   H1258     1.0  0.97851  0.55296  0.77382  1.0000
  H   H1259     1.0  0.90246  0.36758  0.00908  1.0000
  H   H1260     1.0  0.91324  0.32898  0.90500  1.0000
  Fe  Fe107     1.0  0.50263  0.31751  0.90738  1.0000
  C   C1578     1.0  0.59364  0.31813  0.81711  1.0000
  C   C1579     1.0  0.96823  0.47575  0.51650  1.0000
  C   C1580     1.0  0.77910  0.82073  0.51505  1.0000
  C   C1581     1.0  0.89887  0.97018  0.33304  1.0000
  S   S212      1.0  0.62525  0.91944  0.34932  1.0000
  C   C1582     1.0  0.77554  0.93508  0.48323  1.0000
  Fe  Fe108     1.0  0.62082  0.93732  0.43286  1.0000
  S   S213      1.0  0.62413  0.89506  0.42081  1.0000
  S   S214      1.0  0.61699  0.95075  0.47997  1.0000
  Fe  Fe109     1.0  0.65536  0.91301  0.38415  1.0000
  S   S215      1.0  0.69393  0.89058  0.37813  1.0000
  Fe  Fe110     1.0  0.59384  0.90544  0.38766  1.0000
  S   S216      1.0  0.55792  0.87727  0.38392  1.0000
  S   S217      1.0  0.65359  0.95487  0.39820  1.0000
  S   S218      1.0  0.58799  0.94622  0.40295  1.0000
  Fe  Fe111     1.0  0.87760  0.88563  0.43631  1.0000
  S   S219      1.0  0.88248  0.92666  0.41135  1.0000
  Fe  Fe112     1.0  0.87144  0.85877  0.37793  1.0000
  S   S220      1.0  0.87556  0.89810  0.34905  1.0000
  S   S221      1.0  0.86017  0.81969  0.35997  1.0000
  Fe  Fe113     1.0  0.90943  0.90690  0.37751  1.0000
  S   S222      1.0  0.94994  0.92600  0.35817  1.0000
  Fe  Fe114     1.0  0.84802  0.91312  0.38611  1.0000
  S   S223      1.0  0.81303  0.94021  0.37891  1.0000
  S   S224      1.0  0.90660  0.86662  0.40410  1.0000
  S   S225      1.0  0.84170  0.87309  0.41324  1.0000
  H   H1261     1.0  0.71299  0.80896  0.50608  1.0000
  S   S226      1.0  0.96132  0.80535  0.19259  1.0000
  C   C1583     1.0  0.50694  0.66474  0.18758  1.0000
  C   C1584     1.0  0.49884  0.92777  0.05724  1.0000
  S   S227      1.0  0.96660  0.74054  0.18991  1.0000
  H   H1262     1.0  0.56219  0.72610  0.03791  1.0000
  C   C1585     1.0  0.62211  0.92704  0.51036  1.0000
  S   S228      1.0  0.96226  0.78067  0.11095  1.0000
  Fe  Fe115     1.0  0.95667  0.76863  0.22567  1.0000
  S   S229      1.0  0.91983  0.75696  0.25784  1.0000
  H   H1263     1.0  0.68953  0.94300  0.16038  1.0000
  H   H1264     1.0  0.55960  0.66793  0.02179  1.0000
  C   C1586     1.0  0.87788  0.80480  0.33011  1.0000
  C   C1587     1.0  0.86587  0.78170  0.32077  1.0000
  C   C1588     1.0  0.87907  0.76775  0.29846  1.0000
  C   C1589     1.0  0.90455  0.77664  0.28497  1.0000
  C   C1590     1.0  0.91685  0.79992  0.29399  1.0000
  C   C1591     1.0  0.90343  0.81413  0.31659  1.0000
  H   H1265     1.0  0.84625  0.77430  0.33113  1.0000
  H   H1266     1.0  0.86949  0.74976  0.29177  1.0000
  H   H1267     1.0  0.93677  0.80659  0.28403  1.0000
  H   H1268     1.0  0.91300  0.83183  0.32397  1.0000
  C   C1592     1.0  0.52539  0.89012  0.38404  1.0000
  C   C1593     1.0  0.50262  0.87238  0.38868  1.0000
  H   H1269     1.0  0.64162  0.82273  0.20027  1.0000
  H   H1270     1.0  0.93231  0.82624  0.06118  1.0000
  H   H1271     1.0  0.95711  0.90253  0.16213  1.0000
  C   C1594     1.0  0.52188  0.91772  0.37926  1.0000
  H   H1272     1.0  0.50510  0.85100  0.39256  1.0000
  C   C1595     1.0  0.93098  0.68340  0.11880  1.0000
  C   C1596     1.0  0.63337  0.90239  0.50560  1.0000
  H   H1273     1.0  0.53918  0.93160  0.37555  1.0000
  C   C1597     1.0  0.72650  0.90455  0.38186  1.0000
  C   C1598     1.0  0.74846  0.88785  0.37988  1.0000
  C   C1599     1.0  0.77494  0.89839  0.38006  1.0000
  C   C1600     1.0  0.77979  0.92588  0.38188  1.0000
  C   C1601     1.0  0.75781  0.94256  0.38454  1.0000
  C   C1602     1.0  0.73124  0.93194  0.38475  1.0000
  H   H1274     1.0  0.74502  0.86667  0.37761  1.0000
  H   H1275     1.0  0.79164  0.88534  0.37788  1.0000
  C   C1603     1.0  0.94772  0.83539  0.04427  1.0000
  H   H1276     1.0  0.71458  0.94510  0.38597  1.0000
  H   H1277     1.0  0.83090  0.94325  0.17855  1.0000
  C   C1604     1.0  0.93655  0.66683  0.06919  1.0000
  C   C1605     1.0  0.74639  0.96556  0.31010  1.0000
  C   C1606     1.0  0.92980  0.66220  0.10053  1.0000
  C   C1607     1.0  0.75628  0.81069  0.50312  1.0000
  C   C1608     1.0  0.56438  0.94734  0.12539  1.0000
  C   C1609     1.0  0.87305  0.97678  0.32636  1.0000
  H   H1278     1.0  0.53774  0.93803  0.31614  1.0000
  H   H1279     1.0  0.52906  0.90189  0.20968  1.0000
  H   H1280     1.0  0.93764  0.87842  0.47848  1.0000
  C   C1610     1.0  0.97180  0.97601  0.41176  1.0000
  H   H1281     1.0  0.97434  0.97306  0.08489  1.0000
  C   C1611     1.0  0.97893  0.86819  0.47016  1.0000
  C   C1612     1.0  0.94475  0.69275  0.05590  1.0000
  C   C1613     1.0  0.49832  0.94998  0.07448  1.0000
  C   C1614     1.0  0.51018  0.77018  0.38097  1.0000
  H   H1282     1.0  0.62543  0.96863  0.29112  1.0000
  P   P53       1.0  0.76746  0.96844  0.49250  1.0000
  H   H1283     1.0  0.60346  0.96477  0.17967  1.0000
  H   H1284     1.0  0.64316  0.87212  0.19943  1.0000
  H   H1285     1.0  0.87123  0.93530  0.47476  1.0000
  C   C1615     1.0  0.54609  0.72129  0.05582  1.0000
  H   H1286     1.0  0.67792  0.96697  0.31625  1.0000
  C   C1616     1.0  0.93571  0.77577  0.37348  1.0000
  C   C1617     1.0  0.54946  0.96580  0.02333  1.0000
  Fe  Fe116     1.0  0.97608  0.77781  0.15818  1.0000
  H   H1287     1.0  0.95894  0.78010  0.04683  1.0000
  H   H1288     1.0  0.52838  0.66826  0.18790  1.0000
  H   H1289     1.0  0.52695  0.77586  0.04710  1.0000
  C   C1618     1.0  0.49775  0.83178  0.31342  1.0000
  H   H1290     1.0  0.63929  0.89760  0.48284  1.0000
  C   C1619     1.0  0.72085  0.97645  0.31159  1.0000
  C   C1620     1.0  0.97991  0.78251  0.05055  1.0000
  H   H1291     1.0  0.51880  0.74944  0.42342  1.0000
  H   H1292     1.0  0.51419  0.69661  0.26798  1.0000
  C   C1621     1.0  0.70049  0.93158  0.31197  1.0000
  C   C1622     1.0  0.55105  0.80721  0.39038  1.0000
  C   C1623     1.0  0.54429  0.78520  0.41172  1.0000
  C   C1624     1.0  0.52389  0.76664  0.40699  1.0000
  H   H1293     1.0  0.94290  0.95630  0.24923  1.0000
  C   C1625     1.0  0.51644  0.79266  0.35976  1.0000
  C   C1626     1.0  0.53723  0.81098  0.36447  1.0000
  H   H1294     1.0  0.49485  0.75528  0.37735  1.0000
  C   C1627     1.0  0.72598  0.92099  0.30940  1.0000
  C   C1628     1.0  0.51890  0.77918  0.29674  1.0000
  C   C1629     1.0  0.51706  0.78657  0.26583  1.0000
  C   C1630     1.0  0.52974  0.77184  0.24381  1.0000
  H   H1295     1.0  0.93527  0.76368  0.35465  1.0000
  C   C1631     1.0  0.54716  0.74271  0.28311  1.0000
  C   C1632     1.0  0.53417  0.75715  0.30522  1.0000
  C   C1633     1.0  0.50807  0.90453  0.20723  1.0000
  C   C1634     1.0  0.51794  0.84544  0.29305  1.0000
  H   H1296     1.0  0.95120  0.73418  0.06474  1.0000
  H   H1297     1.0  0.91689  0.95527  0.17035  1.0000
  H   H1298     1.0  0.56696  0.82156  0.39400  1.0000
  H   H1299     1.0  0.55496  0.78257  0.43185  1.0000
  C   C1635     1.0  0.97059  0.84804  0.05342  1.0000
  H   H1300     1.0  0.57182  0.67162  0.07359  1.0000
  H   H1301     1.0  0.54274  0.82834  0.34837  1.0000
  H   H1302     1.0  0.50528  0.80338  0.25868  1.0000
  H   H1303     1.0  0.52760  0.77722  0.21997  1.0000
  H   H1304     1.0  0.72784  0.89942  0.30986  1.0000
  C   C1636     1.0  0.50116  0.70213  0.07240  1.0000
  H   H1305     1.0  0.53589  0.75086  0.32884  1.0000
  C   C1637     1.0  0.88374  0.90576  0.50832  1.0000
  H   H1306     1.0  0.53521  0.83517  0.28430  1.0000
  Fe  Fe117     1.0  0.62090  0.95997  0.36685  1.0000
  H   H1307     1.0  0.50085  0.90119  0.45515  1.0000
  H   H1308     1.0  0.52146  0.70111  0.02736  1.0000
  C   C1638     1.0  0.67720  0.93956  0.18181  1.0000
  C   C1639     1.0  0.49436  0.88679  0.29507  1.0000
  C   C1640     1.0  0.95826  0.88606  0.47341  1.0000
  H   H1309     1.0  0.92399  0.91953  0.30356  1.0000
  H   H1310     1.0  0.96208  0.87502  0.39123  1.0000
  H   H1311     1.0  0.55106  0.95350  0.04436  1.0000
  H   H1312     1.0  0.68277  0.91814  0.31424  1.0000
  H   H1313     1.0  0.96685  0.85275  0.27283  1.0000
  C   C1641     1.0  0.94722  0.88634  0.29095  1.0000
  H   H1314     1.0  0.94115  0.97520  0.31958  1.0000
  H   H1315     1.0  0.59755  0.88993  0.27511  1.0000
  H   H1316     1.0  0.96347  0.72429  0.28374  1.0000
  H   H1317     1.0  0.54635  0.90788  0.12310  1.0000
  C   C1642     1.0  0.76271  0.88972  0.47279  1.0000
  H   H1318     1.0  0.89161  0.80023  0.42586  1.0000
  H   H1319     1.0  0.53178  0.96126  0.26557  1.0000
  C   C1643     1.0  0.80964  0.90278  0.47364  1.0000
  S   S230      1.0  0.88080  0.87807  0.48667  1.0000
  C   C1644     1.0  0.80481  0.83955  0.25296  1.0000
  H   H1320     1.0  0.73453  0.91933  0.48289  1.0000
  H   H1321     1.0  0.75842  0.79763  0.48499  1.0000
  C   C1645     1.0  0.89225  0.79773  0.19496  1.0000
  C   C1646     1.0  0.90242  0.80473  0.16483  1.0000
  C   C1647     1.0  0.90700  0.83180  0.15400  1.0000
  C   C1648     1.0  0.90093  0.85193  0.17309  1.0000
  C   C1649     1.0  0.89011  0.84503  0.20320  1.0000
  C   C1650     1.0  0.88631  0.81777  0.21414  1.0000
  P   P54       1.0  0.88144  0.87056  0.22813  1.0000
  C   C1651     1.0  0.90757  0.87651  0.25231  1.0000
  C   C1652     1.0  0.87790  0.90236  0.20630  1.0000
  C   C1653     1.0  0.90102  0.91851  0.19559  1.0000
  C   C1654     1.0  0.89887  0.94317  0.17871  1.0000
  H   H1322     1.0  0.55508  0.95640  0.10608  1.0000
  C   C1655     1.0  0.85048  0.93629  0.18330  1.0000
  C   C1656     1.0  0.85255  0.91151  0.20015  1.0000
  C   C1657     1.0  0.90580  0.89818  0.27022  1.0000
  C   C1658     1.0  0.94973  0.86537  0.27228  1.0000
  H   H1323     1.0  0.93946  0.72584  0.11980  1.0000
  C   C1659     1.0  0.54829  0.72980  0.08456  1.0000
  C   C1660     1.0  0.92994  0.86043  0.25296  1.0000
  C   C1661     1.0  0.85037  0.85906  0.25043  1.0000
  C   C1662     1.0  0.84790  0.85845  0.28222  1.0000
  C   C1663     1.0  0.82391  0.84898  0.29907  1.0000
  C   C1664     1.0  0.82875  0.84912  0.23599  1.0000
  H   H1324     1.0  0.88971  0.77675  0.20378  1.0000
  H   H1325     1.0  0.90777  0.78917  0.15021  1.0000
  H   H1326     1.0  0.91577  0.83709  0.13094  1.0000
  H   H1327     1.0  0.90484  0.87272  0.16426  1.0000
  H   H1328     1.0  0.87894  0.81193  0.23761  1.0000
  H   H1329     1.0  0.92082  0.91206  0.20022  1.0000
  H   H1330     1.0  0.48565  0.89581  0.50992  1.0000
  H   H1331     1.0  0.81841  0.94320  0.48325  1.0000
  C   C1665     1.0  0.51533  0.90050  0.47186  1.0000
  H   H1332     1.0  0.83437  0.89976  0.20837  1.0000
  H   H1333     1.0  0.88890  0.91111  0.26967  1.0000
  H   H1334     1.0  0.89263  0.77194  0.38311  1.0000
  H   H1335     1.0  0.55762  0.86912  0.22473  1.0000
  H   H1336     1.0  0.55629  0.82033  0.22445  1.0000
  H   H1337     1.0  0.93210  0.84393  0.23891  1.0000
  H   H1338     1.0  0.86449  0.86454  0.29439  1.0000
  H   H1339     1.0  0.82229  0.84837  0.32362  1.0000
  H   H1340     1.0  0.83054  0.84851  0.21162  1.0000
  H   H1341     1.0  0.79530  0.86366  0.46401  1.0000
  C   C1666     1.0  0.97570  0.90266  0.17279  1.0000
  S   S231      1.0  0.97514  0.95750  0.16263  1.0000
  C   C1667     1.0  0.49593  0.92742  0.37832  1.0000
  H   H1342     1.0  0.90160  0.95663  0.35281  1.0000
  C   C1668     1.0  0.95991  0.78700  0.38156  1.0000
  H   H1343     1.0  0.93403  0.82032  0.44051  1.0000
  H   H1344     1.0  0.50134  0.97025  0.06352  1.0000
  C   C1669     1.0  0.87363  0.95210  0.17255  1.0000
  C   C1670     1.0  0.56157  0.90217  0.48344  1.0000
  S   S232      1.0  0.50427  0.84992  0.20442  1.0000
  C   C1671     1.0  0.96413  0.91379  0.47019  1.0000
  C   C1672     1.0  0.52716  0.72426  0.10731  1.0000
  C   C1673     1.0  0.73072  0.81714  0.51493  1.0000
  C   C1674     1.0  0.50682  0.78144  0.04309  1.0000
  H   H1345     1.0  0.97739  0.91258  0.02246  1.0000
  C   C1675     1.0  0.48595  0.66322  0.28169  1.0000
  H   H1346     1.0  0.70772  0.95479  0.20780  1.0000
  C   C1676     1.0  0.54471  0.74990  0.25241  1.0000
  C   C1677     1.0  0.96318  0.96027  0.25491  1.0000
  C   C1678     1.0  0.49811  0.93045  0.20700  1.0000
  H   H1347     1.0  0.55882  0.72570  0.28977  1.0000
  C   C1679     1.0  0.52276  0.70729  0.04984  1.0000
  C   C1680     1.0  0.59169  0.95189  0.16704  1.0000
  H   H1348     1.0  0.49356  0.94872  0.37423  1.0000
  S   S233      1.0  0.49270  0.79165  0.15391  1.0000
  S   S234      1.0  0.50411  0.71932  0.18993  1.0000
  H   H1349     1.0  0.72613  0.95778  0.45150  1.0000
  H   H1350     1.0  0.78827  0.83176  0.24173  1.0000
  H   H1351     1.0  0.74729  0.87472  0.46961  1.0000
  H   H1352     1.0  0.58276  0.90410  0.47577  1.0000
  H   H1353     1.0  0.57057  0.90230  0.32071  1.0000
  H   H1354     1.0  0.54930  0.90514  0.43823  1.0000
  C   C1681     1.0  0.87745  0.93170  0.49731  1.0000
  H   H1355     1.0  0.56588  0.88763  0.16787  1.0000
  C   C1682     1.0  0.51586  0.87264  0.28349  1.0000
  C   C1683     1.0  0.80236  0.83959  0.28450  1.0000
  C   C1684     1.0  0.90917  0.73341  0.01814  1.0000
  C   C1685     1.0  0.91129  0.78027  0.38974  1.0000
  H   H1356     1.0  0.55428  0.96238  0.50665  1.0000
  H   H1357     1.0  0.55905  0.95036  0.22040  1.0000
  C   C1686     1.0  0.94548  0.71396  0.07445  1.0000
  C   C1687     1.0  0.80263  0.92849  0.48030  1.0000
  H   H1358     1.0  0.48555  0.91746  0.14511  1.0000
  H   H1359     1.0  0.63332  0.92779  0.25871  1.0000
  H   H1360     1.0  0.76856  0.92944  0.30865  1.0000
  C   C1688     1.0  0.75558  0.91533  0.47992  1.0000
  C   C1689     1.0  0.93461  0.80759  0.42204  1.0000
  H   H1361     1.0  0.53084  0.88286  0.26697  1.0000
  H   H1362     1.0  0.67929  0.94699  0.25672  1.0000
  H   H1363     1.0  0.55407  0.73831  0.23521  1.0000
  H   H1364     1.0  0.92595  0.67981  0.14310  1.0000
  H   H1365     1.0  0.90170  0.72145  0.03892  1.0000
  H   H1366     1.0  0.64329  0.92360  0.16183  1.0000
  C   C1690     1.0  0.54270  0.90276  0.46219  1.0000
  H   H1367     1.0  0.67735  0.96477  0.45484  1.0000
  H   H1368     1.0  0.52872  0.73110  0.12952  1.0000
  C   C1691     1.0  0.54180  0.96900  0.48894  1.0000
  H   H1369     1.0  0.79302  0.96508  0.43081  1.0000
  H   H1370     1.0  0.78398  0.83190  0.29778  1.0000
  C   C1692     1.0  0.49001  0.68652  0.18816  1.0000
  H   H1371     1.0  0.51137  0.94745  0.20952  1.0000
  C   C1693     1.0  0.57054  0.90866  0.16070  1.0000
  H   H1372     1.0  0.96491  0.76571  0.30939  1.0000
  H   H1373     1.0  0.59821  0.79651  0.21268  1.0000
  C   C1694     1.0  0.54624  0.94584  0.26774  1.0000
  C   C1695     1.0  0.54963  0.93274  0.29614  1.0000
  C   C1696     1.0  0.56820  0.91265  0.29867  1.0000
  C   C1697     1.0  0.58339  0.90568  0.27277  1.0000
  C   C1698     1.0  0.58035  0.91910  0.24417  1.0000
  C   C1699     1.0  0.56170  0.93932  0.24192  1.0000
  P   P55       1.0  0.60067  0.91062  0.21095  1.0000
  C   C1700     1.0  0.63469  0.92434  0.21033  1.0000
  C   C1701     1.0  0.60044  0.87443  0.21209  1.0000
  C   C1702     1.0  0.62412  0.86105  0.20522  1.0000
  C   C1703     1.0  0.62335  0.83299  0.20566  1.0000
  C   C1704     1.0  0.59895  0.81819  0.21274  1.0000
  C   C1705     1.0  0.57540  0.83144  0.21963  1.0000
  C   C1706     1.0  0.57618  0.85934  0.21964  1.0000
  C   C1707     1.0  0.65096  0.92862  0.18271  1.0000
  C   C1708     1.0  0.73209  0.97497  0.49357  1.0000
  C   C1709     1.0  0.68744  0.94620  0.20849  1.0000
  C   C1710     1.0  0.67148  0.94177  0.23606  1.0000
  C   C1711     1.0  0.64528  0.93076  0.23708  1.0000
  C   C1712     1.0  0.58672  0.92453  0.17702  1.0000
  C   C1713     1.0  0.78974  0.88347  0.46961  1.0000
  H   H1374     1.0  0.94778  0.92726  0.47291  1.0000
  H   H1375     1.0  0.87607  0.75978  0.02065  1.0000
  C   C1714     1.0  0.55937  0.92009  0.13508  1.0000
  H   H1376     1.0  0.76135  0.96385  0.38583  1.0000
  H   H1377     1.0  0.83058  0.89786  0.47158  1.0000
  C   C1715     1.0  0.49780  0.97723  0.47184  1.0000
  C   C1716     1.0  0.95908  0.80324  0.40580  1.0000
  C   C1717     1.0  0.91071  0.79621  0.41391  1.0000
  C   C1718     1.0  0.49442  0.90176  0.07220  1.0000
  H   H1378     1.0  0.97560  0.92080  0.24576  1.0000
  C   C1719     1.0  0.92552  0.90297  0.28952  1.0000
  H   H1379     1.0  0.56615  0.74106  0.08911  1.0000
  C   C1720     1.0  0.50684  0.89721  0.50286  1.0000
  H   H1380     1.0  0.49303  0.90794  0.28782  1.0000
  H   H1381     1.0  0.97728  0.81271  0.41214  1.0000
  H   H1382     1.0  0.85574  0.96826  0.34098  1.0000
  H   H1383     1.0  0.61373  0.97530  0.23788  1.0000
  C   C1721     1.0  0.93863  0.70930  0.10571  1.0000
  C   C1722     1.0  0.58073  0.96316  0.14124  1.0000
  C   C1723     1.0  0.69787  0.95919  0.31331  1.0000
  H   H1384     1.0  0.79894  0.81535  0.50632  1.0000
  C   C1724     1.0  0.51383  0.96844  0.49481  1.0000
  C   C1725     1.0  0.71687  0.96736  0.47047  1.0000
  C   C1726     1.0  0.74891  0.93793  0.30872  1.0000
  H   H1385     1.0  0.49408  0.78269  0.09052  1.0000
  C   C1727     1.0  0.50369  0.71046  0.10135  1.0000
  H   H1386     1.0  0.48749  0.70674  0.11931  1.0000
  H   H1387     1.0  0.95361  0.96893  0.42578  1.0000
  C   C1728     1.0  0.48824  0.78541  0.06772  1.0000
  C   C1729     1.0  0.49334  0.68954  0.26993  1.0000
  P   P56       1.0  0.49999  0.79631  0.32524  1.0000
  C   C1730     1.0  0.49101  0.88222  0.20421  1.0000
  H   H1388     1.0  0.96215  0.89022  0.30627  1.0000
  C   C1731     1.0  0.49360  0.94624  0.10605  1.0000
  H   H1389     1.0  0.97518  0.85964  0.18135  1.0000
  C   C1732     1.0  0.55315  0.89920  0.51445  1.0000
  C   C1733     1.0  0.97566  0.74863  0.31803  1.0000
  H   H1390     1.0  0.49304  0.96348  0.11920  1.0000
  C   C1734     1.0  0.97493  0.72518  0.30323  1.0000
  H   H1391     1.0  0.97428  0.84674  0.47262  1.0000
  H   H1392     1.0  0.95816  0.95385  0.03999  1.0000
  C   C1735     1.0  0.48967  0.89810  0.10383  1.0000
  C   C1736     1.0  0.92129  0.98081  0.31413  1.0000
  C   C1737     1.0  0.48930  0.92032  0.12069  1.0000
  H   H1393     1.0  0.49433  0.88422  0.05970  1.0000
  H   H1394     1.0  0.87275  0.97274  0.50765  1.0000
  H   H1395     1.0  0.97195  0.84878  0.07737  1.0000
  C   C1738     1.0  0.61122  0.98342  0.28481  1.0000
  H   H1396     1.0  0.48599  0.87802  0.11532  1.0000
  C   C1739     1.0  0.55382  0.97794  0.46002  1.0000
  C   C1740     1.0  0.98148  0.93987  0.25350  1.0000
  C   C1741     1.0  0.68933  0.97171  0.47193  1.0000
  H   H1397     1.0  0.57549  0.97870  0.45553  1.0000
  C   C1742     1.0  0.97415  0.94451  0.05143  1.0000
  H   H1398     1.0  0.98292  0.83901  0.35704  1.0000
  H   H1399     1.0  0.76433  0.97814  0.31092  1.0000
  H   H1400     1.0  0.87208  0.97125  0.15943  1.0000
  C   C1743     1.0  0.98011  0.91233  0.36933  1.0000
  C   C1744     1.0  0.98050  0.88692  0.38530  1.0000
  C   C1745     1.0  0.97545  0.97530  0.48684  1.0000
  P   P57       1.0  0.50444  0.93296  0.01632  1.0000
  C   C1746     1.0  0.56687  0.65207  0.06642  1.0000
  S   S235      1.0  0.88383  0.92268  0.64093  1.0000
  S   S236      1.0  0.82149  0.91902  0.69881  1.0000
  Fe  Fe118     1.0  0.92103  0.93170  0.66365  1.0000
  S   S237      1.0  0.95445  0.90239  0.66258  1.0000
  C   C1747     1.0  0.95953  0.96911  0.81950  1.0000
  Fe  Fe119     1.0  0.67021  0.92946  0.66848  1.0000
  S   S238      1.0  0.67350  0.88575  0.66336  1.0000
  S   S239      1.0  0.70729  0.95783  0.66359  1.0000
  Fe  Fe120     1.0  0.60827  0.92333  0.67691  1.0000
  S   S240      1.0  0.60763  0.87895  0.67295  1.0000
  S   S241      1.0  0.57012  0.94623  0.67943  1.0000
  Fe  Fe121     1.0  0.64158  0.87959  0.70242  1.0000
  S   S242      1.0  0.65116  0.84742  0.73773  1.0000
  Fe  Fe122     1.0  0.63930  0.88969  0.63432  1.0000
  S   S243      1.0  0.63938  0.86916  0.59118  1.0000
  S   S244      1.0  0.64028  0.92337  0.70959  1.0000
  S   S245      1.0  0.63803  0.93423  0.63638  1.0000
  H   H1401     1.0  0.51823  0.96536  0.66993  1.0000
  S   S246      1.0  0.52547  0.75522  0.90386  1.0000
  H   H1402     1.0  0.50810  0.87019  0.91150  1.0000
  H   H1403     1.0  0.96874  0.95849  0.89796  1.0000
  C   C1748     1.0  0.53613  0.85691  0.97617  1.0000
  H   H1404     1.0  0.56973  0.72128  0.91945  1.0000
  Fe  Fe123     1.0  0.53859  0.79094  0.87109  1.0000
  S   S247      1.0  0.58072  0.78732  0.85033  1.0000
  S   S248      1.0  0.92847  0.97283  0.63944  1.0000
  S   S249      1.0  0.52307  0.77866  0.98315  1.0000
  H   H1405     1.0  0.52965  0.91360  0.91995  1.0000
  C   C1749     1.0  0.50237  0.81306  0.75800  1.0000
  H   H1406     1.0  0.92216  0.88914  0.72998  1.0000
  H   H1407     1.0  0.52870  0.71533  0.95585  1.0000
  C   C1750     1.0  0.63111  0.89069  0.56017  1.0000
  H   H1408     1.0  0.79436  0.84470  0.54764  1.0000
  H   H1409     1.0  0.52657  0.92607  0.75114  1.0000
  C   C1751     1.0  0.61459  0.93307  0.53997  1.0000
  C   C1752     1.0  0.61878  0.91480  0.56476  1.0000
  C   C1753     1.0  0.57289  0.83827  0.58725  1.0000
  H   H1410     1.0  0.61243  0.91941  0.58742  1.0000
  C   C1754     1.0  0.63016  0.83410  0.76983  1.0000
  C   C1755     1.0  0.64172  0.81637  0.79045  1.0000
  C   C1756     1.0  0.62609  0.80294  0.81515  1.0000
  C   C1757     1.0  0.59864  0.80709  0.81982  1.0000
  C   C1758     1.0  0.58678  0.82536  0.79966  1.0000
  C   C1759     1.0  0.60266  0.83902  0.77455  1.0000
  H   H1411     1.0  0.66286  0.81244  0.78688  1.0000
  H   H1412     1.0  0.63530  0.78877  0.83047  1.0000
  H   H1413     1.0  0.56542  0.82821  0.80283  1.0000
  H   H1414     1.0  0.59356  0.85240  0.75834  1.0000
  C   C1760     1.0  0.51702  0.90317  0.00071  1.0000
  H   H1415     1.0  0.57630  0.93749  0.84232  1.0000
  C   C1761     1.0  0.76488  0.95934  0.55531  1.0000
  H   H1416     1.0  0.68667  0.92115  0.51798  1.0000
  H   H1417     1.0  0.95956  0.73821  0.96052  1.0000
  H   H1418     1.0  0.51790  0.70342  0.88057  1.0000
  C   C1762     1.0  0.56453  0.77216  0.75485  1.0000
  H   H1419     1.0  0.53767  0.65867  0.88142  1.0000
  C   C1763     1.0  0.51427  0.92322  0.57839  1.0000
  C   C1764     1.0  0.59257  0.77203  0.75338  1.0000
  H   H1420     1.0  0.97307  0.92683  0.58324  1.0000
  S   S250      1.0  0.89767  0.94527  0.70465  1.0000
  C   C1765     1.0  0.50018  0.88853  0.90221  1.0000
  C   C1766     1.0  0.94340  0.66989  0.99694  1.0000
  H   H1421     1.0  0.51712  0.67146  0.98496  1.0000
  H   H1422     1.0  0.55402  0.96748  0.61025  1.0000
  H   H1423     1.0  0.95771  0.68066  0.90459  1.0000
  C   C1767     1.0  0.88551  0.94835  0.54575  1.0000
  C   C1768     1.0  0.89287  0.92268  0.55622  1.0000
  C   C1769     1.0  0.89167  0.90144  0.53773  1.0000
  C   C1770     1.0  0.49485  0.81237  0.63684  1.0000
  C   C1771     1.0  0.51256  0.91331  0.90682  1.0000
  H   H1424     1.0  0.49517  0.84139  0.98379  1.0000
  H   H1425     1.0  0.89913  0.91900  0.57874  1.0000
  H   H1426     1.0  0.89670  0.88151  0.54639  1.0000
  Fe  Fe124     1.0  0.51071  0.78472  0.93555  1.0000
  C   C1772     1.0  0.58151  0.68059  0.92878  1.0000
  C   C1773     1.0  0.55223  0.65235  0.96636  1.0000
  C   C1774     1.0  0.92683  0.76429  0.96390  1.0000
  C   C1775     1.0  0.53492  0.90136  0.68936  1.0000
  C   C1776     1.0  0.53838  0.92909  0.68140  1.0000
  C   C1777     1.0  0.69818  0.92978  0.59055  1.0000
  H   H1427     1.0  0.86785  0.96339  0.82569  1.0000
  H   H1428     1.0  0.68687  0.93478  0.77466  1.0000
  H   H1429     1.0  0.55200  0.88987  0.69472  1.0000
  C   C1778     1.0  0.79000  0.92986  0.68814  1.0000
  C   C1779     1.0  0.78731  0.95549  0.67356  1.0000
  C   C1780     1.0  0.76188  0.96375  0.66617  1.0000
  C   C1781     1.0  0.73896  0.94635  0.67278  1.0000
  C   C1782     1.0  0.74172  0.92051  0.68680  1.0000
  C   C1783     1.0  0.76710  0.91241  0.69465  1.0000
  S   S251      1.0  0.97532  0.86101  0.90749  1.0000
  H   H1430     1.0  0.72426  0.90692  0.69212  1.0000
  H   H1431     1.0  0.76897  0.89253  0.70587  1.0000
  H   H1432     1.0  0.57500  0.87765  0.97107  1.0000
  H   H1433     1.0  0.55410  0.85663  0.65744  1.0000
  C   C1784     1.0  0.94164  0.74271  0.97426  1.0000
  C   C1785     1.0  0.50510  0.68575  0.87951  1.0000
  H   H1434     1.0  0.76243  0.95205  0.60403  1.0000
  H   H1435     1.0  0.58755  0.82639  0.57569  1.0000
  H   H1436     1.0  0.60543  0.95188  0.54378  1.0000
  H   H1437     1.0  0.64723  0.86550  0.52681  1.0000
  C   C1786     1.0  0.94118  0.85121  0.73344  1.0000
  C   C1787     1.0  0.72797  0.83403  0.53829  1.0000
  H   H1438     1.0  0.78781  0.89477  0.53572  1.0000
  C   C1788     1.0  0.51536  0.83859  0.75631  1.0000
  C   C1789     1.0  0.77405  0.96144  0.58378  1.0000
  P   P58       1.0  0.74692  0.86703  0.57958  1.0000
  C   C1790     1.0  0.73546  0.84527  0.61318  1.0000
  C   C1791     1.0  0.77775  0.88561  0.58390  1.0000
  C   C1792     1.0  0.78511  0.89030  0.61276  1.0000
  C   C1793     1.0  0.80905  0.90478  0.61559  1.0000
  C   C1794     1.0  0.82530  0.91541  0.58979  1.0000
  C   C1795     1.0  0.81759  0.91171  0.56103  1.0000
  C   C1796     1.0  0.79377  0.89711  0.55810  1.0000
  C   C1797     1.0  0.70790  0.84169  0.62256  1.0000
  C   C1798     1.0  0.69902  0.82488  0.64873  1.0000
  C   C1799     1.0  0.71755  0.81132  0.66546  1.0000
  C   C1800     1.0  0.74496  0.81406  0.65565  1.0000
  C   C1801     1.0  0.75389  0.83074  0.62939  1.0000
  C   C1802     1.0  0.50261  0.93748  0.89485  1.0000
  C   C1803     1.0  0.96772  0.96290  0.51609  1.0000
  H   H1439     1.0  0.96384  0.84297  0.96815  1.0000
  H   H1440     1.0  0.75994  0.98379  0.65538  1.0000
  H   H1441     1.0  0.97464  0.94325  0.52320  1.0000
  C   C1804     1.0  0.51288  0.97361  0.60134  1.0000
  C   C1805     1.0  0.54168  0.69868  0.95289  1.0000
  C   C1806     1.0  0.53669  0.87065  0.61684  1.0000
  C   C1807     1.0  0.75083  0.84533  0.54932  1.0000
  P   P59       1.0  0.51555  0.78815  0.73445  1.0000
  H   H1442     1.0  0.77242  0.88310  0.63313  1.0000
  H   H1443     1.0  0.81500  0.90797  0.63780  1.0000
  H   H1444     1.0  0.84356  0.92702  0.59215  1.0000
  C   C1808     1.0  0.49947  0.78468  0.01337  1.0000
  C   C1809     1.0  0.51509  0.79439  0.64192  1.0000
  H   H1445     1.0  0.69321  0.85210  0.60994  1.0000
  H   H1446     1.0  0.67775  0.82282  0.65632  1.0000
  H   H1447     1.0  0.71063  0.79878  0.68608  1.0000
  H   H1448     1.0  0.75933  0.80343  0.66853  1.0000
  H   H1449     1.0  0.77518  0.83256  0.62196  1.0000
  C   C1810     1.0  0.93325  0.72738  0.00180  1.0000
  H   H1450     1.0  0.52289  0.88322  0.62864  1.0000
  H   H1451     1.0  0.72402  0.90644  0.61746  1.0000
  C   C1811     1.0  0.59589  0.80567  0.71040  1.0000
  Fe  Fe125     1.0  0.86086  0.94081  0.67909  1.0000
  S   S252      1.0  0.52749  0.82033  0.90453  1.0000
  H   H1452     1.0  0.97174  0.81210  0.79240  1.0000
  H   H1453     1.0  0.92420  0.84018  0.72629  1.0000
  C   C1812     1.0  0.77641  0.83772  0.53831  1.0000
  H   H1454     1.0  0.71862  0.88558  0.52607  1.0000
  S   S253      1.0  0.49974  0.79192  0.84969  1.0000
  H   H1455     1.0  0.54693  0.98104  0.82373  1.0000
  H   H1456     1.0  0.56815  0.89937  0.53054  1.0000
  H   H1457     1.0  0.64505  0.92522  0.95881  1.0000
  H   H1458     1.0  0.80591  0.97637  0.60814  1.0000
  C   C1813     1.0  0.48671  0.90342  0.68442  1.0000
  H   H1459     1.0  0.90376  0.68259  0.98770  1.0000
  C   C1814     1.0  0.94013  0.95612  0.80433  1.0000
  C   C1815     1.0  0.94145  0.96011  0.77261  1.0000
  P   P60       1.0  0.91634  0.93148  0.82492  1.0000
  C   C1816     1.0  0.93178  0.89934  0.82782  1.0000
  C   C1817     1.0  0.90703  0.94126  0.86243  1.0000
  C   C1818     1.0  0.90320  0.92205  0.88772  1.0000
  C   C1819     1.0  0.89564  0.92995  0.91654  1.0000
  H   H1460     1.0  0.96496  0.83074  0.84166  1.0000
  H   H1461     1.0  0.59923  0.68320  0.91269  1.0000
  S   S254      1.0  0.86464  0.98296  0.65628  1.0000
  C   C1820     1.0  0.91577  0.87542  0.83380  1.0000
  C   C1821     1.0  0.92773  0.85068  0.83814  1.0000
  C   C1822     1.0  0.95569  0.84967  0.83666  1.0000
  H   H1462     1.0  0.92808  0.82289  0.00643  1.0000
  C   C1823     1.0  0.95990  0.89805  0.82595  1.0000
  C   C1824     1.0  0.88639  0.93017  0.80501  1.0000
  C   C1825     1.0  0.88358  0.91162  0.78352  1.0000
  C   C1826     1.0  0.86064  0.91102  0.76772  1.0000
  C   C1827     1.0  0.84052  0.92914  0.77298  1.0000
  C   C1828     1.0  0.84332  0.94791  0.79394  1.0000
  C   C1829     1.0  0.86611  0.94844  0.80990  1.0000
  H   H1463     1.0  0.60823  0.81919  0.69387  1.0000
  C   C1830     1.0  0.97173  0.87330  0.83020  1.0000
  H   H1464     1.0  0.82795  0.96229  0.79753  1.0000
  C   C1831     1.0  0.55225  0.95851  0.76324  1.0000
  H   H1465     1.0  0.92681  0.95035  0.76033  1.0000
  H   H1466     1.0  0.90652  0.90105  0.88549  1.0000
  C   C1832     1.0  0.79851  0.97517  0.58612  1.0000
  C   C1833     1.0  0.77974  0.97147  0.52901  1.0000
  H   H1467     1.0  0.96573  0.81692  0.73606  1.0000
  H   H1468     1.0  0.89406  0.87598  0.83597  1.0000
  H   H1469     1.0  0.91533  0.83235  0.84354  1.0000
  H   H1470     1.0  0.56916  0.95711  0.93928  1.0000
  H   H1471     1.0  0.90602  0.98344  0.84731  1.0000
  C   C1834     1.0  0.72319  0.89271  0.57271  1.0000
  H   H1472     1.0  0.89921  0.89786  0.77866  1.0000
  H   H1473     1.0  0.85860  0.89696  0.75081  1.0000
  H   H1474     1.0  0.82292  0.92889  0.76046  1.0000
  P   P61       1.0  0.51487  0.89042  0.56451  1.0000
  C   C1835     1.0  0.96202  0.89325  0.74412  1.0000
  C   C1836     1.0  0.56552  0.91260  0.75862  1.0000
  C   C1837     1.0  0.56785  0.80605  0.71197  1.0000
  H   H1475     1.0  0.60218  0.75973  0.77025  1.0000
  H   H1476     1.0  0.55851  0.91820  0.99285  1.0000
  C   C1838     1.0  0.51588  0.94390  0.67563  1.0000
  H   H1477     1.0  0.89327  0.91511  0.93603  1.0000
  C   C1839     1.0  0.94539  0.83338  0.01354  1.0000
  C   C1840     1.0  0.56480  0.70206  0.93250  1.0000
  C   C1841     1.0  0.97188  0.91560  0.90154  1.0000
  C   C1842     1.0  0.91804  0.66692  0.98616  1.0000
  H   H1478     1.0  0.55582  0.92382  0.58892  1.0000
  H   H1479     1.0  0.74620  0.94825  0.55375  1.0000
  H   H1480     1.0  0.50667  0.86716  0.69678  1.0000
  H   H1481     1.0  0.53681  0.77275  0.67512  1.0000
  C   C1843     1.0  0.49092  0.93797  0.57804  1.0000
  H   H1482     1.0  0.80471  0.96917  0.66855  1.0000
  C   C1844     1.0  0.69503  0.91789  0.53957  1.0000
  C   C1845     1.0  0.50891  0.85821  0.98588  1.0000
  S   S255      1.0  0.52012  0.96843  0.89726  1.0000
  C   C1846     1.0  0.54442  0.90167  0.99101  1.0000
  C   C1847     1.0  0.95088  0.97580  0.53643  1.0000
  H   H1483     1.0  0.61809  0.95134  0.77588  1.0000
  C   C1848     1.0  0.98168  0.94226  0.89377  1.0000
  C   C1849     1.0  0.50063  0.74676  0.78008  1.0000
  H   H1484     1.0  0.55509  0.85114  0.54673  1.0000
  C   C1850     1.0  0.53723  0.86993  0.58535  1.0000
  H   H1485     1.0  0.54335  0.83889  0.96694  1.0000
  H   H1486     1.0  0.67284  0.94905  0.55933  1.0000
  C   C1851     1.0  0.53651  0.95949  0.60074  1.0000
  C   C1852     1.0  0.57537  0.65582  0.94577  1.0000
  C   C1853     1.0  0.60823  0.78844  0.73086  1.0000
  H   H1487     1.0  0.83002  0.92034  0.54107  1.0000
  Fe  Fe126     1.0  0.48729  0.81918  0.88578  1.0000
  C   C1854     1.0  0.53734  0.93452  0.58899  1.0000
  C   C1855     1.0  0.54613  0.93198  0.75720  1.0000
  H   H1488     1.0  0.56077  0.89228  0.75369  1.0000
  C   C1856     1.0  0.52704  0.97699  0.97810  1.0000
  H   H1489     1.0  0.48599  0.84929  0.53485  1.0000
  C   C1857     1.0  0.49024  0.93118  0.67709  1.0000
  C   C1858     1.0  0.68735  0.93378  0.56277  1.0000
  C   C1859     1.0  0.65831  0.90237  0.79134  1.0000
  H   H1490     1.0  0.67608  0.96113  0.81850  1.0000
  C   C1860     1.0  0.49939  0.88109  0.99834  1.0000
  C   C1861     1.0  0.64623  0.93186  0.84086  1.0000
  C   C1862     1.0  0.63288  0.90680  0.83970  1.0000
  C   C1863     1.0  0.63871  0.89239  0.81449  1.0000
  P   P62       1.0  0.60707  0.89386  0.86898  1.0000
  C   C1864     1.0  0.60705  0.91385  0.90090  1.0000
  C   C1865     1.0  0.57559  0.89419  0.85191  1.0000
  C   C1866     1.0  0.56517  0.91865  0.84144  1.0000
  C   C1867     1.0  0.53960  0.91905  0.83111  1.0000
  C   C1868     1.0  0.52507  0.89508  0.82925  1.0000
  C   C1869     1.0  0.53605  0.87055  0.83755  1.0000
  C   C1870     1.0  0.56123  0.87005  0.84884  1.0000
  C   C1871     1.0  0.58580  0.93030  0.90844  1.0000
  H   H1491     1.0  0.55873  0.81992  0.69629  1.0000
  H   H1492     1.0  0.96133  0.91476  0.74501  1.0000
  C   C1872     1.0  0.57280  0.83976  0.61845  1.0000
  C   C1873     1.0  0.62846  0.91220  0.91925  1.0000
  C   C1874     1.0  0.61289  0.86024  0.88490  1.0000
  C   C1875     1.0  0.63571  0.84657  0.87534  1.0000
  C   C1876     1.0  0.63910  0.82028  0.88765  1.0000
  C   C1877     1.0  0.61996  0.80760  0.90974  1.0000
  C   C1878     1.0  0.59763  0.82135  0.92001  1.0000
  C   C1879     1.0  0.59419  0.84764  0.90779  1.0000
  H   H1493     1.0  0.66298  0.89098  0.77210  1.0000
  Fe  Fe127     1.0  0.88975  0.96486  0.61933  1.0000
  C   C1880     1.0  0.50658  0.79670  0.69633  1.0000
  C   C1881     1.0  0.59119  0.91945  0.76602  1.0000
  H   H1494     1.0  0.62813  0.87338  0.81281  1.0000
  C   C1882     1.0  0.60721  0.94299  0.95198  1.0000
  H   H1495     1.0  0.96328  0.93829  0.96684  1.0000
  H   H1496     1.0  0.50498  0.89564  0.82212  1.0000
  H   H1497     1.0  0.52463  0.85193  0.83620  1.0000
  H   H1498     1.0  0.56915  0.85074  0.85534  1.0000
  H   H1499     1.0  0.56885  0.93205  0.89524  1.0000
  H   H1500     1.0  0.94436  0.96595  0.55878  1.0000
  C   C1883     1.0  0.66569  0.94188  0.81751  1.0000
  C   C1884     1.0  0.97847  0.67649  0.89842  1.0000
  H   H1501     1.0  0.64504  0.89951  0.91397  1.0000
  H   H1502     1.0  0.65080  0.85580  0.85824  1.0000
  H   H1503     1.0  0.65624  0.80947  0.87946  1.0000
  H   H1504     1.0  0.62214  0.78693  0.91848  1.0000
  H   H1505     1.0  0.58259  0.81133  0.93683  1.0000
  H   H1506     1.0  0.57650  0.85789  0.91550  1.0000
  C   C1885     1.0  0.90298  0.96833  0.86646  1.0000
  H   H1507     1.0  0.49273  0.74266  0.70528  1.0000
  H   H1508     1.0  0.49070  0.94882  0.73405  1.0000
  H   H1509     1.0  0.60610  0.90432  0.76695  1.0000
  H   H1510     1.0  0.52656  0.78692  0.62286  1.0000
  H   H1511     1.0  0.70799  0.83845  0.54762  1.0000
  H   H1512     1.0  0.88582  0.96321  0.94254  1.0000
  H   H1513     1.0  0.97285  0.91608  0.82222  1.0000
  C   C1886     1.0  0.52089  0.78650  0.67154  1.0000
  C   C1887     1.0  0.93989  0.87877  0.73585  1.0000
  C   C1888     1.0  0.89487  0.97611  0.89511  1.0000
  H   H1514     1.0  0.48970  0.98334  0.81944  1.0000
  C   C1889     1.0  0.53522  0.67384  0.96947  1.0000
  C   C1890     1.0  0.55187  0.78866  0.73363  1.0000
  H   H1515     1.0  0.51118  0.97353  0.96368  1.0000
  C   C1891     1.0  0.67179  0.92709  0.79281  1.0000
  C   C1892     1.0  0.49015  0.96294  0.58978  1.0000
  H   H1516     1.0  0.51343  0.87864  0.77012  1.0000
  H   H1517     1.0  0.53408  0.84313  0.74223  1.0000
  C   C1893     1.0  0.96566  0.84459  0.99196  1.0000
  C   C1894     1.0  0.50916  0.88857  0.69080  1.0000
  H   H1518     1.0  0.55308  0.75947  0.77279  1.0000
  C   C1895     1.0  0.90333  0.77058  0.98070  1.0000
  C   C1896     1.0  0.96477  0.83816  0.73888  1.0000
  C   C1897     1.0  0.50374  0.85881  0.77210  1.0000
  C   C1898     1.0  0.71295  0.89748  0.54443  1.0000
  H   H1519     1.0  0.58735  0.82905  0.63098  1.0000
  C   C1899     1.0  0.71591  0.90926  0.59565  1.0000
  H   H1520     1.0  0.50475  0.96150  0.51731  1.0000
  H   H1521     1.0  0.69276  0.94258  0.60822  1.0000
  H   H1522     1.0  0.49062  0.81886  0.61391  1.0000
  C   C1900     1.0  0.49402  0.96715  0.77582  1.0000
  H   H1523     1.0  0.62997  0.78878  0.73018  1.0000
  H   H1524     1.0  0.95153  0.91162  0.91170  1.0000
  H   H1525     1.0  0.93367  0.77606  0.94270  1.0000
  C   C1901     1.0  0.58590  0.94476  0.93379  1.0000
  C   C1902     1.0  0.55435  0.85556  0.63328  1.0000
  C   C1903     1.0  0.55482  0.85288  0.57080  1.0000
  H   H1526     1.0  0.53061  0.93786  0.82510  1.0000
  H   H1527     1.0  0.95922  0.96608  0.84389  1.0000
  H   H1528     1.0  0.97490  0.94990  0.68806  1.0000
  H   H1529     1.0  0.89194  0.78734  0.97257  1.0000
  H   H1530     1.0  0.98123  0.65111  0.00248  1.0000
  C   C1904     1.0  0.57855  0.96546  0.76944  1.0000
  C   C1905     1.0  0.50181  0.75494  0.74889  1.0000
  C   C1906     1.0  0.89146  0.95699  0.92024  1.0000
  C   C1907     1.0  0.62853  0.92671  0.94469  1.0000
  Fe  Fe128     1.0  0.48581  0.75787  0.88504  1.0000
  C   C1908     1.0  0.51632  0.66030  0.87981  1.0000
  P   P63       1.0  0.52666  0.98329  0.76344  1.0000
  C   C1909     1.0  0.63780  0.88420  0.53050  1.0000
  H   H1531     1.0  0.64165  0.94378  0.85959  1.0000
  H   H1532     1.0  0.96530  0.77027  0.82656  1.0000
  C   C1910     1.0  0.52569  0.89567  0.52442  1.0000
  C   C1911     1.0  0.55389  0.87866  0.97865  1.0000
  C   C1912     1.0  0.49034  0.72111  0.79148  1.0000
  C   C1913     1.0  0.59785  0.94593  0.77111  1.0000
  C   C1914     1.0  0.52848  0.96079  0.00533  1.0000
  H   H1533     1.0  0.60708  0.95414  0.97175  1.0000
  H   H1534     1.0  0.96275  0.97960  0.73186  1.0000
  C   C1915     1.0  0.96200  0.97658  0.75631  1.0000
  S   S256      1.0  0.88427  0.97480  0.56957  1.0000
  C   C1916     1.0  0.89444  0.75507  0.00775  1.0000
  C   C1917     1.0  0.49227  0.73699  0.72936  1.0000
  H   H1535     1.0  0.50772  0.76019  0.79571  1.0000
  P   P64       1.0  0.95231  0.69931  0.01521  1.0000
  H   H1536     1.0  0.48960  0.71498  0.81557  1.0000
  C   C1918     1.0  0.98336  0.94742  0.96580  1.0000
  C   C1919     1.0  0.48595  0.81438  0.69100  1.0000
  C   C1920     1.0  0.87826  0.95290  0.51602  1.0000
