data_image0
_chemical_formula_structural       FeS2FeS2FeSFeS3HCFeSPFeS2FeSFeS3FeHSHCHCHSC5SHC7H2C2SC7FeH4C4H2CH2C4H3C4HCHCPHC6H4C6H5CH2C2PC10H2C2H3CHPCHCH3SH2CHC2HC2H2CHC3HC3HC2HCHCH3SHC6HC2HCHC2HC3H2CHCHCH4C5SCH3CHCH2CHC2HC6H2C2SH4C5H2CH2C2H2C5H6C2HCHCH2CH2CHCHCHCPC18H4CH6C2H2SH5SPHC3HCHC2H2CFeCH2CHC2HSHCH6C2FeHCH5C3H2C5H4SH2C4SH2CFeH2FeSC3H3CFeSH2S2FeS2FeSFeSFeS3HS2FeS2FeSFeS3C6H4C6H4CHC6HFeC7H2C2H4C2HFeH2C3HC2HCHC4H2CH2CHCH2CH6C2HSCHCHC2H2C2HC2H2CHCH2C2HCH5CHCHCH5C7HC2HC2H5C2H3C3H2CSFeC3H3PH2CPCHC3HC2H2C6HC8H4CHC3HCH5C6PC6H2CH3CHCH5C3H3CH3C3PC18H3C2H10C3HCH2C2H6C6H2C3PH2CSCHFeS2FeS2FeSFeS4PSFeS2FeSFeSC7HCH2CHC5H3C6H4C8H2C6H4CPC6HC5H3C2HC3HCHCSCH2CHC5H3CH3C2HC8HC4HCH3CH2CH2CH2C2HCHC3H4C3PC3HC14HCH4C2FeH13CHCHC2SC3H2C2H3PH2CH4C2HCSCHPHCHCHCH2C2HPC11H2CHC4H8C2H4C2H2C8HC6H3CH3CSH2C5H2CH2C2H2C2HCH2C2H2C2H6C2H2CHC4HCSCHCFeCFeSFeS4FeS2FeC2FeSFeCS2C7H3C2H2C6H5CHC2H4CHC3HSCH3C2H3C4H2C3HCH3C2HC2H5CHC2H3CSC3H2CH2CHFeCHCHC2HC3HC2H6CHSC9PCHCH2CHC2HPCHC2SCH3FeH2C5HCH3C2SHSFeH2CH2C6HC3HC2H7SHC2H2FeH2CH2CHCSH2CFeSPHCSH2CHCHSCFeHSH2C8PC4HC13H6C2H4FeH7PHC2HCH3C2HFeH2C7PC18H6CSCH3SC2FeHCH3FeH4CH2FeCH2CSC2HC3HFeH4C3HCHC2HCHC3HSHCHSC2HC4H3C2SHCFeH4SC2SHCFeS2FeS2FeSFeS3CHFeS2FeS2FeSFeS3CHC2HCHCH3C4H2C6HC2HC2H3CPCHSCHC5HC7H6CHCH2CPC7H4C6H2C2HCSHCHCHC2H2C6PC13HC3H8CH7CH2C4HCHC13H2CHCHCHC4PCH6CHCH2C4H5C5PC2H5CHC6PC4H4CH2C2H8CSC2H3CHCHCH2CHC3H4C2H2C2H3C2HC2HC2H3CHC3H2CHC2HCFeSHFeS2FeCFeS3HC2HCHC3SHFeS2FeSFeSFeS3CHCFeS2CSFeC2HC6H4C6H2CH2CHC2HFeHC2HC5H3SC4HCHC2HC5HPCHCFeH3CHC5H3SCH4C3HC6HC4HCH3CH2CHCH2C2H4CSC4PCH2C3HC5HC2H2SHC2H6CHCHPC4H3C6SH3FeHC2HC2H6C3H2C2HCHCHCH2CH2CHCH3CH2CH3C3H2SHSHC2HC3HCHC2HSC3PC14SH3CH10SCFeH6C4HC4HPC2HCHC4HCHC4H2C2H3FeH2PH2PHSH2SCSPHC2SCHC2PCHSCHCFeC3H2C3HC6FeSCHFeC3H2C2H2C2H4SCHC4HCH2C3H2SH3CH2CHC2H3C5PC5FeS2FeS2FeSFeS3HCSFeS2FeSFeSCSHC3HCH4C6H2C7H4CHC4HCH2C6H4C2HC3HCH2C3PH6C2PSHCPCHC2H2C2H2CHC2H2C6PC2HCHCHCHCHC4H2CH7PCHCHCH9CH2C8HCHCH2C3H4CHC7FeCHC8HCH3CH2C3H7C4PC4H3C12H5C2H10C6HC2HSHCHCHC3H3C4H2CHCHFeC4HCSHSH2CHC2H2CH2CS2HCHC2H3C5H2C3HCHCHC5H5CHCHC3HCHCFeS4FeS2PHCFeSFeS3H2C4SHCHC3HCHC3H4C2HC3Fe2CHCHC6PC14H2SCH6C2H3C2FeH4CH2C8H2C7PC10H16C2HCSCSHSCH2CHC3H2C3H4C2HCHC3FeSC2H3C2H4C3HC2HCHCHFeCHC2HCH2CSCH5C2HC4H3C3HC2HCHCHC3H5C4HC3H3PCHCH3CH3CHSHC3H6C3HCHCSHC2H2C4HCHCHCH3CH3FeS2FeS2FeSFeS3CHFeSCFeS2FeSFeS3CHCH3CH2CHC4H2C6H7CHCH2C2HCHC4H2C2HC3HFeH2C2H3CHSH2C6H4C6HCH2CH2C3HCHCH2C2H3CHCHCSCH2C2H3CHC4HCHCHSHPHCH2CH3C2HC4H6CH2C2SH2FeH2CH3C4HCH2CPHSHC2SC2HC6HC2HCPCHC7HC2PCSH3C4H7C8HC8H2CPCPC2H3CHC4HCHCHC2HC2SHC4FeCPHC8HPC7H6C3H2C2H2CH3C2H2CH3CH3C5H3C2HCHCHC2HC3HCH3CHC3HCH5C3HC3HCH2C2H3CSHCHCH3CHC2H2C4HC2HC3HC3HC3PC2HCHPHCH2FeSCFeS2FeSFeS3HCHCH2CHCSCFeS2FeSFeSFeS3C2SFeS2FeSFeSCSC6H4C5H3C2H3C5H2C6H4C3FeHCH2CH4CH2C3HC5SHC5SC6HCH2CH7C2HC2HC2HC2H3CH2CFeC3H3C2HCH2CSCHC3HC3HCHC4SCHCH3CH3CH2SC4HC2HCSCH4C3HC3HC2H2CH3CPHCS2CHC2PC3HPSHC4HC2HCHC2HCH2C3H2C3H3C5SCFeH2C2H2C6PC5HC12H18SCH2C2H3CFeC2HCH4CHC2HC2H3CHCHC2SCHPC2H3C2HC5H2CHCH4CHPCH4C3HC2HCH3C2HC2H3CH2C2FeHPC2HFeHC3H2CHPFeS2FeS2FeSFeS3CSCFeS2FeSFeS3HC3H4CHCPC5HC7H4C2HC3HCH2C6H4CH2CHC9H2CHC6PC18H7CH15C2HC4HC2H2C8H6CHCH3CHC2H2CHC2SC3HCHCH3CHC3HC7H2C4HC4HC6HC5H4CSH5CH2C3HC3H4FeH2C2PC4HC3H5C2HCH3CHCH3C2H2C3HCHC2HCHC2HCHCH3CHCFeHCSCSH2CH2SC2H4CHC3HCHPHC3PCH3CH6CHCHCPFeHC2H2SC2SFeSFeS4FeS2FeS2FeCFeS4Fe2C5HC3H2C6H5SC3H2SHC2SH2SCHC2HCH2C2SC2HSCH2C2H2CFeHC2HC2SC3HCHCHFeHCHFeC6HSFeCSC4HC2H3C6PC8HC6HC3H10C2H7C2HSH2C3HCHSC2H4SC5H3C2HFeHCHCH5SHC8PHC6HFeHCHSH11CH3CHC2HC3SFeC2HC4H3C4FeSPHC2HCHFeHFeHPC3H2CH3FeC5H2CHCHCHC2HCHCH4CS2C2HSC5H2SFeS2FeS2FeSFeS3HSFeS2FeS2FeSFeS3CHC2H6C5HC2HPC3HCH2C2HCHC2H2C2H2C3H2C4HC2H4C2HCHC2H3C6H4C6HC2H3C2PHCHCH5CHCH2C7HC4HC4HC2H5C8HCH2CHCHC2HCHC3H2CHCHCH4CH2CHCH3C2HSHC6HCH2CH2C2H3CH3CSCHCH4CHC2PHC4HCHCHC14HC2HC2H8C2SHSPH2CH2FeSC2H2CHCFeSH2SFe2S2FeSFeSFeHS2HSHFeS2FeSFeS2HC6H4C6H4C8H2CHC4H2SHCHCSHC2HCHFeC5HCH2CHCH2C2H2CHCH2C6PC14H5C2H9CHFeSC3SCHC4HC2PC2H3CHCHC7H3C2HCH3SH4C4HCH2C3HC2HC3H2C2HPH2CH3SHCFeC2HCHC2HCHC2HCHCH3C2H2C3H3CHC2H2C2FeH2CHC2H3CHCHCHCHCH3CH2PCHC2H2C2H2CH2C2HCH2C7SH3C2HC2FeS2FeS2FeSFeS3HSHFeS2FeSFeS3C4HC2HC8H3C6H4C6H2CHC6H4FeHCH5C5HCH3C6PC18H20C2HPC4HCHC11H2CH7CHC6PH2CHCHCHC9PH2CHCH8CHC4H4C6HC2HSC2H2C2H3C2H3CHCHC2H3C4H9CPC3H2C2HC7HCHC2HCHCHC3HCH3C5HSCHC4HC3H3CH7C8HPHCHCHPHC2HCHC2HC2H2CHC2HC3H3CH2CH2CHC3SHCH3C3H4FeS4FeS2FeC2FeHFeHS2C6PH7C7H4C5FeSH3SC5SC4HCHS2HC3PC2HCHFeH3CHCH3PC2HCHC2H3CHCSCH5CSHC3FeC2HC6H2CH4C3SC6HCH6CH2C4H3CHC3H3C2HSC2HC2H2CH2C3H7C2H3C7HC3HCHCPHC3SHC9HSCHCHC2H2C2HCH
_chemical_formula_sum              "Fe192 S384 H2304 C2880 P96"
_cell_length_a       48.8721
_cell_length_b       49.2455
_cell_length_c       59.3263
_cell_angle_alpha    89.8431
_cell_angle_beta     90.2148
_cell_angle_gamma    120.083

_space_group_name_H-M_alt    "P 1"
_space_group_IT_number       1

loop_
  _space_group_symop_operation_xyz
  'x, y, z'

loop_
  _atom_site_type_symbol
  _atom_site_label
  _atom_site_symmetry_multiplicity
  _atom_site_fract_x
  _atom_site_fract_y
  _atom_site_fract_z
  _atom_site_occupancy
  Fe  Fe1       1.0  0.36010  0.34188  0.09915  1.0000
  S   S1        1.0  0.33438  0.29793  0.07869  1.0000
  S   S2        1.0  0.37607  0.38813  0.08182  1.0000
  Fe  Fe2       1.0  0.35588  0.30560  0.14175  1.0000
  S   S3        1.0  0.32973  0.25898  0.12427  1.0000
  S   S4        1.0  0.36834  0.30924  0.17860  1.0000
  Fe  Fe3       1.0  0.36572  0.28359  0.09689  1.0000
  S   S5        1.0  0.39516  0.26772  0.07758  1.0000
  Fe  Fe4       1.0  0.30171  0.27905  0.10819  1.0000
  S   S6        1.0  0.24828  0.25344  0.10484  1.0000
  S   S7        1.0  0.39339  0.32893  0.11542  1.0000
  S   S8        1.0  0.32546  0.32396  0.12771  1.0000
  H   H1        1.0  0.16246  0.28418  0.15963  1.0000
  C   C1        1.0  0.28410  0.47134  0.19878  1.0000
  Fe  Fe5       1.0  0.07911  0.33054  0.10635  1.0000
  S   S9        1.0  0.09604  0.38127  0.11307  1.0000
  P   P1        1.0  0.44755  0.28870  0.98481  1.0000
  Fe  Fe6       1.0  0.14620  0.34254  0.09499  1.0000
  S   S10       1.0  0.16738  0.39429  0.10109  1.0000
  S   S11       1.0  0.18192  0.33195  0.07855  1.0000
  Fe  Fe7       1.0  0.13611  0.38082  0.13144  1.0000
  S   S12       1.0  0.15603  0.40173  0.16568  1.0000
  Fe  Fe8       1.0  0.12552  0.38943  0.08213  1.0000
  S   S13       1.0  0.13013  0.42462  0.05610  1.0000
  S   S14       1.0  0.11744  0.32903  0.12691  1.0000
  S   S15       1.0  0.10585  0.33867  0.07407  1.0000
  Fe  Fe9       1.0  0.28739  0.08318  0.99433  1.0000
  H   H2        1.0  0.39168  0.03572  0.01021  1.0000
  S   S16       1.0  0.33578  0.10669  0.01063  1.0000
  H   H3        1.0  0.37135  0.38582  0.16453  1.0000
  C   C2        1.0  0.12260  0.11286  0.97831  1.0000
  H   H4        1.0  0.08455  0.01230  0.06552  1.0000
  C   C3        1.0  0.48358  0.27139  0.10713  1.0000
  H   H5        1.0  0.25614  0.45801  0.97563  1.0000
  S   S17       1.0  0.24286  0.07278  0.01281  1.0000
  C   C4        1.0  0.18633  0.00756  0.15862  1.0000
  C   C5        1.0  0.42912  0.49122  0.03010  1.0000
  C   C6        1.0  0.15208  0.43303  0.17617  1.0000
  C   C7        1.0  0.13876  0.44725  0.16320  1.0000
  C   C8        1.0  0.13467  0.47120  0.17257  1.0000
  S   S18       1.0  0.43583  0.46413  0.97601  1.0000
  H   H6        1.0  0.13127  0.43956  0.14607  1.0000
  C   C9        1.0  0.14361  0.48084  0.19495  1.0000
  C   C10       1.0  0.13391  0.41543  0.02808  1.0000
  C   C11       1.0  0.13468  0.38821  0.02254  1.0000
  C   C12       1.0  0.13705  0.38131  0.99990  1.0000
  C   C13       1.0  0.14011  0.40230  0.98287  1.0000
  C   C14       1.0  0.13935  0.42945  0.98844  1.0000
  C   C15       1.0  0.13617  0.43594  0.01094  1.0000
  H   H7        1.0  0.13371  0.37256  0.03560  1.0000
  H   H8        1.0  0.13697  0.35995  0.99560  1.0000
  C   C16       1.0  0.21109  0.31174  0.14935  1.0000
  C   C17       1.0  0.18043  0.33367  0.16441  1.0000
  S   S19       1.0  0.39675  0.37180  0.97881  1.0000
  C   C18       1.0  0.24319  0.45593  0.99092  1.0000
  C   C19       1.0  0.27037  0.07289  0.13502  1.0000
  C   C20       1.0  0.03860  0.38462  0.05050  1.0000
  C   C21       1.0  0.34246  0.03047  0.09076  1.0000
  C   C22       1.0  0.28418  0.41844  0.01725  1.0000
  C   C23       1.0  0.31288  0.41672  0.05030  1.0000
  C   C24       1.0  0.29287  0.29603  0.20578  1.0000
  Fe  Fe10      1.0  0.23057  0.09154  0.98208  1.0000
  H   H9        1.0  0.23059  0.39660  0.07047  1.0000
  H   H10       1.0  0.02050  0.30540  0.15419  1.0000
  H   H11       1.0  0.30917  0.46031  0.99680  1.0000
  H   H12       1.0  0.45576  0.15470  0.19994  1.0000
  C   C25       1.0  0.36615  0.10127  0.99927  1.0000
  C   C26       1.0  0.39751  0.12398  0.00394  1.0000
  C   C27       1.0  0.42258  0.12122  0.99527  1.0000
  C   C28       1.0  0.41797  0.29124  0.96809  1.0000
  H   H13       1.0  0.40259  0.14412  0.01411  1.0000
  H   H14       1.0  0.44666  0.13940  0.99869  1.0000
  C   C29       1.0  0.38100  0.28277  0.18659  1.0000
  H   H15       1.0  0.33199  0.37460  0.19453  1.0000
  H   H16       1.0  0.30956  0.48656  0.08817  1.0000
  C   C30       1.0  0.28924  0.05431  0.18447  1.0000
  C   C31       1.0  0.39389  0.24231  0.17770  1.0000
  C   C32       1.0  0.38460  0.26383  0.17072  1.0000
  C   C33       1.0  0.23497  0.43107  0.00614  1.0000
  H   H17       1.0  0.27418  0.28568  0.05261  1.0000
  H   H18       1.0  0.39685  0.22787  0.16534  1.0000
  H   H19       1.0  0.38070  0.26598  0.15305  1.0000
  C   C34       1.0  0.42966  0.27212  0.09068  1.0000
  C   C35       1.0  0.27988  0.09439  0.11720  1.0000
  C   C36       1.0  0.35034  0.40395  0.14135  1.0000
  C   C37       1.0  0.25831  0.03106  0.10847  1.0000
  H   H20       1.0  0.33679  0.07099  0.09367  1.0000
  C   C38       1.0  0.23775  0.01737  0.19964  1.0000
  H   H21       1.0  0.21833  0.29247  0.01150  1.0000
  C   C39       1.0  0.50666  0.25346  0.00871  1.0000
  P   P2        1.0  0.24810  0.40317  0.00113  1.0000
  H   H22       1.0  0.30267  0.34347  0.05445  1.0000
  C   C40       1.0  0.23026  0.27624  0.09926  1.0000
  C   C41       1.0  0.19740  0.26288  0.10179  1.0000
  C   C42       1.0  0.18248  0.28043  0.09696  1.0000
  C   C43       1.0  0.20024  0.31121  0.08892  1.0000
  C   C44       1.0  0.23303  0.32435  0.08610  1.0000
  C   C45       1.0  0.24808  0.30725  0.09176  1.0000
  H   H23       1.0  0.18343  0.23882  0.10743  1.0000
  H   H24       1.0  0.15712  0.26975  0.09860  1.0000
  H   H25       1.0  0.24685  0.34778  0.07931  1.0000
  H   H26       1.0  0.27336  0.31775  0.08974  1.0000
  C   C46       1.0  0.38306  0.38415  0.05334  1.0000
  C   C47       1.0  0.38659  0.35906  0.04619  1.0000
  C   C48       1.0  0.38912  0.35440  0.02318  1.0000
  C   C49       1.0  0.39066  0.37621  0.00736  1.0000
  C   C50       1.0  0.38794  0.40177  0.01453  1.0000
  C   C51       1.0  0.38383  0.40549  0.03746  1.0000
  H   H27       1.0  0.38762  0.34328  0.05834  1.0000
  H   H28       1.0  0.32361  0.41829  0.12108  1.0000
  H   H29       1.0  0.38753  0.41788  0.00237  1.0000
  H   H30       1.0  0.38024  0.42429  0.04286  1.0000
  H   H31       1.0  0.37513  0.17160  0.03004  1.0000
  C   C52       1.0  0.32559  0.40996  0.13755  1.0000
  H   H32       1.0  0.11550  0.06769  0.02378  1.0000
  H   H33       1.0  0.45390  0.37767  0.02791  1.0000
  C   C53       1.0  0.26614  0.43566  0.16680  1.0000
  C   C54       1.0  0.01987  0.45902  0.99595  1.0000
  P   P3        1.0  0.26855  0.40721  0.14893  1.0000
  C   C55       1.0  0.23486  0.36832  0.15289  1.0000
  C   C56       1.0  0.26951  0.42073  0.12052  1.0000
  C   C57       1.0  0.29189  0.45170  0.11458  1.0000
  C   C58       1.0  0.29224  0.46271  0.09276  1.0000
  C   C59       1.0  0.27012  0.44295  0.07682  1.0000
  C   C60       1.0  0.24781  0.41215  0.08268  1.0000
  C   C61       1.0  0.24739  0.40110  0.10445  1.0000
  C   C62       1.0  0.48581  0.28898  0.08795  1.0000
  C   C63       1.0  0.30558  0.33485  0.99786  1.0000
  C   C64       1.0  0.05519  0.01683  0.04061  1.0000
  H   H34       1.0  0.30582  0.06330  0.17060  1.0000
  H   H35       1.0  0.17231  0.43249  0.20837  1.0000
  C   C65       1.0  0.38543  0.07167  0.97819  1.0000
  C   C66       1.0  0.28572  0.40301  0.03678  1.0000
  H   H36       1.0  0.22952  0.37733  0.10868  1.0000
  H   H37       1.0  0.20384  0.38352  0.16701  1.0000
  H   H38       1.0  0.30031  0.40607  0.97411  1.0000
  C   C67       1.0  0.21992  0.43054  0.02638  1.0000
  H   H39       1.0  0.14684  0.15251  0.01937  1.0000
  P   P4        1.0  0.04361  0.44044  0.99737  1.0000
  C   C68       1.0  0.33044  0.38502  0.17882  1.0000
  H   H40       1.0  0.26602  0.04466  0.07346  1.0000
  C   C69       1.0  0.42571  0.24982  0.02284  1.0000
  H   H41       1.0  0.21288  0.29155  0.14430  1.0000
  H   H42       1.0  0.02448  0.33472  0.97333  1.0000
  H   H43       1.0  0.21430  0.41243  0.03879  1.0000
  S   S20       1.0  0.26653  0.03679  0.97689  1.0000
  H   H44       1.0  0.46740  0.43371  0.04762  1.0000
  H   H45       1.0  0.19851  0.02914  0.16821  1.0000
  C   C70       1.0  0.10577  0.48499  0.98597  1.0000
  H   H46       1.0  0.33596  0.05693  0.98291  1.0000
  C   C71       1.0  0.31005  0.44777  0.01158  1.0000
  C   C72       1.0  0.16989  0.32183  0.02227  1.0000
  H   H47       1.0  0.45259  0.24122  0.13324  1.0000
  C   C73       1.0  0.45177  0.33973  0.00856  1.0000
  C   C74       1.0  0.48414  0.29297  0.17456  1.0000
  H   H48       1.0  0.40524  0.24198  0.11880  1.0000
  H   H49       1.0  0.49030  0.24092  0.16333  1.0000
  C   C75       1.0  0.20642  0.36390  0.16199  1.0000
  H   H50       1.0  0.08031  0.41333  0.98183  1.0000
  C   C76       1.0  0.24052  0.23423  0.96957  1.0000
  C   C77       1.0  0.47243  0.30602  0.15900  1.0000
  C   C78       1.0  0.19021  0.35316  0.01632  1.0000
  H   H51       1.0  0.30898  0.46727  0.12686  1.0000
  C   C79       1.0  0.26133  0.47980  0.19394  1.0000
  C   C80       1.0  0.46438  0.36315  0.02505  1.0000
  C   C81       1.0  0.30964  0.34969  0.01861  1.0000
  H   H52       1.0  0.06217  0.04073  0.04525  1.0000
  C   C82       1.0  0.39915  0.23931  0.20059  1.0000
  C   C83       1.0  0.38720  0.28037  0.20930  1.0000
  H   H53       1.0  0.25915  0.49654  0.20452  1.0000
  C   C84       1.0  0.08322  0.47184  0.00326  1.0000
  H   H54       1.0  0.19952  0.45251  0.04621  1.0000
  C   C85       1.0  0.46468  0.32026  0.00514  1.0000
  H   H55       1.0  0.28556  0.10082  0.08118  1.0000
  H   H56       1.0  0.28775  0.11887  0.12053  1.0000
  H   H57       1.0  0.38107  0.26817  0.99315  1.0000
  S   S21       1.0  0.47160  0.02781  0.97263  1.0000
  H   H58       1.0  0.42800  0.46408  0.05912  1.0000
  C   C86       1.0  0.42893  0.18580  0.07805  1.0000
  C   C87       1.0  0.40522  0.15532  0.07272  1.0000
  C   C88       1.0  0.41293  0.13509  0.06159  1.0000
  C   C89       1.0  0.44435  0.14522  0.05589  1.0000
  C   C90       1.0  0.46842  0.17580  0.06131  1.0000
  C   C91       1.0  0.46031  0.19617  0.07211  1.0000
  H   H59       1.0  0.47272  0.21353  0.02721  1.0000
  C   C92       1.0  0.26759  0.05258  0.09068  1.0000
  C   C93       1.0  0.02451  0.32653  0.99027  1.0000
  H   H60       1.0  0.05481  0.38362  0.06258  1.0000
  C   C94       1.0  0.01224  0.34412  0.19883  1.0000
  H   H61       1.0  0.16979  0.08200  0.01213  1.0000
  C   C95       1.0  0.47089  0.17993  0.19906  1.0000
  C   C96       1.0  0.38718  0.27896  0.97659  1.0000
  H   H62       1.0  0.46455  0.43721  0.00615  1.0000
  C   C97       1.0  0.04257  0.42093  0.97145  1.0000
  C   C98       1.0  0.33189  0.03304  0.04464  1.0000
  C   C99       1.0  0.05010  0.40804  0.03400  1.0000
  H   H63       1.0  0.21765  0.49981  0.12473  1.0000
  H   H64       1.0  0.28789  0.38488  0.18802  1.0000
  C   C100      1.0  0.40212  0.02505  0.02040  1.0000
  H   H65       1.0  0.36707  0.40793  0.12799  1.0000
  C   C101      1.0  0.05175  0.33374  0.02581  1.0000
  H   H66       1.0  0.47440  0.03550  0.03424  1.0000
  C   C102      1.0  0.25397  0.40159  0.97131  1.0000
  H   H67       1.0  0.42300  0.20163  0.08654  1.0000
  H   H68       1.0  0.38082  0.14753  0.07693  1.0000
  H   H69       1.0  0.39447  0.11171  0.05690  1.0000
  H   H70       1.0  0.44944  0.12924  0.04680  1.0000
  C   C103      1.0  0.43498  0.03845  0.02070  1.0000
  C   C104      1.0  0.33705  0.46151  0.02522  1.0000
  C   C105      1.0  0.23530  0.47899  0.99545  1.0000
  C   C106      1.0  0.15667  0.09041  0.00254  1.0000
  C   C107      1.0  0.29929  0.06739  0.20593  1.0000
  S   S22       1.0  0.21087  0.12410  0.97732  1.0000
  C   C108      1.0  0.25805  0.02986  0.18103  1.0000
  H   H71       1.0  0.31401  0.40473  0.06535  1.0000
  H   H72       1.0  0.14103  0.00467  0.16176  1.0000
  H   H73       1.0  0.43788  0.27076  0.03296  1.0000
  C   C109      1.0  0.44902  0.02567  0.03437  1.0000
  H   H74       1.0  0.14647  0.31468  0.02865  1.0000
  C   C110      1.0  0.30315  0.40379  0.15449  1.0000
  H   H75       1.0  0.21109  0.03603  0.06256  1.0000
  H   H76       1.0  0.25824  0.34457  0.13886  1.0000
  C   C111      1.0  0.39086  0.19478  0.99794  1.0000
  H   H77       1.0  0.12127  0.00516  0.03130  1.0000
  C   C112      1.0  0.09122  0.48467  0.02502  1.0000
  C   C113      1.0  0.21046  0.30938  0.01288  1.0000
  H   H78       1.0  0.25413  0.34766  0.00070  1.0000
  C   C114      1.0  0.05078  0.34413  0.00409  1.0000
  C   C115      1.0  0.27857  0.08425  0.09503  1.0000
  C   C116      1.0  0.22103  0.36299  0.00906  1.0000
  C   C117      1.0  0.50694  0.39952  0.97135  1.0000
  C   C118      1.0  0.47134  0.19613  0.17954  1.0000
  C   C119      1.0  0.42769  0.25541  0.11030  1.0000
  H   H79       1.0  0.32239  0.37504  0.01954  1.0000
  H   H80       1.0  0.35915  0.45695  0.05537  1.0000
  C   C120      1.0  0.15745  0.46698  0.20772  1.0000
  C   C121      1.0  0.45450  0.25478  0.11835  1.0000
  S   S23       1.0  0.07224  0.08687  0.00797  1.0000
  H   H81       1.0  0.50174  0.31084  0.01551  1.0000
  H   H82       1.0  0.34043  0.27164  0.97064  1.0000
  H   H83       1.0  0.35685  0.48423  0.02067  1.0000
  H   H84       1.0  0.16542  0.23390  0.05771  1.0000
  C   C122      1.0  0.23075  0.34069  0.00690  1.0000
  C   C123      1.0  0.49112  0.32533  0.01790  1.0000
  C   C124      1.0  0.05730  0.34814  0.16818  1.0000
  C   C125      1.0  0.18274  0.30759  0.15808  1.0000
  C   C126      1.0  0.40912  0.22344  0.98683  1.0000
  H   H85       1.0  0.43199  0.33694  0.99858  1.0000
  H   H86       1.0  0.20216  0.17903  0.00667  1.0000
  C   C127      1.0  0.24370  0.44476  0.16186  1.0000
  H   H87       1.0  0.12404  0.48190  0.16256  1.0000
  H   H88       1.0  0.15835  0.33061  0.17091  1.0000
  C   C128      1.0  0.45886  0.28913  0.07970  1.0000
  C   C129      1.0  0.16176  0.44324  0.19833  1.0000
  H   H89       1.0  0.27033  0.08108  0.15192  1.0000
  H   H90       1.0  0.46057  0.30231  0.06469  1.0000
  C   C130      1.0  0.33836  0.44613  0.04467  1.0000
  C   C131      1.0  0.18010  0.30000  0.02079  1.0000
  C   C132      1.0  0.40717  0.22124  0.03387  1.0000
  C   C133      1.0  0.33145  0.05498  0.05933  1.0000
  C   C134      1.0  0.02660  0.30561  0.03375  1.0000
  H   H91       1.0  0.32735  0.07317  0.05271  1.0000
  H   H92       1.0  0.40570  0.22069  0.05211  1.0000
  H   H93       1.0  0.13967  0.44480  0.97538  1.0000
  H   H94       1.0  0.44725  0.29700  0.15765  1.0000
  H   H95       1.0  0.12814  0.17961  0.04472  1.0000
  H   H96       1.0  0.16452  0.27590  0.02589  1.0000
  C   C135      1.0  0.28656  0.44937  0.18527  1.0000
  C   C136      1.0  0.06556  0.37169  0.18424  1.0000
  H   H97       1.0  0.22764  0.43455  0.14768  1.0000
  C   C137      1.0  0.10856  0.09326  0.99694  1.0000
  H   H98       1.0  0.45673  0.18349  0.16521  1.0000
  C   C138      1.0  0.50788  0.24557  0.19754  1.0000
  H   H99       1.0  0.44943  0.05871  0.01026  1.0000
  H   H100      1.0  0.47821  0.22026  0.07572  1.0000
  C   C139      1.0  0.12581  0.08221  0.00905  1.0000
  H   H101      1.0  0.39024  0.33406  0.01782  1.0000
  H   H102      1.0  0.07199  0.34766  0.03653  1.0000
  C   C140      1.0  0.42710  0.25120  0.99918  1.0000
  H   H103      1.0  0.07389  0.47551  0.03842  1.0000
  C   C141      1.0  0.21927  0.47757  0.01524  1.0000
  H   H104      1.0  0.07525  0.42441  0.03339  1.0000
  C   C142      1.0  0.02492  0.48015  0.97838  1.0000
  H   H105      1.0  0.17826  0.04218  0.03339  1.0000
  C   C143      1.0  0.36007  0.07494  0.98635  1.0000
  P   P5        1.0  0.25641  0.24141  0.01516  1.0000
  C   C144      1.0  0.21566  0.22257  0.02441  1.0000
  C   C145      1.0  0.27874  0.23117  0.03414  1.0000
  C   C146      1.0  0.26563  0.21546  0.05452  1.0000
  C   C147      1.0  0.28373  0.20878  0.06940  1.0000
  C   C148      1.0  0.31489  0.21751  0.06399  1.0000
  C   C149      1.0  0.32816  0.23343  0.04386  1.0000
  C   C150      1.0  0.31038  0.24075  0.02918  1.0000
  C   C151      1.0  0.20490  0.23764  0.03904  1.0000
  C   C152      1.0  0.17344  0.22222  0.04626  1.0000
  C   C153      1.0  0.15249  0.19165  0.03905  1.0000
  C   C154      1.0  0.16303  0.17638  0.02472  1.0000
  C   C155      1.0  0.19447  0.19165  0.01749  1.0000
  C   C156      1.0  0.27642  0.28385  0.01617  1.0000
  C   C157      1.0  0.28911  0.30208  0.99660  1.0000
  C   C158      1.0  0.17103  0.11075  0.98437  1.0000
  C   C159      1.0  0.18579  0.02021  0.06230  1.0000
  C   C160      1.0  0.29818  0.33187  0.03824  1.0000
  C   C161      1.0  0.28192  0.29910  0.03708  1.0000
  H   H106      1.0  0.50481  0.39999  0.98948  1.0000
  H   H107      1.0  0.30450  0.44340  0.18925  1.0000
  H   H108      1.0  0.07066  0.36571  0.99800  1.0000
  H   H109      1.0  0.27833  0.20020  0.99534  1.0000
  C   C162      1.0  0.34245  0.00820  0.07617  1.0000
  H   H110      1.0  0.24175  0.20895  0.05933  1.0000
  H   H111      1.0  0.27374  0.19741  0.08536  1.0000
  H   H112      1.0  0.32908  0.21275  0.07568  1.0000
  H   H113      1.0  0.35257  0.24085  0.03999  1.0000
  H   H114      1.0  0.32133  0.25406  0.01404  1.0000
  H   H115      1.0  0.22049  0.26102  0.04526  1.0000
  C   C163      1.0  0.35274  0.39144  0.16194  1.0000
  C   C164      1.0  0.23690  0.34194  0.14645  1.0000
  H   H116      1.0  0.29540  0.29089  0.18836  1.0000
  H   H117      1.0  0.48379  0.33954  0.13227  1.0000
  S   S24       1.0  0.45001  0.09441  0.97129  1.0000
  H   H118      1.0  0.07491  0.34956  0.15647  1.0000
  H   H119      1.0  0.13554  0.45695  0.01510  1.0000
  H   H120      1.0  0.18174  0.36947  0.01755  1.0000
  H   H121      1.0  0.24175  0.49801  0.98354  1.0000
  H   H122      1.0  0.22319  0.47268  0.17181  1.0000
  S   S25       1.0  0.02729  0.29317  0.10862  1.0000
  P   P6        1.0  0.24533  0.01260  0.15341  1.0000
  H   H123      1.0  0.24773  0.01193  0.02989  1.0000
  C   C165      1.0  0.49010  0.22881  0.17865  1.0000
  C   C166      1.0  0.30566  0.39102  0.17509  1.0000
  C   C167      1.0  0.38979  0.19373  0.02146  1.0000
  H   H124      1.0  0.29980  0.48177  0.21307  1.0000
  C   C168      1.0  0.33680  0.05375  0.08237  1.0000
  H   H125      1.0  0.02786  0.29765  0.05057  1.0000
  C   C169      1.0  0.02928  0.40991  0.01852  1.0000
  C   C170      1.0  0.26022  0.04114  0.13084  1.0000
  H   H126      1.0  0.40857  0.22399  0.96863  1.0000
  H   H127      1.0  0.46769  0.27412  0.18544  1.0000
  C   C171      1.0  0.41682  0.09520  0.98230  1.0000
  Fe  Fe11      1.0  0.22148  0.02769  0.99324  1.0000
  C   C172      1.0  0.21192  0.45357  0.03081  1.0000
  H   H128      1.0  0.49967  0.38546  0.05096  1.0000
  H   H129      1.0  0.40630  0.47354  0.02365  1.0000
  C   C173      1.0  0.02635  0.32281  0.16711  1.0000
  H   H130      1.0  0.50812  0.30191  0.07921  1.0000
  C   C174      1.0  0.27741  0.31257  0.21089  1.0000
  C   C175      1.0  0.24118  0.46652  0.17546  1.0000
  H   H131      1.0  0.10000  0.47656  0.96879  1.0000
  S   S26       1.0  0.41022  0.21186  0.20899  1.0000
  H   H132      1.0  0.04957  0.38776  0.21226  1.0000
  C   C176      1.0  0.06355  0.40968  0.96867  1.0000
  H   H133      1.0  0.27041  0.45146  0.05990  1.0000
  H   H134      1.0  0.26580  0.38080  0.04201  1.0000
  H   H135      1.0  0.32870  0.03512  0.02677  1.0000
  H   H136      1.0  0.26736  0.31978  0.19742  1.0000
  H   H137      1.0  0.37705  0.17328  0.98843  1.0000
  H   H138      1.0  0.08946  0.39135  0.18490  1.0000
  C   C177      1.0  0.49310  0.33019  0.14475  1.0000
  C   C178      1.0  0.16730  0.02373  0.04585  1.0000
  Fe  Fe12      1.0  0.02733  0.07079  0.98746  1.0000
  H   H139      1.0  0.24921  0.00647  0.10474  1.0000
  C   C179      1.0  0.33697  0.00921  0.05303  1.0000
  H   H140      1.0  0.50540  0.34342  0.96936  1.0000
  H   H141      1.0  0.02458  0.01526  0.01388  1.0000
  H   H142      1.0  0.32325  0.08659  0.20852  1.0000
  H   H143      1.0  0.34721  0.02984  0.10852  1.0000
  H   H144      1.0  0.21249  0.49504  0.01850  1.0000
  C   C180      1.0  0.04307  0.36964  0.19963  1.0000
  C   C181      1.0  0.25603  0.22755  0.98684  1.0000
  C   C182      1.0  0.49761  0.22831  0.02350  1.0000
  H   H145      1.0  0.38066  0.05112  0.96864  1.0000
  H   H146      1.0  0.48892  0.25801  0.00183  1.0000
  C   C183      1.0  0.48740  0.44759  0.01446  1.0000
  C   C184      1.0  0.48904  0.44554  0.03786  1.0000
  C   C185      1.0  0.44139  0.48587  0.04987  1.0000
  C   C186      1.0  0.15393  0.12200  0.97230  1.0000
  C   C187      1.0  0.26855  0.20797  0.98212  1.0000
  H   H147      1.0  0.28719  0.29136  0.98041  1.0000
  H   H148      1.0  0.10983  0.12211  0.96920  1.0000
  H   H149      1.0  0.31588  0.34886  0.98284  1.0000
  H   H150      1.0  0.22929  0.24794  0.97313  1.0000
  S   S27       1.0  0.38178  0.49799  0.97384  1.0000
  H   H151      1.0  0.29626  0.01064  0.12801  1.0000
  H   H152      1.0  0.50486  0.20452  0.10085  1.0000
  C   C188      1.0  0.49028  0.36766  0.03796  1.0000
  C   C189      1.0  0.50382  0.34894  0.03423  1.0000
  C   C190      1.0  0.47923  0.29276  0.96675  1.0000
  C   C191      1.0  0.06858  0.15286  0.45890  1.0000
  S   S28       1.0  0.14608  0.48383  0.26869  1.0000
  H   H153      1.0  0.19854  0.35818  0.35392  1.0000
  H   H154      1.0  0.03248  0.35099  0.25529  1.0000
  C   C192      1.0  0.13276  0.40290  0.31619  1.0000
  Fe  Fe13      1.0  0.30874  0.30139  0.45655  1.0000
  H   H155      1.0  0.42067  0.37187  0.24053  1.0000
  H   H156      1.0  0.31880  0.19028  0.23098  1.0000
  Fe  Fe14      1.0  0.10533  0.48204  0.28764  1.0000
  S   S29       1.0  0.06251  0.44199  0.30483  1.0000
  C   C193      1.0  0.41492  0.30825  0.26752  1.0000
  C   C194      1.0  0.46704  0.46508  0.34479  1.0000
  C   C195      1.0  0.46483  0.42328  0.29064  1.0000
  H   H157      1.0  0.16252  0.29517  0.29754  1.0000
  H   H158      1.0  0.27006  0.21743  0.39050  1.0000
  H   H159      1.0  0.41659  0.33538  0.32343  1.0000
  C   C196      1.0  0.46988  0.42478  0.44913  1.0000
  Fe  Fe15      1.0  0.10210  0.10049  0.39462  1.0000
  S   S30       1.0  0.12308  0.14163  0.37032  1.0000
  H   H160      1.0  0.47204  0.03222  0.42600  1.0000
  H   H161      1.0  0.32865  0.19984  0.44921  1.0000
  S   S31       1.0  0.13173  0.09454  0.42069  1.0000
  S   S32       1.0  0.06619  0.03155  0.43761  1.0000
  Fe  Fe16      1.0  0.37472  0.19891  0.29096  1.0000
  S   S33       1.0  0.39499  0.17280  0.30872  1.0000
  S   S34       1.0  0.34418  0.21576  0.30682  1.0000
  Fe  Fe17      1.0  0.40495  0.19945  0.24594  1.0000
  S   S35       1.0  0.42804  0.17359  0.26030  1.0000
  Fe  Fe18      1.0  0.38099  0.14290  0.27741  1.0000
  S   S36       1.0  0.35466  0.08966  0.27331  1.0000
  Fe  Fe19      1.0  0.43974  0.20603  0.28995  1.0000
  S   S37       1.0  0.48519  0.23711  0.30903  1.0000
  S   S38       1.0  0.35758  0.16702  0.26089  1.0000
  S   S39       1.0  0.41977  0.23382  0.27428  1.0000
  H   H162      1.0  0.16224  0.37793  0.34492  1.0000
  S   S40       1.0  0.30381  0.33417  0.43265  1.0000
  S   S41       1.0  0.06319  0.09284  0.41854  1.0000
  Fe  Fe20      1.0  0.33638  0.27839  0.42027  1.0000
  S   S42       1.0  0.33339  0.30973  0.39423  1.0000
  S   S43       1.0  0.35402  0.24531  0.41125  1.0000
  Fe  Fe21      1.0  0.35291  0.34686  0.42104  1.0000
  S   S44       1.0  0.39132  0.39555  0.40944  1.0000
  Fe  Fe22      1.0  0.28501  0.29339  0.40850  1.0000
  S   S45       1.0  0.24153  0.27880  0.38650  1.0000
  S   S46       1.0  0.35888  0.31631  0.44650  1.0000
  S   S47       1.0  0.28716  0.26008  0.43300  1.0000
  C   C197      1.0  0.34662  0.22258  0.33596  1.0000
  C   C198      1.0  0.33082  0.23713  0.34493  1.0000
  C   C199      1.0  0.33291  0.24391  0.36798  1.0000
  C   C200      1.0  0.35047  0.23588  0.38234  1.0000
  C   C201      1.0  0.36590  0.22079  0.37344  1.0000
  C   C202      1.0  0.36401  0.21416  0.35024  1.0000
  H   H163      1.0  0.31692  0.24320  0.33402  1.0000
  H   H164      1.0  0.32029  0.25476  0.37461  1.0000
  H   H165      1.0  0.37948  0.21442  0.38444  1.0000
  H   H166      1.0  0.37597  0.20257  0.34348  1.0000
  C   C203      1.0  0.15679  0.17891  0.37594  1.0000
  C   C204      1.0  0.16014  0.20473  0.36366  1.0000
  C   C205      1.0  0.18618  0.23483  0.36717  1.0000
  C   C206      1.0  0.20977  0.23975  0.38279  1.0000
  C   C207      1.0  0.20695  0.21391  0.39488  1.0000
  C   C208      1.0  0.18045  0.18352  0.39154  1.0000
  H   H167      1.0  0.14226  0.20146  0.35143  1.0000
  H   H168      1.0  0.18804  0.25445  0.35767  1.0000
  H   H169      1.0  0.22488  0.21734  0.40705  1.0000
  H   H170      1.0  0.17847  0.16377  0.40093  1.0000
  C   C209      1.0  0.28573  0.17549  0.25854  1.0000
  H   H171      1.0  0.27799  0.15084  0.25649  1.0000
  C   C210      1.0  0.43916  0.40660  0.44009  1.0000
  C   C211      1.0  0.43014  0.41699  0.42102  1.0000
  C   C212      1.0  0.45252  0.44531  0.41074  1.0000
  C   C213      1.0  0.33620  0.30432  0.31175  1.0000
  C   C214      1.0  0.01460  0.48688  0.40175  1.0000
  C   C215      1.0  0.50414  0.30156  0.25883  1.0000
  H   H172      1.0  0.44584  0.45363  0.39600  1.0000
  Fe  Fe23      1.0  0.04107  0.04149  0.41021  1.0000
  C   C216      1.0  0.50666  0.33130  0.35012  1.0000
  C   C217      1.0  0.11865  0.48961  0.45173  1.0000
  C   C218      1.0  0.31755  0.06912  0.31182  1.0000
  C   C219      1.0  0.32063  0.06387  0.28904  1.0000
  C   C220      1.0  0.29706  0.03625  0.27881  1.0000
  C   C221      1.0  0.08072  0.32346  0.34673  1.0000
  C   C222      1.0  0.17770  0.29335  0.46297  1.0000
  H   H173      1.0  0.33571  0.09011  0.31998  1.0000
  H   H174      1.0  0.29960  0.03164  0.26141  1.0000
  C   C223      1.0  0.02661  0.46991  0.43698  1.0000
  C   C224      1.0  0.03652  0.40424  0.29367  1.0000
  H   H175      1.0  0.20417  0.47055  0.31172  1.0000
  H   H176      1.0  0.10978  0.37318  0.46125  1.0000
  H   H177      1.0  0.24972  0.27779  0.32855  1.0000
  H   H178      1.0  0.40006  0.25647  0.23403  1.0000
  C   C225      1.0  0.04488  0.39213  0.27532  1.0000
  C   C226      1.0  0.08436  0.34290  0.23494  1.0000
  H   H179      1.0  0.49947  0.42101  0.36117  1.0000
  Fe  Fe24      1.0  0.10385  0.04344  0.41194  1.0000
  H   H180      1.0  0.06712  0.40659  0.26680  1.0000
  H   H181      1.0  0.25622  0.16812  0.28737  1.0000
  C   C227      1.0  0.27536  0.32013  0.23328  1.0000
  C   C228      1.0  0.17299  0.16064  0.46086  1.0000
  C   C229      1.0  0.14206  0.32463  0.30243  1.0000
  H   H182      1.0  0.11843  0.39164  0.22945  1.0000
  C   C230      1.0  0.44980  0.27525  0.34185  1.0000
  C   C231      1.0  0.07960  0.33946  0.32740  1.0000
  H   H183      1.0  0.29794  0.10820  0.27423  1.0000
  C   C232      1.0  0.30296  0.29304  0.24570  1.0000
  H   H184      1.0  0.12637  0.31472  0.28812  1.0000
  C   C233      1.0  0.30870  0.19766  0.24421  1.0000
  C   C234      1.0  0.29577  0.12991  0.30509  1.0000
  C   C235      1.0  0.30560  0.28634  0.22304  1.0000
  C   C236      1.0  0.06965  0.31890  0.25083  1.0000
  H   H185      1.0  0.04950  0.34957  0.30658  1.0000
  H   H186      1.0  0.06661  0.30580  0.28560  1.0000
  C   C237      1.0  0.28064  0.27948  0.30192  1.0000
  H   H187      1.0  0.17340  0.49236  0.32890  1.0000
  H   H188      1.0  0.25281  0.20713  0.35067  1.0000
  C   C238      1.0  0.49611  0.38917  0.28648  1.0000
  H   H189      1.0  0.47630  0.41691  0.46424  1.0000
  C   C239      1.0  0.16638  0.48921  0.44170  1.0000
  H   H190      1.0  0.21687  0.24909  0.44567  1.0000
  H   H191      1.0  0.39069  0.03576  0.35539  1.0000
  C   C240      1.0  0.36082  0.02594  0.32620  1.0000
  H   H192      1.0  0.44713  0.46368  0.33571  1.0000
  H   H193      1.0  0.22315  0.32873  0.45036  1.0000
  H   H194      1.0  0.31808  0.27423  0.21843  1.0000
  H   H195      1.0  0.16499  0.47461  0.22480  1.0000
  H   H196      1.0  0.05942  0.49061  0.40945  1.0000
  H   H197      1.0  0.36387  0.04932  0.32543  1.0000
  C   C241      1.0  0.49418  0.32362  0.32824  1.0000
  C   C242      1.0  0.14575  0.50079  0.43846  1.0000
  H   H198      1.0  0.39946  0.28874  0.34761  1.0000
  S   S48       1.0  0.12847  0.01541  0.41058  1.0000
  C   C243      1.0  0.46585  0.29578  0.32414  1.0000
  H   H199      1.0  0.07773  0.33820  0.21733  1.0000
  C   C244      1.0  0.49213  0.45328  0.43904  1.0000
  H   H200      1.0  0.42226  0.38493  0.44821  1.0000
  C   C245      1.0  0.15775  0.17296  0.44801  1.0000
  C   C246      1.0  0.27390  0.28561  0.32359  1.0000
  H   H201      1.0  0.48598  0.28794  0.27108  1.0000
  H   H202      1.0  0.12297  0.00554  0.33073  1.0000
  C   C247      1.0  0.49666  0.44125  0.35897  1.0000
  C   C248      1.0  0.46289  0.02243  0.35713  1.0000
  H   H203      1.0  0.44899  0.26690  0.37749  1.0000
  C   C249      1.0  0.05336  0.30533  0.35944  1.0000
  C   C250      1.0  0.12996  0.44784  0.33002  1.0000
  H   H204      1.0  0.50118  0.39950  0.41511  1.0000
  H   H205      1.0  0.48467  0.26508  0.23395  1.0000
  C   C251      1.0  0.11622  0.37890  0.26452  1.0000
  H   H206      1.0  0.49940  0.31573  0.38494  1.0000
  C   C252      1.0  0.37738  0.33317  0.25334  1.0000
  H   H207      1.0  0.42935  0.29832  0.27261  1.0000
  H   H208      1.0  0.45347  0.43725  0.29228  1.0000
  C   C253      1.0  0.21939  0.21224  0.46357  1.0000
  C   C254      1.0  0.07834  0.32473  0.27354  1.0000
  H   H209      1.0  0.48949  0.18386  0.23264  1.0000
  C   C255      1.0  0.38230  0.29151  0.27124  1.0000
  H   H210      1.0  0.36039  0.31119  0.30787  1.0000
  H   H211      1.0  0.26376  0.33338  0.23719  1.0000
  H   H212      1.0  0.32897  0.00949  0.29821  1.0000
  H   H213      1.0  0.16219  0.21405  0.43185  1.0000
  H   H214      1.0  0.49767  0.36900  0.38122  1.0000
  C   C256      1.0  0.28839  0.31075  0.25061  1.0000
  H   H215      1.0  0.47899  0.37176  0.31969  1.0000
  C   C257      1.0  0.28379  0.10633  0.28879  1.0000
  H   H216      1.0  0.18756  0.49813  0.43154  1.0000
  C   C258      1.0  0.27334  0.18525  0.27585  1.0000
  H   H217      1.0  0.42921  0.34726  0.40649  1.0000
  H   H218      1.0  0.05135  0.29579  0.24555  1.0000
  H   H219      1.0  0.02097  0.42626  0.37852  1.0000
  H   H220      1.0  0.02612  0.13199  0.43882  1.0000
  H   H221      1.0  0.37192  0.26887  0.27945  1.0000
  C   C259      1.0  0.11523  0.41575  0.32524  1.0000
  C   C260      1.0  0.49229  0.01026  0.38427  1.0000
  C   C261      1.0  0.02593  0.45375  0.34892  1.0000
  C   C262      1.0  0.19913  0.09221  0.43829  1.0000
  C   C263      1.0  0.20791  0.12127  0.44803  1.0000
  C   C264      1.0  0.18290  0.32550  0.32628  1.0000
  C   C265      1.0  0.16257  0.31342  0.30774  1.0000
  H   H222      1.0  0.09466  0.03551  0.33125  1.0000
  C   C266      1.0  0.20008  0.30917  0.44607  1.0000
  C   C267      1.0  0.45192  0.01331  0.45838  1.0000
  H   H223      1.0  0.12138  0.00756  0.28226  1.0000
  C   C268      1.0  0.16234  0.36014  0.33427  1.0000
  C   C269      1.0  0.02351  0.31904  0.33389  1.0000
  H   H224      1.0  0.18817  0.04475  0.44419  1.0000
  H   H225      1.0  0.19427  0.08870  0.42037  1.0000
  H   H226      1.0  0.21049  0.14026  0.43730  1.0000
  H   H227      1.0  0.27449  0.22397  0.29275  1.0000
  H   H228      1.0  0.45543  0.03835  0.35077  1.0000
  C   C270      1.0  0.31935  0.22955  0.24723  1.0000
  C   C271      1.0  0.17352  0.20481  0.44259  1.0000
  H   H229      1.0  0.28729  0.31771  0.26767  1.0000
  H   H230      1.0  0.06478  0.22944  0.45490  1.0000
  H   H231      1.0  0.31910  0.15016  0.30309  1.0000
  C   C272      1.0  0.25418  0.07967  0.29181  1.0000
  C   C273      1.0  0.29138  0.04664  0.32423  1.0000
  C   C274      1.0  0.17947  0.45500  0.31583  1.0000
  H   H232      1.0  0.48381  0.44199  0.25780  1.0000
  H   H233      1.0  0.28959  0.05042  0.34193  1.0000
  C   C275      1.0  0.27853  0.05567  0.22417  1.0000
  S   S49       1.0  0.07698  0.04966  0.38350  1.0000
  Fe  Fe25      1.0  0.09134  0.08329  0.44379  1.0000
  C   C276      1.0  0.05084  0.33733  0.32128  1.0000
  C   C277      1.0  0.41002  0.34974  0.24952  1.0000
  C   C278      1.0  0.14858  0.36457  0.46391  1.0000
  H   H234      1.0  0.45686  0.28936  0.30713  1.0000
  H   H235      1.0  0.05424  0.29276  0.37418  1.0000
  H   H236      1.0  0.23205  0.02054  0.23536  1.0000
  P   P7        1.0  0.32083  0.28129  0.26767  1.0000
  H   H237      1.0  0.02418  0.47679  0.31888  1.0000
  H   H238      1.0  0.39943  0.37916  0.29508  1.0000
  C   C279      1.0  0.47898  0.38634  0.30603  1.0000
  P   P8        1.0  0.11409  0.36150  0.30983  1.0000
  C   C280      1.0  0.48338  0.46327  0.41963  1.0000
  H   H239      1.0  0.42843  0.25319  0.33845  1.0000
  C   C281      1.0  0.50386  0.28841  0.23793  1.0000
  C   C282      1.0  0.31194  0.28908  0.29572  1.0000
  C   C283      1.0  0.29833  0.30153  0.33914  1.0000
  H   H240      1.0  0.19859  0.31660  0.33049  1.0000
  C   C284      1.0  0.14836  0.26700  0.45779  1.0000
  C   C285      1.0  0.14176  0.34808  0.31568  1.0000
  H   H241      1.0  0.17864  0.41376  0.30335  1.0000
  H   H242      1.0  0.07511  0.40337  0.45664  1.0000
  C   C286      1.0  0.48998  0.31078  0.36795  1.0000
  C   C287      1.0  0.01019  0.46035  0.33194  1.0000
  C   C288      1.0  0.49786  0.40918  0.26911  1.0000
  C   C289      1.0  0.31562  0.20390  0.46225  1.0000
  C   C290      1.0  0.03577  0.48301  0.41543  1.0000
  C   C291      1.0  0.10741  0.37294  0.24180  1.0000
  H   H243      1.0  0.02192  0.49775  0.38527  1.0000
  C   C292      1.0  0.16489  0.42290  0.31112  1.0000
  C   C293      1.0  0.26759  0.01930  0.31385  1.0000
  C   C294      1.0  0.48216  0.42620  0.27117  1.0000
  C   C295      1.0  0.06582  0.20805  0.45635  1.0000
  C   C296      1.0  0.19330  0.29892  0.42378  1.0000
  C   C297      1.0  0.16396  0.27312  0.41830  1.0000
  C   C298      1.0  0.14151  0.25728  0.43516  1.0000
  C   C299      1.0  0.02518  0.36059  0.26882  1.0000
  H   H244      1.0  0.44566  0.39386  0.38278  1.0000
  H   H245      1.0  0.29311  0.30643  0.35586  1.0000
  H   H246      1.0  0.12258  0.06148  0.46391  1.0000
  H   H247      1.0  0.09013  0.40133  0.32835  1.0000
  C   C300      1.0  0.19574  0.06741  0.45172  1.0000
  H   H248      1.0  0.34466  0.01953  0.22890  1.0000
  C   C301      1.0  0.04250  0.18073  0.44589  1.0000
  C   C302      1.0  0.27043  0.01429  0.29101  1.0000
  C   C303      1.0  0.42866  0.33702  0.25629  1.0000
  H   H249      1.0  0.06983  0.13160  0.45970  1.0000
  C   C304      1.0  0.36318  0.30355  0.26378  1.0000
  H   H250      1.0  0.05151  0.46517  0.34869  1.0000
  H   H251      1.0  0.04322  0.46685  0.44720  1.0000
  H   H252      1.0  0.21110  0.31046  0.41082  1.0000
  H   H253      1.0  0.15912  0.26471  0.40105  1.0000
  H   H254      1.0  0.11954  0.23672  0.43040  1.0000
  C   C305      1.0  0.35936  0.39979  0.34312  1.0000
  C   C306      1.0  0.34353  0.38785  0.32269  1.0000
  C   C307      1.0  0.35833  0.38098  0.30529  1.0000
  C   C308      1.0  0.38893  0.38597  0.30834  1.0000
  C   C309      1.0  0.40523  0.39874  0.32863  1.0000
  C   C310      1.0  0.39004  0.40514  0.34610  1.0000
  P   P9        1.0  0.44304  0.40194  0.33394  1.0000
  C   C311      1.0  0.43402  0.36836  0.35121  1.0000
  C   C312      1.0  0.42031  0.33840  0.34146  1.0000
  C   C313      1.0  0.41055  0.31193  0.35508  1.0000
  C   C314      1.0  0.41452  0.31521  0.37845  1.0000
  C   C315      1.0  0.42746  0.34485  0.38829  1.0000
  C   C316      1.0  0.43697  0.37131  0.37474  1.0000
  H   H255      1.0  0.34772  0.40436  0.35692  1.0000
  H   H256      1.0  0.31958  0.38333  0.32056  1.0000
  C   C317      1.0  0.46159  0.28293  0.36380  1.0000
  H   H257      1.0  0.24543  0.06077  0.27962  1.0000
  H   H258      1.0  0.40166  0.41361  0.36227  1.0000
  H   H259      1.0  0.13407  0.40237  0.26940  1.0000
  C   C318      1.0  0.02473  0.30300  0.35295  1.0000
  H   H260      1.0  0.40700  0.29474  0.38900  1.0000
  C   C319      1.0  0.16208  0.46741  0.32546  1.0000
  H   H261      1.0  0.02349  0.18100  0.43663  1.0000
  H   H262      1.0  0.45360  0.34899  0.25229  1.0000
  H   H263      1.0  0.33754  0.24620  0.23623  1.0000
  H   H264      1.0  0.26142  0.26694  0.29006  1.0000
  H   H265      1.0  0.10244  0.32453  0.35196  1.0000
  C   C320      1.0  0.47017  0.43845  0.34754  1.0000
  C   C321      1.0  0.46282  0.40304  0.30809  1.0000
  C   C322      1.0  0.28338  0.18278  0.46526  1.0000
  H   H266      1.0  0.19897  0.01807  0.41395  1.0000
  H   H267      1.0  0.13887  0.34577  0.45163  1.0000
  H   H268      1.0  0.34575  0.37093  0.28968  1.0000
  C   C323      1.0  0.10196  0.35471  0.28056  1.0000
  H   H269      1.0  0.25247  0.02376  0.41518  1.0000
  H   H270      1.0  0.34831  0.32264  0.34548  1.0000
  H   H271      1.0  0.36323  0.34303  0.24745  1.0000
  C   C324      1.0  0.23647  0.07667  0.31106  1.0000
  C   C325      1.0  0.24797  0.10065  0.32732  1.0000
  C   C326      1.0  0.27809  0.12717  0.32428  1.0000
  P   P10       1.0  0.22609  0.09604  0.35300  1.0000
  C   C327      1.0  0.18413  0.07686  0.34676  1.0000
  C   C328      1.0  0.23416  0.07259  0.37237  1.0000
  C   C329      1.0  0.21082  0.05199  0.38739  1.0000
  C   C330      1.0  0.21735  0.03430  0.40270  1.0000
  C   C331      1.0  0.24740  0.03749  0.40336  1.0000
  C   C332      1.0  0.27092  0.05831  0.38867  1.0000
  C   C333      1.0  0.26439  0.07591  0.37328  1.0000
  C   C334      1.0  0.16774  0.09356  0.34724  1.0000
  C   C335      1.0  0.13567  0.07869  0.34153  1.0000
  C   C336      1.0  0.11957  0.04704  0.33544  1.0000
  C   C337      1.0  0.13548  0.03013  0.33527  1.0000
  C   C338      1.0  0.16743  0.04476  0.34129  1.0000
  C   C339      1.0  0.23954  0.13436  0.36517  1.0000
  C   C340      1.0  0.24111  0.15867  0.35177  1.0000
  C   C341      1.0  0.25170  0.18841  0.36098  1.0000
  C   C342      1.0  0.26134  0.19423  0.38348  1.0000
  C   C343      1.0  0.26029  0.17039  0.39686  1.0000
  C   C344      1.0  0.24926  0.14046  0.38783  1.0000
  H   H272      1.0  0.21427  0.05523  0.31323  1.0000
  H   H273      1.0  0.28841  0.14562  0.33681  1.0000
  H   H274      1.0  0.18756  0.04960  0.38731  1.0000
  C   C345      1.0  0.45161  0.01430  0.43482  1.0000
  C   C346      1.0  0.04392  0.15313  0.44713  1.0000
  H   H275      1.0  0.29423  0.06077  0.38908  1.0000
  H   H276      1.0  0.28295  0.09208  0.36211  1.0000
  H   H277      1.0  0.17921  0.11793  0.35219  1.0000
  H   H278      1.0  0.12324  0.09177  0.34210  1.0000
  H   H279      1.0  0.28641  0.06602  0.24072  1.0000
  H   H280      1.0  0.11620  0.45767  0.33674  1.0000
  H   H281      1.0  0.17900  0.03088  0.34176  1.0000
  H   H282      1.0  0.23414  0.15461  0.33419  1.0000
  H   H283      1.0  0.26850  0.17542  0.41413  1.0000
  H   H284      1.0  0.24881  0.12242  0.39851  1.0000
  C   C347      1.0  0.28386  0.21721  0.27881  1.0000
  C   C348      1.0  0.30712  0.23975  0.26452  1.0000
  C   C349      1.0  0.32942  0.31072  0.33327  1.0000
  H   H285      1.0  0.17627  0.45782  0.46044  1.0000
  C   C350      1.0  0.18283  0.34890  0.33950  1.0000
  H   H286      1.0  0.27204  0.16238  0.45451  1.0000
  H   H287      1.0  0.13399  0.15759  0.44180  1.0000
  C   C351      1.0  0.48265  0.03075  0.37601  1.0000
  C   C352      1.0  0.20443  0.22441  0.45020  1.0000
  H   H288      1.0  0.49050  0.05305  0.38433  1.0000
  H   H289      1.0  0.50006  0.48537  0.41194  1.0000
  H   H290      1.0  0.38468  0.29513  0.22144  1.0000
  H   H291      1.0  0.16086  0.13576  0.46440  1.0000
  H   H292      1.0  0.10305  0.49914  0.44959  1.0000
  H   H293      1.0  0.50671  0.33858  0.31425  1.0000
  C   C353      1.0  0.02352  0.50052  0.25008  1.0000
  C   C354      1.0  0.00875  0.43169  0.36560  1.0000
  C   C355      1.0  0.15985  0.46630  0.45812  1.0000
  C   C356      1.0  0.37595  0.01832  0.34300  1.0000
  C   C357      1.0  0.24792  0.03034  0.22110  1.0000
  C   C358      1.0  0.49002  0.49403  0.35354  1.0000
  H   H294      1.0  0.50763  0.01675  0.39892  1.0000
  H   H295      1.0  0.01758  0.36673  0.45667  1.0000
  C   C359      1.0  0.48977  0.19637  0.21752  1.0000
  C   C360      1.0  0.34124  0.00329  0.31053  1.0000
  C   C361      1.0  0.39587  0.25847  0.21639  1.0000
  P   P11       1.0  0.05482  0.26036  0.70088  1.0000
  H   H296      1.0  0.15032  0.42693  0.57317  1.0000
  H   H297      1.0  0.16998  0.42446  0.65600  1.0000
  C   C362      1.0  0.06474  0.46402  0.52242  1.0000
  S   S50       1.0  0.09916  0.10139  0.47906  1.0000
  C   C363      1.0  0.01485  0.42735  0.50501  1.0000
  H   H298      1.0  0.03460  0.12961  0.67219  1.0000
  Fe  Fe26      1.0  0.16863  0.31240  0.55948  1.0000
  S   S51       1.0  0.11619  0.29344  0.56282  1.0000
  S   S52       1.0  0.19510  0.33386  0.52698  1.0000
  Fe  Fe27      1.0  0.17532  0.30195  0.60915  1.0000
  S   S53       1.0  0.12395  0.28214  0.61628  1.0000
  S   S54       1.0  0.21191  0.30763  0.63439  1.0000
  Fe  Fe28      1.0  0.11687  0.25542  0.58408  1.0000
  S   S55       1.0  0.08307  0.20279  0.58042  1.0000
  Fe  Fe29      1.0  0.12842  0.32211  0.59477  1.0000
  S   S56       1.0  0.11724  0.35763  0.61071  1.0000
  S   S57       1.0  0.16827  0.27282  0.57848  1.0000
  S   S58       1.0  0.18073  0.34328  0.58983  1.0000
  S   S59       1.0  0.19837  0.12019  0.71411  1.0000
  P   P12       1.0  0.22385  0.16314  0.48393  1.0000
  S   S60       1.0  0.05414  0.43784  0.57906  1.0000
  Fe  Fe30      1.0  0.12178  0.05995  0.60313  1.0000
  S   S61       1.0  0.16520  0.06252  0.58818  1.0000
  S   S62       1.0  0.13212  0.10977  0.61055  1.0000
  Fe  Fe31      1.0  0.13153  0.02030  0.56838  1.0000
  S   S63       1.0  0.08785  0.01930  0.58131  1.0000
  Fe  Fe32      1.0  0.15987  0.02809  0.61481  1.0000
  S   S64       1.0  0.20007  0.03400  0.63660  1.0000
  C   C364      1.0  0.28184  0.21556  0.49504  1.0000
  C   C365      1.0  0.14312  0.48012  0.65520  1.0000
  C   C366      1.0  0.13210  0.38006  0.46951  1.0000
  C   C367      1.0  0.13010  0.04137  0.51726  1.0000
  C   C368      1.0  0.12224  0.06104  0.52908  1.0000
  C   C369      1.0  0.11287  0.07975  0.51736  1.0000
  C   C370      1.0  0.11242  0.07951  0.49384  1.0000
  H   H299      1.0  0.18349  0.13998  0.57562  1.0000
  C   C371      1.0  0.13186  0.04370  0.71333  1.0000
  H   H300      1.0  0.12330  0.06194  0.54723  1.0000
  H   H301      1.0  0.10579  0.09420  0.52650  1.0000
  C   C372      1.0  0.03344  0.35900  0.51140  1.0000
  H   H302      1.0  0.17589  0.11014  0.66891  1.0000
  C   C373      1.0  0.20163  0.09793  0.69246  1.0000
  C   C374      1.0  0.18773  0.09686  0.67164  1.0000
  C   C375      1.0  0.18904  0.07857  0.65421  1.0000
  C   C376      1.0  0.20299  0.06012  0.65776  1.0000
  C   C377      1.0  0.21736  0.06142  0.67852  1.0000
  H   H303      1.0  0.48704  0.06770  0.52848  1.0000
  H   H304      1.0  0.17909  0.07877  0.63800  1.0000
  H   H305      1.0  0.22826  0.04725  0.68130  1.0000
  C   C378      1.0  0.09651  0.17669  0.58877  1.0000
  C   C379      1.0  0.08065  0.14538  0.58118  1.0000
  C   C380      1.0  0.09150  0.12457  0.58715  1.0000
  C   C381      1.0  0.11806  0.13483  0.60109  1.0000
  C   C382      1.0  0.13374  0.16604  0.60871  1.0000
  C   C383      1.0  0.12329  0.18693  0.60245  1.0000
  H   H306      1.0  0.06006  0.13729  0.57047  1.0000
  H   H307      1.0  0.07914  0.10058  0.58122  1.0000
  H   H308      1.0  0.15411  0.17410  0.61961  1.0000
  H   H309      1.0  0.13578  0.21091  0.60844  1.0000
  C   C384      1.0  0.10067  0.38020  0.60052  1.0000
  C   C385      1.0  0.08042  0.37118  0.58182  1.0000
  C   C386      1.0  0.06626  0.38899  0.57546  1.0000
  C   C387      1.0  0.07302  0.41648  0.58718  1.0000
  C   C388      1.0  0.09375  0.42575  0.60557  1.0000
  C   C389      1.0  0.10713  0.40749  0.61236  1.0000
  C   C390      1.0  0.08293  0.22824  0.68137  1.0000
  C   C391      1.0  0.04107  0.06562  0.65430  1.0000
  H   H310      1.0  0.09869  0.44646  0.61499  1.0000
  H   H311      1.0  0.12242  0.41449  0.62701  1.0000
  C   C392      1.0  0.22409  0.32450  0.51869  1.0000
  C   C393      1.0  0.24119  0.33746  0.49878  1.0000
  C   C394      1.0  0.26207  0.32795  0.49059  1.0000
  C   C395      1.0  0.26676  0.30621  0.50269  1.0000
  C   C396      1.0  0.25102  0.29463  0.52323  1.0000
  C   C397      1.0  0.22947  0.30342  0.53106  1.0000
  H   H312      1.0  0.23771  0.35432  0.48938  1.0000
  H   H313      1.0  0.49923  0.10406  0.56083  1.0000
  H   H314      1.0  0.25481  0.27808  0.53282  1.0000
  H   H315      1.0  0.21675  0.29349  0.54647  1.0000
  C   C398      1.0  0.07627  0.29479  0.51596  1.0000
  P   P13       1.0  0.12354  0.42475  0.49239  1.0000
  C   C399      1.0  0.15417  0.21323  0.69205  1.0000
  C   C400      1.0  0.21158  0.15744  0.51315  1.0000
  C   C401      1.0  0.14447  0.40422  0.48561  1.0000
  C   C402      1.0  0.35290  0.23617  0.68216  1.0000
  C   C403      1.0  0.18760  0.22854  0.51222  1.0000
  C   C404      1.0  0.14781  0.43993  0.55933  1.0000
  H   H316      1.0  0.19853  0.05235  0.48530  1.0000
  C   C405      1.0  0.16740  0.30693  0.69212  1.0000
  C   C406      1.0  0.17386  0.30595  0.66921  1.0000
  C   C407      1.0  0.20279  0.30910  0.66269  1.0000
  C   C408      1.0  0.22522  0.31342  0.67901  1.0000
  C   C409      1.0  0.23171  0.15712  0.53001  1.0000
  H   H317      1.0  0.25708  0.20342  0.68044  1.0000
  H   H318      1.0  0.15667  0.30332  0.65672  1.0000
  H   H319      1.0  0.24762  0.31611  0.67387  1.0000
  C   C410      1.0  0.17383  0.41297  0.49569  1.0000
  C   C411      1.0  0.18989  0.39699  0.49039  1.0000
  H   H320      1.0  0.07096  0.04618  0.69961  1.0000
  C   C412      1.0  0.08826  0.21277  0.66363  1.0000
  C   C413      1.0  0.18995  0.31121  0.70847  1.0000
  C   C414      1.0  0.06743  0.48758  0.50795  1.0000
  H   H321      1.0  0.03652  0.41580  0.53229  1.0000
  C   C415      1.0  0.33040  0.24574  0.68132  1.0000
  H   H322      1.0  0.32105  0.24881  0.69703  1.0000
  C   C416      1.0  0.07309  0.20890  0.64296  1.0000
  S   S65       1.0  0.11827  0.02730  0.63129  1.0000
  C   C417      1.0  0.17736  0.37292  0.47446  1.0000
  H   H323      1.0  0.04187  0.21858  0.62343  1.0000
  H   H324      1.0  0.29650  0.36610  0.68381  1.0000
  C   C418      1.0  0.06831  0.09331  0.64802  1.0000
  H   H325      1.0  0.19661  0.21198  0.64735  1.0000
  C   C419      1.0  0.01668  0.45118  0.49086  1.0000
  C   C420      1.0  0.33159  0.44557  0.68384  1.0000
  C   C421      1.0  0.33273  0.32479  0.67585  1.0000
  C   C422      1.0  0.36598  0.23265  0.66225  1.0000
  C   C423      1.0  0.33956  0.35500  0.63460  1.0000
  H   H326      1.0  0.21414  0.05283  0.52527  1.0000
  H   H327      1.0  0.06787  0.10653  0.63354  1.0000
  H   H328      1.0  0.24071  0.48125  0.64077  1.0000
  C   C424      1.0  0.22169  0.15104  0.55247  1.0000
  H   H329      1.0  0.07726  0.19689  0.62930  1.0000
  H   H330      1.0  0.07490  0.35000  0.57277  1.0000
  H   H331      1.0  0.10580  0.21884  0.52658  1.0000
  C   C425      1.0  0.22905  0.03737  0.57824  1.0000
  C   C426      1.0  0.20975  0.10059  0.48478  1.0000
  H   H332      1.0  0.23634  0.04836  0.59468  1.0000
  C   C427      1.0  0.03871  0.43385  0.52073  1.0000
  C   C428      1.0  0.17370  0.21657  0.53307  1.0000
  C   C429      1.0  0.40654  0.01021  0.62458  1.0000
  C   C430      1.0  0.32202  0.41533  0.69155  1.0000
  C   C431      1.0  0.22684  0.05428  0.56011  1.0000
  C   C432      1.0  0.09647  0.10346  0.65995  1.0000
  C   C433      1.0  0.39466  0.49919  0.60779  1.0000
  C   C434      1.0  0.15260  0.47000  0.56301  1.0000
  H   H333      1.0  0.11778  0.12451  0.65468  1.0000
  C   C435      1.0  0.01879  0.05808  0.48341  1.0000
  C   C436      1.0  0.14068  0.47327  0.52375  1.0000
  C   C437      1.0  0.33420  0.24854  0.64057  1.0000
  C   C438      1.0  0.35205  0.35735  0.67430  1.0000
  H   H334      1.0  0.08243  0.46928  0.53535  1.0000
  C   C439      1.0  0.17237  0.23770  0.49656  1.0000
  H   H335      1.0  0.02170  0.34645  0.52666  1.0000
  H   H336      1.0  0.21718  0.37140  0.65135  1.0000
  H   H337      1.0  0.25494  0.16104  0.52574  1.0000
  C   C440      1.0  0.21691  0.08060  0.69587  1.0000
  H   H338      1.0  0.36724  0.23667  0.62606  1.0000
  H   H339      1.0  0.09447  0.46840  0.65765  1.0000
  C   C441      1.0  0.05297  0.22100  0.63973  1.0000
  H   H340      1.0  0.18446  0.43208  0.50768  1.0000
  H   H341      1.0  0.18738  0.16336  0.66631  1.0000
  C   C442      1.0  0.19155  0.14524  0.55829  1.0000
  H   H342      1.0  0.21202  0.40307  0.49876  1.0000
  H   H343      1.0  0.39037  0.04278  0.63151  1.0000
  C   C443      1.0  0.14424  0.21311  0.53800  1.0000
  C   C444      1.0  0.18131  0.15159  0.51918  1.0000
  H   H344      1.0  0.23225  0.07828  0.56251  1.0000
  C   C445      1.0  0.06377  0.39147  0.47214  1.0000
  H   H345      1.0  0.21052  0.23135  0.50833  1.0000
  C   C446      1.0  0.04178  0.04802  0.67272  1.0000
  C   C447      1.0  0.17171  0.22285  0.67214  1.0000
  C   C448      1.0  0.04771  0.23666  0.65731  1.0000
  H   H346      1.0  0.13487  0.40269  0.53564  1.0000
  H   H347      1.0  0.08651  0.14066  0.68677  1.0000
  H   H348      1.0  0.13807  0.48680  0.51040  1.0000
  H   H349      1.0  0.04457  0.07192  0.51470  1.0000
  C   C449      1.0  0.36744  0.47262  0.61565  1.0000
  C   C450      1.0  0.33738  0.46638  0.60851  1.0000
  C   C451      1.0  0.33503  0.48658  0.59287  1.0000
  P   P14       1.0  0.30237  0.43125  0.61791  1.0000
  C   C452      1.0  0.29641  0.39854  0.60051  1.0000
  C   C453      1.0  0.30805  0.42453  0.64716  1.0000
  C   C454      1.0  0.29734  0.39403  0.65541  1.0000
  H   H350      1.0  0.42805  0.02759  0.61636  1.0000
  C   C455      1.0  0.09067  0.20787  0.46824  1.0000
  C   C456      1.0  0.12870  0.22191  0.52229  1.0000
  C   C457      1.0  0.32474  0.45021  0.66175  1.0000
  C   C458      1.0  0.32037  0.40121  0.58602  1.0000
  C   C459      1.0  0.31549  0.37582  0.57261  1.0000
  C   C460      1.0  0.28679  0.34759  0.57359  1.0000
  C   C461      1.0  0.26285  0.34476  0.58786  1.0000
  C   C462      1.0  0.26761  0.37010  0.60126  1.0000
  C   C463      1.0  0.26937  0.43818  0.61586  1.0000
  C   C464      1.0  0.26668  0.45840  0.63121  1.0000
  C   C465      1.0  0.24261  0.46571  0.62878  1.0000
  C   C466      1.0  0.22066  0.45247  0.61124  1.0000
  C   C467      1.0  0.22311  0.43233  0.59589  1.0000
  C   C468      1.0  0.24761  0.42557  0.59796  1.0000
  H   H351      1.0  0.26444  0.48434  0.70162  1.0000
  C   C469      1.0  0.10832  0.44993  0.68570  1.0000
  H   H352      1.0  0.36022  0.23162  0.69836  1.0000
  H   H353      1.0  0.36987  0.45686  0.62719  1.0000
  H   H354      1.0  0.31221  0.48186  0.58661  1.0000
  H   H355      1.0  0.28396  0.37359  0.64493  1.0000
  C   C470      1.0  0.03114  0.37048  0.47201  1.0000
  C   C471      1.0  0.30438  0.38956  0.67752  1.0000
  Fe  Fe33      1.0  0.07498  0.48909  0.58932  1.0000
  H   H356      1.0  0.33302  0.47396  0.65601  1.0000
  H   H357      1.0  0.34278  0.42280  0.58480  1.0000
  H   H358      1.0  0.33385  0.37805  0.56126  1.0000
  H   H359      1.0  0.28301  0.32801  0.56312  1.0000
  H   H360      1.0  0.24046  0.32295  0.58848  1.0000
  H   H361      1.0  0.24875  0.36752  0.61220  1.0000
  H   H362      1.0  0.28320  0.46877  0.64503  1.0000
  H   H363      1.0  0.01959  0.05768  0.64456  1.0000
  H   H364      1.0  0.11096  0.17921  0.47824  1.0000
  H   H365      1.0  0.20598  0.42189  0.58235  1.0000
  H   H366      1.0  0.24950  0.41069  0.58540  1.0000
  H   H367      1.0  0.13660  0.02673  0.48458  1.0000
  H   H368      1.0  0.04971  0.38133  0.56158  1.0000
  C   C472      1.0  0.01596  0.35436  0.49167  1.0000
  H   H369      1.0  0.14543  0.30542  0.69702  1.0000
  C   C473      1.0  0.07282  0.14826  0.69629  1.0000
  H   H370      1.0  0.06587  0.30667  0.52476  1.0000
  C   C474      1.0  0.06988  0.05899  0.68514  1.0000
  C   C475      1.0  0.18342  0.20474  0.66285  1.0000
  S   S66       1.0  0.29187  0.29275  0.49280  1.0000
  C   C476      1.0  0.04372  0.48121  0.49208  1.0000
  C   C477      1.0  0.21681  0.03995  0.53909  1.0000
  C   C478      1.0  0.13301  0.44778  0.69591  1.0000
  H   H371      1.0  0.32806  0.41181  0.70851  1.0000
  H   H372      1.0  0.02376  0.29885  0.70090  1.0000
  C   C479      1.0  0.17148  0.14571  0.54169  1.0000
  C   C480      1.0  0.13898  0.42626  0.53798  1.0000
  H   H373      1.0  0.34241  0.36665  0.61856  1.0000
  H   H374      1.0  0.01917  0.01815  0.53001  1.0000
  H   H375      1.0  0.09121  0.45872  0.47853  1.0000
  P   P15       1.0  0.19543  0.45983  0.69884  1.0000
  H   H376      1.0  0.14804  0.14104  0.54625  1.0000
  H   H377      1.0  0.07892  0.38347  0.52716  1.0000
  C   C481      1.0  0.09720  0.08649  0.67859  1.0000
  H   H378      1.0  0.22558  0.18478  0.71499  1.0000
  H   H379      1.0  0.37019  0.39776  0.65260  1.0000
  H   H380      1.0  0.16495  0.15107  0.50661  1.0000
  H   H381      1.0  0.14470  0.22726  0.69876  1.0000
  C   C482      1.0  0.13011  0.04153  0.49377  1.0000
  C   C483      1.0  0.32034  0.25129  0.66047  1.0000
  H   H382      1.0  0.17595  0.24416  0.66372  1.0000
  C   C484      1.0  0.12175  0.06096  0.48206  1.0000
  S   S67       1.0  0.48459  0.04171  0.47423  1.0000
  C   C485      1.0  0.13527  0.44278  0.51996  1.0000
  H   H383      1.0  0.38345  0.22526  0.66300  1.0000
  P   P16       1.0  0.12179  0.24377  0.48036  1.0000
  H   H384      1.0  0.15865  0.48028  0.57970  1.0000
  C   C486      1.0  0.35536  0.37249  0.65370  1.0000
  H   H385      1.0  0.13354  0.20376  0.55411  1.0000
  C   C487      1.0  0.08139  0.39713  0.49213  1.0000
  H   H386      1.0  0.23714  0.15044  0.56536  1.0000
  C   C488      1.0  0.16776  0.47777  0.66521  1.0000
  H   H387      1.0  0.26895  0.22110  0.50727  1.0000
  H   H388      1.0  0.22753  0.08127  0.71204  1.0000
  C   C489      1.0  0.10701  0.35400  0.71512  1.0000
  C   C490      1.0  0.22898  0.40125  0.68048  1.0000
  H   H389      1.0  0.17931  0.38631  0.63612  1.0000
  P   P17       1.0  0.29228  0.26489  0.65934  1.0000
  C   C491      1.0  0.26483  0.24663  0.63625  1.0000
  C   C492      1.0  0.26845  0.25170  0.68457  1.0000
  C   C493      1.0  0.25413  0.21994  0.69068  1.0000
  C   C494      1.0  0.09191  0.18005  0.46943  1.0000
  C   C495      1.0  0.26398  0.27236  0.69830  1.0000
  C   C496      1.0  0.24961  0.26156  0.62655  1.0000
  C   C497      1.0  0.22765  0.24712  0.60911  1.0000
  C   C498      1.0  0.21999  0.21721  0.60169  1.0000
  C   C499      1.0  0.23423  0.20169  0.61179  1.0000
  C   C500      1.0  0.25656  0.21630  0.62901  1.0000
  C   C501      1.0  0.31598  0.30711  0.65699  1.0000
  H   H390      1.0  0.23627  0.31760  0.71435  1.0000
  H   H391      1.0  0.36429  0.37076  0.68919  1.0000
  C   C502      1.0  0.22106  0.00606  0.57544  1.0000
  H   H392      1.0  0.34206  0.00392  0.65084  1.0000
  C   C503      1.0  0.32031  0.32237  0.63614  1.0000
  C   C504      1.0  0.21317  0.38826  0.66027  1.0000
  C   C505      1.0  0.01420  0.25094  0.69789  1.0000
  C   C506      1.0  0.04341  0.14200  0.68801  1.0000
  H   H393      1.0  0.27468  0.29695  0.69419  1.0000
  H   H394      1.0  0.25424  0.28415  0.63272  1.0000
  H   H395      1.0  0.21594  0.25886  0.60185  1.0000
  H   H396      1.0  0.20239  0.20573  0.58857  1.0000
  H   H397      1.0  0.22752  0.17807  0.60656  1.0000
  H   H398      1.0  0.26687  0.20364  0.63692  1.0000
  H   H399      1.0  0.33083  0.31333  0.69180  1.0000
  H   H400      1.0  0.18579  0.21014  0.54545  1.0000
  C   C507      1.0  0.17798  0.17719  0.67350  1.0000
  C   C508      1.0  0.20275  0.43212  0.68346  1.0000
  H   H401      1.0  0.30930  0.30926  0.62096  1.0000
  H   H402      1.0  0.13537  0.39219  0.69273  1.0000
  H   H403      1.0  0.09479  0.23064  0.69722  1.0000
  H   H404      1.0  0.06063  0.22130  0.50282  1.0000
  C   C509      1.0  0.33095  0.23089  0.47550  1.0000
  C   C510      1.0  0.06220  0.23995  0.67846  1.0000
  H   H405      1.0  0.12054  0.33717  0.50993  1.0000
  H   H406      1.0  0.32761  0.25384  0.62439  1.0000
  C   C511      1.0  0.35676  0.23899  0.64146  1.0000
  C   C512      1.0  0.22371  0.42291  0.69205  1.0000
  C   C513      1.0  0.08079  0.30210  0.69815  1.0000
  C   C514      1.0  0.09411  0.31557  0.67725  1.0000
  C   C515      1.0  0.11371  0.34802  0.67538  1.0000
  C   C516      1.0  0.12020  0.36717  0.69428  1.0000
  C   C517      1.0  0.02691  0.05248  0.50481  1.0000
  C   C518      1.0  0.19189  0.39674  0.65170  1.0000
  H   H407      1.0  0.24503  0.39418  0.68740  1.0000
  C   C519      1.0  0.05968  0.26211  0.51413  1.0000
  C   C520      1.0  0.14273  0.23439  0.50137  1.0000
  C   C521      1.0  0.14849  0.18550  0.70291  1.0000
  C   C522      1.0  0.21261  0.12549  0.47145  1.0000
  C   C523      1.0  0.06602  0.38018  0.51163  1.0000
  C   C524      1.0  0.18676  0.41864  0.66312  1.0000
  H   H408      1.0  0.08951  0.30130  0.66234  1.0000
  H   H409      1.0  0.12374  0.35828  0.65917  1.0000
  H   H410      1.0  0.20159  0.45758  0.60964  1.0000
  C   C525      1.0  0.31414  0.23656  0.49202  1.0000
  H   H411      1.0  0.11914  0.09450  0.68770  1.0000
  H   H412      1.0  0.15686  0.14618  0.70141  1.0000
  H   H413      1.0  0.03241  0.24634  0.65431  1.0000
  C   C526      1.0  0.38525  0.01873  0.63303  1.0000
  S   S68       1.0  0.13883  0.01570  0.53168  1.0000
  H   H414      1.0  0.34443  0.46541  0.69505  1.0000
  H   H415      1.0  0.14482  0.31039  0.49095  1.0000
  C   C527      1.0  0.20875  0.00861  0.53619  1.0000
  C   C528      1.0  0.10695  0.31201  0.50746  1.0000
  C   C529      1.0  0.10394  0.26394  0.49402  1.0000
  C   C530      1.0  0.21882  0.31441  0.70186  1.0000
  C   C531      1.0  0.16068  0.16761  0.69352  1.0000
  H   H416      1.0  0.27467  0.33760  0.47503  1.0000
  H   H417      1.0  0.32587  0.25789  0.50194  1.0000
  C   C532      1.0  0.16296  0.46173  0.68572  1.0000
  H   H418      1.0  0.18401  0.24753  0.48084  1.0000
  H   H419      1.0  0.21326  0.10315  0.50283  1.0000
  C   C533      1.0  0.12076  0.29665  0.49665  1.0000
  C   C534      1.0  0.14913  0.48667  0.54522  1.0000
  H   H420      1.0  0.08530  0.43936  0.69362  1.0000
  H   H421      1.0  0.04629  0.50004  0.48119  1.0000
  C   C535      1.0  0.11210  0.46681  0.46820  1.0000
  C   C536      1.0  0.07354  0.24670  0.50342  1.0000
  H   H422      1.0  0.18387  0.30057  0.48030  1.0000
  C   C537      1.0  0.11341  0.46615  0.66537  1.0000
  H   H423      1.0  0.10302  0.02366  0.68371  1.0000
  H   H424      1.0  0.10401  0.20352  0.66580  1.0000
  C   C538      1.0  0.26614  0.18859  0.48156  1.0000
  C   C539      1.0  0.02556  0.15198  0.70002  1.0000
  H   H425      1.0  0.12859  0.43530  0.71174  1.0000
  H   H426      1.0  0.03638  0.24860  0.52153  1.0000
  C   C540      1.0  0.11618  0.02038  0.69711  1.0000
  C   C541      1.0  0.13249  0.45474  0.47138  1.0000
  H   H427      1.0  0.23546  0.43183  0.70800  1.0000
  H   H428      1.0  0.18988  0.36054  0.47053  1.0000
  H   H429      1.0  0.13127  0.06533  0.71252  1.0000
  H   H430      1.0  0.14718  0.49326  0.63973  1.0000
  H   H431      1.0  0.24306  0.22802  0.46962  1.0000
  H   H432      1.0  0.35571  0.24772  0.47262  1.0000
  C   C542      1.0  0.20151  0.07172  0.47488  1.0000
  C   C543      1.0  0.01279  0.02190  0.51327  1.0000
  H   H433      1.0  0.03016  0.08175  0.47681  1.0000
  H   H434      1.0  0.19071  0.48893  0.65714  1.0000
  C   C544      1.0  0.23627  0.20922  0.71036  1.0000
  H   H435      1.0  0.03636  0.00472  0.63870  1.0000
  C   C545      1.0  0.22962  0.49914  0.69852  1.0000
  C   C546      1.0  0.20393  0.18008  0.46868  1.0000
  C   C547      1.0  0.12215  0.00741  0.85423  1.0000
  C   C548      1.0  0.26143  0.39815  0.92475  1.0000
  H   H436      1.0  0.04511  0.13976  0.77142  1.0000
  C   C549      1.0  0.50446  0.27086  0.94358  1.0000
  S   S69       1.0  0.26755  0.37928  0.73173  1.0000
  C   C550      1.0  0.07980  0.48769  0.92091  1.0000
  H   H437      1.0  0.02468  0.45736  0.78851  1.0000
  C   C551      1.0  0.10764  0.31000  0.81402  1.0000
  Fe  Fe34      1.0  0.49566  0.03026  0.93984  1.0000
  C   C552      1.0  0.14343  0.32272  0.78241  1.0000
  Fe  Fe35      1.0  0.25326  0.05965  0.94960  1.0000
  S   S70       1.0  0.25899  0.05110  0.91307  1.0000
  Fe  Fe36      1.0  0.26904  0.37407  0.79596  1.0000
  S   S71       1.0  0.31139  0.40892  0.77607  1.0000
  S   S72       1.0  0.26858  0.37039  0.83392  1.0000
  S   S73       1.0  0.25828  0.33240  0.77436  1.0000
  S   S74       1.0  0.23464  0.38447  0.77796  1.0000
  Fe  Fe37      1.0  0.24738  0.15114  0.78967  1.0000
  S   S75       1.0  0.29758  0.16258  0.78764  1.0000
  S   S76       1.0  0.22963  0.15683  0.82300  1.0000
  Fe  Fe38      1.0  0.23557  0.13345  0.74061  1.0000
  C   C553      1.0  0.05573  0.47104  0.76014  1.0000
  C   C554      1.0  0.10681  0.43254  0.84171  1.0000
  Fe  Fe39      1.0  0.27853  0.11772  0.76787  1.0000
  S   S77       1.0  0.28972  0.08198  0.78309  1.0000
  Fe  Fe40      1.0  0.29880  0.18612  0.75505  1.0000
  C   C555      1.0  0.38590  0.07240  0.92367  1.0000
  S   S78       1.0  0.22771  0.10510  0.77188  1.0000
  S   S79       1.0  0.24999  0.17844  0.75889  1.0000
  C   C556      1.0  0.31011  0.39047  0.86958  1.0000
  C   C557      1.0  0.26683  0.19653  0.96029  1.0000
  C   C558      1.0  0.04899  0.47103  0.78307  1.0000
  C   C559      1.0  0.27711  0.46598  0.84557  1.0000
  C   C560      1.0  0.33687  0.26740  0.74405  1.0000
  C   C561      1.0  0.31068  0.26874  0.75231  1.0000
  C   C562      1.0  0.30949  0.29676  0.75040  1.0000
  H   H438      1.0  0.07481  0.18681  0.74446  1.0000
  H   H439      1.0  0.29156  0.24839  0.76034  1.0000
  H   H440      1.0  0.01252  0.42444  0.82194  1.0000
  C   C563      1.0  0.30103  0.03330  0.78543  1.0000
  C   C564      1.0  0.30133  0.05636  0.77134  1.0000
  H   H441      1.0  0.41245  0.30493  0.84916  1.0000
  H   H442      1.0  0.29487  0.03253  0.80293  1.0000
  C   C565      1.0  0.24885  0.09588  0.87577  1.0000
  C   C566      1.0  0.24227  0.12171  0.88094  1.0000
  C   C567      1.0  0.23544  0.13872  0.86523  1.0000
  C   C568      1.0  0.23689  0.13440  0.84253  1.0000
  C   C569      1.0  0.24466  0.11257  0.83541  1.0000
  C   C570      1.0  0.24942  0.09375  0.85080  1.0000
  H   H443      1.0  0.24189  0.13003  0.89772  1.0000
  H   H444      1.0  0.23008  0.15642  0.87091  1.0000
  H   H445      1.0  0.24622  0.10918  0.81760  1.0000
  H   H446      1.0  0.25328  0.07693  0.84174  1.0000
  H   H447      1.0  0.36120  0.28215  0.82913  1.0000
  C   C571      1.0  0.33425  0.32325  0.73993  1.0000
  H   H448      1.0  0.30545  0.18470  0.83497  1.0000
  C   C572      1.0  0.33315  0.39630  0.83270  1.0000
  C   C573      1.0  0.30652  0.38704  0.84613  1.0000
  H   H449      1.0  0.34298  0.40674  0.89749  1.0000
  H   H450      1.0  0.30642  0.17009  0.87476  1.0000
  H   H451      1.0  0.05501  0.39534  0.80140  1.0000
  H   H452      1.0  0.33064  0.39281  0.81477  1.0000
  C   C574      1.0  0.44587  0.35454  0.84899  1.0000
  H   H453      1.0  0.20816  0.39562  0.96256  1.0000
  C   C575      1.0  0.08780  0.07930  0.74536  1.0000
  C   C576      1.0  0.11382  0.08033  0.75604  1.0000
  C   C577      1.0  0.04081  0.38838  0.93221  1.0000
  H   H454      1.0  0.07683  0.31174  0.73329  1.0000
  S   S80       1.0  0.20937  0.45084  0.91207  1.0000
  C   C578      1.0  0.09026  0.10658  0.73608  1.0000
  H   H455      1.0  0.32927  0.46461  0.94153  1.0000
  H   H456      1.0  0.16765  0.15756  0.74879  1.0000
  H   H457      1.0  0.30665  0.23395  0.82559  1.0000
  C   C579      1.0  0.36167  0.29410  0.73401  1.0000
  C   C580      1.0  0.05216  0.37246  0.79784  1.0000
  H   H458      1.0  0.34430  0.02903  0.91475  1.0000
  H   H459      1.0  0.12258  0.25947  0.76237  1.0000
  H   H460      1.0  0.10990  0.46355  0.81540  1.0000
  C   C581      1.0  0.12236  0.18811  0.77164  1.0000
  C   C582      1.0  0.13415  0.20785  0.79041  1.0000
  C   C583      1.0  0.16051  0.23786  0.78820  1.0000
  C   C584      1.0  0.50460  0.32292  0.96217  1.0000
  H   H461      1.0  0.12382  0.42759  0.83388  1.0000
  H   H462      1.0  0.44936  0.31708  0.94056  1.0000
  C   C585      1.0  0.23678  0.41733  0.86246  1.0000
  C   C586      1.0  0.13662  0.19837  0.75043  1.0000
  C   C587      1.0  0.43220  0.32416  0.85778  1.0000
  H   H463      1.0  0.28768  0.47648  0.92824  1.0000
  C   C588      1.0  0.49629  0.47582  0.88467  1.0000
  H   H464      1.0  0.06542  0.05745  0.74480  1.0000
  H   H465      1.0  0.11172  0.05920  0.76340  1.0000
  H   H466      1.0  0.50468  0.25065  0.93657  1.0000
  C   C589      1.0  0.14836  0.01181  0.84177  1.0000
  C   C590      1.0  0.14917  0.03960  0.73041  1.0000
  H   H467      1.0  0.02473  0.24489  0.92561  1.0000
  C   C591      1.0  0.24598  0.26142  0.71799  1.0000
  C   C592      1.0  0.09363  0.41915  0.86251  1.0000
  H   H468      1.0  0.16299  0.10934  0.76500  1.0000
  H   H469      1.0  0.10239  0.32725  0.78142  1.0000
  H   H470      1.0  0.10242  0.16460  0.77372  1.0000
  H   H471      1.0  0.12310  0.19963  0.80671  1.0000
  H   H472      1.0  0.16994  0.25314  0.80268  1.0000
  C   C593      1.0  0.06377  0.35873  0.81293  1.0000
  H   H473      1.0  0.47031  0.42568  0.88514  1.0000
  C   C594      1.0  0.31644  0.01808  0.85368  1.0000
  C   C595      1.0  0.11894  0.13518  0.73742  1.0000
  H   H474      1.0  0.19544  0.27141  0.76548  1.0000
  H   H475      1.0  0.38200  0.29335  0.72764  1.0000
  H   H476      1.0  0.22747  0.40197  0.87690  1.0000
  C   C596      1.0  0.35533  0.05435  0.91508  1.0000
  S   S81       1.0  0.34026  0.23336  0.74580  1.0000
  C   C597      1.0  0.04833  0.09058  0.84183  1.0000
  C   C598      1.0  0.48306  0.38786  0.93422  1.0000
  C   C599      1.0  0.37165  0.29558  0.94287  1.0000
  H   H477      1.0  0.08479  0.46872  0.91933  1.0000
  H   H478      1.0  0.04008  0.10522  0.83432  1.0000
  C   C600      1.0  0.40244  0.30867  0.93455  1.0000
  H   H479      1.0  0.25050  0.01568  0.73962  1.0000
  H   H480      1.0  0.14628  0.06171  0.89507  1.0000
  C   C601      1.0  0.02685  0.09007  0.77164  1.0000
  H   H481      1.0  0.03998  0.37562  0.91716  1.0000
  Fe  Fe41      1.0  0.29809  0.36777  0.75317  1.0000
  C   C602      1.0  0.04257  0.31249  0.78926  1.0000
  H   H482      1.0  0.01294  0.22920  0.74013  1.0000
  C   C603      1.0  0.02529  0.47012  0.83540  1.0000
  H   H483      1.0  0.04979  0.06972  0.81029  1.0000
  C   C604      1.0  0.30806  0.01090  0.77700  1.0000
  C   C605      1.0  0.07272  0.42649  0.87304  1.0000
  H   H484      1.0  0.17262  0.47917  0.77616  1.0000
  C   C606      1.0  0.12830  0.05390  0.90798  1.0000
  C   C607      1.0  0.42559  0.30656  0.94712  1.0000
  C   C608      1.0  0.32766  0.00417  0.86887  1.0000
  H   H485      1.0  0.02685  0.36695  0.76681  1.0000
  C   C609      1.0  0.17495  0.24816  0.76723  1.0000
  C   C610      1.0  0.16306  0.22863  0.74839  1.0000
  H   H486      1.0  0.37162  0.36694  0.92760  1.0000
  H   H487      1.0  0.03826  0.28904  0.78584  1.0000
  H   H488      1.0  0.30690  0.32904  0.82201  1.0000
  H   H489      1.0  0.43659  0.35891  0.83361  1.0000
  H   H490      1.0  0.16073  0.39827  0.87044  1.0000
  H   H491      1.0  0.30966  0.20546  0.90549  1.0000
  C   C611      1.0  0.09598  0.03827  0.90235  1.0000
  H   H492      1.0  0.28676  0.29422  0.89701  1.0000
  S   S82       1.0  0.47829  0.05989  0.92309  1.0000
  C   C612      1.0  0.31740  0.03534  0.74027  1.0000
  C   C613      1.0  0.13773  0.05918  0.93061  1.0000
  C   C614      1.0  0.09884  0.45308  0.83126  1.0000
  C   C615      1.0  0.16193  0.06530  0.83376  1.0000
  C   C616      1.0  0.16819  0.04072  0.83149  1.0000
  C   C617      1.0  0.14514  0.13588  0.74784  1.0000
  C   C618      1.0  0.01458  0.48707  0.84796  1.0000
  C   C619      1.0  0.11563  0.03200  0.85649  1.0000
  C   C620      1.0  0.13610  0.06117  0.84648  1.0000
  P   P18       1.0  0.06651  0.48658  0.82860  1.0000
  C   C621      1.0  0.06874  0.05181  0.86145  1.0000
  H   H493      1.0  0.07578  0.37129  0.82801  1.0000
  C   C622      1.0  0.08456  0.16429  0.71674  1.0000
  H   H494      1.0  0.33294  0.03894  0.84446  1.0000
  H   H495      1.0  0.02325  0.17590  0.72952  1.0000
  C   C623      1.0  0.17220  0.43532  0.77421  1.0000
  H   H496      1.0  0.21903  0.22154  0.73961  1.0000
  C   C624      1.0  0.06266  0.07151  0.87498  1.0000
  C   C625      1.0  0.05257  0.09087  0.86516  1.0000
  H   H497      1.0  0.31384  0.32995  0.92900  1.0000
  P   P19       1.0  0.08299  0.02747  0.87356  1.0000
  C   C626      1.0  0.06420  0.05150  0.83802  1.0000
  H   H498      1.0  0.32270  0.46121  0.81977  1.0000
  C   C627      1.0  0.02406  0.11691  0.77072  1.0000
  C   C628      1.0  0.44450  0.31851  0.87740  1.0000
  S   S83       1.0  0.33421  0.35891  0.73636  1.0000
  C   C629      1.0  0.18614  0.44955  0.72826  1.0000
  H   H499      1.0  0.04860  0.45261  0.87128  1.0000
  H   H500      1.0  0.17728  0.08774  0.82582  1.0000
  H   H501      1.0  0.18855  0.04422  0.82187  1.0000
  Fe  Fe42      1.0  0.16759  0.43878  0.93428  1.0000
  H   H502      1.0  0.05005  0.09262  0.77309  1.0000
  H   H503      1.0  0.13225  0.08085  0.84851  1.0000
  C   C630      1.0  0.28514  0.40137  0.93960  1.0000
  C   C631      1.0  0.17527  0.46299  0.76531  1.0000
  C   C632      1.0  0.03144  0.32646  0.77403  1.0000
  C   C633      1.0  0.02241  0.21663  0.84087  1.0000
  C   C634      1.0  0.34402  0.48429  0.87610  1.0000
  H   H504      1.0  0.06512  0.07173  0.89313  1.0000
  C   C635      1.0  0.14256  0.10856  0.75710  1.0000
  H   H505      1.0  0.09197  0.48849  0.73462  1.0000
  H   H506      1.0  0.40838  0.32082  0.91850  1.0000
  H   H507      1.0  0.20412  0.00743  0.71785  1.0000
  C   C636      1.0  0.03629  0.35647  0.77830  1.0000
  C   C637      1.0  0.17536  0.41435  0.76011  1.0000
  S   S84       1.0  0.18252  0.31340  0.73710  1.0000
  H   H508      1.0  0.38373  0.41669  0.83188  1.0000
  S   S85       1.0  0.18750  0.46082  0.85028  1.0000
  Fe  Fe43      1.0  0.41109  0.41659  0.96010  1.0000
  H   H509      1.0  0.24329  0.27753  0.72886  1.0000
  H   H510      1.0  0.31087  0.07571  0.73780  1.0000
  C   C638      1.0  0.18248  0.47023  0.74253  1.0000
  H   H511      1.0  0.26869  0.47289  0.81071  1.0000
  H   H512      1.0  0.27532  0.18037  0.95705  1.0000
  C   C639      1.0  0.04750  0.24630  0.83510  1.0000
  C   C640      1.0  0.04299  0.27232  0.83426  1.0000
  C   C641      1.0  0.01301  0.26813  0.83925  1.0000
  C   C642      1.0  0.12719  0.30249  0.82687  1.0000
  C   C643      1.0  0.15446  0.30479  0.81742  1.0000
  C   C644      1.0  0.16248  0.31476  0.79515  1.0000
  H   H513      1.0  0.17510  0.23734  0.73253  1.0000
  C   C645      1.0  0.12257  0.36707  0.89219  1.0000
  C   C646      1.0  0.09237  0.34061  0.89338  1.0000
  C   C647      1.0  0.07720  0.32407  0.87374  1.0000
  H   H514      1.0  0.22632  0.22751  0.93465  1.0000
  C   C648      1.0  0.47925  0.26667  0.95717  1.0000
  C   C649      1.0  0.23232  0.22991  0.72410  1.0000
  H   H515      1.0  0.07013  0.24863  0.83116  1.0000
  H   H516      1.0  0.12183  0.29572  0.84440  1.0000
  H   H517      1.0  0.16987  0.29968  0.82750  1.0000
  H   H518      1.0  0.18370  0.31676  0.78782  1.0000
  H   H519      1.0  0.13441  0.37971  0.90741  1.0000
  H   H520      1.0  0.08101  0.33277  0.90964  1.0000
  H   H521      1.0  0.05415  0.30325  0.87512  1.0000
  S   S86       1.0  0.18960  0.48602  0.95079  1.0000
  H   H522      1.0  0.02979  0.45902  0.91301  1.0000
  C   C650      1.0  0.03698  0.23567  0.74454  1.0000
  C   C651      1.0  0.34035  0.40397  0.87945  1.0000
  H   H523      1.0  0.39178  0.30976  0.79533  1.0000
  H   H524      1.0  0.38150  0.34827  0.77576  1.0000
  Fe  Fe44      1.0  0.41234  0.44242  0.91411  1.0000
  H   H525      1.0  0.16448  0.00956  0.74471  1.0000
  H   H526      1.0  0.28951  0.38271  0.88005  1.0000
  C   C652      1.0  0.09217  0.33415  0.85273  1.0000
  H   H527      1.0  0.02409  0.21842  0.77851  1.0000
  H   H528      1.0  0.40180  0.37084  0.89315  1.0000
  C   C653      1.0  0.36464  0.48773  0.89369  1.0000
  H   H529      1.0  0.22261  0.02250  0.86488  1.0000
  C   C654      1.0  0.07393  0.23789  0.77289  1.0000
  S   S87       1.0  0.14071  0.44925  0.90822  1.0000
  H   H530      1.0  0.31215  0.25548  0.89665  1.0000
  H   H531      1.0  0.19868  0.38633  0.84048  1.0000
  C   C655      1.0  0.06461  0.44691  0.86268  1.0000
  Fe  Fe45      1.0  0.43582  0.01451  0.91237  1.0000
  S   S88       1.0  0.20576  0.04544  0.96411  1.0000
  P   P20       1.0  0.12246  0.17131  0.72696  1.0000
  H   H532      1.0  0.38265  0.24212  0.92965  1.0000
  C   C656      1.0  0.23197  0.42874  0.82342  1.0000
  S   S89       1.0  0.44576  0.43071  0.93180  1.0000
  H   H533      1.0  0.37966  0.34207  0.72394  1.0000
  H   H534      1.0  0.37533  0.33606  0.86093  1.0000
  C   C657      1.0  0.18188  0.42118  0.73716  1.0000
  H   H535      1.0  0.24955  0.19391  0.92646  1.0000
  C   C658      1.0  0.36702  0.41376  0.86583  1.0000
  H   H536      1.0  0.16770  0.43039  0.79208  1.0000
  S   S90       1.0  0.40540  0.43102  0.87721  1.0000
  C   C659      1.0  0.07756  0.46036  0.84166  1.0000
  Fe  Fe46      1.0  0.22849  0.34651  0.75420  1.0000
  H   H537      1.0  0.18545  0.49217  0.73614  1.0000
  S   S91       1.0  0.37557  0.42415  0.94138  1.0000
  H   H538      1.0  0.27665  0.45306  0.88057  1.0000
  H   H539      1.0  0.28948  0.29779  0.75699  1.0000
  C   C660      1.0  0.05390  0.07069  0.82830  1.0000
  C   C661      1.0  0.11612  0.32028  0.79169  1.0000
  C   C662      1.0  0.37838  0.11316  0.83310  1.0000
  C   C663      1.0  0.36383  0.12147  0.81634  1.0000
  C   C664      1.0  0.34228  0.13095  0.82226  1.0000
  C   C665      1.0  0.33451  0.13138  0.84483  1.0000
  C   C666      1.0  0.34870  0.12271  0.86180  1.0000
  C   C667      1.0  0.37105  0.11394  0.85576  1.0000
  P   P21       1.0  0.33688  0.12135  0.89079  1.0000
  C   C668      1.0  0.35379  0.10185  0.90654  1.0000
  C   C669      1.0  0.35165  0.15982  0.90281  1.0000
  C   C670      1.0  0.34734  0.16272  0.92587  1.0000
  C   C671      1.0  0.35802  0.19227  0.93542  1.0000
  H   H540      1.0  0.31632  0.05462  0.89881  1.0000
  C   C672      1.0  0.37984  0.21664  0.89942  1.0000
  C   C673      1.0  0.36860  0.18702  0.88972  1.0000
  C   C674      1.0  0.33937  0.06898  0.90634  1.0000
  C   C675      1.0  0.12225  0.36127  0.85167  1.0000
  C   C676      1.0  0.05938  0.32882  0.80862  1.0000
  C   C677      1.0  0.40005  0.10498  0.92457  1.0000
  C   C678      1.0  0.38415  0.11972  0.91601  1.0000
  C   C679      1.0  0.29424  0.09884  0.89155  1.0000
  C   C680      1.0  0.27517  0.06693  0.87413  1.0000
  C   C681      1.0  0.23445  0.04273  0.87574  1.0000
  C   C682      1.0  0.21315  0.05046  0.89504  1.0000
  C   C683      1.0  0.23219  0.08164  0.91317  1.0000
  C   C684      1.0  0.27299  0.10625  0.91121  1.0000
  H   H541      1.0  0.39499  0.10562  0.82849  1.0000
  H   H542      1.0  0.36877  0.12010  0.79869  1.0000
  H   H543      1.0  0.33080  0.13690  0.80916  1.0000
  H   H544      1.0  0.31688  0.13770  0.84892  1.0000
  H   H545      1.0  0.38251  0.10702  0.86830  1.0000
  H   H546      1.0  0.33566  0.14199  0.93645  1.0000
  C   C685      1.0  0.26486  0.44615  0.86439  1.0000
  C   C686      1.0  0.04323  0.22977  0.76650  1.0000
  H   H547      1.0  0.39245  0.23748  0.88913  1.0000
  H   H548      1.0  0.37295  0.18546  0.87202  1.0000
  H   H549      1.0  0.21798  0.49503  0.80955  1.0000
  H   H550      1.0  0.06334  0.41702  0.88948  1.0000
  Fe  Fe47      1.0  0.27637  0.41672  0.75678  1.0000
  H   H551      1.0  0.42360  0.11871  0.93167  1.0000
  H   H552      1.0  0.39619  0.14508  0.91600  1.0000
  H   H553      1.0  0.28869  0.06179  0.86233  1.0000
  H   H554      1.0  0.21884  0.42257  0.80776  1.0000
  H   H555      1.0  0.18785  0.03515  0.89625  1.0000
  H   H556      1.0  0.21888  0.08642  0.92547  1.0000
  H   H557      1.0  0.28453  0.12656  0.92184  1.0000
  P   P22       1.0  0.07512  0.31114  0.82749  1.0000
  H   H558      1.0  0.33861  0.35706  0.78876  1.0000
  C   C687      1.0  0.37431  0.21925  0.92221  1.0000
  C   C688      1.0  0.31019  0.05779  0.74876  1.0000
  H   H559      1.0  0.43438  0.29488  0.88393  1.0000
  C   C689      1.0  0.36326  0.40954  0.84249  1.0000
  H   H560      1.0  0.07965  0.38548  0.94710  1.0000
  H   H561      1.0  0.14992  0.33108  0.76528  1.0000
  H   H562      1.0  0.18379  0.40432  0.72665  1.0000
  C   C690      1.0  0.13747  0.37743  0.87135  1.0000
  C   C691      1.0  0.22044  0.40855  0.84195  1.0000
  H   H563      1.0  0.01822  0.31368  0.75920  1.0000
  Fe  Fe48      1.0  0.40276  0.47302  0.95506  1.0000
  H   H564      1.0  0.13427  0.36975  0.83568  1.0000
  H   H565      1.0  0.17322  0.39299  0.76701  1.0000
  C   C692      1.0  0.06657  0.17443  0.72866  1.0000
  C   C693      1.0  0.22906  0.29002  0.85233  1.0000
  C   C694      1.0  0.20596  0.25967  0.84610  1.0000
  C   C695      1.0  0.21451  0.23705  0.84169  1.0000
  C   C696      1.0  0.24605  0.24459  0.84388  1.0000
  C   C697      1.0  0.26930  0.27482  0.85076  1.0000
  C   C698      1.0  0.26060  0.29760  0.85458  1.0000
  P   P23       1.0  0.31012  0.28477  0.85370  1.0000
  C   C699      1.0  0.32903  0.31221  0.87659  1.0000
  C   C700      1.0  0.31083  0.24925  0.86036  1.0000
  C   C701      1.0  0.31139  0.24073  0.88294  1.0000
  C   C702      1.0  0.30999  0.21235  0.88809  1.0000
  C   C703      1.0  0.30836  0.19245  0.87079  1.0000
  C   C704      1.0  0.30788  0.20072  0.84834  1.0000
  C   C705      1.0  0.30867  0.22878  0.84310  1.0000
  C   C706      1.0  0.36158  0.33401  0.87573  1.0000
  C   C707      1.0  0.37678  0.35370  0.89406  1.0000
  C   C708      1.0  0.35963  0.35199  0.91330  1.0000
  C   C709      1.0  0.32710  0.33090  0.91413  1.0000
  C   C710      1.0  0.31184  0.31091  0.89591  1.0000
  C   C711      1.0  0.33134  0.30309  0.82807  1.0000
  C   C712      1.0  0.32529  0.32447  0.81650  1.0000
  C   C713      1.0  0.34345  0.34073  0.79777  1.0000
  C   C714      1.0  0.36767  0.33575  0.79039  1.0000
  C   C715      1.0  0.37356  0.31419  0.80154  1.0000
  C   C716      1.0  0.35574  0.29818  0.82047  1.0000
  H   H566      1.0  0.22278  0.30794  0.85522  1.0000
  H   H567      1.0  0.18151  0.25375  0.84456  1.0000
  H   H568      1.0  0.19681  0.21357  0.83650  1.0000
  H   H569      1.0  0.25195  0.22662  0.84016  1.0000
  H   H570      1.0  0.27822  0.32135  0.85916  1.0000
  H   H571      1.0  0.07858  0.23290  0.78980  1.0000
  C   C717      1.0  0.23367  0.39585  0.93313  1.0000
  S   S92       1.0  0.28480  0.14246  0.73457  1.0000
  C   C718      1.0  0.26025  0.45731  0.82517  1.0000
  H   H572      1.0  0.02579  0.19650  0.84124  1.0000
  H   H573      1.0  0.36247  0.47097  0.79063  1.0000
  H   H574      1.0  0.24567  0.48874  0.75685  1.0000
  S   S93       1.0  0.14457  0.39428  0.95470  1.0000
  C   C719      1.0  0.48007  0.38749  0.95767  1.0000
  C   C720      1.0  0.09254  0.25873  0.73558  1.0000
  Fe  Fe49      1.0  0.45024  0.05318  0.95475  1.0000
  H   H575      1.0  0.10025  0.40377  0.87077  1.0000
  C   C721      1.0  0.49363  0.44625  0.88619  1.0000
  H   H576      1.0  0.45698  0.37883  0.96521  1.0000
  H   H577      1.0  0.37146  0.47014  0.89631  1.0000
  H   H578      1.0  0.21512  0.39311  0.92170  1.0000
  Fe  Fe50      1.0  0.18494  0.46657  0.88761  1.0000
  H   H579      1.0  0.26458  0.39762  0.90675  1.0000
  H   H580      1.0  0.46213  0.37994  0.92387  1.0000
  H   H581      1.0  0.04703  0.10529  0.87584  1.0000
  H   H582      1.0  0.46051  0.24306  0.96047  1.0000
  C   C722      1.0  0.07340  0.02893  0.91962  1.0000
  H   H583      1.0  0.35362  0.19409  0.95309  1.0000
  H   H584      1.0  0.16175  0.05802  0.74270  1.0000
  Fe  Fe51      1.0  0.46773  0.47919  0.94602  1.0000
  C   C723      1.0  0.09859  0.25251  0.75744  1.0000
  H   H585      1.0  0.06944  0.10519  0.72848  1.0000
  H   H586      1.0  0.33534  0.46406  0.86509  1.0000
  C   C724      1.0  0.31568  0.01142  0.75428  1.0000
  S   S94       1.0  0.28120  0.46049  0.74062  1.0000
  C   C725      1.0  0.07353  0.48835  0.79850  1.0000
  C   C726      1.0  0.01981  0.39964  0.93479  1.0000
  H   H587      1.0  0.30663  0.40318  0.93302  1.0000
  C   C727      1.0  0.23878  0.22269  0.94777  1.0000
  C   C728      1.0  0.04873  0.48217  0.91746  1.0000
  C   C729      1.0  0.03723  0.16831  0.72023  1.0000
  H   H588      1.0  0.11200  0.36893  0.72974  1.0000
  Fe  Fe52      1.0  0.22935  0.49893  0.92668  1.0000
  H   H589      1.0  0.06559  0.02658  0.95552  1.0000
  H   H590      1.0  0.39876  0.06128  0.92979  1.0000
  H   H591      1.0  0.03676  0.45723  0.74841  1.0000
  H   H592      1.0  0.06828  0.03613  0.82727  1.0000
  C   C730      1.0  0.25197  0.20387  0.94312  1.0000
  C   C731      1.0  0.28394  0.00489  0.85029  1.0000
  C   C732      1.0  0.06293  0.39369  0.94909  1.0000
  H   H593      1.0  0.00884  0.28776  0.83849  1.0000
  C   C733      1.0  0.11505  0.04880  0.94765  1.0000
  H   H594      1.0  0.35373  0.29721  0.93320  1.0000
  C   C734      1.0  0.08298  0.03410  0.94218  1.0000
  C   C735      1.0  0.36032  0.32173  0.73188  1.0000
  H   H595      1.0  0.16500  0.13796  0.95834  1.0000
  C   C736      1.0  0.06161  0.24980  0.72874  1.0000
  H   H596      1.0  0.27510  0.01561  0.83860  1.0000
  C   C737      1.0  0.22985  0.39736  0.95632  1.0000
  C   C738      1.0  0.08683  0.48847  0.75239  1.0000
  C   C739      1.0  0.29291  0.49625  0.75465  1.0000
  H   H597      1.0  0.16260  0.07117  0.93508  1.0000
  S   S95       1.0  0.41900  0.01223  0.87658  1.0000
  H   H598      1.0  0.35292  0.01432  0.87141  1.0000
  C   C740      1.0  0.15123  0.01235  0.73115  1.0000
  H   H599      1.0  0.47992  0.33849  0.90332  1.0000
  S   S96       1.0  0.40684  0.00982  0.94293  1.0000
  C   C741      1.0  0.18845  0.49326  0.83706  1.0000
  C   C742      1.0  0.36189  0.49055  0.79835  1.0000
  H   H600      1.0  0.11222  0.27099  0.72416  1.0000
  C   C743      1.0  0.32863  0.48473  0.94800  1.0000
  C   C744      1.0  0.30513  0.49145  0.94052  1.0000
  C   C745      1.0  0.47024  0.34329  0.88839  1.0000
  C   C746      1.0  0.33924  0.48514  0.81478  1.0000
  H   H601      1.0  0.32359  0.03605  0.72270  1.0000
  H   H602      1.0  0.04834  0.01723  0.91567  1.0000
  H   H603      1.0  0.01519  0.01054  0.72817  1.0000
  C   C747      1.0  0.47182  0.37933  0.85983  1.0000
  C   C748      1.0  0.02045  0.41559  0.95447  1.0000
  S   S97       1.0  0.43681  0.49230  0.92614  1.0000
  H   H604      1.0  0.04225  0.48458  0.96544  1.0000
  C   C749      1.0  0.48367  0.37400  0.87993  1.0000
  Fe  Fe53      1.0  0.16543  0.49740  0.92323  1.0000
  H   H605      1.0  0.47530  0.47769  0.88208  1.0000
  H   H606      1.0  0.00856  0.28075  0.94204  1.0000
  H   H607      1.0  0.48263  0.40256  0.85241  1.0000
  H   H608      1.0  0.15938  0.49791  0.86223  1.0000
  S   S98       1.0  0.01243  0.09635  0.96337  1.0000
  C   C750      1.0  0.28153  0.40316  0.96287  1.0000
  C   C751      1.0  0.36407  0.28094  0.96393  1.0000
  S   S99       1.0  0.27762  0.10703  0.96590  1.0000
  H   H609      1.0  0.12230  0.05228  0.96516  1.0000
  C   C752      1.0  0.08724  0.32157  0.71706  1.0000
  Fe  Fe54      1.0  0.43373  0.90004  0.09462  1.0000
  S   S100      1.0  0.42597  0.85286  0.08452  1.0000
  S   S101      1.0  0.46086  0.94181  0.07223  1.0000
  Fe  Fe55      1.0  0.40558  0.87808  0.14121  1.0000
  S   S102      1.0  0.39595  0.82927  0.13486  1.0000
  S   S103      1.0  0.39414  0.88971  0.17537  1.0000
  Fe  Fe56      1.0  0.44409  0.85202  0.11916  1.0000
  S   S104      1.0  0.47888  0.83735  0.13068  1.0000
  Fe  Fe57      1.0  0.37863  0.83529  0.10122  1.0000
  S   S105      1.0  0.33371  0.79584  0.08671  1.0000
  S   S106      1.0  0.45521  0.90064  0.12819  1.0000
  S   S107      1.0  0.38509  0.88278  0.10850  1.0000
  C   C753      1.0  0.29314  0.96685  0.13656  1.0000
  H   H610      1.0  0.17921  0.64546  0.15955  1.0000
  Fe  Fe58      1.0  0.13592  0.84030  0.09033  1.0000
  S   S108      1.0  0.15385  0.88005  0.11495  1.0000
  S   S109      1.0  0.09600  0.82468  0.06530  1.0000
  Fe  Fe59      1.0  0.18925  0.82629  0.10089  1.0000
  S   S110      1.0  0.21212  0.86511  0.12614  1.0000
  S   S111      1.0  0.20062  0.78844  0.09266  1.0000
  Fe  Fe60      1.0  0.16271  0.84877  0.13771  1.0000
  S   S112      1.0  0.15197  0.84007  0.17454  1.0000
  Fe  Fe61      1.0  0.20163  0.89308  0.10124  1.0000
  S   S113      1.0  0.23691  0.94312  0.09314  1.0000
  S   S114      1.0  0.14028  0.80758  0.11444  1.0000
  S   S115      1.0  0.18330  0.85575  0.07470  1.0000
  C   C754      1.0  0.29148  0.97534  0.00682  1.0000
  H   H611      1.0  0.29080  0.99788  0.21270  1.0000
  C   C755      1.0  0.49219  0.60976  0.04666  1.0000
  C   C756      1.0  0.09099  0.89329  0.01549  1.0000
  H   H612      1.0  0.46451  0.97658  0.99506  1.0000
  C   C757      1.0  0.01349  0.68803  0.21528  1.0000
  H   H613      1.0  0.16691  0.94576  0.18304  1.0000
  C   C758      1.0  0.03249  0.93540  0.11944  1.0000
  H   H614      1.0  0.28451  0.57709  0.16525  1.0000
  H   H615      1.0  0.01670  0.84076  0.03323  1.0000
  H   H616      1.0  0.07862  0.83152  0.21109  1.0000
  C   C759      1.0  0.15644  0.87245  0.18963  1.0000
  C   C760      1.0  0.13625  0.50962  0.99067  1.0000
  C   C761      1.0  0.20721  0.55325  0.15408  1.0000
  C   C762      1.0  0.16181  0.89992  0.17875  1.0000
  H   H617      1.0  0.01215  0.83473  0.10475  1.0000
  H   H618      1.0  0.16424  0.90189  0.16067  1.0000
  C   C763      1.0  0.22340  0.95379  0.06922  1.0000
  C   C764      1.0  0.24335  0.98176  0.05781  1.0000
  C   C765      1.0  0.23231  0.99033  0.03872  1.0000
  C   C766      1.0  0.20136  0.97070  0.03104  1.0000
  C   C767      1.0  0.18165  0.94265  0.04236  1.0000
  C   C768      1.0  0.19258  0.93429  0.06147  1.0000
  H   H619      1.0  0.26734  0.99655  0.06364  1.0000
  C   C769      1.0  0.29469  0.64516  0.15496  1.0000
  C   C770      1.0  0.45961  0.87481  0.18597  1.0000
  H   H620      1.0  0.17699  0.91268  0.07015  1.0000
  C   C771      1.0  0.07214  0.91733  0.04231  1.0000
  C   C772      1.0  0.22343  0.52003  0.13521  1.0000
  H   H621      1.0  0.48419  0.92518  0.99980  1.0000
  H   H622      1.0  0.06178  0.91915  0.18856  1.0000
  H   H623      1.0  0.12216  0.72607  0.18631  1.0000
  C   C773      1.0  0.04972  0.69711  0.16189  1.0000
  P   P24       1.0  0.07828  0.95062  0.05883  1.0000
  C   C774      1.0  0.04960  0.83042  0.08867  1.0000
  H   H624      1.0  0.19129  0.95607  0.96613  1.0000
  S   S116      1.0  0.18668  0.98086  0.00751  1.0000
  C   C775      1.0  0.23788  0.57179  0.16288  1.0000
  H   H625      1.0  0.34726  0.99050  0.08283  1.0000
  C   C776      1.0  0.31775  0.67546  0.14839  1.0000
  C   C777      1.0  0.17179  0.99552  0.07775  1.0000
  C   C778      1.0  0.13919  0.97454  0.07690  1.0000
  C   C779      1.0  0.03694  0.95527  0.02823  1.0000
  C   C780      1.0  0.26108  0.56383  0.15794  1.0000
  H   H626      1.0  0.19228  0.81077  0.21311  1.0000
  C   C781      1.0  0.49843  0.78663  0.15701  1.0000
  C   C782      1.0  0.37230  0.85463  0.19048  1.0000
  C   C783      1.0  0.18193  0.63046  0.17159  1.0000
  C   C784      1.0  0.49753  0.93138  0.98421  1.0000
  C   C785      1.0  0.32505  0.70114  0.16226  1.0000
  C   C786      1.0  0.33479  0.79869  0.19111  1.0000
  C   C787      1.0  0.35067  0.82712  0.17930  1.0000
  H   H627      1.0  0.05935  0.84422  0.00868  1.0000
  H   H628      1.0  0.01269  0.79278  0.19898  1.0000
  H   H629      1.0  0.31854  0.77737  0.18240  1.0000
  H   H630      1.0  0.34609  0.82782  0.16152  1.0000
  H   H631      1.0  0.43673  0.52232  0.00267  1.0000
  H   H632      1.0  0.06981  0.56853  0.20886  1.0000
  C   C788      1.0  0.06276  0.93637  0.08671  1.0000
  H   H633      1.0  0.44106  0.99048  0.05922  1.0000
  C   C789      1.0  0.28621  0.66640  0.18932  1.0000
  H   H634      1.0  0.08014  0.90362  0.08808  1.0000
  H   H635      1.0  0.48652  0.83590  0.08223  1.0000
  C   C790      1.0  0.47037  0.77579  0.16910  1.0000
  P   P25       1.0  0.01934  0.72537  0.14015  1.0000
  C   C791      1.0  0.48860  0.53665  0.04574  1.0000
  C   C792      1.0  0.29791  0.79635  0.08845  1.0000
  C   C793      1.0  0.27106  0.77141  0.07863  1.0000
  C   C794      1.0  0.24167  0.76960  0.08021  1.0000
  C   C795      1.0  0.23874  0.79310  0.09116  1.0000
  C   C796      1.0  0.26556  0.81846  0.10092  1.0000
  C   C797      1.0  0.29519  0.81997  0.09969  1.0000
  H   H636      1.0  0.27293  0.75311  0.06995  1.0000
  H   H637      1.0  0.22108  0.74993  0.07271  1.0000
  H   H638      1.0  0.26343  0.83665  0.10951  1.0000
  H   H639      1.0  0.31576  0.83924  0.10746  1.0000
  C   C798      1.0  0.44475  0.93833  0.04526  1.0000
  C   C799      1.0  0.41348  0.91553  0.04043  1.0000
  C   C800      1.0  0.40031  0.91543  0.01930  1.0000
  C   C801      1.0  0.41833  0.93819  0.00312  1.0000
  C   C802      1.0  0.45000  0.95996  0.00771  1.0000
  C   C803      1.0  0.46315  0.96013  0.02874  1.0000
  H   H640      1.0  0.39921  0.89851  0.05314  1.0000
  H   H641      1.0  0.37599  0.89809  0.01568  1.0000
  C   C804      1.0  0.15378  0.99387  0.15488  1.0000
  C   C805      1.0  0.34012  0.79767  0.21417  1.0000
  H   H642      1.0  0.02925  0.67479  0.15779  1.0000
  C   C806      1.0  0.05723  0.81661  0.07092  1.0000
  S   S117      1.0  0.13749  0.51039  0.20646  1.0000
  H   H643      1.0  0.44801  0.76536  0.16015  1.0000
  C   C807      1.0  0.06742  0.91317  0.09688  1.0000
  H   H644      1.0  0.02941  0.93147  0.02316  1.0000
  C   C808      1.0  0.47130  0.77953  0.19250  1.0000
  H   H645      1.0  0.03962  0.96395  0.09033  1.0000
  C   C809      1.0  0.21267  0.60774  0.18596  1.0000
  C   C810      1.0  0.07492  0.69731  0.17329  1.0000
  H   H646      1.0  0.48071  0.50435  0.07292  1.0000
  H   H647      1.0  0.27843  0.97163  0.02234  1.0000
  C   C811      1.0  0.11571  0.67134  0.13873  1.0000
  C   C812      1.0  0.10993  0.69078  0.12469  1.0000
  C   C813      1.0  0.13163  0.72291  0.12383  1.0000
  C   C814      1.0  0.15903  0.73566  0.13703  1.0000
  C   C815      1.0  0.16505  0.71642  0.15126  1.0000
  C   C816      1.0  0.14324  0.68405  0.15189  1.0000
  P   P26       1.0  0.20216  0.73297  0.16644  1.0000
  C   C817      1.0  0.23186  0.73315  0.14822  1.0000
  C   C818      1.0  0.21202  0.77228  0.17443  1.0000
  C   C819      1.0  0.23114  0.79793  0.16044  1.0000
  C   C820      1.0  0.23710  0.82800  0.16589  1.0000
  C   C821      1.0  0.22311  0.83260  0.18489  1.0000
  C   C822      1.0  0.20361  0.80718  0.19869  1.0000
  C   C823      1.0  0.19816  0.77716  0.19355  1.0000
  C   C824      1.0  0.22309  0.71074  0.13100  1.0000
  C   C825      1.0  0.24617  0.71012  0.11749  1.0000
  C   C826      1.0  0.27812  0.73188  0.12102  1.0000
  C   C827      1.0  0.28704  0.75436  0.13798  1.0000
  C   C828      1.0  0.26407  0.75490  0.15165  1.0000
  C   C829      1.0  0.19898  0.71056  0.19157  1.0000
  H   H648      1.0  0.25290  0.97028  0.98623  1.0000
  C   C830      1.0  0.08331  0.86361  0.18475  1.0000
  C   C831      1.0  0.29334  0.97934  0.96614  1.0000
  C   C832      1.0  0.22461  0.70717  0.19870  1.0000
  H   H649      1.0  0.09912  0.64633  0.13906  1.0000
  H   H650      1.0  0.08893  0.68099  0.11419  1.0000
  H   H651      1.0  0.12780  0.73803  0.11251  1.0000
  H   H652      1.0  0.17575  0.76054  0.13564  1.0000
  H   H653      1.0  0.14763  0.66856  0.16221  1.0000
  H   H654      1.0  0.24074  0.79471  0.14490  1.0000
  H   H655      1.0  0.25186  0.84758  0.15495  1.0000
  H   H656      1.0  0.22672  0.85570  0.18861  1.0000
  C   C833      1.0  0.33854  0.98445  0.98691  1.0000
  H   H657      1.0  0.07967  0.74978  0.11549  1.0000
  H   H658      1.0  0.19850  0.69401  0.12769  1.0000
  H   H659      1.0  0.23933  0.69343  0.10380  1.0000
  H   H660      1.0  0.31179  0.77195  0.14000  1.0000
  H   H661      1.0  0.27150  0.77254  0.16468  1.0000
  H   H662      1.0  0.27181  0.53198  0.14040  1.0000
  H   H663      1.0  0.24674  0.71807  0.18958  1.0000
  C   C834      1.0  0.49368  0.63598  0.05701  1.0000
  H   H664      1.0  0.13755  0.61584  0.18830  1.0000
  H   H665      1.0  0.19112  0.57535  0.21374  1.0000
  C   C835      1.0  0.02930  0.73041  0.11053  1.0000
  C   C836      1.0  0.02443  0.97158  0.01689  1.0000
  C   C837      1.0  0.44655  0.51923  0.01815  1.0000
  C   C838      1.0  0.12033  0.97817  0.06060  1.0000
  H   H666      1.0  0.44937  0.77155  0.20158  1.0000
  C   C839      1.0  0.17104  0.69652  0.20434  1.0000
  H   H667      1.0  0.09236  0.75545  0.07513  1.0000
  C   C840      1.0  0.13482  0.00264  0.04480  1.0000
  C   C841      1.0  0.20872  0.62726  0.17058  1.0000
  C   C842      1.0  0.06794  0.74506  0.08051  1.0000
  C   C843      1.0  0.31181  0.88995  0.04384  1.0000
  C   C844      1.0  0.28611  0.88007  0.05840  1.0000
  C   C845      1.0  0.27735  0.90151  0.06594  1.0000
  C   C846      1.0  0.29429  0.93283  0.05895  1.0000
  C   C847      1.0  0.32046  0.94303  0.04466  1.0000
  C   C848      1.0  0.32865  0.92123  0.03671  1.0000
  C   C849      1.0  0.15315  0.87000  0.21301  1.0000
  C   C850      1.0  0.01766  0.76508  0.17295  1.0000
  C   C851      1.0  0.00983  0.78688  0.18123  1.0000
  C   C852      1.0  0.50734  0.92560  0.18393  1.0000
  H   H668      1.0  0.28393  0.92129  0.14754  1.0000
  H   H669      1.0  0.08733  0.89977  0.16236  1.0000
  C   C853      1.0  0.20302  0.99365  0.14984  1.0000
  H   H670      1.0  0.17631  0.51304  0.13380  1.0000
  C   C854      1.0  0.01266  0.72376  0.07129  1.0000
  H   H671      1.0  0.46034  0.91879  0.18705  1.0000
  C   C855      1.0  0.10217  0.72575  0.17819  1.0000
  H   H672      1.0  0.49445  0.99736  0.10549  1.0000
  C   C856      1.0  0.39732  0.98620  0.04761  1.0000
  C   C857      1.0  0.32270  0.98121  0.00730  1.0000
  C   C858      1.0  0.14433  0.52159  0.01252  1.0000
  C   C859      1.0  0.05127  0.72544  0.15579  1.0000
  P   P27       1.0  0.34083  0.98270  0.03414  1.0000
  C   C860      1.0  0.07865  0.75395  0.16106  1.0000
  H   H673      1.0  0.38331  0.96635  0.05851  1.0000
  H   H674      1.0  0.31847  0.87326  0.03792  1.0000
  H   H675      1.0  0.27269  0.85570  0.06356  1.0000
  H   H676      1.0  0.25713  0.89380  0.07695  1.0000
  H   H677      1.0  0.28662  0.94887  0.06443  1.0000
  H   H678      1.0  0.34796  0.92839  0.02490  1.0000
  C   C861      1.0  0.25376  0.58758  0.20925  1.0000
  H   H679      1.0  0.12903  0.95519  0.08859  1.0000
  C   C862      1.0  0.50053  0.61106  0.02388  1.0000
  H   H680      1.0  0.10960  0.89498  0.00467  1.0000
  H   H681      1.0  0.44271  0.57611  0.99367  1.0000
  C   C863      1.0  0.06484  0.89968  0.19359  1.0000
  C   C864      1.0  0.25391  0.53816  0.14404  1.0000
  C   C865      1.0  0.10400  0.75398  0.17211  1.0000
  C   C866      1.0  0.01802  0.82359  0.09149  1.0000
  H   H682      1.0  0.28879  0.62583  0.14362  1.0000
  H   H683      1.0  0.27377  0.66340  0.20504  1.0000
  H   H684      1.0  0.15784  0.92729  0.03641  1.0000
  H   H685      1.0  0.04985  0.73873  0.04667  1.0000
  H   H686      1.0  0.18836  0.55778  0.15840  1.0000
  C   C867      1.0  0.27716  0.93907  0.14901  1.0000
  C   C868      1.0  0.25217  0.93408  0.16307  1.0000
  C   C869      1.0  0.24289  0.95664  0.16439  1.0000
  C   C870      1.0  0.25800  0.98403  0.15130  1.0000
  C   C871      1.0  0.16044  0.92235  0.21481  1.0000
  P   P28       1.0  0.50019  0.57812  0.01027  1.0000
  C   C872      1.0  0.47116  0.50859  0.05767  1.0000
  C   C873      1.0  0.35109  0.53090  0.97162  1.0000
  H   H687      1.0  0.48742  0.97759  0.03234  1.0000
  H   H688      1.0  0.29598  0.73224  0.11000  1.0000
  H   H689      1.0  0.12538  0.77594  0.17561  1.0000
  H   H690      1.0  0.22619  0.63980  0.15763  1.0000
  H   H691      1.0  0.09424  0.85497  0.17309  1.0000
  C   C874      1.0  0.15860  0.61383  0.18773  1.0000
  H   H692      1.0  0.01560  0.70903  0.20772  1.0000
  C   C875      1.0  0.13777  0.96649  0.14206  1.0000
  C   C876      1.0  0.15431  0.95279  0.13297  1.0000
  C   C877      1.0  0.18687  0.96640  0.13666  1.0000
  C   C878      1.0  0.09559  0.91962  0.02754  1.0000
  C   C879      1.0  0.27895  0.64035  0.17562  1.0000
  C   C880      1.0  0.47449  0.90754  0.18611  1.0000
  P   P29       1.0  0.24632  0.60220  0.18330  1.0000
  C   C881      1.0  0.06066  0.74229  0.10346  1.0000
  C   C882      1.0  0.05495  0.90144  0.11821  1.0000
  C   C883      1.0  0.03762  0.91267  0.12955  1.0000
  C   C884      1.0  0.20013  0.52758  0.14024  1.0000
  H   H693      1.0  0.23958  0.91250  0.17264  1.0000
  H   H694      1.0  0.06806  0.84663  0.09985  1.0000
  H   H695      1.0  0.22375  0.95265  0.17548  1.0000
  H   H696      1.0  0.07353  0.67537  0.17791  1.0000
  C   C885      1.0  0.03340  0.79619  0.05622  1.0000
  H   H697      1.0  0.18272  0.75785  0.20430  1.0000
  H   H698      1.0  0.21302  0.54088  0.20516  1.0000
  C   C886      1.0  0.06269  0.86478  0.01767  1.0000
  C   C887      1.0  0.07914  0.88869  0.17862  1.0000
  H   H699      1.0  0.11263  0.95612  0.13894  1.0000
  H   H700      1.0  0.14197  0.93181  0.12278  1.0000
  H   H701      1.0  0.19939  0.95579  0.12901  1.0000
  H   H702      1.0  0.30101  0.83453  0.20558  1.0000
  H   H703      1.0  0.27164  0.77645  0.20730  1.0000
  H   H704      1.0  0.16804  0.54056  0.01607  1.0000
  H   H705      1.0  0.05790  0.88292  0.12559  1.0000
  H   H706      1.0  0.12802  0.51849  0.04662  1.0000
  C   C888      1.0  0.45585  0.57537  0.97924  1.0000
  S   S118      1.0  0.40093  0.93958  0.97745  1.0000
  C   C889      1.0  0.04491  0.94718  0.09808  1.0000
  C   C890      1.0  0.47757  0.86014  0.18394  1.0000
  H   H707      1.0  0.46591  0.83481  0.18300  1.0000
  H   H708      1.0  0.43408  0.86077  0.18693  1.0000
  H   H709      1.0  0.02717  0.90295  0.14578  1.0000
  C   C891      1.0  0.18920  0.59117  0.20208  1.0000
  H   H710      1.0  0.32975  0.67915  0.13237  1.0000
  C   C892      1.0  0.16340  0.92475  0.19137  1.0000
  H   H711      1.0  0.50253  0.89247  0.05130  1.0000
  C   C893      1.0  0.28380  0.98943  0.13785  1.0000
  H   H712      1.0  0.15112  0.69908  0.19940  1.0000
  H   H713      1.0  0.11766  0.94149  0.02551  1.0000
  C   C894      1.0  0.03401  0.00251  0.02282  1.0000
  H   H714      1.0  0.01973  0.56866  0.21441  1.0000
  C   C895      1.0  0.05911  0.96989  0.04566  1.0000
  C   C896      1.0  0.16221  0.59404  0.20287  1.0000
  C   C897      1.0  0.12179  0.50919  0.02968  1.0000
  H   H715      1.0  0.08082  0.77618  0.15611  1.0000
  H   H716      1.0  0.31216  0.97043  0.12541  1.0000
  H   H717      1.0  0.15362  0.51948  0.97729  1.0000
  H   H718      1.0  0.02665  0.75443  0.18454  1.0000
  C   C898      1.0  0.07429  0.85024  0.20615  1.0000
  C   C899      1.0  0.03877  0.86273  0.03165  1.0000
  H   H719      1.0  0.03921  0.78613  0.04214  1.0000
  H   H720      1.0  0.01781  0.94311  0.12771  1.0000
  C   C900      1.0  0.47641  0.54226  0.02591  1.0000
  C   C901      1.0  0.05458  0.88558  0.21486  1.0000
  H   H721      1.0  0.36198  0.98726  0.98674  1.0000
  H   H722      1.0  0.31489  0.71658  0.19345  1.0000
  H   H723      1.0  0.21411  0.99743  0.19773  1.0000
  C   C902      1.0  0.50040  0.79423  0.20395  1.0000
  C   C903      1.0  0.37753  0.85373  0.21362  1.0000
  H   H724      1.0  0.34276  0.72464  0.15708  1.0000
  C   C904      1.0  0.04396  0.73566  0.06443  1.0000
  C   C905      1.0  0.04348  0.88882  0.04403  1.0000
  H   H725      1.0  0.32885  0.55903  0.96971  1.0000
  C   C906      1.0  0.30930  0.69660  0.18273  1.0000
  C   C907      1.0  0.38297  0.99824  0.03329  1.0000
  H   H726      1.0  0.48440  0.58865  0.05648  1.0000
  H   H727      1.0  0.18637  0.99213  0.08994  1.0000
  H   H728      1.0  0.36862  0.54625  0.98373  1.0000
  C   C908      1.0  0.27688  0.97440  0.98633  1.0000
  H   H729      1.0  0.49769  0.78440  0.13880  1.0000
  C   C909      1.0  0.43021  0.00001  0.04820  1.0000
  C   C910      1.0  0.48445  0.57548  0.98221  1.0000
  C   C911      1.0  0.06769  0.00062  0.05204  1.0000
  H   H730      1.0  0.48719  0.63491  0.07458  1.0000
  H   H731      1.0  0.02483  0.88662  0.05507  1.0000
  C   C912      1.0  0.01291  0.75644  0.15008  1.0000
  H   H732      1.0  0.14385  0.58006  0.21491  1.0000
  C   C913      1.0  0.23356  0.55603  0.21536  1.0000
  C   C914      1.0  0.32402  0.98397  0.96640  1.0000
  H   H733      1.0  0.50476  0.68396  0.05282  1.0000
  C   C915      1.0  0.50355  0.66363  0.04476  1.0000
  Fe  Fe62      1.0  0.15753  0.93858  0.26688  1.0000
  S   S119      1.0  0.19122  0.92509  0.28185  1.0000
  H   H734      1.0  0.25298  0.92877  0.26504  1.0000
  Fe  Fe63      1.0  0.12075  0.92627  0.31017  1.0000
  S   S120      1.0  0.15198  0.91234  0.32856  1.0000
  S   S121      1.0  0.07878  0.92441  0.32709  1.0000
  Fe  Fe64      1.0  0.19216  0.95406  0.31128  1.0000
  C   C916      1.0  0.15679  0.58430  0.41895  1.0000
  Fe  Fe65      1.0  0.14713  0.88501  0.29715  1.0000
  S   S122      1.0  0.13796  0.83522  0.29890  1.0000
  S   S123      1.0  0.16096  0.96996  0.29532  1.0000
  S   S124      1.0  0.11360  0.89649  0.27979  1.0000
  H   H735      1.0  0.08964  0.62139  0.36178  1.0000
  C   C917      1.0  0.49188  0.83144  0.23722  1.0000
  C   C918      1.0  0.36163  0.82520  0.22542  1.0000
  H   H736      1.0  0.48748  0.51454  0.35158  1.0000
  C   C919      1.0  0.04350  0.71275  0.42280  1.0000
  H   H737      1.0  0.10124  0.77000  0.23103  1.0000
  C   C920      1.0  0.05282  0.65325  0.34605  1.0000
  C   C921      1.0  0.07568  0.55490  0.32012  1.0000
  C   C922      1.0  0.27233  0.92095  0.30587  1.0000
  S   S125      1.0  0.09421  0.61539  0.42088  1.0000
  H   H738      1.0  0.09428  0.86124  0.35140  1.0000
  Fe  Fe66      1.0  0.32641  0.76605  0.31379  1.0000
  S   S126      1.0  0.36940  0.76325  0.32335  1.0000
  S   S127      1.0  0.29204  0.77071  0.33625  1.0000
  Fe  Fe67      1.0  0.33779  0.76434  0.26351  1.0000
  S   S128      1.0  0.38162  0.76158  0.26894  1.0000
  Fe  Fe68      1.0  0.35252  0.72640  0.29588  1.0000
  S   S129      1.0  0.34945  0.67908  0.29970  1.0000
  Fe  Fe69      1.0  0.39413  0.79867  0.29558  1.0000
  S   S130      1.0  0.43591  0.84877  0.29714  1.0000
  S   S131      1.0  0.30818  0.72715  0.28849  1.0000
  S   S132      1.0  0.35150  0.80337  0.28802  1.0000
  C   C923      1.0  0.10662  0.60897  0.33219  1.0000
  H   H739      1.0  0.34905  0.94212  0.32953  1.0000
  C   C924      1.0  0.22987  0.91156  0.39644  1.0000
  Fe  Fe70      1.0  0.31025  0.83292  0.44600  1.0000
  S   S133      1.0  0.30394  0.85537  0.41515  1.0000
  S   S134      1.0  0.32708  0.79890  0.43941  1.0000
  C   C925      1.0  0.47416  0.92011  0.34947  1.0000
  S   S135      1.0  0.36341  0.94346  0.41834  1.0000
  Fe  Fe71      1.0  0.25704  0.84250  0.43025  1.0000
  C   C926      1.0  0.26241  0.93568  0.32141  1.0000
  C   C927      1.0  0.43004  0.87167  0.43161  1.0000
  H   H740      1.0  0.13763  0.99415  0.24632  1.0000
  C   C928      1.0  0.30142  0.77646  0.36511  1.0000
  C   C929      1.0  0.28038  0.77862  0.37992  1.0000
  C   C930      1.0  0.28759  0.78390  0.40294  1.0000
  C   C931      1.0  0.31589  0.78712  0.41131  1.0000
  C   C932      1.0  0.33637  0.78374  0.39667  1.0000
  C   C933      1.0  0.32926  0.77866  0.37357  1.0000
  H   H741      1.0  0.25859  0.77652  0.37361  1.0000
  H   H742      1.0  0.27134  0.78594  0.41418  1.0000
  H   H743      1.0  0.35829  0.78622  0.40303  1.0000
  H   H744      1.0  0.34560  0.77699  0.36232  1.0000
  C   C934      1.0  0.13357  0.72459  0.43910  1.0000
  C   C935      1.0  0.13927  0.72661  0.41586  1.0000
  C   C936      1.0  0.16428  0.75437  0.40654  1.0000
  C   C937      1.0  0.18407  0.77993  0.42045  1.0000
  C   C938      1.0  0.17867  0.77749  0.44368  1.0000
  C   C939      1.0  0.02610  0.51802  0.26928  1.0000
  H   H745      1.0  0.12379  0.70726  0.40505  1.0000
  H   H746      1.0  0.16810  0.75621  0.38852  1.0000
  C   C940      1.0  0.25851  0.58188  0.30076  1.0000
  H   H747      1.0  0.04495  0.54227  0.27053  1.0000
  H   H748      1.0  0.47077  0.89750  0.24232  1.0000
  C   C941      1.0  0.22174  0.87297  0.30992  1.0000
  H   H749      1.0  0.38306  0.89149  0.40202  1.0000
  C   C942      1.0  0.39744  0.96981  0.43407  1.0000
  C   C943      1.0  0.26874  0.96184  0.23797  1.0000
  H   H750      1.0  0.19916  0.61695  0.46476  1.0000
  Fe  Fe72      1.0  0.13863  0.51473  0.24446  1.0000
  H   H751      1.0  0.22331  0.51969  0.23977  1.0000
  C   C944      1.0  0.48504  0.97622  0.27903  1.0000
  C   C945      1.0  0.46252  0.97297  0.35463  1.0000
  H   H752      1.0  0.23143  0.74879  0.23650  1.0000
  C   C946      1.0  0.05270  0.94103  0.26905  1.0000
  C   C947      1.0  0.28442  0.63810  0.29217  1.0000
  C   C948      1.0  0.31366  0.64223  0.29958  1.0000
  C   C949      1.0  0.31496  0.61607  0.30743  1.0000
  C   C950      1.0  0.27696  0.83972  0.23423  1.0000
  H   H753      1.0  0.30609  0.60874  0.25303  1.0000
  H   H754      1.0  0.28302  0.65801  0.28598  1.0000
  H   H755      1.0  0.33726  0.61887  0.31322  1.0000
  S   S136      1.0  0.01051  0.70349  0.29285  1.0000
  C   C951      1.0  0.10094  0.80015  0.29606  1.0000
  C   C952      1.0  0.10126  0.77199  0.29730  1.0000
  C   C953      1.0  0.17298  0.77032  0.26010  1.0000
  C   C954      1.0  0.47736  0.86398  0.29852  1.0000
  H   H756      1.0  0.01813  0.83906  0.30424  1.0000
  C   C955      1.0  0.07185  0.79907  0.29283  1.0000
  H   H757      1.0  0.12331  0.77240  0.29962  1.0000
  C   C956      1.0  0.16910  0.79663  0.26146  1.0000
  C   C957      1.0  0.02397  0.74531  0.36143  1.0000
  H   H758      1.0  0.07124  0.82069  0.29176  1.0000
  C   C958      1.0  0.46347  0.89618  0.36575  1.0000
  C   C959      1.0  0.08240  0.97624  0.38093  1.0000
  C   C960      1.0  0.07119  0.95545  0.36260  1.0000
  C   C961      1.0  0.09126  0.94708  0.35171  1.0000
  C   C962      1.0  0.12196  0.95835  0.35985  1.0000
  H   H759      1.0  0.47047  0.73341  0.22244  1.0000
  P   P30       1.0  0.03397  0.89836  0.23347  1.0000
  C   C963      1.0  0.26170  0.71471  0.44027  1.0000
  H   H760      1.0  0.13779  0.95249  0.35144  1.0000
  C   C964      1.0  0.16173  0.85968  0.45273  1.0000
  Fe  Fe73      1.0  0.07414  0.58012  0.44903  1.0000
  H   H761      1.0  0.27016  0.55314  0.26339  1.0000
  H   H762      1.0  0.18338  0.95611  0.40048  1.0000
  H   H763      1.0  0.15025  0.71311  0.28633  1.0000
  C   C965      1.0  0.12526  0.74396  0.23716  1.0000
  H   H764      1.0  0.15731  0.57498  0.43538  1.0000
  C   C966      1.0  0.11740  0.87722  0.38365  1.0000
  C   C967      1.0  0.22513  0.95719  0.38837  1.0000
  C   C968      1.0  0.06715  0.87276  0.37385  1.0000
  C   C969      1.0  0.08767  0.76978  0.37984  1.0000
  C   C970      1.0  0.32137  0.89338  0.29908  1.0000
  H   H765      1.0  0.48781  0.90979  0.28718  1.0000
  H   H766      1.0  0.24978  0.74583  0.27803  1.0000
  H   H767      1.0  0.02786  0.79062  0.41607  1.0000
  S   S137      1.0  0.10045  0.55532  0.45918  1.0000
  C   C971      1.0  0.02625  0.68939  0.23663  1.0000
  H   H768      1.0  0.03942  0.69374  0.45613  1.0000
  H   H769      1.0  0.50512  0.99771  0.27291  1.0000
  H   H770      1.0  0.36621  0.82452  0.24312  1.0000
  H   H771      1.0  0.15241  0.89256  0.24362  1.0000
  C   C972      1.0  0.46021  0.82395  0.23914  1.0000
  C   C973      1.0  0.26950  0.69484  0.36990  1.0000
  C   C974      1.0  0.30379  0.96038  0.26667  1.0000
  H   H772      1.0  0.42974  0.74247  0.29691  1.0000
  C   C975      1.0  0.07045  0.68348  0.33722  1.0000
  C   C976      1.0  0.24410  0.77414  0.23619  1.0000
  C   C977      1.0  0.42745  0.71124  0.27073  1.0000
  C   C978      1.0  0.45459  0.94297  0.31043  1.0000
  C   C979      1.0  0.47249  0.76550  0.24820  1.0000
  C   C980      1.0  0.03599  0.59768  0.24438  1.0000
  H   H773      1.0  0.07189  0.53622  0.30870  1.0000
  C   C981      1.0  0.04341  0.76966  0.29112  1.0000
  C   C982      1.0  0.15016  0.92642  0.44548  1.0000
  C   C983      1.0  0.43898  0.70878  0.24976  1.0000
  C   C984      1.0  0.13313  0.56573  0.40346  1.0000
  H   H774      1.0  0.19163  0.87416  0.41407  1.0000
  C   C985      1.0  0.03256  0.67283  0.37513  1.0000
  H   H775      1.0  0.31770  0.71633  0.35847  1.0000
  H   H776      1.0  0.31057  0.66805  0.34032  1.0000
  H   H777      1.0  0.40960  0.69037  0.27930  1.0000
  C   C986      1.0  0.29076  0.66786  0.34859  1.0000
  H   H778      1.0  0.13846  0.95237  0.42140  1.0000
  H   H779      1.0  0.03331  0.52625  0.33936  1.0000
  C   C987      1.0  0.37159  0.98805  0.34406  1.0000
  H   H780      1.0  0.36357  0.90369  0.24176  1.0000
  C   C988      1.0  0.16996  0.70892  0.28605  1.0000
  H   H781      1.0  0.27312  0.71599  0.37804  1.0000
  H   H782      1.0  0.41420  0.89837  0.30046  1.0000
  C   C989      1.0  0.14938  0.82166  0.37992  1.0000
  C   C990      1.0  0.13128  0.81343  0.36026  1.0000
  H   H783      1.0  0.17358  0.84093  0.37977  1.0000
  H   H784      1.0  0.14117  0.82672  0.34498  1.0000
  H   H785      1.0  0.03126  0.66339  0.26379  1.0000
  H   H786      1.0  0.10042  0.94703  0.22522  1.0000
  C   C991      1.0  0.28602  0.59399  0.24231  1.0000
  S   S138      1.0  0.16376  0.95369  0.23075  1.0000
  C   C992      1.0  0.22582  0.72731  0.28156  1.0000
  C   C993      1.0  0.21935  0.72651  0.43783  1.0000
  C   C994      1.0  0.32475  0.91716  0.28419  1.0000
  C   C995      1.0  0.09255  0.95257  0.24066  1.0000
  P   P31       1.0  0.44957  0.93600  0.34055  1.0000
  C   C996      1.0  0.40844  0.90856  0.34686  1.0000
  H   H787      1.0  0.42826  0.84179  0.24286  1.0000
  H   H788      1.0  0.33027  0.85514  0.30475  1.0000
  C   C997      1.0  0.47664  0.87915  0.24058  1.0000
  C   C998      1.0  0.06953  0.70852  0.34752  1.0000
  C   C999      1.0  0.33294  0.87347  0.29326  1.0000
  H   H789      1.0  0.11503  0.54220  0.40808  1.0000
  C   C1000     1.0  0.39538  0.87661  0.34161  1.0000
  C   C1001     1.0  0.36403  0.85508  0.34707  1.0000
  C   C1002     1.0  0.34543  0.86511  0.35803  1.0000
  C   C1003     1.0  0.35798  0.89689  0.36305  1.0000
  C   C1004     1.0  0.38943  0.91852  0.35764  1.0000
  H   H790      1.0  0.42992  0.94436  0.40662  1.0000
  C   C1005     1.0  0.43378  0.92046  0.29493  1.0000
  C   C1006     1.0  0.46138  0.76771  0.26951  1.0000
  H   H791      1.0  0.38400  0.84486  0.41627  1.0000
  H   H792      1.0  0.14163  0.66141  0.29786  1.0000
  S   S139      1.0  0.02921  0.56667  0.37180  1.0000
  H   H793      1.0  0.23408  0.97977  0.38013  1.0000
  C   C1007     1.0  0.10154  0.58505  0.31705  1.0000
  C   C1008     1.0  0.34806  0.87719  0.27260  1.0000
  H   H794      1.0  0.35315  0.99585  0.26297  1.0000
  H   H795      1.0  0.40962  0.86820  0.33357  1.0000
  H   H796      1.0  0.35435  0.83049  0.34306  1.0000
  H   H797      1.0  0.32157  0.84811  0.36315  1.0000
  H   H798      1.0  0.34385  0.90460  0.37214  1.0000
  H   H799      1.0  0.39893  0.94266  0.36270  1.0000
  C   C1009     1.0  0.20024  0.73266  0.27952  1.0000
  H   H800      1.0  0.12699  0.63211  0.33033  1.0000
  C   C1010     1.0  0.07407  0.96782  0.28104  1.0000
  H   H801      1.0  0.25789  0.74810  0.46138  1.0000
  P   P32       1.0  0.20714  0.77136  0.27280  1.0000
  C   C1011     1.0  0.21798  0.79180  0.29939  1.0000
  C   C1012     1.0  0.23798  0.79124  0.25224  1.0000
  C   C1013     1.0  0.25426  0.82414  0.25097  1.0000
  C   C1014     1.0  0.12424  0.80608  0.46330  1.0000
  H   H802      1.0  0.50353  0.86431  0.43104  1.0000
  H   H803      1.0  0.35698  0.86175  0.26805  1.0000
  H   H804      1.0  0.25251  0.99316  0.28286  1.0000
  C   C1015     1.0  0.19452  0.78960  0.31409  1.0000
  C   C1016     1.0  0.20246  0.80198  0.33591  1.0000
  C   C1017     1.0  0.23384  0.81637  0.34324  1.0000
  C   C1018     1.0  0.25727  0.81845  0.32873  1.0000
  C   C1019     1.0  0.24943  0.80610  0.30694  1.0000
  C   C1020     1.0  0.32949  0.98598  0.25609  1.0000
  S   S140      1.0  0.02756  0.61723  0.42303  1.0000
  H   H805      1.0  0.04537  0.88608  0.39957  1.0000
  H   H806      1.0  0.08719  0.89798  0.42778  1.0000
  H   H807      1.0  0.03832  0.71149  0.24565  1.0000
  Fe  Fe74      1.0  0.01211  0.58126  0.45055  1.0000
  H   H808      1.0  0.19338  0.79711  0.45450  1.0000
  C   C1021     1.0  0.11377  0.97952  0.25258  1.0000
  C   C1022     1.0  0.40414  0.86803  0.41911  1.0000
  H   H809      1.0  0.24920  0.83769  0.26276  1.0000
  C   C1023     1.0  0.39806  0.96834  0.45761  1.0000
  C   C1024     1.0  0.05069  0.70350  0.36663  1.0000
  H   H810      1.0  0.17004  0.77750  0.30898  1.0000
  H   H811      1.0  0.18425  0.79979  0.34740  1.0000
  H   H812      1.0  0.23985  0.82512  0.36039  1.0000
  H   H813      1.0  0.28134  0.82830  0.33471  1.0000
  H   H814      1.0  0.26771  0.80643  0.29645  1.0000
  H   H815      1.0  0.23454  0.60486  0.28682  1.0000
  C   C1025     1.0  0.25690  0.60792  0.29263  1.0000
  C   C1026     1.0  0.35182  0.90090  0.25779  1.0000
  C   C1027     1.0  0.29446  0.98726  0.22758  1.0000
  H   H816      1.0  0.18579  0.81732  0.27071  1.0000
  H   H817      1.0  0.28961  0.86511  0.23335  1.0000
  C   C1028     1.0  0.12136  0.77009  0.23889  1.0000
  C   C1029     1.0  0.15132  0.74429  0.24733  1.0000
  H   H818      1.0  0.15096  0.51869  0.42586  1.0000
  C   C1030     1.0  0.13281  0.97831  0.37852  1.0000
  H   H819      1.0  0.44050  0.88699  0.37348  1.0000
  C   C1031     1.0  0.46423  0.95366  0.26378  1.0000
  H   H820      1.0  0.04660  0.79399  0.37198  1.0000
  C   C1032     1.0  0.22079  0.69813  0.28890  1.0000
  H   H821      1.0  0.44123  0.79978  0.23922  1.0000
  H   H822      1.0  0.11461  0.56326  0.36999  1.0000
  C   C1033     1.0  0.14436  0.95048  0.43872  1.0000
  H   H823      1.0  0.14019  0.81659  0.25247  1.0000
  H   H824      1.0  0.20812  0.73927  0.44385  1.0000
  C   C1034     1.0  0.04426  0.74157  0.29274  1.0000
  H   H825      1.0  0.30972  0.89013  0.31518  1.0000
  C   C1035     1.0  0.15475  0.83203  0.46405  1.0000
  H   H826      1.0  0.47513  0.82193  0.31106  1.0000
  H   H827      1.0  0.15676  0.98730  0.38438  1.0000
  H   H828      1.0  0.05956  0.95874  0.43119  1.0000
  C   C1036     1.0  0.42428  0.99303  0.42275  1.0000
  H   H829      1.0  0.19228  0.66206  0.24541  1.0000
  H   H830      1.0  0.26468  0.95220  0.37829  1.0000
  C   C1037     1.0  0.35238  0.96546  0.32816  1.0000
  H   H831      1.0  0.07707  0.78738  0.45027  1.0000
  H   H832      1.0  0.14706  0.66823  0.23342  1.0000
  H   H833      1.0  0.43024  0.68591  0.24217  1.0000
  C   C1038     1.0  0.43883  0.74066  0.28067  1.0000
  C   C1039     1.0  0.02600  0.82109  0.44124  1.0000
  C   C1040     1.0  0.03414  0.64798  0.36510  1.0000
  H   H834      1.0  0.15457  0.72432  0.24515  1.0000
  H   H835      1.0  0.03115  0.90154  0.43536  1.0000
  S   S141      1.0  0.12668  0.59353  0.29375  1.0000
  H   H836      1.0  0.38270  0.98202  0.35750  1.0000
  S   S142      1.0  0.02679  0.55091  0.43277  1.0000
  H   H837      1.0  0.06721  0.98337  0.38898  1.0000
  C   C1041     1.0  0.08937  0.89047  0.41110  1.0000
  C   C1042     1.0  0.06532  0.88323  0.39533  1.0000
  H   H838      1.0  0.01706  0.66782  0.38942  1.0000
  C   C1043     1.0  0.45529  0.90186  0.43646  1.0000
  C   C1044     1.0  0.10462  0.98707  0.27281  1.0000
  C   C1045     1.0  0.10066  0.80768  0.45100  1.0000
  H   H839      1.0  0.24276  0.89899  0.39496  1.0000
  C   C1046     1.0  0.29485  0.69506  0.35893  1.0000
  H   H840      1.0  0.18555  0.70389  0.41155  1.0000
  C   C1047     1.0  0.20671  0.70641  0.41935  1.0000
  C   C1048     1.0  0.13271  0.57769  0.38216  1.0000
  H   H841      1.0  0.07438  0.72172  0.29632  1.0000
  S   S143      1.0  0.10016  0.69239  0.45151  1.0000
  C   C1049     1.0  0.17928  0.61519  0.41354  1.0000
  C   C1050     1.0  0.17833  0.62768  0.39252  1.0000
  C   C1051     1.0  0.15554  0.60845  0.37659  1.0000
  P   P33       1.0  0.20751  0.66740  0.38542  1.0000
  C   C1052     1.0  0.18970  0.68485  0.36840  1.0000
  C   C1053     1.0  0.22186  0.69073  0.41085  1.0000
  C   C1054     1.0  0.24893  0.69427  0.42194  1.0000
  C   C1055     1.0  0.28770  0.58633  0.30817  1.0000
  C   C1056     1.0  0.20808  0.70876  0.35304  1.0000
  C   C1057     1.0  0.19515  0.72445  0.34152  1.0000
  C   C1058     1.0  0.16366  0.71624  0.34506  1.0000
  C   C1059     1.0  0.14510  0.69229  0.36022  1.0000
  C   C1060     1.0  0.15806  0.67669  0.37190  1.0000
  C   C1061     1.0  0.23976  0.66748  0.37051  1.0000
  C   C1062     1.0  0.23567  0.64030  0.35973  1.0000
  C   C1063     1.0  0.26117  0.64051  0.34892  1.0000
  C   C1064     1.0  0.23941  0.54376  0.23485  1.0000
  C   C1065     1.0  0.07338  0.74314  0.29546  1.0000
  S   S144      1.0  0.21322  0.81594  0.40855  1.0000
  H   H842      1.0  0.19725  0.62934  0.42576  1.0000
  H   H843      1.0  0.15545  0.61727  0.35989  1.0000
  H   H844      1.0  0.26080  0.68208  0.41604  1.0000
  C   C1066     1.0  0.19041  0.67429  0.29450  1.0000
  H   H845      1.0  0.23264  0.71595  0.35024  1.0000
  H   H846      1.0  0.21000  0.74325  0.33009  1.0000
  H   H847      1.0  0.15377  0.72867  0.33633  1.0000
  H   H848      1.0  0.12090  0.68625  0.36341  1.0000
  H   H849      1.0  0.14365  0.65898  0.38419  1.0000
  H   H850      1.0  0.21302  0.61886  0.35966  1.0000
  H   H851      1.0  0.25806  0.61946  0.34077  1.0000
  H   H852      1.0  0.14063  0.99036  0.44921  1.0000
  H   H853      1.0  0.02098  0.76872  0.28890  1.0000
  H   H854      1.0  0.08936  0.83555  0.42937  1.0000
  S   S145      1.0  0.26238  0.81770  0.46011  1.0000
  C   C1067     1.0  0.11336  0.98794  0.38870  1.0000
  Fe  Fe75      1.0  0.07496  0.64129  0.44046  1.0000
  H   H855      1.0  0.42975  0.85088  0.43787  1.0000
  H   H856      1.0  0.34366  0.93908  0.25179  1.0000
  H   H857      1.0  0.18555  0.87956  0.45369  1.0000
  H   H858      1.0  0.28356  0.71878  0.44799  1.0000
  H   H859      1.0  0.13745  0.87490  0.37874  1.0000
  H   H860      1.0  0.47344  0.86417  0.38388  1.0000
  C   C1068     1.0  0.24224  0.94149  0.38710  1.0000
  C   C1069     1.0  0.06000  0.86114  0.22120  1.0000
  C   C1070     1.0  0.10055  0.78777  0.36020  1.0000
  C   C1071     1.0  0.33710  0.97294  0.31117  1.0000
  H   H861      1.0  0.08702  0.78180  0.34467  1.0000
  C   C1072     1.0  0.13648  0.80459  0.39966  1.0000
  C   C1073     1.0  0.02945  0.70293  0.44398  1.0000
  C   C1074     1.0  0.26575  0.56266  0.24821  1.0000
  C   C1075     1.0  0.45267  0.84773  0.24089  1.0000
  H   H862      1.0  0.08321  0.73165  0.34031  1.0000
  P   P34       1.0  0.50133  0.80063  0.23392  1.0000
  C   C1076     1.0  0.14342  0.79645  0.25087  1.0000
  C   C1077     1.0  0.02864  0.77592  0.36140  1.0000
  H   H863      1.0  0.11051  0.62958  0.26581  1.0000
  C   C1078     1.0  0.10774  0.83513  0.43924  1.0000
  H   H864      1.0  0.20540  0.84910  0.30492  1.0000
  C   C1079     1.0  0.04345  0.91563  0.44982  1.0000
  C   C1080     1.0  0.48228  0.88337  0.37195  1.0000
  C   C1081     1.0  0.15338  0.75014  0.45290  1.0000
  C   C1082     1.0  0.34036  0.92090  0.26357  1.0000
  H   H865      1.0  0.49041  0.96619  0.38029  1.0000
  C   C1083     1.0  0.11602  0.88826  0.40517  1.0000
  H   H866      1.0  0.15057  0.81100  0.41492  1.0000
  C   C1084     1.0  0.10596  0.77853  0.39963  1.0000
  C   C1085     1.0  0.27335  0.94835  0.25735  1.0000
  C   C1086     1.0  0.08570  0.60288  0.35016  1.0000
  C   C1087     1.0  0.14563  0.97221  0.45445  1.0000
  H   H867      1.0  0.46807  0.95760  0.24580  1.0000
  H   H868      1.0  0.24050  0.69406  0.29067  1.0000
  C   C1088     1.0  0.24715  0.73112  0.44798  1.0000
  C   C1089     1.0  0.43863  0.92581  0.27174  1.0000
  H   H869      1.0  0.27724  0.96032  0.32548  1.0000
  H   H870      1.0  0.24509  0.95277  0.23114  1.0000
  H   H871      1.0  0.06395  0.71053  0.41881  1.0000
  Fe  Fe76      1.0  0.32500  0.89953  0.43558  1.0000
  H   H872      1.0  0.04230  0.81867  0.45224  1.0000
  H   H873      1.0  0.04735  0.94660  0.35651  1.0000
  P   P35       1.0  0.30994  0.94307  0.29184  1.0000
  H   H874      1.0  0.22453  0.93059  0.34269  1.0000
  H   H875      1.0  0.43761  0.98752  0.33178  1.0000
  P   P36       1.0  0.14725  0.89733  0.42541  1.0000
  H   H876      1.0  0.42284  0.90796  0.25997  1.0000
  S   S146      1.0  0.17249  0.56001  0.26164  1.0000
  H   H877      1.0  0.09728  0.76528  0.41502  1.0000
  H   H878      1.0  0.28934  0.56654  0.31444  1.0000
  S   S147      1.0  0.27689  0.88951  0.44739  1.0000
  C   C1090     1.0  0.40379  0.89431  0.41071  1.0000
  S   S148      1.0  0.31873  0.76195  0.22867  1.0000
  P   P37       1.0  0.48749  0.90697  0.45433  1.0000
  H   H879      1.0  0.04893  0.86800  0.36145  1.0000
  C   C1091     1.0  0.06195  0.93289  0.24895  1.0000
  C   C1092     1.0  0.09292  0.86930  0.36812  1.0000
  S   S149      1.0  0.13747  0.52401  0.30902  1.0000
  C   C1093     1.0  0.46160  0.73579  0.23856  1.0000
  H   H880      1.0  0.06718  0.97330  0.29697  1.0000
  C   C1094     1.0  0.06221  0.61578  0.25829  1.0000
  C   C1095     1.0  0.03083  0.72454  0.40679  1.0000
  P   P38       1.0  0.04825  0.73580  0.37900  1.0000
  C   C1096     1.0  0.45585  0.92802  0.42648  1.0000
  H   H881      1.0  0.25828  0.87802  0.28754  1.0000
  S   S150      1.0  0.23524  0.99135  0.32999  1.0000
  C   C1097     1.0  0.09063  0.61625  0.25467  1.0000
  H   H882      1.0  0.05325  0.85038  0.23768  1.0000
  C   C1098     1.0  0.05400  0.54922  0.33748  1.0000
  Fe  Fe77      1.0  0.04524  0.58814  0.40619  1.0000
  C   C1099     1.0  0.43003  0.92417  0.41373  1.0000
  C   C1100     1.0  0.18416  0.91396  0.41002  1.0000
  C   C1101     1.0  0.16502  0.67969  0.29302  1.0000
  H   H883      1.0  0.47575  0.95147  0.42906  1.0000
  H   H884      1.0  0.49697  0.98853  0.31377  1.0000
  C   C1102     1.0  0.48236  0.98150  0.37363  1.0000
  C   C1103     1.0  0.05953  0.94825  0.44732  1.0000
  C   C1104     1.0  0.02195  0.66194  0.24695  1.0000
  H   H885      1.0  0.02063  0.62447  0.37198  1.0000
  C   C1105     1.0  0.13839  0.86140  0.43996  1.0000
  C   C1106     1.0  0.06767  0.58182  0.22260  1.0000
  C   C1107     1.0  0.45287  0.99366  0.34644  1.0000
  C   C1108     1.0  0.49769  0.89554  0.29259  1.0000
  C   C1109     1.0  0.02431  0.86531  0.27376  1.0000
  C   C1110     1.0  0.19629  0.94358  0.39984  1.0000
  Fe  Fe78      1.0  0.13091  0.55227  0.28238  1.0000
  S   S151      1.0  0.22547  0.54310  0.30174  1.0000
  C   C1111     1.0  0.05885  0.57325  0.35236  1.0000
  H   H886      1.0  0.18668  0.65180  0.30041  1.0000
  Fe  Fe79      1.0  0.17729  0.52933  0.28721  1.0000
  C   C1112     1.0  0.50815  0.88680  0.23823  1.0000
  C   C1113     1.0  0.20079  0.89765  0.40760  1.0000
  C   C1114     1.0  0.49048  0.84599  0.30592  1.0000
  H   H887      1.0  0.18892  0.87489  0.33299  1.0000
  H   H888      1.0  0.46987  0.79038  0.27737  1.0000
  C   C1115     1.0  0.21231  0.88756  0.32569  1.0000
  C   C1116     1.0  0.23252  0.91892  0.33129  1.0000
  H   H889      1.0  0.08469  0.68745  0.32232  1.0000
  H   H890      1.0  0.04792  0.88334  0.27853  1.0000
  C   C1117     1.0  0.25165  0.88949  0.30007  1.0000
  C   C1118     1.0  0.48027  0.97094  0.30223  1.0000
  H   H891      1.0  0.05333  0.63379  0.33801  1.0000
  H   H892      1.0  0.16726  0.64308  0.45988  1.0000
  H   H893      1.0  0.06060  0.62917  0.27216  1.0000
  H   H894      1.0  0.02907  0.92644  0.27559  1.0000
  S   S152      1.0  0.33486  0.87790  0.46556  1.0000
  C   C1119     1.0  0.32481  0.99935  0.23666  1.0000
  H   H895      1.0  0.39454  0.87487  0.22225  1.0000
  C   C1120     1.0  0.01757  0.80477  0.42078  1.0000
  C   C1121     1.0  0.28018  0.60645  0.22286  1.0000
  C   C1122     1.0  0.16862  0.67904  0.22364  1.0000
  C   C1123     1.0  0.00875  0.90763  0.21662  1.0000
  H   H896      1.0  0.01417  0.97562  0.38760  1.0000
  C   C1124     1.0  0.09322  0.59884  0.23715  1.0000
  H   H897      1.0  0.01766  0.91689  0.31782  1.0000
  H   H898      1.0  0.10801  0.72347  0.22798  1.0000
  C   C1125     1.0  0.19412  0.67561  0.23045  1.0000
  C   C1126     1.0  0.01103  0.86681  0.25304  1.0000
  C   C1127     1.0  0.15520  0.89489  0.22560  1.0000
  H   H899      1.0  0.01652  0.94772  0.23666  1.0000
  H   H900      1.0  0.01294  0.56736  0.28678  1.0000
  S   S153      1.0  0.09618  0.51054  0.26236  1.0000
  H   H901      1.0  0.42395  0.99450  0.40458  1.0000
  H   H902      1.0  0.08801  0.99278  0.46351  1.0000
  H   H903      1.0  0.01474  0.80737  0.34682  1.0000
  C   C1128     1.0  0.03922  0.58162  0.22597  1.0000
  H   H904      1.0  0.24224  0.68781  0.22363  1.0000
  H   H905      1.0  0.11504  0.59849  0.23509  1.0000
  C   C1129     1.0  0.50496  0.93276  0.34097  1.0000
  H   H906      1.0  0.04023  0.51117  0.23640  1.0000
  C   C1130     1.0  0.07565  0.96752  0.46557  1.0000
  C   C1131     1.0  0.01278  0.83954  0.44750  1.0000
  H   H907      1.0  0.14871  0.84869  0.22135  1.0000
  H   H908      1.0  0.29651  0.63063  0.21863  1.0000
  H   H909      1.0  0.01132  0.95960  0.33441  1.0000
  C   C1132     1.0  0.01052  0.78358  0.34729  1.0000
  C   C1133     1.0  0.28326  0.82253  0.21850  1.0000
  C   C1134     1.0  0.26669  0.78977  0.21944  1.0000
  C   C1135     1.0  0.22216  0.68985  0.21808  1.0000
  C   C1136     1.0  0.01578  0.65613  0.65840  1.0000
  P   P39       1.0  0.02232  0.85970  0.47438  1.0000
  C   C1137     1.0  0.23933  0.96722  0.51410  1.0000
  C   C1138     1.0  0.24445  0.72448  0.65809  1.0000
  C   C1139     1.0  0.13155  0.64697  0.69594  1.0000
  C   C1140     1.0  0.12193  0.56517  0.48457  1.0000
  C   C1141     1.0  0.21330  0.94270  0.52526  1.0000
  Fe  Fe80      1.0  0.12474  0.79609  0.58190  1.0000
  S   S154      1.0  0.07578  0.75928  0.59224  1.0000
  S   S155      1.0  0.13500  0.79642  0.54492  1.0000
  Fe  Fe81      1.0  0.14236  0.82108  0.62976  1.0000
  S   S156      1.0  0.09495  0.78632  0.64346  1.0000
  S   S157      1.0  0.18128  0.85870  0.65045  1.0000
  Fe  Fe82      1.0  0.10001  0.75152  0.62173  1.0000
  S   S158      1.0  0.09413  0.70648  0.63680  1.0000
  Fe  Fe83      1.0  0.07656  0.79838  0.61245  1.0000
  S   S159      1.0  0.03525  0.80708  0.61267  1.0000
  S   S160      1.0  0.14904  0.78603  0.61008  1.0000
  S   S161      1.0  0.12386  0.83541  0.60012  1.0000
  H   H910      1.0  0.09472  0.58251  0.50139  1.0000
  C   C1142     1.0  0.15829  0.92535  0.46809  1.0000
  S   S162      1.0  0.04699  0.94183  0.61924  1.0000
  Fe  Fe84      1.0  0.07062  0.55034  0.59136  1.0000
  S   S163      1.0  0.12005  0.57864  0.60446  1.0000
  S   S164      1.0  0.04690  0.57881  0.58314  1.0000
  Fe  Fe85      1.0  0.13129  0.55287  0.57839  1.0000
  S   S165      1.0  0.16986  0.57477  0.55265  1.0000
  Fe  Fe86      1.0  0.10705  0.53667  0.62637  1.0000
  S   S166      1.0  0.11299  0.53673  0.66392  1.0000
  C   C1143     1.0  0.48821  0.83889  0.49391  1.0000
  S   S167      1.0  0.05648  0.50953  0.61505  1.0000
  H   H911      1.0  0.09958  0.82225  0.52204  1.0000
  C   C1144     1.0  0.15261  0.57312  0.52627  1.0000
  C   C1145     1.0  0.12869  0.58079  0.52394  1.0000
  C   C1146     1.0  0.11364  0.57726  0.50298  1.0000
  H   H912      1.0  0.14264  0.69257  0.57856  1.0000
  C   C1147     1.0  0.19812  0.93190  0.59524  1.0000
  H   H913      1.0  0.07678  0.60030  0.62663  1.0000
  H   H914      1.0  0.12137  0.58885  0.53840  1.0000
  H   H915      1.0  0.17921  0.93696  0.59789  1.0000
  H   H916      1.0  0.24945  0.98341  0.64360  1.0000
  C   C1148     1.0  0.15901  0.94682  0.48379  1.0000
  C   C1149     1.0  0.21046  0.61014  0.68914  1.0000
  C   C1150     1.0  0.20361  0.60760  0.66604  1.0000
  C   C1151     1.0  0.17367  0.58497  0.65817  1.0000
  C   C1152     1.0  0.15060  0.56487  0.67342  1.0000
  C   C1153     1.0  0.15750  0.56723  0.69651  1.0000
  H   H917      1.0  0.22152  0.62299  0.65423  1.0000
  H   H918      1.0  0.16848  0.58302  0.64032  1.0000
  C   C1154     1.0  0.21244  0.93679  0.57403  1.0000
  C   C1155     1.0  0.08361  0.67254  0.62045  1.0000
  C   C1156     1.0  0.07212  0.66917  0.59836  1.0000
  C   C1157     1.0  0.06098  0.64041  0.58690  1.0000
  C   C1158     1.0  0.06267  0.61543  0.59701  1.0000
  C   C1159     1.0  0.07543  0.61938  0.61866  1.0000
  C   C1160     1.0  0.08531  0.64755  0.63041  1.0000
  H   H919      1.0  0.07061  0.68821  0.59049  1.0000
  H   H920      1.0  0.05072  0.63743  0.57029  1.0000
  H   H921      1.0  0.17318  0.83060  0.47318  1.0000
  H   H922      1.0  0.09423  0.64986  0.64734  1.0000
  C   C1161     1.0  0.04037  0.84535  0.61414  1.0000
  H   H923      1.0  0.14899  0.74886  0.47085  1.0000
  C   C1162     1.0  0.21961  0.63981  0.49621  1.0000
  C   C1163     1.0  0.04556  0.90523  0.61678  1.0000
  C   C1164     1.0  0.07249  0.90260  0.61293  1.0000
  C   C1165     1.0  0.06991  0.87271  0.61170  1.0000
  H   H924      1.0  0.07248  0.87760  0.66443  1.0000
  C   C1166     1.0  0.04815  0.96071  0.54174  1.0000
  H   H925      1.0  0.09534  0.92348  0.61129  1.0000
  H   H926      1.0  0.09074  0.87088  0.60889  1.0000
  C   C1167     1.0  0.17477  0.81737  0.53668  1.0000
  C   C1168     1.0  0.18302  0.81163  0.51538  1.0000
  C   C1169     1.0  0.21430  0.82904  0.50777  1.0000
  C   C1170     1.0  0.23748  0.85229  0.52145  1.0000
  C   C1171     1.0  0.22936  0.85767  0.54296  1.0000
  C   C1172     1.0  0.19801  0.84023  0.55062  1.0000
  H   H927      1.0  0.16515  0.79361  0.50474  1.0000
  H   H928      1.0  0.22046  0.82450  0.49131  1.0000
  H   H929      1.0  0.24734  0.87547  0.55362  1.0000
  H   H930      1.0  0.19177  0.84477  0.56711  1.0000
  C   C1173     1.0  0.02345  0.84910  0.67307  1.0000
  C   C1174     1.0  0.01495  0.56450  0.71189  1.0000
  H   H931      1.0  0.01851  0.68807  0.63259  1.0000
  C   C1175     1.0  0.16168  0.56230  0.50761  1.0000
  C   C1176     1.0  0.15536  0.92676  0.55113  1.0000
  C   C1177     1.0  0.16957  0.68008  0.62818  1.0000
  H   H932      1.0  0.09551  0.85242  0.56245  1.0000
  C   C1178     1.0  0.06039  0.92160  0.48880  1.0000
  H   H933      1.0  0.09004  0.93386  0.54402  1.0000
  H   H934      1.0  0.01752  0.86656  0.66763  1.0000
  C   C1179     1.0  0.15209  0.83618  0.69176  1.0000
  C   C1180     1.0  0.17792  0.85960  0.67990  1.0000
  C   C1181     1.0  0.43653  0.83377  0.49753  1.0000
  P   P40       1.0  0.20587  0.71960  0.66322  1.0000
  H   H935      1.0  0.17549  0.74763  0.59086  1.0000
  H   H936      1.0  0.13250  0.81751  0.68277  1.0000
  H   H937      1.0  0.22221  0.90253  0.68257  1.0000
  H   H938      1.0  0.26594  0.91388  0.58642  1.0000
  H   H939      1.0  0.26608  0.77355  0.64885  1.0000
  H   H940      1.0  0.30192  0.58343  0.70598  1.0000
  C   C1182     1.0  0.10389  0.92274  0.54732  1.0000
  C   C1183     1.0  0.45776  0.82358  0.50301  1.0000
  P   P41       1.0  0.01315  0.61522  0.69194  1.0000
  S   S168      1.0  0.13113  0.98590  0.59323  1.0000
  H   H941      1.0  0.15756  0.96492  0.63273  1.0000
  C   C1184     1.0  0.10713  0.87701  0.55777  1.0000
  P   P42       1.0  0.19812  0.95005  0.55087  1.0000
  C   C1185     1.0  0.27894  0.77753  0.50567  1.0000
  H   H942      1.0  0.03952  0.93249  0.69549  1.0000
  C   C1186     1.0  0.15419  0.67353  0.60731  1.0000
  C   C1187     1.0  0.14962  0.67244  0.68169  1.0000
  H   H943      1.0  0.12349  0.86515  0.49415  1.0000
  H   H944      1.0  0.07489  0.66787  0.67825  1.0000
  C   C1188     1.0  0.18959  0.73559  0.62212  1.0000
  C   C1189     1.0  0.21523  0.90548  0.49938  1.0000
  H   H945      1.0  0.03965  0.98166  0.51282  1.0000
  H   H946      1.0  0.20225  0.52299  0.69781  1.0000
  C   C1190     1.0  0.03492  0.94030  0.56000  1.0000
  H   H947      1.0  0.24915  0.93443  0.55499  1.0000
  C   C1191     1.0  0.01365  0.84822  0.61785  1.0000
  C   C1192     1.0  0.02414  0.58528  0.69353  1.0000
  H   H948      1.0  0.25319  0.77126  0.69156  1.0000
  H   H949      1.0  0.20694  0.88147  0.49438  1.0000
  C   C1193     1.0  0.24589  0.84978  0.63994  1.0000
  C   C1194     1.0  0.25405  0.84793  0.61769  1.0000
  C   C1195     1.0  0.28129  0.87285  0.60830  1.0000
  C   C1196     1.0  0.30019  0.89984  0.62106  1.0000
  C   C1197     1.0  0.29220  0.90179  0.64351  1.0000
  C   C1198     1.0  0.26481  0.87658  0.65281  1.0000
  P   P43       1.0  0.31591  0.93621  0.66054  1.0000
  C   C1199     1.0  0.33122  0.92576  0.68473  1.0000
  C   C1200     1.0  0.35078  0.96521  0.64590  1.0000
  H   H950      1.0  0.23326  0.62816  0.49839  1.0000
  C   C1201     1.0  0.20275  0.88401  0.69174  1.0000
  H   H951      1.0  0.15307  0.98678  0.48924  1.0000
  C   C1202     1.0  0.07634  0.95424  0.48624  1.0000
  H   H952      1.0  0.15757  0.98516  0.67045  1.0000
  C   C1203     1.0  0.34729  0.94798  0.70173  1.0000
  H   H953      1.0  0.01392  0.76465  0.65205  1.0000
  C   C1204     1.0  0.25534  0.74657  0.51005  1.0000
  H   H954      1.0  0.08949  0.96936  0.50021  1.0000
  C   C1205     1.0  0.32900  0.89624  0.68616  1.0000
  C   C1206     1.0  0.29076  0.95196  0.66809  1.0000
  C   C1207     1.0  0.28260  0.95286  0.69061  1.0000
  C   C1208     1.0  0.26343  0.96541  0.69615  1.0000
  H   H955      1.0  0.25197  0.92503  0.47434  1.0000
  H   H956      1.0  0.34988  0.97116  0.70080  1.0000
  C   C1209     1.0  0.27852  0.96290  0.65114  1.0000
  H   H957      1.0  0.22435  0.83082  0.64706  1.0000
  H   H958      1.0  0.23893  0.82740  0.60763  1.0000
  H   H959      1.0  0.28739  0.87152  0.59094  1.0000
  H   H960      1.0  0.32057  0.91916  0.61317  1.0000
  H   H961      1.0  0.25779  0.87782  0.66994  1.0000
  H   H962      1.0  0.41303  0.82222  0.50480  1.0000
  H   H963      1.0  0.29779  0.82626  0.51418  1.0000
  P   P44       1.0  0.13940  0.95418  0.71511  1.0000
  C   C1210     1.0  0.24076  0.93002  0.48819  1.0000
  H   H964      1.0  0.02370  0.96207  0.67042  1.0000
  C   C1211     1.0  0.14610  0.55793  0.48694  1.0000
  H   H965      1.0  0.07006  0.56177  0.66611  1.0000
  C   C1212     1.0  0.02891  0.96592  0.52700  1.0000
  H   H966      1.0  0.16115  0.74263  0.66291  1.0000
  H   H967      1.0  0.31762  0.87884  0.67309  1.0000
  H   H968      1.0  0.29057  0.94362  0.70403  1.0000
  H   H969      1.0  0.11901  0.78461  0.47204  1.0000
  H   H970      1.0  0.13783  0.67944  0.66947  1.0000
  H   H971      1.0  0.10604  0.63399  0.69443  1.0000
  H   H972      1.0  0.04530  0.78673  0.69157  1.0000
  H   H973      1.0  0.30960  0.53733  0.70629  1.0000
  H   H974      1.0  0.36854  0.93344  0.64016  1.0000
  C   C1213     1.0  0.28625  0.53411  0.70337  1.0000
  H   H975      1.0  0.25796  0.81521  0.54374  1.0000
  H   H976      1.0  0.27313  0.97979  0.48717  1.0000
  C   C1214     1.0  0.04439  0.54111  0.69670  1.0000
  C   C1215     1.0  0.17404  0.72888  0.60130  1.0000
  C   C1216     1.0  0.15266  0.97024  0.47701  1.0000
  C   C1217     1.0  0.29939  0.75731  0.64703  1.0000
  C   C1218     1.0  0.18311  0.66864  0.49111  1.0000
  C   C1219     1.0  0.14017  0.89472  0.55678  1.0000
  C   C1220     1.0  0.07960  0.86369  0.48614  1.0000
  C   C1221     1.0  0.30426  0.73180  0.64960  1.0000
  H   H977      1.0  0.28441  0.96232  0.63365  1.0000
  C   C1222     1.0  0.09844  0.85408  0.49755  1.0000
  H   H978      1.0  0.42904  0.86705  0.47911  1.0000
  C   C1223     1.0  0.01080  0.62605  0.66320  1.0000
  H   H979      1.0  0.22293  0.69300  0.70200  1.0000
  H   H980      1.0  0.19752  0.91709  0.62959  1.0000
  C   C1224     1.0  0.08899  0.89101  0.55310  1.0000
  C   C1225     1.0  0.26031  0.50384  0.70083  1.0000
  C   C1226     1.0  0.25272  0.96088  0.49548  1.0000
  H   H981      1.0  0.13965  0.55165  0.70830  1.0000
  H   H982      1.0  0.31887  0.78000  0.64211  1.0000
  H   H983      1.0  0.14770  0.96515  0.54239  1.0000
  H   H984      1.0  0.10552  0.97508  0.68525  1.0000
  C   C1227     1.0  0.25140  0.97632  0.67923  1.0000
  H   H985      1.0  0.07640  0.90582  0.70016  1.0000
  C   C1228     1.0  0.26952  0.75363  0.65108  1.0000
  C   C1229     1.0  0.20301  0.88409  0.71534  1.0000
  C   C1230     1.0  0.07178  0.67014  0.69606  1.0000
  C   C1231     1.0  0.13686  0.94054  0.54639  1.0000
  C   C1232     1.0  0.22554  0.52552  0.69866  1.0000
  C   C1233     1.0  0.27912  0.70249  0.65580  1.0000
  C   C1234     1.0  0.49731  0.86409  0.47905  1.0000
  Fe  Fe87      1.0  0.28571  0.86527  0.47640  1.0000
  C   C1235     1.0  0.04449  0.58441  0.67728  1.0000
  H   H986      1.0  0.41713  0.97295  0.62091  1.0000
  C   C1236     1.0  0.20944  0.80723  0.69391  1.0000
  C   C1237     1.0  0.20045  0.63358  0.47718  1.0000
  C   C1238     1.0  0.37273  0.95707  0.63790  1.0000
  C   C1239     1.0  0.20764  0.75409  0.67516  1.0000
  C   C1240     1.0  0.15058  0.96064  0.66863  1.0000
  C   C1241     1.0  0.20829  0.92066  0.61312  1.0000
  C   C1242     1.0  0.15109  0.94935  0.64713  1.0000
  C   C1243     1.0  0.39210  0.51949  0.59254  1.0000
  H   H987      1.0  0.36039  0.52874  0.57304  1.0000
  C   C1244     1.0  0.04700  0.84896  0.49049  1.0000
  H   H988      1.0  0.21601  0.76078  0.55155  1.0000
  H   H989      1.0  0.06345  0.87734  0.55436  1.0000
  H   H990      1.0  0.09031  0.88224  0.47370  1.0000
  C   C1245     1.0  0.25718  0.79598  0.53438  1.0000
  H   H991      1.0  0.06129  0.91175  0.50494  1.0000
  H   H992      1.0  0.45069  0.80403  0.51449  1.0000
  C   C1246     1.0  0.18277  0.68841  0.68293  1.0000
  C   C1247     1.0  0.40035  0.97942  0.62711  1.0000
  C   C1248     1.0  0.23488  0.80218  0.69704  1.0000
  H   H993      1.0  0.14345  0.90921  0.62771  1.0000
  H   H994      1.0  0.50485  0.83133  0.49850  1.0000
  H   H995      1.0  0.20342  0.75980  0.62747  1.0000
  H   H996      1.0  0.21018  0.82777  0.70118  1.0000
  H   H997      1.0  0.20009  0.99770  0.51994  1.0000
  H   H998      1.0  0.16883  0.67961  0.48878  1.0000
  H   H999      1.0  0.02292  0.67366  0.67150  1.0000
  C   C1249     1.0  0.14128  0.94042  0.68734  1.0000
  C   C1250     1.0  0.34164  0.88877  0.70473  1.0000
  C   C1251     1.0  0.20156  0.67424  0.51065  1.0000
  C   C1252     1.0  0.22041  0.66028  0.51280  1.0000
  P   P45       1.0  0.20185  0.70007  0.53234  1.0000
  C   C1253     1.0  0.20940  0.68774  0.55944  1.0000
  C   C1254     1.0  0.23213  0.74013  0.52641  1.0000
  C   C1255     1.0  0.48034  0.95152  0.47904  1.0000
  C   C1256     1.0  0.23340  0.76513  0.53866  1.0000
  H   H1000     1.0  0.14043  0.64950  0.60149  1.0000
  H   H1001     1.0  0.32749  0.73470  0.64687  1.0000
  H   H1002     1.0  0.16397  0.90800  0.47383  1.0000
  C   C1257     1.0  0.19501  0.65567  0.56478  1.0000
  C   C1258     1.0  0.20157  0.64588  0.58523  1.0000
  C   C1259     1.0  0.22253  0.66793  0.60062  1.0000
  C   C1260     1.0  0.23698  0.69988  0.59556  1.0000
  C   C1261     1.0  0.23053  0.70978  0.57510  1.0000
  C   C1262     1.0  0.16244  0.69487  0.53255  1.0000
  C   C1263     1.0  0.13639  0.66503  0.53703  1.0000
  C   C1264     1.0  0.10568  0.66017  0.53670  1.0000
  C   C1265     1.0  0.10058  0.68505  0.53180  1.0000
  C   C1266     1.0  0.12620  0.71464  0.52675  1.0000
  C   C1267     1.0  0.15695  0.71947  0.52676  1.0000
  C   C1268     1.0  0.13586  0.90981  0.68457  1.0000
  H   H1003     1.0  0.28278  0.68264  0.65801  1.0000
  H   H1004     1.0  0.23527  0.66463  0.52749  1.0000
  H   H1005     1.0  0.25531  0.72782  0.50057  1.0000
  H   H1006     1.0  0.08658  0.83806  0.67788  1.0000
  H   H1007     1.0  0.23006  0.67571  0.66425  1.0000
  C   C1269     1.0  0.08495  0.82976  0.51329  1.0000
  C   C1270     1.0  0.25886  0.97497  0.65670  1.0000
  H   H1008     1.0  0.17933  0.63799  0.55293  1.0000
  H   H1009     1.0  0.19059  0.62105  0.58902  1.0000
  H   H1010     1.0  0.22753  0.66020  0.61644  1.0000
  H   H1011     1.0  0.25328  0.71697  0.60750  1.0000
  H   H1012     1.0  0.24240  0.73461  0.57168  1.0000
  H   H1013     1.0  0.13957  0.64527  0.54055  1.0000
  H   H1014     1.0  0.08584  0.63698  0.54018  1.0000
  H   H1015     1.0  0.07678  0.68130  0.53159  1.0000
  H   H1016     1.0  0.12220  0.73385  0.52258  1.0000
  H   H1017     1.0  0.17598  0.74227  0.52179  1.0000
  C   C1271     1.0  0.01622  0.87784  0.61921  1.0000
  C   C1272     1.0  0.19746  0.68027  0.69992  1.0000
  C   C1273     1.0  0.23377  0.77537  0.68811  1.0000
  C   C1274     1.0  0.18198  0.75912  0.67234  1.0000
  C   C1275     1.0  0.05460  0.85547  0.67149  1.0000
  C   C1276     1.0  0.18298  0.78563  0.68161  1.0000
  H   H1018     1.0  0.42482  0.98957  0.48792  1.0000
  C   C1277     1.0  0.20143  0.91171  0.51776  1.0000
  C   C1278     1.0  0.18646  0.71110  0.63609  1.0000
  H   H1019     1.0  0.15266  0.54861  0.47284  1.0000
  S   S169      1.0  0.27675  0.87458  0.51212  1.0000
  H   H1020     1.0  0.18250  0.89212  0.52663  1.0000
  C   C1279     1.0  0.24924  0.69873  0.65971  1.0000
  H   H1021     1.0  0.13302  0.87533  0.66083  1.0000
  C   C1280     1.0  0.18749  0.58980  0.70438  1.0000
  H   H1022     1.0  0.16791  0.66086  0.63818  1.0000
  C   C1281     1.0  0.35758  0.99643  0.64380  1.0000
  C   C1282     1.0  0.13713  0.89888  0.66308  1.0000
  C   C1283     1.0  0.06247  0.83323  0.67881  1.0000
  H   H1023     1.0  0.07349  0.97308  0.53927  1.0000
  H   H1024     1.0  0.13073  0.89442  0.69898  1.0000
  H   H1025     1.0  0.05001  0.93657  0.57151  1.0000
  C   C1284     1.0  0.23734  0.93064  0.57105  1.0000
  C   C1285     1.0  0.03894  0.80408  0.68668  1.0000
  C   C1286     1.0  0.15583  0.69783  0.59415  1.0000
  C   C1287     1.0  0.24706  0.91895  0.58892  1.0000
  H   H1026     1.0  0.25777  0.96630  0.71365  1.0000
  H   H1027     1.0  0.05301  0.60101  0.66355  1.0000
  C   C1288     1.0  0.28192  0.56006  0.70333  1.0000
  H   H1028     1.0  0.29651  0.78249  0.49274  1.0000
  C   C1289     1.0  0.18238  0.64814  0.47454  1.0000
  H   H1029     1.0  0.25015  0.99111  0.52016  1.0000
  Fe  Fe88      1.0  0.08969  0.98717  0.60779  1.0000
  C   C1290     1.0  0.05264  0.81522  0.51790  1.0000
  C   C1291     1.0  0.48996  0.97527  0.49518  1.0000
  C   C1292     1.0  0.23223  0.91354  0.60984  1.0000
  C   C1293     1.0  0.27977  0.80222  0.51778  1.0000
  H   H1030     1.0  0.04232  0.79649  0.53028  1.0000
  C   C1294     1.0  0.05441  0.56234  0.67878  1.0000
  S   S170      1.0  0.24773  0.63905  0.69871  1.0000
  H   H1031     1.0  0.15376  0.88345  0.56085  1.0000
  S   S171      1.0  0.12480  0.51435  0.60191  1.0000
  H   H1032     1.0  0.18002  0.55623  0.50935  1.0000
  H   H1033     1.0  0.24827  0.57596  0.70083  1.0000
  C   C1295     1.0  0.49994  0.93914  0.47378  1.0000
  H   H1034     1.0  0.16442  0.94524  0.50125  1.0000
  C   C1296     1.0  0.02468  0.54220  0.71325  1.0000
  C   C1297     1.0  0.14364  0.91826  0.64433  1.0000
  H   H1035     1.0  0.23917  0.90390  0.62366  1.0000
  H   H1036     1.0  0.47515  0.98531  0.49881  1.0000
  C   C1298     1.0  0.03365  0.82464  0.50650  1.0000
  H   H1037     1.0  0.05218  0.52403  0.69779  1.0000
  H   H1038     1.0  0.16324  0.78947  0.67910  1.0000
  C   C1299     1.0  0.02513  0.96642  0.68838  1.0000
  S   S172      1.0  0.05797  0.60742  0.46973  1.0000
  S   S173      1.0  0.08255  0.52641  0.56404  1.0000
  H   H1039     1.0  0.45760  0.94294  0.47093  1.0000
  C   C1300     1.0  0.25163  0.55578  0.70064  1.0000
  H   H1040     1.0  0.41324  0.54004  0.58641  1.0000
  C   C1301     1.0  0.01256  0.66425  0.63638  1.0000
  C   C1302     1.0  0.04340  0.90194  0.47068  1.0000
  H   H1041     1.0  0.01488  0.97794  0.60261  1.0000
  H   H1042     1.0  0.25519  0.81874  0.70687  1.0000
  H   H1043     1.0  0.11681  0.71264  0.69918  1.0000
  C   C1303     1.0  0.03431  0.94963  0.70257  1.0000
  C   C1304     1.0  0.21087  0.99133  0.55434  1.0000
  C   C1305     1.0  0.14647  0.63782  0.71186  1.0000
  C   C1306     1.0  0.04402  0.64817  0.70709  1.0000
  C   C1307     1.0  0.15252  0.83598  0.71549  1.0000
  H   H1044     1.0  0.08756  0.51101  0.50950  1.0000
  H   H1045     1.0  0.01344  0.59225  0.53953  1.0000
  C   C1308     1.0  0.47571  0.87372  0.47282  1.0000
  C   C1309     1.0  0.36232  0.51314  0.58504  1.0000
  C   C1310     1.0  0.17933  0.65482  0.71412  1.0000
  H   H1046     1.0  0.33946  0.86581  0.70598  1.0000
  C   C1311     1.0  0.01771  0.98826  0.69749  1.0000
  H   H1047     1.0  0.15270  0.50995  0.54815  1.0000
  C   C1312     1.0  0.01095  0.99209  0.63617  1.0000
  H   H1048     1.0  0.22265  0.99367  0.58997  1.0000
  C   C1313     1.0  0.44558  0.85901  0.48275  1.0000
  C   C1314     1.0  0.11811  0.99304  0.69783  1.0000
  C   C1315     1.0  0.13662  0.98934  0.71438  1.0000
  C   C1316     1.0  0.09570  0.69549  0.70794  1.0000
  C   C1317     1.0  0.42498  0.99031  0.46970  1.0000
  H   H1049     1.0  0.23626  0.98574  0.68359  1.0000
  H   H1050     1.0  0.37749  0.95081  0.46656  1.0000
  H   H1051     1.0  0.00859  0.81262  0.51012  1.0000
  H   H1052     1.0  0.41779  0.50398  0.61343  1.0000
  H   H1053     1.0  0.21735  0.53976  0.79042  1.0000
  C   C1318     1.0  0.10435  0.51801  0.92632  1.0000
  H   H1054     1.0  0.39302  0.91782  0.77398  1.0000
  C   C1319     1.0  0.29755  0.53143  0.84724  1.0000
  H   H1055     1.0  0.35165  0.86730  0.93102  1.0000
  C   C1320     1.0  0.31492  0.81605  0.85212  1.0000
  C   C1321     1.0  0.20418  0.75459  0.74910  1.0000
  C   C1322     1.0  0.41481  0.90736  0.89657  1.0000
  H   H1056     1.0  0.13335  0.81702  0.72467  1.0000
  C   C1323     1.0  0.04911  0.88557  0.73015  1.0000
  H   H1057     1.0  0.29796  0.77659  0.72839  1.0000
  C   C1324     1.0  0.35626  0.91048  0.72210  1.0000
  Fe  Fe89      1.0  0.28318  0.89698  0.80346  1.0000
  S   S174      1.0  0.32283  0.91210  0.77869  1.0000
  S   S175      1.0  0.29180  0.89655  0.84077  1.0000
  S   S176      1.0  0.25090  0.85094  0.78651  1.0000
  S   S177      1.0  0.26113  0.92232  0.78652  1.0000
  Fe  Fe90      1.0  0.22671  0.60430  0.78055  1.0000
  S   S178      1.0  0.27303  0.63037  0.79848  1.0000
  S   S179      1.0  0.18412  0.57331  0.80127  1.0000
  P   P46       1.0  0.35758  0.83899  0.85160  1.0000
  H   H1058     1.0  0.41410  0.83988  0.87056  1.0000
  C   C1325     1.0  0.39611  0.89959  0.91590  1.0000
  Fe  Fe91      1.0  0.29188  0.61772  0.76824  1.0000
  S   S180      1.0  0.32606  0.59942  0.77089  1.0000
  Fe  Fe92      1.0  0.27945  0.67216  0.77860  1.0000
  S   S181      1.0  0.29272  0.71764  0.79683  1.0000
  S   S182      1.0  0.24473  0.58876  0.75159  1.0000
  S   S183      1.0  0.23135  0.64664  0.76282  1.0000
  H   H1059     1.0  0.39047  0.93883  0.81135  1.0000
  H   H1060     1.0  0.22302  0.76668  0.85275  1.0000
  C   C1326     1.0  0.32507  0.51848  0.75647  1.0000
  C   C1327     1.0  0.29058  0.77216  0.79341  1.0000
  C   C1328     1.0  0.29178  0.74806  0.78163  1.0000
  C   C1329     1.0  0.29375  0.74944  0.75811  1.0000
  S   S184      1.0  0.18189  0.85650  0.75666  1.0000
  H   H1061     1.0  0.28819  0.77084  0.81153  1.0000
  C   C1330     1.0  0.05150  0.98690  0.87409  1.0000
  H   H1062     1.0  0.01809  0.63262  0.88432  1.0000
  C   C1331     1.0  0.28025  0.53691  0.76430  1.0000
  C   C1332     1.0  0.31250  0.55932  0.76547  1.0000
  C   C1333     1.0  0.37422  0.97924  0.84466  1.0000
  H   H1063     1.0  0.26280  0.54381  0.76718  1.0000
  C   C1334     1.0  0.04883  0.88652  0.75369  1.0000
  H   H1064     1.0  0.24830  0.97258  0.76284  1.0000
  C   C1335     1.0  0.17148  0.53185  0.83564  1.0000
  C   C1336     1.0  0.18757  0.54367  0.81534  1.0000
  C   C1337     1.0  0.22898  0.99322  0.74041  1.0000
  H   H1065     1.0  0.12443  0.94448  0.76306  1.0000
  H   H1066     1.0  0.35698  0.74424  0.82336  1.0000
  H   H1067     1.0  0.15864  0.54214  0.84295  1.0000
  H   H1068     1.0  0.01122  0.51142  0.96344  1.0000
  C   C1338     1.0  0.06136  0.63156  0.88157  1.0000
  C   C1339     1.0  0.10464  0.50580  0.79050  1.0000
  H   H1069     1.0  0.37556  0.95172  0.89708  1.0000
  C   C1340     1.0  0.36741  0.95238  0.88021  1.0000
  C   C1341     1.0  0.33917  0.92690  0.87200  1.0000
  C   C1342     1.0  0.32810  0.92784  0.85031  1.0000
  Fe  Fe93      1.0  0.23332  0.87794  0.76657  1.0000
  Fe  Fe94      1.0  0.29869  0.93455  0.76043  1.0000
  C   C1343     1.0  0.29264  0.79809  0.78186  1.0000
  H   H1070     1.0  0.32591  0.90652  0.88250  1.0000
  C   C1344     1.0  0.08981  0.52517  0.84080  1.0000
  H   H1071     1.0  0.25019  0.81912  0.83425  1.0000
  C   C1345     1.0  0.15873  0.86812  0.86359  1.0000
  C   C1346     1.0  0.16614  0.86654  0.84106  1.0000
  C   C1347     1.0  0.19750  0.88356  0.83385  1.0000
  C   C1348     1.0  0.22146  0.90232  0.84910  1.0000
  C   C1349     1.0  0.21424  0.90426  0.87173  1.0000
  C   C1350     1.0  0.18268  0.88676  0.87892  1.0000
  P   P47       1.0  0.24567  0.92777  0.89140  1.0000
  C   C1351     1.0  0.22931  0.93747  0.91530  1.0000
  C   C1352     1.0  0.26361  0.90574  0.90179  1.0000
  C   C1353     1.0  0.28357  0.91649  0.92074  1.0000
  C   C1354     1.0  0.29578  0.89856  0.92995  1.0000
  C   C1355     1.0  0.28798  0.86966  0.92036  1.0000
  C   C1356     1.0  0.26847  0.85895  0.90133  1.0000
  C   C1357     1.0  0.25624  0.87685  0.89210  1.0000
  C   C1358     1.0  0.21668  0.91640  0.93350  1.0000
  C   C1359     1.0  0.20318  0.92319  0.95181  1.0000
  C   C1360     1.0  0.20194  0.95089  0.95203  1.0000
  C   C1361     1.0  0.21450  0.97199  0.93410  1.0000
  C   C1362     1.0  0.22822  0.96544  0.91581  1.0000
  C   C1363     1.0  0.27374  0.96343  0.87709  1.0000
  C   C1364     1.0  0.26269  0.97783  0.86199  1.0000
  H   H1072     1.0  0.02734  0.87141  0.76287  1.0000
  H   H1073     1.0  0.04334  0.94163  0.73691  1.0000
  S   S185      1.0  0.14404  0.52780  0.93033  1.0000
  C   C1365     1.0  0.30645  0.97687  0.88049  1.0000
  H   H1074     1.0  0.13441  0.85483  0.86919  1.0000
  H   H1075     1.0  0.14765  0.85208  0.82915  1.0000
  H   H1076     1.0  0.20329  0.88212  0.81642  1.0000
  H   H1077     1.0  0.24568  0.91530  0.84323  1.0000
  H   H1078     1.0  0.17644  0.88747  0.89629  1.0000
  H   H1079     1.0  0.28952  0.93864  0.92846  1.0000
  C   C1366     1.0  0.02366  0.97669  0.86145  1.0000
  C   C1367     1.0  0.32844  0.53806  0.96377  1.0000
  H   H1080     1.0  0.26315  0.83700  0.89347  1.0000
  H   H1081     1.0  0.24144  0.86820  0.87725  1.0000
  H   H1082     1.0  0.21703  0.89458  0.93351  1.0000
  C   C1368     1.0  0.35181  0.50470  0.96345  1.0000
  C   C1369     1.0  0.45975  0.57194  0.93878  1.0000
  Fe  Fe95      1.0  0.43003  0.98464  0.95827  1.0000
  H   H1083     1.0  0.23789  0.98238  0.90225  1.0000
  H   H1084     1.0  0.23759  0.96806  0.85917  1.0000
  H   H1085     1.0  0.00869  0.54125  0.87673  1.0000
  H   H1086     1.0  0.19092  0.64779  0.72651  1.0000
  C   C1370     1.0  0.24860  0.78050  0.85275  1.0000
  H   H1087     1.0  0.31581  0.96620  0.89172  1.0000
  H   H1088     1.0  0.13266  0.61751  0.72241  1.0000
  C   C1371     1.0  0.36824  0.53688  0.90415  1.0000
  C   C1372     1.0  0.07604  0.90766  0.76545  1.0000
  C   C1373     1.0  0.27234  0.57160  0.84543  1.0000
  C   C1374     1.0  0.27405  0.55860  0.86598  1.0000
  C   C1375     1.0  0.28586  0.53795  0.86684  1.0000
  C   C1376     1.0  0.05418  0.96540  0.88826  1.0000
  C   C1377     1.0  0.36580  0.87326  0.91587  1.0000
  C   C1378     1.0  0.03663  0.95485  0.72583  1.0000
  H   H1089     1.0  0.26236  0.58689  0.84465  1.0000
  H   H1090     1.0  0.26580  0.56418  0.88123  1.0000
  C   C1379     1.0  0.00872  0.59090  0.78118  1.0000
  C   C1380     1.0  0.21935  0.67611  0.83040  1.0000
  C   C1381     1.0  0.21041  0.67477  0.85287  1.0000
  C   C1382     1.0  0.18137  0.67229  0.85806  1.0000
  C   C1383     1.0  0.16091  0.67036  0.84076  1.0000
  C   C1384     1.0  0.16964  0.67140  0.81807  1.0000
  C   C1385     1.0  0.19931  0.67489  0.81308  1.0000
  P   P48       1.0  0.14405  0.66997  0.79538  1.0000
  C   C1386     1.0  0.12740  0.63346  0.77984  1.0000
  C   C1387     1.0  0.11139  0.67296  0.80678  1.0000
  C   C1388     1.0  0.11054  0.70100  0.80516  1.0000
  C   C1389     1.0  0.08467  0.70256  0.81363  1.0000
  C   C1390     1.0  0.05958  0.67626  0.82380  1.0000
  C   C1391     1.0  0.06034  0.64834  0.82555  1.0000
  C   C1392     1.0  0.08612  0.64667  0.81713  1.0000
  C   C1393     1.0  0.12849  0.58674  0.76815  1.0000
  C   C1394     1.0  0.14263  0.61571  0.77920  1.0000
  C   C1395     1.0  0.16740  0.70293  0.77707  1.0000
  H   H1091     1.0  0.43824  0.92794  0.89653  1.0000
  H   H1092     1.0  0.33025  0.83477  0.89671  1.0000
  H   H1093     1.0  0.24193  0.67814  0.82635  1.0000
  H   H1094     1.0  0.22607  0.67565  0.86620  1.0000
  H   H1095     1.0  0.17460  0.67144  0.87553  1.0000
  H   H1096     1.0  0.13854  0.66828  0.84526  1.0000
  H   H1097     1.0  0.22804  0.77873  0.77943  1.0000
  H   H1098     1.0  0.12962  0.72163  0.79727  1.0000
  H   H1099     1.0  0.08395  0.72414  0.81214  1.0000
  H   H1100     1.0  0.37029  0.95700  0.73409  1.0000
  H   H1101     1.0  0.04055  0.62771  0.83295  1.0000
  H   H1102     1.0  0.08614  0.62472  0.81845  1.0000
  H   H1103     1.0  0.14045  0.57325  0.76786  1.0000
  H   H1104     1.0  0.16512  0.62360  0.78745  1.0000
  H   H1105     1.0  0.28224  0.97951  0.95033  1.0000
  H   H1106     1.0  0.19605  0.73364  0.80421  1.0000
  C   C1396     1.0  0.20485  0.50519  0.81679  1.0000
  C   C1397     1.0  0.29682  0.82753  0.84190  1.0000
  H   H1107     1.0  0.37714  0.55695  0.91529  1.0000
  C   C1398     1.0  0.35925  0.94016  0.72054  1.0000
  S   S186      1.0  0.20773  0.51565  0.90071  1.0000
  C   C1399     1.0  0.10434  0.92660  0.73008  1.0000
  S   S187      1.0  0.29964  0.83270  0.74337  1.0000
  H   H1108     1.0  0.34288  0.55243  0.88344  1.0000
  S   S188      1.0  0.45488  0.98521  0.92657  1.0000
  C   C1400     1.0  0.02053  0.99363  0.72082  1.0000
  H   H1109     1.0  0.03044  0.51123  0.85263  1.0000
  H   H1110     1.0  0.30813  0.85003  0.83344  1.0000
  C   C1401     1.0  0.18033  0.72658  0.73978  1.0000
  H   H1111     1.0  0.28564  0.52702  0.88278  1.0000
  C   C1402     1.0  0.06491  0.67674  0.74217  1.0000
  C   C1403     1.0  0.02839  0.61781  0.88210  1.0000
  C   C1404     1.0  0.02959  0.93425  0.88962  1.0000
  H   H1112     1.0  0.25472  0.74624  0.87133  1.0000
  H   H1113     1.0  0.44992  0.56991  0.92205  1.0000
  C   C1405     1.0  0.33533  0.50718  0.87240  1.0000
  C   C1406     1.0  0.13120  0.58512  0.85804  1.0000
  C   C1407     1.0  0.12283  0.55862  0.87124  1.0000
  H   H1114     1.0  0.31128  0.90709  0.94454  1.0000
  H   H1115     1.0  0.14364  0.67927  0.74619  1.0000
  H   H1116     1.0  0.28113  0.57393  0.80973  1.0000
  H   H1117     1.0  0.39209  0.51637  0.92167  1.0000
  C   C1408     1.0  0.36902  0.86402  0.82695  1.0000
  C   C1409     1.0  0.28289  0.56432  0.82575  1.0000
  H   H1118     1.0  0.01995  0.63440  0.73915  1.0000
  C   C1410     1.0  0.02993  0.97700  0.73492  1.0000
  H   H1119     1.0  0.40051  0.57034  0.79716  1.0000
  C   C1411     1.0  0.02314  0.56653  0.87772  1.0000
  C   C1412     1.0  0.44347  0.57339  0.95762  1.0000
  C   C1413     1.0  0.48846  0.57256  0.94156  1.0000
  Fe  Fe96      1.0  0.28914  0.86739  0.76068  1.0000
  S   S189      1.0  0.26957  0.89144  0.73945  1.0000
  C   C1414     1.0  0.38355  0.54656  0.80216  1.0000
  C   C1415     1.0  0.29577  0.77537  0.74655  1.0000
  H   H1120     1.0  0.14828  0.60801  0.86438  1.0000
  H   H1121     1.0  0.13341  0.56106  0.88776  1.0000
  H   H1122     1.0  0.07512  0.97283  0.89854  1.0000
  C   C1416     1.0  0.35390  0.85486  0.89642  1.0000
  C   C1417     1.0  0.33855  0.51053  0.82492  1.0000
  H   H1123     1.0  0.01139  0.71973  0.77469  1.0000
  H   H1124     1.0  0.43483  0.80374  0.86680  1.0000
  H   H1125     1.0  0.09670  0.50867  0.87319  1.0000
  H   H1126     1.0  0.06212  0.67928  0.76002  1.0000
  C   C1418     1.0  0.41323  0.79868  0.85814  1.0000
  C   C1419     1.0  0.11132  0.50582  0.76761  1.0000
  C   C1420     1.0  0.29554  0.79989  0.75839  1.0000
  H   H1127     1.0  0.29242  0.81687  0.79112  1.0000
  C   C1421     1.0  0.05601  0.58026  0.87727  1.0000
  C   C1422     1.0  0.07516  0.61278  0.87915  1.0000
  H   H1128     1.0  0.03924  0.67729  0.82994  1.0000
  C   C1423     1.0  0.26645  0.76904  0.86324  1.0000
  H   H1129     1.0  0.06267  0.55638  0.92576  1.0000
  C   C1424     1.0  0.20949  0.75697  0.77231  1.0000
  H   H1130     1.0  0.34252  0.51190  0.75245  1.0000
  Fe  Fe97      1.0  0.25488  0.63422  0.73564  1.0000
  C   C1425     1.0  0.09767  0.54236  0.92843  1.0000
  H   H1131     1.0  0.17633  0.72484  0.72175  1.0000
  C   C1426     1.0  0.06719  0.53705  0.92452  1.0000
  C   C1427     1.0  0.19127  0.73129  0.78627  1.0000
  H   H1132     1.0  0.36141  0.56121  0.82665  1.0000
  C   C1428     1.0  0.35755  0.78554  0.83578  1.0000
  H   H1133     1.0  0.19270  0.59170  0.72223  1.0000
  H   H1134     1.0  0.15334  0.99281  0.84010  1.0000
  C   C1429     1.0  0.39730  0.77168  0.84490  1.0000
  S   S190      1.0  0.30372  0.66264  0.75009  1.0000
  C   C1430     1.0  0.09819  0.62202  0.76871  1.0000
  H   H1135     1.0  0.06649  0.56545  0.87602  1.0000
  H   H1136     1.0  0.10065  0.62328  0.87910  1.0000
  H   H1137     1.0  0.37777  0.86172  0.77007  1.0000
  H   H1138     1.0  0.30741  0.99311  0.78808  1.0000
  H   H1139     1.0  0.07549  0.90872  0.78368  1.0000
  C   C1431     1.0  0.34587  0.95394  0.83658  1.0000
  C   C1432     1.0  0.38480  0.97877  0.86659  1.0000
  H   H1140     1.0  0.29464  0.73097  0.74889  1.0000
  C   C1433     1.0  0.09225  0.69885  0.73098  1.0000
  C   C1434     1.0  0.38637  0.90280  0.78868  1.0000
  C   C1435     1.0  0.40322  0.88880  0.87723  1.0000
  C   C1436     1.0  0.37806  0.87134  0.78654  1.0000
  H   H1141     1.0  0.31301  0.77772  0.87140  1.0000
  H   H1142     1.0  0.13558  0.51926  0.76182  1.0000
  H   H1143     1.0  0.37399  0.90481  0.84468  1.0000
  C   C1437     1.0  0.50087  0.57450  0.96316  1.0000
  C   C1438     1.0  0.08383  0.59273  0.75812  1.0000
  C   C1439     1.0  0.36953  0.85202  0.80559  1.0000
  H   H1144     1.0  0.08610  0.63539  0.76856  1.0000
  C   C1440     1.0  0.33479  0.54977  0.76202  1.0000
  C   C1441     1.0  0.09889  0.57500  0.75792  1.0000
  H   H1145     1.0  0.33749  0.95499  0.81989  1.0000
  C   C1442     1.0  0.50287  0.94666  0.94501  1.0000
  H   H1146     1.0  0.36286  0.82768  0.80342  1.0000
  C   C1443     1.0  0.30539  0.51854  0.94823  1.0000
  H   H1147     1.0  0.41814  0.89516  0.86244  1.0000
  C   C1444     1.0  0.29950  0.78688  0.86315  1.0000
  C   C1445     1.0  0.38395  0.52121  0.79199  1.0000
  C   C1446     1.0  0.20250  0.98850  0.72820  1.0000
  H   H1148     1.0  0.33602  0.77995  0.82690  1.0000
  H   H1149     1.0  0.40127  0.52530  0.77912  1.0000
  H   H1150     1.0  0.49409  0.95301  0.93029  1.0000
  H   H1151     1.0  0.12502  0.60237  0.82619  1.0000
  H   H1152     1.0  0.50090  0.57090  0.92702  1.0000
  C   C1447     1.0  0.17416  0.95976  0.72971  1.0000
  C   C1448     1.0  0.17335  0.93509  0.74220  1.0000
  C   C1449     1.0  0.20003  0.93987  0.75421  1.0000
  C   C1450     1.0  0.22772  0.96901  0.75352  1.0000
  H   H1153     1.0  0.40504  0.91397  0.93093  1.0000
  C   C1451     1.0  0.40134  0.81917  0.86022  1.0000
  C   C1452     1.0  0.10369  0.92777  0.75371  1.0000
  C   C1453     1.0  0.36946  0.76514  0.83372  1.0000
  H   H1154     1.0  0.11071  0.71865  0.74012  1.0000
  H   H1155     1.0  0.08801  0.54987  0.81106  1.0000
  H   H1156     1.0  0.02232  0.63890  0.78777  1.0000
  P   P49       1.0  0.31194  0.50410  0.84790  1.0000
  C   C1454     1.0  0.36110  0.54128  0.81869  1.0000
  H   H1157     1.0  0.30261  0.53834  0.81107  1.0000
  C   C1455     1.0  0.10202  0.52875  0.86277  1.0000
  H   H1158     1.0  0.21365  0.99357  0.93442  1.0000
  H   H1159     1.0  0.20716  0.67681  0.79578  1.0000
  H   H1160     1.0  0.10717  0.98488  0.86206  1.0000
  C   C1456     1.0  0.04095  0.65140  0.73029  1.0000
  H   H1161     1.0  0.22233  0.90318  0.72429  1.0000
  H   H1162     1.0  0.15223  0.91215  0.74273  1.0000
  H   H1163     1.0  0.19932  0.92092  0.76399  1.0000
  C   C1457     1.0  0.04258  0.50706  0.91916  1.0000
  H   H1164     1.0  0.03183  0.59435  0.78525  1.0000
  S   S191      1.0  0.27966  0.53103  0.93780  1.0000
  H   H1165     1.0  0.11643  0.56574  0.93267  1.0000
  C   C1458     1.0  0.11813  0.58187  0.83654  1.0000
  C   C1459     1.0  0.37595  0.89530  0.82873  1.0000
  C   C1460     1.0  0.00904  0.58514  0.88008  1.0000
  H   H1166     1.0  0.02025  0.99260  0.85081  1.0000
  H   H1167     1.0  0.08766  0.55220  0.74983  1.0000
  H   H1168     1.0  0.21879  0.77457  0.73848  1.0000
  H   H1169     1.0  0.01118  0.77009  0.77304  1.0000
  H   H1170     1.0  0.06077  0.58355  0.75033  1.0000
  H   H1171     1.0  0.07621  0.65676  0.88326  1.0000
  C   C1461     1.0  0.20471  0.53065  0.80606  1.0000
  C   C1462     1.0  0.09733  0.55202  0.82797  1.0000
  C   C1463     1.0  0.37669  0.51399  0.90772  1.0000
  H   H1172     1.0  0.35973  0.56694  0.76280  1.0000
  C   C1464     1.0  0.29529  0.54422  0.82661  1.0000
  H   H1173     1.0  0.02768  0.86961  0.72113  1.0000
  C   C1465     1.0  0.37254  0.86254  0.87690  1.0000
  S   S192      1.0  0.32247  0.98208  0.74306  1.0000
  H   H1174     1.0  0.03138  0.98092  0.75298  1.0000
  C   C1466     1.0  0.26380  0.80986  0.84224  1.0000
  C   C1467     1.0  0.34805  0.53379  0.88635  1.0000
  H   H1175     1.0  0.29724  0.85569  0.92757  1.0000
  H   H1176     1.0  0.03166  0.91790  0.90077  1.0000
  C   C1468     1.0  0.17216  0.50697  0.84661  1.0000
  C   C1469     1.0  0.16191  0.70078  0.75371  1.0000
  C   C1470     1.0  0.37332  0.81276  0.84905  1.0000
  C   C1471     1.0  0.38507  0.91470  0.80975  1.0000
  H   H1177     1.0  0.40648  0.75580  0.84326  1.0000
  C   C1472     1.0  0.07673  0.90580  0.71835  1.0000
  H   H1178     1.0  0.36486  0.90405  0.73685  1.0000
  C   C1473     1.0  0.17862  0.85937  0.72729  1.0000
  H   H1179     1.0  0.12385  0.51900  0.80214  1.0000
  C   C1474     1.0  0.48530  0.93781  0.96490  1.0000
  H   H1180     1.0  0.01720  0.52592  0.72730  1.0000
  H   H1181     1.0  0.42087  0.57225  0.95552  1.0000
  H   H1182     1.0  0.33661  0.98726  0.95073  1.0000
  C   C1475     1.0  0.27053  0.50552  0.75883  1.0000
  H   H1183     1.0  0.38759  0.99964  0.83409  1.0000
  H   H1184     1.0  0.46250  0.93654  0.96545  1.0000
  H   H1185     1.0  0.19358  0.90699  0.96586  1.0000
  Fe  Fe98      1.0  0.85434  0.35868  0.09350  1.0000
  S   S193      1.0  0.84440  0.32085  0.06843  1.0000
  S   S194      1.0  0.87167  0.40707  0.07985  1.0000
  Fe  Fe99      1.0  0.83286  0.31371  0.13245  1.0000
  S   S195      1.0  0.82142  0.27241  0.11049  1.0000
  S   S196      1.0  0.82258  0.30799  0.16954  1.0000
  Fe  Fe100     1.0  0.86795  0.30513  0.09376  1.0000
  S   S197      1.0  0.89973  0.28791  0.07963  1.0000
  Fe  Fe101     1.0  0.79939  0.29250  0.08748  1.0000
  S   S198      1.0  0.75362  0.26018  0.06940  1.0000
  S   S199      1.0  0.88102  0.34511  0.11760  1.0000
  S   S200      1.0  0.80747  0.33145  0.11070  1.0000
  C   C1476     1.0  0.59398  0.48070  0.09534  1.0000
  H   H1186     1.0  0.88763  0.26496  0.03519  1.0000
  Fe  Fe102     1.0  0.56306  0.30067  0.09989  1.0000
  S   S201      1.0  0.58647  0.35288  0.10373  1.0000
  C   C1477     1.0  0.85862  0.08878  0.97960  1.0000
  Fe  Fe103     1.0  0.61762  0.30479  0.07176  1.0000
  S   S202      1.0  0.64480  0.35714  0.07319  1.0000
  S   S203      1.0  0.63447  0.27704  0.05160  1.0000
  Fe  Fe104     1.0  0.63078  0.35102  0.10965  1.0000
  S   S204      1.0  0.66833  0.37762  0.13583  1.0000
  Fe  Fe105     1.0  0.59801  0.35396  0.06705  1.0000
  S   S205      1.0  0.59112  0.38632  0.04401  1.0000
  S   S206      1.0  0.60672  0.29848  0.10865  1.0000
  S   S207      1.0  0.57130  0.30186  0.06274  1.0000
  C   C1478     1.0  0.51676  0.30403  0.17594  1.0000
  H   H1187     1.0  0.92685  0.37018  0.03233  1.0000
  C   C1479     1.0  0.56124  0.26670  0.01216  1.0000
  H   H1188     1.0  0.79821  0.17146  0.11157  1.0000
  H   H1189     1.0  0.59739  0.39749  0.18319  1.0000
  H   H1190     1.0  0.80464  0.18071  0.15268  1.0000
  C   C1480     1.0  0.81716  0.17738  0.06610  1.0000
  H   H1191     1.0  0.86038  0.11406  0.07369  1.0000
  H   H1192     1.0  0.90902  0.02251  0.09045  1.0000
  C   C1481     1.0  0.89011  0.19079  0.05897  1.0000
  H   H1193     1.0  0.54541  0.29252  0.99178  1.0000
  C   C1482     1.0  0.65797  0.39182  0.15967  1.0000
  C   C1483     1.0  0.62827  0.38932  0.16173  1.0000
  C   C1484     1.0  0.62063  0.40017  0.18137  1.0000
  C   C1485     1.0  0.68028  0.40616  0.17690  1.0000
  H   H1194     1.0  0.61117  0.37879  0.14833  1.0000
  H   H1195     1.0  0.70326  0.40831  0.17546  1.0000
  C   C1486     1.0  0.59570  0.38148  0.01525  1.0000
  C   C1487     1.0  0.59904  0.35649  0.00744  1.0000
  C   C1488     1.0  0.60373  0.35396  0.98433  1.0000
  C   C1489     1.0  0.89214  0.02304  0.01466  1.0000
  C   C1490     1.0  0.60245  0.40165  0.97710  1.0000
  C   C1491     1.0  0.59647  0.40347  0.99993  1.0000
  H   H1196     1.0  0.59850  0.33946  0.01923  1.0000
  H   H1197     1.0  0.57336  0.20095  0.05684  1.0000
  H   H1198     1.0  0.62776  0.31246  0.15362  1.0000
  H   H1199     1.0  0.59321  0.42241  0.00576  1.0000
  H   H1200     1.0  0.70692  0.36849  0.04731  1.0000
  H   H1201     1.0  0.84490  0.17449  0.17369  1.0000
  H   H1202     1.0  0.85186  0.21969  0.08319  1.0000
  C   C1492     1.0  0.79936  0.09991  0.05167  1.0000
  H   H1203     1.0  0.66848  0.42957  0.04963  1.0000
  C   C1493     1.0  0.99709  0.38680  0.01895  1.0000
  H   H1204     1.0  0.83270  0.25309  0.06669  1.0000
  H   H1205     1.0  0.78562  0.23033  0.04206  1.0000
  C   C1494     1.0  0.56708  0.02270  0.03668  1.0000
  C   C1495     1.0  0.99894  0.29833  0.99818  1.0000
  H   H1206     1.0  0.64254  0.04820  0.17521  1.0000
  C   C1496     1.0  0.83575  0.16031  0.10883  1.0000
  H   H1207     1.0  0.75914  0.17382  0.03173  1.0000
  C   C1497     1.0  0.85832  0.11425  0.99005  1.0000
  C   C1498     1.0  0.88556  0.13693  0.00102  1.0000
  C   C1499     1.0  0.91286  0.13452  0.00158  1.0000
  C   C1500     1.0  0.92280  0.30165  0.20626  1.0000
  H   H1208     1.0  0.88566  0.15666  0.00907  1.0000
  H   H1209     1.0  0.93387  0.15258  0.00979  1.0000
  C   C1501     1.0  0.83222  0.28166  0.18212  1.0000
  C   C1502     1.0  0.95630  0.22946  0.13051  1.0000
  H   H1210     1.0  0.99521  0.34272  0.21112  1.0000
  C   C1503     1.0  0.84612  0.23862  0.20264  1.0000
  C   C1504     1.0  0.85156  0.24503  0.17960  1.0000
  C   C1505     1.0  0.84505  0.26687  0.16941  1.0000
  H   H1211     1.0  0.57835  0.06381  0.05656  1.0000
  Fe  Fe106     1.0  0.96669  0.07575  0.98267  1.0000
  H   H1212     1.0  0.86167  0.23380  0.16979  1.0000
  H   H1213     1.0  0.85036  0.27250  0.15181  1.0000
  C   C1506     1.0  0.93802  0.29490  0.08667  1.0000
  C   C1507     1.0  0.94858  0.27718  0.07513  1.0000
  H   H1214     1.0  0.67804  0.33409  0.01555  1.0000
  H   H1215     1.0  0.85888  0.01549  0.98844  1.0000
  H   H1216     1.0  0.68069  0.41169  0.98041  1.0000
  C   C1508     1.0  0.95722  0.31557  0.10365  1.0000
  H   H1217     1.0  0.93404  0.26146  0.06199  1.0000
  S   S208      1.0  0.92321  0.38879  0.98779  1.0000
  H   H1218     1.0  0.74146  0.22615  0.21037  1.0000
  H   H1219     1.0  0.94933  0.32947  0.11261  1.0000
  C   C1509     1.0  0.72181  0.26724  0.06518  1.0000
  C   C1510     1.0  0.69567  0.24474  0.05305  1.0000
  C   C1511     1.0  0.66932  0.24827  0.04936  1.0000
  C   C1512     1.0  0.66848  0.27433  0.05776  1.0000
  C   C1513     1.0  0.69467  0.29728  0.06983  1.0000
  C   C1514     1.0  0.72140  0.29372  0.07354  1.0000
  H   H1220     1.0  0.69577  0.22433  0.04644  1.0000
  H   H1221     1.0  0.64939  0.23053  0.03992  1.0000
  H   H1222     1.0  0.69439  0.31771  0.07618  1.0000
  H   H1223     1.0  0.74157  0.31135  0.08282  1.0000
  C   C1515     1.0  0.89070  0.40740  0.05478  1.0000
  C   C1516     1.0  0.90573  0.38967  0.05371  1.0000
  C   C1517     1.0  0.91633  0.38492  0.03308  1.0000
  C   C1518     1.0  0.91223  0.39808  0.01338  1.0000
  C   C1519     1.0  0.89861  0.41720  0.01445  1.0000
  C   C1520     1.0  0.88787  0.42196  0.03526  1.0000
  H   H1224     1.0  0.90834  0.37871  0.06876  1.0000
  C   C1521     1.0  0.58520  0.29988  0.17213  1.0000
  H   H1225     1.0  0.89543  0.42741  0.99920  1.0000
  H   H1226     1.0  0.87599  0.43547  0.03600  1.0000
  C   C1522     1.0  0.51149  0.15924  0.03802  1.0000
  H   H1227     1.0  0.57718  0.41427  0.12417  1.0000
  H   H1228     1.0  0.91045  0.06531  0.06820  1.0000
  C   C1523     1.0  0.76272  0.06010  0.08652  1.0000
  C   C1524     1.0  0.97674  0.27817  0.08131  1.0000
  C   C1525     1.0  0.89265  0.25360  0.02150  1.0000
  H   H1229     1.0  0.93644  0.22011  0.04482  1.0000
  C   C1526     1.0  0.88712  0.01948  0.08366  1.0000
  H   H1230     1.0  0.75374  0.49937  0.07426  1.0000
  C   C1527     1.0  0.91981  0.19714  0.05135  1.0000
  H   H1231     1.0  0.74886  0.04436  0.10002  1.0000
  H   H1232     1.0  0.92285  0.35822  0.16050  1.0000
  C   C1528     1.0  0.66262  0.44336  0.10497  1.0000
  C   C1529     1.0  0.69161  0.44786  0.11270  1.0000
  H   H1233     1.0  0.56271  0.33916  0.16377  1.0000
  H   H1234     1.0  0.85640  0.18818  0.98881  1.0000
  H   H1235     1.0  0.61804  0.28142  0.97545  1.0000
  C   C1530     1.0  0.51518  0.13493  0.00349  1.0000
  H   H1236     1.0  0.88454  0.20940  0.05854  1.0000
  C   C1531     1.0  0.67797  0.37090  0.99585  1.0000
  H   H1237     1.0  0.64617  0.44416  0.11674  1.0000
  C   C1532     1.0  0.65113  0.27080  0.99160  1.0000
  S   S209      1.0  0.94970  0.10925  0.99316  1.0000
  C   C1533     1.0  0.65465  0.43717  0.08218  1.0000
  H   H1238     1.0  0.96420  0.46673  0.02520  1.0000
  H   H1239     1.0  0.54275  0.22116  0.13184  1.0000
  C   C1534     1.0  0.83393  0.25388  0.21549  1.0000
  C   C1535     1.0  0.75362  0.42080  0.07020  1.0000
  H   H1240     1.0  0.98309  0.26238  0.07335  1.0000
  H   H1241     1.0  0.57045  0.23769  0.03407  1.0000
  H   H1242     1.0  0.90893  0.21408  0.97107  1.0000
  C   C1536     1.0  0.71031  0.41038  0.03232  1.0000
  H   H1243     1.0  0.87315  0.14908  0.11269  1.0000
  C   C1537     1.0  0.86880  0.22478  0.01327  1.0000
  C   C1538     1.0  0.67545  0.43499  0.06713  1.0000
  C   C1539     1.0  0.76513  0.50169  0.05821  1.0000
  C   C1540     1.0  0.98571  0.36319  0.03537  1.0000
  H   H1244     1.0  0.96075  0.34583  0.03605  1.0000
  C   C1541     1.0  0.60415  0.00443  0.98072  1.0000
  H   H1245     1.0  0.79728  0.44956  0.05194  1.0000
  C   C1542     1.0  0.64282  0.41375  0.19889  1.0000
  H   H1246     1.0  0.76867  0.31863  0.15532  1.0000
  S   S210      1.0  0.51637  0.26875  0.11682  1.0000
  H   H1247     1.0  0.66091  0.32248  0.18757  1.0000
  P   P50       1.0  0.74337  0.30119  0.97548  1.0000
  H   H1248     1.0  0.96406  0.33162  0.98414  1.0000
  C   C1543     1.0  0.82698  0.27538  0.20519  1.0000
  H   H1249     1.0  0.99479  0.43972  0.02738  1.0000
  H   H1250     1.0  0.92183  0.21013  0.10384  1.0000
  C   C1544     1.0  0.80204  0.41892  0.07512  1.0000
  H   H1251     1.0  0.71407  0.38738  0.09051  1.0000
  H   H1252     1.0  0.55753  0.42156  0.97225  1.0000
  H   H1253     1.0  0.82655  0.42743  0.07075  1.0000
  C   C1545     1.0  0.00024  0.28782  0.01998  1.0000
  C   C1546     1.0  0.54651  0.04977  0.00389  1.0000
  H   H1254     1.0  0.67025  0.05634  0.00928  1.0000
  C   C1547     1.0  0.55900  0.06529  0.02430  1.0000
  C   C1548     1.0  0.56890  0.05165  0.04076  1.0000
  C   C1549     1.0  0.63604  0.31482  0.18923  1.0000
  C   C1550     1.0  0.70232  0.42215  0.01335  1.0000
  H   H1255     1.0  0.61705  0.45558  0.04320  1.0000
  H   H1256     1.0  0.59599  0.22763  0.12605  1.0000
  H   H1257     1.0  0.95255  0.21004  0.99137  1.0000
  H   H1258     1.0  0.61117  0.21796  0.08827  1.0000
  H   H1259     1.0  0.95135  0.17900  0.04655  1.0000
  H   H1260     1.0  0.70858  0.44656  0.01241  1.0000
  C   C1551     1.0  0.68646  0.40248  0.99514  1.0000
  H   H1261     1.0  0.63202  0.43336  0.07627  1.0000
  H   H1262     1.0  0.51333  0.17739  0.00432  1.0000
  C   C1552     1.0  0.75544  0.38371  0.09649  1.0000
  C   C1553     1.0  0.91327  0.23987  0.12572  1.0000
  S   S211      1.0  0.73438  0.06780  0.98221  1.0000
  H   H1263     1.0  0.51928  0.45720  0.06681  1.0000
  H   H1264     1.0  0.80030  0.38529  0.09903  1.0000
  Fe  Fe107     1.0  0.96270  0.01215  0.98636  1.0000
  H   H1265     1.0  0.51445  0.09118  0.00721  1.0000
  H   H1266     1.0  0.80667  0.38543  0.14443  1.0000
  C   C1554     1.0  0.54469  0.47580  0.01246  1.0000
  H   H1267     1.0  0.72636  0.17775  0.97489  1.0000
  H   H1268     1.0  0.77864  0.14027  0.04684  1.0000
  H   H1269     1.0  0.87916  0.15880  0.15357  1.0000
  C   C1555     1.0  0.77736  0.06857  0.04711  1.0000
  C   C1556     1.0  0.76557  0.40376  0.17977  1.0000
  C   C1557     1.0  0.77431  0.47922  0.02482  1.0000
  C   C1558     1.0  0.51848  0.45873  0.04862  1.0000
  H   H1270     1.0  0.60665  0.33488  0.97829  1.0000
  C   C1559     1.0  0.58765  0.21435  0.09104  1.0000
  H   H1271     1.0  0.00040  0.33228  0.12316  1.0000
  H   H1272     1.0  0.95396  0.33184  0.15473  1.0000
  C   C1560     1.0  0.81612  0.16877  0.12045  1.0000
  P   P51       1.0  0.73150  0.43602  0.05567  1.0000
  H   H1273     1.0  0.66116  0.46443  0.01873  1.0000
  S   S212      1.0  0.82521  0.11976  0.99005  1.0000
  H   H1274     1.0  0.98072  0.38737  0.00682  1.0000
  C   C1561     1.0  0.62266  0.02926  0.18387  1.0000
  C   C1562     1.0  0.98125  0.47060  0.01215  1.0000
  S   S213      1.0  0.00686  0.02709  0.96649  1.0000
  C   C1563     1.0  0.83168  0.01315  0.06501  1.0000
  C   C1564     1.0  0.64122  0.05860  0.05262  1.0000
  H   H1275     1.0  0.57090  0.29529  0.15707  1.0000
  C   C1565     1.0  0.51517  0.46293  0.00181  1.0000
  C   C1566     1.0  0.72991  0.20136  0.97501  1.0000
  C   C1567     1.0  0.75095  0.22358  0.99033  1.0000
  C   C1568     1.0  0.75516  0.25387  0.99072  1.0000
  C   C1569     1.0  0.73855  0.26227  0.97548  1.0000
  C   C1570     1.0  0.52564  0.34195  0.14651  1.0000
  H   H1276     1.0  0.97158  0.00503  0.15323  1.0000
  C   C1571     1.0  0.76561  0.32321  0.99989  1.0000
  C   C1572     1.0  0.86725  0.00430  0.00002  1.0000
  H   H1277     1.0  0.67889  0.01075  0.00878  1.0000
  C   C1573     1.0  0.77339  0.46420  0.17685  1.0000
  P   P52       1.0  0.58436  0.49199  0.05039  1.0000
  C   C1574     1.0  0.97698  0.19762  0.96732  1.0000
  H   H1278     1.0  0.54164  0.36067  0.13551  1.0000
  C   C1575     1.0  0.75132  0.33080  0.01741  1.0000
  C   C1576     1.0  0.76927  0.34818  0.03595  1.0000
  C   C1577     1.0  0.80139  0.35772  0.03731  1.0000
  C   C1578     1.0  0.81580  0.35047  0.01990  1.0000
  C   C1579     1.0  0.79813  0.33366  0.00113  1.0000
  C   C1580     1.0  0.70397  0.29587  0.97557  1.0000
  C   C1581     1.0  0.68194  0.27581  0.99155  1.0000
  H   H1279     1.0  0.98724  0.25190  0.15854  1.0000
  C   C1582     1.0  0.56618  0.20509  0.07311  1.0000
  C   C1583     1.0  0.51426  0.11038  0.01593  1.0000
  P   P53       1.0  0.96330  0.28805  0.18185  1.0000
  C   C1584     1.0  0.65259  0.48092  0.01850  1.0000
  S   S214      1.0  0.75652  0.47709  0.96649  1.0000
  H   H1280     1.0  0.70125  0.09232  0.21402  1.0000
  H   H1281     1.0  0.77100  0.27029  0.00317  1.0000
  H   H1282     1.0  0.74220  0.02424  0.06101  1.0000
  C   C1585     1.0  0.81865  0.38401  0.15940  1.0000
  C   C1586     1.0  0.68527  0.35880  0.01477  1.0000
  C   C1587     1.0  0.57915  0.21985  0.11227  1.0000
  C   C1588     1.0  0.54919  0.21616  0.11554  1.0000
  H   H1283     1.0  0.94086  0.29056  0.01836  1.0000
  H   H1284     1.0  0.72646  0.32346  0.01698  1.0000
  H   H1285     1.0  0.75815  0.35393  0.04942  1.0000
  H   H1286     1.0  0.81516  0.37067  0.05186  1.0000
  H   H1287     1.0  0.84070  0.35780  0.02102  1.0000
  H   H1288     1.0  0.80980  0.32851  0.98770  1.0000
  H   H1289     1.0  0.68872  0.26418  0.00406  1.0000
  C   C1589     1.0  0.57801  0.42903  0.11031  1.0000
  C   C1590     1.0  0.61723  0.30907  0.17006  1.0000
  C   C1591     1.0  0.59086  0.30182  0.21277  1.0000
  C   C1592     1.0  0.75874  0.47511  0.04547  1.0000
  C   C1593     1.0  0.94036  0.32747  0.17005  1.0000
  C   C1594     1.0  0.90651  0.14394  0.06004  1.0000
  C   C1595     1.0  0.78424  0.09170  0.09106  1.0000
  C   C1596     1.0  0.91343  0.10915  0.99162  1.0000
  H   H1290     1.0  0.76380  0.21723  0.00209  1.0000
  C   C1597     1.0  0.81952  0.17389  0.14374  1.0000
  C   C1598     1.0  0.69146  0.31613  0.13621  1.0000
  C   C1599     1.0  0.69977  0.29512  0.12715  1.0000
  C   C1600     1.0  0.72784  0.29644  0.13388  1.0000
  C   C1601     1.0  0.74745  0.31857  0.14986  1.0000
  C   C1602     1.0  0.73932  0.33990  0.15894  1.0000
  C   C1603     1.0  0.71085  0.33805  0.15235  1.0000
  C   C1604     1.0  0.80263  0.11185  0.07359  1.0000
  H   H1291     1.0  0.84544  0.21363  0.02068  1.0000
  H   H1292     1.0  0.78655  0.10015  0.10818  1.0000
  C   C1605     1.0  0.86833  0.16088  0.06723  1.0000
  P   P54       1.0  0.83072  0.15268  0.07884  1.0000
  C   C1606     1.0  0.85811  0.15618  0.12103  1.0000
  P   P55       1.0  0.96674  0.27404  0.97949  1.0000
  C   C1607     1.0  0.77962  0.18379  0.04277  1.0000
  C   C1608     1.0  0.83189  0.20935  0.07171  1.0000
  H   H1293     1.0  0.66997  0.31544  0.13074  1.0000
  H   H1294     1.0  0.68445  0.27781  0.11491  1.0000
  H   H1295     1.0  0.73439  0.28025  0.12671  1.0000
  C   C1609     1.0  0.98626  0.31731  0.10948  1.0000
  H   H1296     1.0  0.70355  0.35352  0.15973  1.0000
  C   C1610     1.0  0.82089  0.22835  0.06262  1.0000
  C   C1611     1.0  0.54656  0.47391  0.03601  1.0000
  C   C1612     1.0  0.75910  0.04863  0.06453  1.0000
  C   C1613     1.0  0.84224  0.17033  0.15565  1.0000
  H   H1297     1.0  0.62167  0.05167  0.99239  1.0000
  C   C1614     1.0  0.79454  0.21556  0.04844  1.0000
  H   H1298     1.0  0.81360  0.11498  0.03800  1.0000
  C   C1615     1.0  0.79089  0.16477  0.05146  1.0000
  H   H1299     1.0  0.77462  0.05980  0.03000  1.0000
  C   C1616     1.0  0.68986  0.06105  0.06465  1.0000
  C   C1617     1.0  0.65271  0.03438  0.00183  1.0000
  H   H1300     1.0  0.53915  0.06035  0.99095  1.0000
  C   C1618     1.0  0.76037  0.41479  0.15924  1.0000
  C   C1619     1.0  0.77640  0.42397  0.19843  1.0000
  S   S215      1.0  0.98376  0.05431  0.00871  1.0000
  H   H1301     1.0  0.51127  0.09113  0.04909  1.0000
  C   C1620     1.0  0.55230  0.24165  0.02711  1.0000
  C   C1621     1.0  0.92820  0.17392  0.05224  1.0000
  C   C1622     1.0  0.63955  0.01383  0.07101  1.0000
  C   C1623     1.0  0.93976  0.30633  0.18626  1.0000
  Fe  Fe108     1.0  0.78292  0.09383  0.96709  1.0000
  C   C1624     1.0  0.70434  0.43873  0.07489  1.0000
  P   P56       1.0  0.76218  0.36558  0.18170  1.0000
  H   H1302     1.0  0.73458  0.44873  0.10412  1.0000
  C   C1625     1.0  0.73258  0.17015  0.18750  1.0000
  C   C1626     1.0  0.76010  0.19686  0.17990  1.0000
  C   C1627     1.0  0.76375  0.20502  0.15706  1.0000
  C   C1628     1.0  0.74063  0.18585  0.14148  1.0000
  C   C1629     1.0  0.71388  0.15835  0.14874  1.0000
  C   C1630     1.0  0.70990  0.15043  0.17166  1.0000
  C   C1631     1.0  0.87670  0.13739  0.06747  1.0000
  C   C1632     1.0  0.59224  0.46145  0.11332  1.0000
  H   H1303     1.0  0.98121  0.26578  0.02622  1.0000
  P   P57       1.0  0.53146  0.28776  0.19683  1.0000
  C   C1633     1.0  0.56704  0.43494  0.07133  1.0000
  C   C1634     1.0  0.56528  0.41577  0.08935  1.0000
  C   C1635     1.0  0.74264  0.34366  0.20685  1.0000
  C   C1636     1.0  0.87499  0.21044  0.99531  1.0000
  C   C1637     1.0  0.92929  0.25363  0.99392  1.0000
  C   C1638     1.0  0.86039  0.04076  0.06159  1.0000
  C   C1639     1.0  0.53608  0.20170  0.07612  1.0000
  H   H1304     1.0  0.68909  0.12899  0.17700  1.0000
  H   H1305     1.0  0.76986  0.45917  0.01464  1.0000
  H   H1306     1.0  0.77865  0.21158  0.19160  1.0000
  H   H1307     1.0  0.78460  0.22625  0.15144  1.0000
  H   H1308     1.0  0.74357  0.19232  0.12378  1.0000
  H   H1309     1.0  0.69616  0.14327  0.13660  1.0000
  C   C1640     1.0  0.51087  0.13463  0.05046  1.0000
  C   C1641     1.0  0.86150  0.16146  0.14430  1.0000
  C   C1642     1.0  0.57209  0.29735  0.19355  1.0000
  H   H1310     1.0  0.52378  0.35225  0.04433  1.0000
  H   H1311     1.0  0.55465  0.39066  0.08684  1.0000
  C   C1643     1.0  0.96741  0.21765  0.97654  1.0000
  C   C1644     1.0  0.90499  0.22498  0.98550  1.0000
  H   H1312     1.0  0.80187  0.45962  0.98180  1.0000
  H   H1313     1.0  0.56131  0.08804  0.02726  1.0000
  C   C1645     1.0  0.77979  0.45386  0.19708  1.0000
  H   H1314     1.0  0.91280  0.12573  0.06015  1.0000
  H   H1315     1.0  0.61838  0.14395  0.21137  1.0000
  H   H1316     1.0  0.62996  0.06990  0.04422  1.0000
  C   C1646     1.0  0.70161  0.37849  0.03288  1.0000
  C   C1647     1.0  0.99586  0.29815  0.09847  1.0000
  H   H1317     1.0  0.75332  0.40034  0.14428  1.0000
  H   H1318     1.0  0.68467  0.01920  0.08032  1.0000
  C   C1648     1.0  0.88808  0.04403  0.07107  1.0000
  H   H1319     1.0  0.88763  0.28764  0.97568  1.0000
  H   H1320     1.0  0.71543  0.07379  0.06583  1.0000
  H   H1321     1.0  0.55791  0.42434  0.05501  1.0000
  C   C1649     1.0  0.71239  0.44553  0.09775  1.0000
  H   H1322     1.0  0.74373  0.36476  0.10853  1.0000
  H   H1323     1.0  0.69745  0.45198  0.13047  1.0000
  H   H1324     1.0  0.75921  0.01649  0.98907  1.0000
  C   C1650     1.0  0.85049  0.38114  0.19778  1.0000
  C   C1651     1.0  0.78717  0.39507  0.09109  1.0000
  C   C1652     1.0  0.65771  0.00887  0.00133  1.0000
  C   C1653     1.0  0.73871  0.39658  0.08617  1.0000
  C   C1654     1.0  0.85035  0.39193  0.15793  1.0000
  H   H1325     1.0  0.77569  0.48723  0.17593  1.0000
  H   H1326     1.0  0.50895  0.13413  0.06866  1.0000
  H   H1327     1.0  0.91074  0.27101  0.14941  1.0000
  C   C1655     1.0  0.92285  0.26798  0.01194  1.0000
  C   C1656     1.0  0.58153  0.46758  0.07413  1.0000
  H   H1328     1.0  0.88662  0.06677  0.97231  1.0000
  C   C1657     1.0  0.53749  0.32926  0.16228  1.0000
  H   H1329     1.0  0.96928  0.21825  0.12489  1.0000
  C   C1658     1.0  0.52770  0.20699  0.09762  1.0000
  H   H1330     1.0  0.63445  0.25571  0.00428  1.0000
  C   C1659     1.0  0.95148  0.26548  0.15599  1.0000
  C   C1660     1.0  0.88619  0.08611  0.98054  1.0000
  H   H1331     1.0  0.68766  0.09887  0.04809  1.0000
  C   C1661     1.0  0.78531  0.43154  0.06454  1.0000
  C   C1662     1.0  0.76407  0.44482  0.15786  1.0000
  C   C1663     1.0  0.81873  0.37311  0.19928  1.0000
  H   H1332     1.0  0.89263  0.23650  0.11649  1.0000
  C   C1664     1.0  0.92407  0.26000  0.14430  1.0000
  H   H1333     1.0  0.86117  0.05945  0.05140  1.0000
  H   H1334     1.0  0.66544  0.35586  0.98175  1.0000
  H   H1335     1.0  0.51616  0.13464  0.98523  1.0000
  C   C1665     1.0  0.52047  0.22255  0.03324  1.0000
  H   H1336     1.0  0.92284  0.02364  0.04106  1.0000
  C   C1666     1.0  0.92957  0.22487  0.11868  1.0000
  C   C1667     1.0  0.62553  0.03186  0.99205  1.0000
  C   C1668     1.0  0.51353  0.15916  0.01442  1.0000
  H   H1337     1.0  0.75922  0.45285  0.14215  1.0000
  C   C1669     1.0  0.67419  0.07520  0.05469  1.0000
  H   H1338     1.0  0.58602  0.28194  0.00824  1.0000
  H   H1339     1.0  0.89183  0.34877  0.19558  1.0000
  H   H1340     1.0  0.90320  0.04836  0.01389  1.0000
  H   H1341     1.0  0.67478  0.16903  0.20097  1.0000
  H   H1342     1.0  0.99766  0.34408  0.06395  1.0000
  C   C1670     1.0  0.53844  0.27276  0.00305  1.0000
  C   C1671     1.0  0.92311  0.34273  0.17338  1.0000
  C   C1672     1.0  0.67293  0.41750  0.19622  1.0000
  H   H1343     1.0  0.81799  0.28754  0.21512  1.0000
  C   C1673     1.0  0.90594  0.33769  0.19321  1.0000
  C   C1674     1.0  0.80253  0.37416  0.18001  1.0000
  C   C1675     1.0  0.90305  0.00916  0.03012  1.0000
  H   H1344     1.0  0.51377  0.46487  0.98367  1.0000
  C   C1676     1.0  0.51222  0.11026  0.03943  1.0000
  H   H1345     1.0  0.78721  0.46889  0.21182  1.0000
  H   H1346     1.0  0.56582  0.48727  0.00222  1.0000
  C   C1677     1.0  0.86625  0.39043  0.17710  1.0000
  C   C1678     1.0  0.96693  0.24929  0.14927  1.0000
  H   H1347     1.0  0.91458  0.22272  0.18903  1.0000
  H   H1348     1.0  0.83768  0.07111  0.97100  1.0000
  H   H1349     1.0  0.86245  0.39888  0.14184  1.0000
  C   C1679     1.0  0.95961  0.32445  0.96663  1.0000
  S   S216      1.0  0.85538  0.21218  0.21537  1.0000
  H   H1350     1.0  0.63468  0.11956  0.97075  1.0000
  C   C1680     1.0  0.60651  0.37721  0.96930  1.0000
  H   H1351     1.0  0.78211  0.41661  0.21411  1.0000
  C   C1681     1.0  0.62726  0.47584  0.03226  1.0000
  H   H1352     1.0  0.59893  0.00376  0.10519  1.0000
  H   H1353     1.0  0.60212  0.47167  0.12961  1.0000
  H   H1354     1.0  0.69075  0.42930  0.20907  1.0000
  C   C1682     1.0  0.99844  0.45492  0.01315  1.0000
  H   H1355     1.0  0.96922  0.17477  0.97481  1.0000
  C   C1683     1.0  0.97740  0.24726  0.96684  1.0000
  C   C1684     1.0  0.67254  0.03036  0.07281  1.0000
  H   H1356     1.0  0.86273  0.37966  0.21257  1.0000
  H   H1357     1.0  0.53397  0.00856  0.98412  1.0000
  C   C1685     1.0  0.64192  0.28536  0.97545  1.0000
  C   C1686     1.0  0.74026  0.31432  0.21046  1.0000
  C   C1687     1.0  0.61544  0.49662  0.03158  1.0000
  C   C1688     1.0  0.98569  0.49083  0.99421  1.0000
  H   H1358     1.0  0.75182  0.30601  0.19911  1.0000
  C   C1689     1.0  0.61176  0.03513  0.20398  1.0000
  C   C1690     1.0  0.93251  0.22914  0.20195  1.0000
  H   H1359     1.0  0.89064  0.39608  0.17580  1.0000
  C   C1691     1.0  0.66550  0.15082  0.21374  1.0000
  C   C1692     1.0  0.62273  0.31080  0.21058  1.0000
  C   C1693     1.0  0.54373  0.02057  0.99998  1.0000
  H   H1360     1.0  0.77728  0.01076  0.02692  1.0000
  C   C1694     1.0  0.95779  0.26010  0.20363  1.0000
  C   C1695     1.0  0.62352  0.02769  0.06076  1.0000
  C   C1696     1.0  0.90617  0.31757  0.20975  1.0000
  H   H1361     1.0  0.81022  0.01069  0.05774  1.0000
  C   C1697     1.0  0.00355  0.32051  0.18247  1.0000
  C   C1698     1.0  0.00644  0.36225  0.05121  1.0000
  C   C1699     1.0  0.00764  0.49572  0.97738  1.0000
  P   P58       1.0  0.50883  0.19004  0.05249  1.0000
  C   C1700     1.0  0.56267  0.00459  0.08447  1.0000
  C   C1701     1.0  0.55396  0.00707  0.01629  1.0000
  H   H1362     1.0  0.97198  0.50254  0.99332  1.0000
  C   C1702     1.0  0.57667  0.00339  0.10490  1.0000
  H   H1363     1.0  0.58418  0.00367  0.97214  1.0000
  P   P59       1.0  0.58080  0.00554  0.05771  1.0000
  H   H1364     1.0  0.91035  0.18241  0.21566  1.0000
  C   C1703     1.0  0.58719  0.01038  0.21576  1.0000
  H   H1365     1.0  0.80694  0.36614  0.21542  1.0000
  H   H1366     1.0  0.62299  0.05869  0.21075  1.0000
  Fe  Fe109     1.0  0.65948  0.41885  0.25316  1.0000
  S   S217      1.0  0.67941  0.38798  0.24507  1.0000
  C   C1704     1.0  0.69813  0.08612  0.33924  1.0000
  Fe  Fe110     1.0  0.67889  0.42331  0.30236  1.0000
  S   S218      1.0  0.69907  0.39171  0.29737  1.0000
  S   S219      1.0  0.68426  0.44016  0.33818  1.0000
  Fe  Fe111     1.0  0.72056  0.42117  0.26652  1.0000
  S   S220      1.0  0.77099  0.43599  0.25755  1.0000
  Fe  Fe112     1.0  0.65548  0.36230  0.27663  1.0000
  S   S221      1.0  0.62684  0.30929  0.27437  1.0000
  S   S222      1.0  0.70261  0.45435  0.27243  1.0000
  S   S223      1.0  0.63351  0.39162  0.28401  1.0000
  H   H1367     1.0  0.68397  0.36497  0.38005  1.0000
  C   C1705     1.0  0.83331  0.47723  0.26404  1.0000
  H   H1368     1.0  0.74998  0.17089  0.26363  1.0000
  C   C1706     1.0  0.56515  0.26055  0.27351  1.0000
  H   H1369     1.0  0.76010  0.07723  0.28253  1.0000
  H   H1370     1.0  0.83992  0.46329  0.38163  1.0000
  C   C1707     1.0  0.63296  0.25580  0.45104  1.0000
  H   H1371     1.0  0.54813  0.42557  0.35411  1.0000
  C   C1708     1.0  0.95283  0.21390  0.23385  1.0000
  S   S224      1.0  0.62242  0.09103  0.44419  1.0000
  C   C1709     1.0  0.92412  0.39120  0.29761  1.0000
  Fe  Fe113     1.0  0.85868  0.25493  0.29327  1.0000
  S   S225      1.0  0.89480  0.24946  0.31324  1.0000
  S   S226      1.0  0.83048  0.27589  0.30636  1.0000
  Fe  Fe114     1.0  0.86733  0.22552  0.25164  1.0000
  S   S227      1.0  0.90370  0.21744  0.26819  1.0000
  Fe  Fe115     1.0  0.87084  0.20110  0.29768  1.0000
  S   S228      1.0  0.86057  0.15808  0.31800  1.0000
  Fe  Fe116     1.0  0.92409  0.26663  0.28154  1.0000
  S   S229      1.0  0.98799  0.00955  0.41014  1.0000
  S   S230      1.0  0.83277  0.20561  0.28006  1.0000
  S   S231      1.0  0.88935  0.27544  0.26299  1.0000
  C   C1710     1.0  0.62600  0.35895  0.34433  1.0000
  C   C1711     1.0  0.80332  0.47409  0.26253  1.0000
  S   S232      1.0  0.68594  0.04002  0.27118  1.0000
  Fe  Fe117     1.0  0.85798  0.35696  0.41352  1.0000
  S   S233      1.0  0.82158  0.36981  0.40381  1.0000
  S   S234      1.0  0.89651  0.36223  0.39047  1.0000
  Fe  Fe118     1.0  0.83132  0.39192  0.43801  1.0000
  S   S235      1.0  0.83522  0.43922  0.44340  1.0000
  Fe  Fe119     1.0  0.78679  0.32456  0.42073  1.0000
  S   S236      1.0  0.74056  0.29096  0.40330  1.0000
  C   C1712     1.0  0.97921  0.45472  0.26686  1.0000
  S   S237      1.0  0.82275  0.31003  0.42752  1.0000
  C   C1713     1.0  0.84967  0.30138  0.32885  1.0000
  C   C1714     1.0  0.83237  0.30980  0.34300  1.0000
  C   C1715     1.0  0.84678  0.32835  0.36199  1.0000
  C   C1716     1.0  0.87880  0.33952  0.36643  1.0000
  C   C1717     1.0  0.89652  0.33230  0.35171  1.0000
  C   C1718     1.0  0.88183  0.31285  0.33307  1.0000
  H   H1372     1.0  0.80748  0.30088  0.33983  1.0000
  H   H1373     1.0  0.83287  0.33362  0.37329  1.0000
  H   H1374     1.0  0.92138  0.34116  0.35494  1.0000
  H   H1375     1.0  0.89550  0.30709  0.32184  1.0000
  C   C1719     1.0  0.66033  0.20427  0.43860  1.0000
  C   C1720     1.0  0.65828  0.21032  0.41579  1.0000
  C   C1721     1.0  0.68365  0.23601  0.40495  1.0000
  C   C1722     1.0  0.71102  0.25675  0.41698  1.0000
  C   C1723     1.0  0.71298  0.25123  0.43992  1.0000
  H   H1376     1.0  0.89090  0.48482  0.21992  1.0000
  H   H1377     1.0  0.63643  0.19626  0.40675  1.0000
  H   H1378     1.0  0.68147  0.24059  0.38739  1.0000
  C   C1724     1.0  0.77982  0.39575  0.30596  1.0000
  C   C1725     1.0  0.93018  0.20612  0.21690  1.0000
  H   H1379     1.0  0.00737  0.04724  0.32402  1.0000
  H   H1380     1.0  0.82973  0.24901  0.23333  1.0000
  H   H1381     1.0  0.64989  0.37435  0.33851  1.0000
  C   C1726     1.0  0.87206  0.47321  0.44911  1.0000
  C   C1727     1.0  0.90112  0.47637  0.44257  1.0000
  C   C1728     1.0  0.64358  0.03207  0.44038  1.0000
  C   C1729     1.0  0.62130  0.11380  0.23645  1.0000
  C   C1730     1.0  0.57389  0.35038  0.35397  1.0000
  H   H1382     1.0  0.90145  0.45714  0.43409  1.0000
  H   H1383     1.0  0.54026  0.47241  0.37633  1.0000
  C   C1731     1.0  0.57656  0.40147  0.39219  1.0000
  C   C1732     1.0  0.98393  0.03541  0.33137  1.0000
  C   C1733     1.0  0.80438  0.11324  0.29710  1.0000
  C   C1734     1.0  0.82699  0.12036  0.31419  1.0000
  C   C1735     1.0  0.82245  0.09697  0.32968  1.0000
  C   C1736     1.0  0.69619  0.06414  0.45594  1.0000
  H   H1384     1.0  0.77040  0.37898  0.27172  1.0000
  H   H1385     1.0  0.80773  0.13108  0.28497  1.0000
  H   H1386     1.0  0.83960  0.10223  0.34298  1.0000
  H   H1387     1.0  0.83580  0.45664  0.26297  1.0000
  C   C1737     1.0  0.58621  0.29096  0.28140  1.0000
  C   C1738     1.0  0.75378  0.19303  0.25704  1.0000
  C   C1739     1.0  0.84905  0.44872  0.37540  1.0000
  Fe  Fe120     1.0  0.64089  0.02495  0.29007  1.0000
  H   H1388     1.0  0.69684  0.34184  0.25086  1.0000
  C   C1740     1.0  0.57496  0.30549  0.29589  1.0000
  H   H1389     1.0  0.57365  0.24912  0.26229  1.0000
  H   H1390     1.0  0.95058  0.19619  0.24577  1.0000
  C   C1741     1.0  0.72662  0.35342  0.22143  1.0000
  H   H1391     1.0  0.59089  0.32875  0.30217  1.0000
  H   H1392     1.0  0.75923  0.49432  0.33281  1.0000
  H   H1393     1.0  0.89150  0.47245  0.39536  1.0000
  H   H1394     1.0  0.81335  0.14151  0.23854  1.0000
  C   C1742     1.0  0.66405  0.46023  0.34396  1.0000
  H   H1395     1.0  0.66834  0.45737  0.37985  1.0000
  H   H1396     1.0  0.68436  0.06415  0.34817  1.0000
  C   C1743     1.0  0.63407  0.49456  0.35387  1.0000
  C   C1744     1.0  0.50846  0.22906  0.21668  1.0000
  C   C1745     1.0  0.74524  0.19528  0.23478  1.0000
  H   H1397     1.0  0.61913  0.01376  0.44237  1.0000
  C   C1746     1.0  0.69493  0.45773  0.43436  1.0000
  C   C1747     1.0  0.58467  0.30717  0.35519  1.0000
  C   C1748     1.0  0.92363  0.00599  0.35127  1.0000
  C   C1749     1.0  0.72192  0.29500  0.22818  1.0000
  C   C1750     1.0  0.65347  0.04887  0.42018  1.0000
  S   S238      1.0  0.62715  0.17442  0.45327  1.0000
  H   H1398     1.0  0.66786  0.48132  0.43776  1.0000
  C   C1751     1.0  0.68450  0.07369  0.41798  1.0000
  C   C1752     1.0  0.70881  0.37596  0.38441  1.0000
  C   C1753     1.0  0.86459  0.38623  0.29577  1.0000
  C   C1754     1.0  0.97748  0.01542  0.34979  1.0000
  C   C1755     1.0  0.77261  0.05986  0.31185  1.0000
  S   S239      1.0  0.97654  0.30015  0.27489  1.0000
  C   C1756     1.0  0.75871  0.11801  0.40458  1.0000
  C   C1757     1.0  0.77790  0.14749  0.39455  1.0000
  C   C1758     1.0  0.78772  0.14953  0.37220  1.0000
  C   C1759     1.0  0.77780  0.12238  0.35951  1.0000
  C   C1760     1.0  0.75895  0.09297  0.36932  1.0000
  C   C1761     1.0  0.74963  0.09074  0.39180  1.0000
  H   H1399     1.0  0.63676  0.04332  0.40646  1.0000
  C   C1762     1.0  0.71505  0.08717  0.32007  1.0000
  H   H1400     1.0  0.69123  0.08731  0.40255  1.0000
  H   H1401     1.0  0.99025  0.03753  0.45379  1.0000
  C   C1763     1.0  0.94992  0.49078  0.34369  1.0000
  H   H1402     1.0  0.50851  0.37626  0.28488  1.0000
  H   H1403     1.0  0.52954  0.34117  0.28069  1.0000
  H   H1404     1.0  0.78548  0.16899  0.40375  1.0000
  H   H1405     1.0  0.80321  0.17215  0.36464  1.0000
  H   H1406     1.0  0.78472  0.12418  0.34203  1.0000
  H   H1407     1.0  0.75143  0.07192  0.35937  1.0000
  H   H1408     1.0  0.73513  0.06767  0.39910  1.0000
  C   C1764     1.0  0.72559  0.10341  0.21967  1.0000
  C   C1765     1.0  0.82772  0.47608  0.33044  1.0000
  H   H1409     1.0  0.83127  0.38715  0.34032  1.0000
  C   C1766     1.0  0.74366  0.13610  0.22254  1.0000
  C   C1767     1.0  0.68527  0.14157  0.22437  1.0000
  H   H1410     1.0  0.96771  0.48021  0.39890  1.0000
  C   C1768     1.0  0.70914  0.33438  0.23954  1.0000
  C   C1769     1.0  0.76399  0.40269  0.37283  1.0000
  H   H1411     1.0  0.61378  0.39515  0.34401  1.0000
  C   C1770     1.0  0.67705  0.29558  0.42975  1.0000
  C   C1771     1.0  0.60921  0.41064  0.46174  1.0000
  H   H1412     1.0  0.74396  0.22326  0.46454  1.0000
  H   H1413     1.0  0.94483  0.05237  0.43257  1.0000
  H   H1414     1.0  0.63716  0.31502  0.22551  1.0000
  C   C1772     1.0  0.57322  0.44073  0.30008  1.0000
  H   H1415     1.0  0.63390  0.25931  0.41484  1.0000
  H   H1416     1.0  0.84718  0.33810  0.28611  1.0000
  C   C1773     1.0  0.71881  0.45670  0.42190  1.0000
  Fe  Fe121     1.0  0.57730  0.05834  0.42579  1.0000
  C   C1774     1.0  0.89081  0.01150  0.39139  1.0000
  C   C1775     1.0  0.60145  0.06525  0.36576  1.0000
  C   C1776     1.0  0.76337  0.25052  0.24094  1.0000
  H   H1417     1.0  0.92936  0.48900  0.28846  1.0000
  H   H1418     1.0  0.51757  0.22070  0.27501  1.0000
  H   H1419     1.0  0.55255  0.43211  0.43404  1.0000
  C   C1777     1.0  0.64649  0.26963  0.43040  1.0000
  C   C1778     1.0  0.56703  0.39085  0.31208  1.0000
  H   H1420     1.0  0.59809  0.40362  0.38540  1.0000
  C   C1779     1.0  0.89704  0.04388  0.43179  1.0000
  H   H1421     1.0  0.79200  0.04961  0.34105  1.0000
  H   H1422     1.0  0.68823  0.30514  0.41364  1.0000
  C   C1780     1.0  0.87837  0.45403  0.38318  1.0000
  S   S240      1.0  0.57008  0.02244  0.39956  1.0000
  C   C1781     1.0  0.56393  0.31865  0.35826  1.0000
  H   H1423     1.0  0.56950  0.37063  0.30848  1.0000
  C   C1782     1.0  0.58254  0.01065  0.35726  1.0000
  C   C1783     1.0  0.63582  0.33427  0.44184  1.0000
  C   C1784     1.0  0.86833  0.02980  0.42006  1.0000
  H   H1424     1.0  0.72405  0.38633  0.35000  1.0000
  C   C1785     1.0  0.98765  0.35370  0.29787  1.0000
  C   C1786     1.0  0.61416  0.07355  0.34395  1.0000
  C   C1787     1.0  0.57568  0.41421  0.29564  1.0000
  H   H1425     1.0  0.96468  0.40021  0.43417  1.0000
  C   C1788     1.0  0.98406  0.47711  0.40945  1.0000
  H   H1426     1.0  0.89265  0.31364  0.22501  1.0000
  C   C1789     1.0  0.99639  0.46130  0.44518  1.0000
  C   C1790     1.0  0.57834  0.41894  0.41124  1.0000
  C   C1791     1.0  0.77731  0.08286  0.29582  1.0000
  C   C1792     1.0  0.97494  0.46422  0.43102  1.0000
  S   S241      1.0  0.62902  0.06103  0.30220  1.0000
  C   C1793     1.0  0.62469  0.33167  0.41979  1.0000
  H   H1427     1.0  0.63153  0.08739  0.26058  1.0000
  C   C1794     1.0  0.52870  0.30513  0.22270  1.0000
  H   H1428     1.0  0.57628  0.28236  0.35745  1.0000
  H   H1429     1.0  0.89987  0.34258  0.28756  1.0000
  H   H1430     1.0  0.52289  0.24153  0.23113  1.0000
  C   C1795     1.0  0.70649  0.30510  0.24277  1.0000
  H   H1431     1.0  0.78055  0.19615  0.33324  1.0000
  H   H1432     1.0  0.58496  0.41222  0.27957  1.0000
  H   H1433     1.0  0.63129  0.31808  0.34477  1.0000
  C   C1796     1.0  0.71625  0.14822  0.44692  1.0000
  H   H1434     1.0  0.60369  0.08296  0.37745  1.0000
  H   H1435     1.0  0.58047  0.45903  0.28749  1.0000
  S   S242      1.0  0.87004  0.38195  0.44665  1.0000
  C   C1797     1.0  0.76973  0.37259  0.28931  1.0000
  C   C1798     1.0  0.75864  0.34132  0.29530  1.0000
  C   C1799     1.0  0.75741  0.33309  0.31800  1.0000
  C   C1800     1.0  0.76715  0.35611  0.33470  1.0000
  H   H1436     1.0  0.69393  0.12682  0.44454  1.0000
  C   C1801     1.0  0.64100  0.10502  0.24744  1.0000
  C   C1802     1.0  0.54349  0.28912  0.30343  1.0000
  H   H1437     1.0  0.83020  0.23527  0.35109  1.0000
  C   C1803     1.0  0.78874  0.13077  0.23346  1.0000
  S   S243      1.0  0.79268  0.34794  0.45419  1.0000
  C   C1804     1.0  0.73555  0.47938  0.40539  1.0000
  H   H1438     1.0  0.75099  0.32354  0.28234  1.0000
  H   H1439     1.0  0.74902  0.30893  0.32277  1.0000
  H   H1440     1.0  0.76635  0.34941  0.35224  1.0000
  H   H1441     1.0  0.72682  0.37525  0.21868  1.0000
  C   C1805     1.0  0.73165  0.38821  0.36741  1.0000
  C   C1806     1.0  0.61155  0.05043  0.32896  1.0000
  C   C1807     1.0  0.89756  0.36288  0.29132  1.0000
  H   H1442     1.0  0.72468  0.05926  0.22234  1.0000
  C   C1808     1.0  0.78600  0.09153  0.44408  1.0000
  C   C1809     1.0  0.93236  0.49491  0.30622  1.0000
  C   C1810     1.0  0.52207  0.39955  0.40887  1.0000
  H   H1443     1.0  0.92231  0.28570  0.21906  1.0000
  C   C1811     1.0  0.60536  0.37058  0.34741  1.0000
  C   C1812     1.0  0.79845  0.45388  0.33970  1.0000
  H   H1444     1.0  0.84687  0.47112  0.32904  1.0000
  H   H1445     1.0  0.99894  0.29179  0.22348  1.0000
  C   C1813     1.0  0.96024  0.04047  0.32266  1.0000
  H   H1446     1.0  0.93794  0.48342  0.23449  1.0000
  H   H1447     1.0  0.51155  0.41162  0.25410  1.0000
  H   H1448     1.0  0.78846  0.41986  0.30093  1.0000
  C   C1814     1.0  0.52264  0.25847  0.29604  1.0000
  P   P60       1.0  0.54593  0.36438  0.35480  1.0000
  H   H1449     1.0  0.72435  0.43828  0.42488  1.0000
  C   C1815     1.0  0.77555  0.14967  0.22891  1.0000
  S   S244      1.0  0.60686  0.49750  0.42509  1.0000
  S   S245      1.0  0.52984  0.47611  0.45200  1.0000
  C   C1816     1.0  0.79546  0.06711  0.32858  1.0000
  H   H1450     1.0  0.71877  0.32586  0.44856  1.0000
  C   C1817     1.0  0.71589  0.17470  0.45485  1.0000
  C   C1818     1.0  0.55455  0.42128  0.33768  1.0000
  P   P61       1.0  0.95618  0.45412  0.31031  1.0000
  C   C1819     1.0  0.94523  0.48176  0.32092  1.0000
  C   C1820     1.0  0.92129  0.41760  0.30248  1.0000
  C   C1821     1.0  0.89118  0.41477  0.30175  1.0000
  H   H1451     1.0  0.84959  0.49604  0.46516  1.0000
  P   P62       1.0  0.74563  0.11471  0.43349  1.0000
  S   S246      1.0  0.63276  0.42506  0.22437  1.0000
  H   H1452     1.0  0.99368  0.25133  0.25023  1.0000
  C   C1822     1.0  0.65633  0.39053  0.44098  1.0000
  C   C1823     1.0  0.97703  0.44523  0.33170  1.0000
  C   C1824     1.0  0.95996  0.42312  0.34857  1.0000
  C   C1825     1.0  0.97577  0.41643  0.36544  1.0000
  H   H1453     1.0  0.79752  0.41498  0.40038  1.0000
  C   C1826     1.0  0.97723  0.24493  0.23629  1.0000
  C   C1827     1.0  0.71801  0.37751  0.40692  1.0000
  H   H1454     1.0  0.99591  0.01185  0.35694  1.0000
  C   C1828     1.0  0.62921  0.35841  0.40833  1.0000
  H   H1455     1.0  0.88782  0.43418  0.30611  1.0000
  C   C1829     1.0  0.54741  0.38276  0.38140  1.0000
  C   C1830     1.0  0.91953  0.02569  0.40335  1.0000
  H   H1456     1.0  0.96085  0.48200  0.35525  1.0000
  C   C1831     1.0  0.68732  0.48103  0.42942  1.0000
  H   H1457     1.0  0.93442  0.41075  0.34866  1.0000
  H   H1458     1.0  0.96236  0.39917  0.37829  1.0000
  C   C1832     1.0  0.77845  0.38762  0.32878  1.0000
  C   C1833     1.0  0.87336  0.41159  0.35987  1.0000
  C   C1834     1.0  0.74898  0.22398  0.22712  1.0000
  H   H1459     1.0  0.60102  0.43407  0.41913  1.0000
  H   H1460     1.0  0.96602  0.33889  0.30699  1.0000
  C   C1835     1.0  0.86514  0.01357  0.40001  1.0000
  C   C1836     1.0  0.77380  0.46073  0.34040  1.0000
  C   C1837     1.0  0.99689  0.34102  0.28041  1.0000
  H   H1461     1.0  0.89231  0.31432  0.46311  1.0000
  H   H1462     1.0  0.71492  0.06617  0.31460  1.0000
  H   H1463     1.0  0.99870  0.45513  0.23425  1.0000
  C   C1838     1.0  0.65995  0.46615  0.36637  1.0000
  C   C1839     1.0  0.55112  0.41799  0.41957  1.0000
  C   C1840     1.0  0.65172  0.36356  0.45238  1.0000
  C   C1841     1.0  0.80593  0.08653  0.45835  1.0000
  C   C1842     1.0  0.55616  0.39409  0.33323  1.0000
  S   S247      1.0  0.55314  0.03079  0.45663  1.0000
  C   C1843     1.0  0.52865  0.33162  0.26427  1.0000
  Fe  Fe122     1.0  0.53454  0.06352  0.46043  1.0000
  H   H1464     1.0  0.81656  0.07314  0.45246  1.0000
  H   H1465     1.0  0.56200  0.46546  0.32493  1.0000
  C   C1844     1.0  0.77296  0.24837  0.26273  1.0000
  C   C1845     1.0  0.76779  0.21956  0.27088  1.0000
  H   H1466     1.0  0.78445  0.26901  0.27334  1.0000
  H   H1467     1.0  0.77512  0.21804  0.28788  1.0000
  C   C1846     1.0  0.68046  0.18488  0.28109  1.0000
  C   C1847     1.0  0.69306  0.21728  0.27914  1.0000
  C   C1848     1.0  0.71212  0.23721  0.29634  1.0000
  C   C1849     1.0  0.71879  0.22481  0.31546  1.0000
  C   C1850     1.0  0.70643  0.19230  0.31743  1.0000
  C   C1851     1.0  0.68690  0.17236  0.30022  1.0000
  P   P63       1.0  0.71352  0.17592  0.34254  1.0000
  C   C1852     1.0  0.68167  0.16449  0.36233  1.0000
  C   C1853     1.0  0.71529  0.14146  0.33453  1.0000
  C   C1854     1.0  0.73193  0.14213  0.31511  1.0000
  C   C1855     1.0  0.73174  0.11509  0.30790  1.0000
  C   C1856     1.0  0.61560  0.32723  0.34801  1.0000
  H   H1468     1.0  0.91257  0.43854  0.38218  1.0000
  C   C1857     1.0  0.69826  0.11313  0.34652  1.0000
  C   C1858     1.0  0.68587  0.15866  0.38491  1.0000
  C   C1859     1.0  0.66090  0.14829  0.40011  1.0000
  C   C1860     1.0  0.63148  0.14316  0.39287  1.0000
  C   C1861     1.0  0.62714  0.14907  0.37050  1.0000
  C   C1862     1.0  0.65216  0.15977  0.35523  1.0000
  C   C1863     1.0  0.75043  0.20481  0.35530  1.0000
  C   C1864     1.0  0.75043  0.22384  0.37294  1.0000
  C   C1865     1.0  0.77876  0.24562  0.38324  1.0000
  C   C1866     1.0  0.80743  0.24923  0.37574  1.0000
  C   C1867     1.0  0.80781  0.23140  0.35761  1.0000
  C   C1868     1.0  0.77946  0.20932  0.34738  1.0000
  H   H1469     1.0  0.66545  0.16940  0.26787  1.0000
  H   H1470     1.0  0.68791  0.22690  0.26435  1.0000
  H   H1471     1.0  0.72177  0.26228  0.29486  1.0000
  H   H1472     1.0  0.73354  0.24061  0.32865  1.0000
  H   H1473     1.0  0.67637  0.14709  0.30164  1.0000
  H   H1474     1.0  0.74458  0.16339  0.30530  1.0000
  H   H1475     1.0  0.74424  0.11570  0.29272  1.0000
  H   H1476     1.0  0.76792  0.27302  0.23458  1.0000
  H   H1477     1.0  0.75071  0.44396  0.34683  1.0000
  H   H1478     1.0  0.68428  0.11127  0.36110  1.0000
  H   H1479     1.0  0.70840  0.16204  0.39075  1.0000
  H   H1480     1.0  0.66452  0.14494  0.41764  1.0000
  H   H1481     1.0  0.61234  0.13560  0.40481  1.0000
  H   H1482     1.0  0.60431  0.14524  0.36499  1.0000
  H   H1483     1.0  0.64815  0.16378  0.33792  1.0000
  H   H1484     1.0  0.72867  0.22225  0.37871  1.0000
  H   H1485     1.0  0.77842  0.26017  0.39676  1.0000
  H   H1486     1.0  0.82946  0.26673  0.38339  1.0000
  S   S248      1.0  0.55583  0.08953  0.42814  1.0000
  C   C1869     1.0  0.74506  0.14945  0.44258  1.0000
  H   H1487     1.0  0.95117  0.45661  0.43673  1.0000
  H   H1488     1.0  0.69195  0.29014  0.25638  1.0000
  C   C1870     1.0  0.65262  0.47089  0.32647  1.0000
  C   C1871     1.0  0.58573  0.03380  0.37240  1.0000
  H   H1489     1.0  0.62648  0.09786  0.33878  1.0000
  H   H1490     1.0  0.88237  0.39678  0.35409  1.0000
  H   H1491     1.0  0.68792  0.11245  0.25088  1.0000
  C   C1872     1.0  0.98141  0.47221  0.28615  1.0000
  Fe  Fe123     1.0  0.59976  0.12090  0.44893  1.0000
  C   C1873     1.0  0.64488  0.38772  0.41884  1.0000
  C   C1874     1.0  0.52018  0.38209  0.38979  1.0000
  H   H1492     1.0  0.57167  0.37221  0.25273  1.0000
  C   C1875     1.0  0.86781  0.36036  0.29047  1.0000
  H   H1493     1.0  0.00093  0.39420  0.31884  1.0000
  H   H1494     1.0  0.91261  0.03070  0.32566  1.0000
  H   H1495     1.0  0.87753  0.04133  0.35154  1.0000
  H   H1496     1.0  0.70034  0.36751  0.42004  1.0000
  C   C1876     1.0  0.77861  0.48954  0.33245  1.0000
  H   H1497     1.0  0.60277  0.39095  0.45066  1.0000
  C   C1877     1.0  0.51645  0.49666  0.36474  1.0000
  C   C1878     1.0  0.83129  0.42422  0.36018  1.0000
  H   H1498     1.0  0.64183  0.48787  0.38867  1.0000
  C   C1879     1.0  0.00758  0.38505  0.30462  1.0000
  C   C1880     1.0  0.69427  0.30753  0.44971  1.0000
  H   H1499     1.0  0.62997  0.49749  0.31792  1.0000
  H   H1500     1.0  0.73359  0.26755  0.44947  1.0000
  H   H1501     1.0  0.84843  0.03126  0.42659  1.0000
  C   C1881     1.0  0.56261  0.44423  0.32109  1.0000
  H   H1502     1.0  0.71900  0.27188  0.23029  1.0000
  C   C1882     1.0  0.91070  0.33862  0.46509  1.0000
  H   H1503     1.0  0.64751  0.40806  0.40981  1.0000
  C   C1883     1.0  0.85847  0.01991  0.34437  1.0000
  C   C1884     1.0  0.67296  0.11908  0.24167  1.0000
  S   S249      1.0  0.73899  0.02165  0.31210  1.0000
  C   C1885     1.0  0.92874  0.35570  0.44656  1.0000
  H   H1504     1.0  0.61227  0.30891  0.41165  1.0000
  P   P64       1.0  0.79312  0.41719  0.35052  1.0000
  C   C1886     1.0  0.55247  0.34897  0.24868  1.0000
  C   C1887     1.0  0.84400  0.40606  0.35216  1.0000
  H   H1505     1.0  0.78148  0.08179  0.42726  1.0000
  H   H1506     1.0  0.59659  0.10295  0.24115  1.0000
  H   H1507     1.0  0.92434  0.34460  0.43014  1.0000
  C   C1888     1.0  0.77297  0.40440  0.39553  1.0000
  C   C1889     1.0  0.89036  0.43520  0.37564  1.0000
  H   H1508     1.0  0.84138  0.38404  0.29545  1.0000
  C   C1890     1.0  0.59546  0.01893  0.33558  1.0000
  C   C1891     1.0  0.63809  0.48851  0.33145  1.0000
  C   C1892     1.0  0.75008  0.39166  0.41244  1.0000
  C   C1893     1.0  0.53333  0.24448  0.28057  1.0000
  C   C1894     1.0  0.77207  0.10881  0.45161  1.0000
  H   H1509     1.0  0.53982  0.30221  0.36300  1.0000
  H   H1510     1.0  0.75744  0.39246  0.42978  1.0000
  C   C1895     1.0  0.70629  0.08113  0.43572  1.0000
  H   H1511     1.0  0.77738  0.49890  0.26250  1.0000
  C   C1896     1.0  0.95153  0.38744  0.44892  1.0000
  H   H1512     1.0  0.96184  0.43009  0.26564  1.0000
  H   H1513     1.0  0.57139  0.34949  0.21611  1.0000
  H   H1514     1.0  0.94691  0.39249  0.29863  1.0000
  H   H1515     1.0  0.58114  0.29884  0.22958  1.0000
  C   C1897     1.0  0.55234  0.33590  0.22787  1.0000
  H   H1516     1.0  0.65563  0.46622  0.30911  1.0000
  P   P65       1.0  0.67280  0.42782  0.45521  1.0000
  C   C1898     1.0  0.00010  0.46892  0.24888  1.0000
  H   H1517     1.0  0.62014  0.35642  0.39142  1.0000
  H   H1518     1.0  0.63178  0.31349  0.45090  1.0000
  H   H1519     1.0  0.53540  0.29998  0.31542  1.0000
  H   H1520     1.0  0.93965  0.02430  0.39746  1.0000
  C   C1899     1.0  0.68753  0.22542  0.45074  1.0000
  C   C1900     1.0  0.97983  0.26798  0.22120  1.0000
  C   C1901     1.0  0.92259  0.04176  0.42344  1.0000
  H   H1521     1.0  0.89945  0.05627  0.44740  1.0000
  C   C1902     1.0  0.77032  0.09818  0.23134  1.0000
  C   C1903     1.0  0.64496  0.48333  0.37135  1.0000
  H   H1522     1.0  0.79504  0.22592  0.45719  1.0000
  C   C1904     1.0  0.80047  0.50108  0.26385  1.0000
  H   H1523     1.0  0.00127  0.31699  0.32863  1.0000
  H   H1524     1.0  0.74204  0.46617  0.46414  1.0000
  H   H1525     1.0  0.57940  0.01479  0.23171  1.0000
  C   C1905     1.0  0.77352  0.17758  0.44653  1.0000
  C   C1906     1.0  0.66494  0.03979  0.45825  1.0000
  H   H1526     1.0  0.75362  0.47819  0.39562  1.0000
  C   C1907     1.0  0.77307  0.20416  0.45429  1.0000
  C   C1908     1.0  0.73886  0.08454  0.22425  1.0000
  H   H1527     1.0  0.83764  0.04408  0.32762  1.0000
  H   H1528     1.0  0.79606  0.17890  0.44381  1.0000
  H   H1529     1.0  0.78046  0.08348  0.23505  1.0000
  C   C1909     1.0  0.93025  0.02597  0.33260  1.0000
  H   H1530     1.0  0.79035  0.17490  0.23037  1.0000
  H   H1531     1.0  0.96528  0.05610  0.30842  1.0000
  C   C1910     1.0  0.51975  0.47026  0.36752  1.0000
  C   C1911     1.0  0.83580  0.02158  0.33096  1.0000
  Fe  Fe124     1.0  0.83101  0.33618  0.45988  1.0000
  H   H1532     1.0  0.60995  0.23464  0.45147  1.0000
  P   P66       1.0  0.72666  0.16069  0.21721  1.0000
  C   C1912     1.0  0.63358  0.13682  0.21968  1.0000
  C   C1913     1.0  0.87184  0.49817  0.46012  1.0000
  H   H1533     1.0  0.00340  0.28862  0.36255  1.0000
  Fe  Fe125     1.0  0.69234  0.00824  0.29488  1.0000
  H   H1534     1.0  0.69347  0.17333  0.45832  1.0000
  C   C1914     1.0  0.74426  0.20269  0.45846  1.0000
  C   C1915     1.0  0.85046  0.50037  0.58897  1.0000
  C   C1916     1.0  0.87075  0.14821  0.69872  1.0000
  H   H1535     1.0  0.72315  0.12887  0.49835  1.0000
  H   H1536     1.0  0.67250  0.47354  0.48608  1.0000
  C   C1917     1.0  0.65467  0.32083  0.51105  1.0000
  H   H1537     1.0  0.70255  0.30794  0.54599  1.0000
  P   P67       1.0  0.98363  0.44411  0.47283  1.0000
  Fe  Fe126     1.0  0.80060  0.37543  0.59082  1.0000
  S   S250      1.0  0.75735  0.35493  0.56941  1.0000
  S   S251      1.0  0.84721  0.39996  0.57313  1.0000
  Fe  Fe127     1.0  0.76304  0.35676  0.63363  1.0000
  S   S252      1.0  0.71591  0.33497  0.61587  1.0000
  S   S253      1.0  0.76933  0.35826  0.67123  1.0000
  Fe  Fe128     1.0  0.73779  0.31425  0.59344  1.0000
  S   S254      1.0  0.71480  0.26528  0.57908  1.0000
  Fe  Fe129     1.0  0.73965  0.37772  0.59336  1.0000
  S   S255      1.0  0.72015  0.40547  0.57584  1.0000
  S   S256      1.0  0.78297  0.33289  0.61273  1.0000
  S   S257      1.0  0.78461  0.40114  0.61323  1.0000
  C   C1918     1.0  0.67439  0.09196  0.49964  1.0000
  S   S258      1.0  0.77775  0.08966  0.59221  1.0000
  C   C1919     1.0  0.65488  0.15637  0.51110  1.0000
  Fe  Fe130     1.0  0.73403  0.12847  0.62054  1.0000
  S   S259      1.0  0.77786  0.15539  0.59994  1.0000
  S   S260      1.0  0.71172  0.15453  0.63637  1.0000
  Fe  Fe131     1.0  0.75482  0.11459  0.57602  1.0000
  S   S261      1.0  0.75305  0.12176  0.53832  1.0000
  Fe  Fe132     1.0  0.79536  0.12729  0.61867  1.0000
  S   S262      1.0  0.84420  0.15029  0.63414  1.0000
  S   S263      1.0  0.70977  0.08907  0.59579  1.0000
  S   S264      1.0  0.75287  0.10276  0.64096  1.0000
  H   H1538     1.0  0.63329  0.33357  0.56282  1.0000
  C   C1920     1.0  0.71448  0.09914  0.52730  1.0000
  C   C1921     1.0  0.69186  0.07253  0.53877  1.0000
  C   C1922     1.0  0.92193  0.47247  0.58424  1.0000
  H   H1539     1.0  0.66764  0.09966  0.48461  1.0000
  H   H1540     1.0  0.63031  0.22772  0.62460  1.0000
  H   H1541     1.0  0.87627  0.07553  0.64945  1.0000
  H   H1542     1.0  0.69859  0.06417  0.55338  1.0000
  C   C1923     1.0  0.64976  0.26828  0.47108  1.0000
  H   H1543     1.0  0.94055  0.39618  0.50463  1.0000
  C   C1924     1.0  0.93691  0.45571  0.59047  1.0000
  P   P68       1.0  0.60811  0.12279  0.57088  1.0000
  C   C1925     1.0  0.99045  0.21962  0.69446  1.0000
  C   C1926     1.0  0.82141  0.10849  0.66986  1.0000
  C   C1927     1.0  0.84511  0.13767  0.66191  1.0000
  C   C1928     1.0  0.86995  0.15732  0.67634  1.0000
  C   C1929     1.0  0.70591  0.10823  0.50728  1.0000
  H   H1544     1.0  0.80254  0.09275  0.65875  1.0000
  C   C1930     1.0  0.62938  0.18632  0.57849  1.0000
  C   C1931     1.0  0.71582  0.23582  0.59553  1.0000
  C   C1932     1.0  0.72120  0.21345  0.58500  1.0000
  C   C1933     1.0  0.72071  0.18890  0.59749  1.0000
  C   C1934     1.0  0.71353  0.18579  0.62047  1.0000
  C   C1935     1.0  0.70736  0.20771  0.63092  1.0000
  C   C1936     1.0  0.70925  0.23309  0.61862  1.0000
  H   H1545     1.0  0.72601  0.21530  0.56718  1.0000
  H   H1546     1.0  0.72538  0.17208  0.58926  1.0000
  H   H1547     1.0  0.70156  0.20531  0.64866  1.0000
  H   H1548     1.0  0.70461  0.24995  0.62684  1.0000
  C   C1937     1.0  0.72714  0.44119  0.58792  1.0000
  C   C1938     1.0  0.72591  0.46408  0.57439  1.0000
  H   H1549     1.0  0.81063  0.01427  0.61858  1.0000
  C   C1939     1.0  0.87429  0.50114  0.57529  1.0000
  C   C1940     1.0  0.73546  0.47386  0.62063  1.0000
  C   C1941     1.0  0.73267  0.44655  0.61102  1.0000
  H   H1550     1.0  0.72140  0.46005  0.55653  1.0000
  C   C1942     1.0  0.78291  0.00333  0.70141  1.0000
  H   H1551     1.0  0.76744  0.13362  0.48022  1.0000
  H   H1552     1.0  0.73350  0.42908  0.62163  1.0000
  C   C1943     1.0  0.84486  0.37545  0.55101  1.0000
  C   C1944     1.0  0.86299  0.38828  0.53158  1.0000
  C   C1945     1.0  0.85899  0.36889  0.51311  1.0000
  C   C1946     1.0  0.83813  0.33651  0.51455  1.0000
  C   C1947     1.0  0.82113  0.32354  0.53439  1.0000
  C   C1948     1.0  0.82399  0.34309  0.55242  1.0000
  H   H1553     1.0  0.87917  0.41328  0.53053  1.0000
  H   H1554     1.0  0.65050  0.13086  0.60873  1.0000
  H   H1555     1.0  0.80498  0.29852  0.53561  1.0000
  H   H1556     1.0  0.81006  0.33301  0.56745  1.0000
  C   C1949     1.0  0.82228  0.09939  0.69224  1.0000
  H   H1557     1.0  0.74172  0.26415  0.70115  1.0000
  H   H1558     1.0  0.77998  0.00352  0.66495  1.0000
  C   C1950     1.0  0.63813  0.08468  0.61982  1.0000
  H   H1559     1.0  0.67393  0.32036  0.57447  1.0000
  C   C1951     1.0  0.61255  0.09511  0.58842  1.0000
  C   C1952     1.0  0.69221  0.25516  0.51960  1.0000
  C   C1953     1.0  0.62407  0.46123  0.49037  1.0000
  C   C1954     1.0  0.87436  0.40196  0.68731  1.0000
  C   C1955     1.0  0.86369  0.39574  0.66506  1.0000
  C   C1956     1.0  0.83159  0.38305  0.66013  1.0000
  C   C1957     1.0  0.80970  0.37509  0.67754  1.0000
  C   C1958     1.0  0.82021  0.38059  0.69994  1.0000
  C   C1959     1.0  0.85261  0.39433  0.70485  1.0000
  H   H1560     1.0  0.88041  0.40160  0.65156  1.0000
  H   H1561     1.0  0.82395  0.37959  0.64280  1.0000
  C   C1960     1.0  0.94497  0.34268  0.68015  1.0000
  H   H1562     1.0  0.78553  0.44353  0.56186  1.0000
  C   C1961     1.0  0.83957  0.25641  0.53477  1.0000
  C   C1962     1.0  0.80744  0.23399  0.53358  1.0000
  C   C1963     1.0  0.79045  0.22074  0.55336  1.0000
  C   C1964     1.0  0.80530  0.23042  0.57435  1.0000
  C   C1965     1.0  0.83764  0.25279  0.57571  1.0000
  C   C1966     1.0  0.85478  0.26529  0.55571  1.0000
  P   P69       1.0  0.85769  0.26483  0.60263  1.0000
  C   C1967     1.0  0.83113  0.24273  0.62534  1.0000
  C   C1968     1.0  0.89005  0.25703  0.60174  1.0000
  C   C1969     1.0  0.92102  0.28028  0.60739  1.0000
  C   C1970     1.0  0.94545  0.27326  0.60755  1.0000
  C   C1971     1.0  0.93912  0.24303  0.60216  1.0000
  C   C1972     1.0  0.90845  0.21991  0.59625  1.0000
  C   C1973     1.0  0.88410  0.22697  0.59573  1.0000
  C   C1974     1.0  0.80625  0.24801  0.63076  1.0000
  C   C1975     1.0  0.78450  0.23005  0.64743  1.0000
  C   C1976     1.0  0.78716  0.20656  0.65867  1.0000
  C   C1977     1.0  0.81243  0.20185  0.65396  1.0000
  C   C1978     1.0  0.83452  0.22003  0.63753  1.0000
  C   C1979     1.0  0.87184  0.30584  0.60818  1.0000
  C   C1980     1.0  0.88242  0.31768  0.62994  1.0000
  C   C1981     1.0  0.89461  0.34956  0.63454  1.0000
  C   C1982     1.0  0.89658  0.36988  0.61734  1.0000
  C   C1983     1.0  0.88576  0.35822  0.59574  1.0000
  C   C1984     1.0  0.87302  0.32630  0.59118  1.0000
  H   H1563     1.0  0.85259  0.26700  0.51942  1.0000
  H   H1564     1.0  0.79575  0.22688  0.51735  1.0000
  H   H1565     1.0  0.76574  0.20284  0.55252  1.0000
  H   H1566     1.0  0.79139  0.22003  0.58934  1.0000
  H   H1567     1.0  0.87981  0.28232  0.55635  1.0000
  H   H1568     1.0  0.92647  0.30379  0.61175  1.0000
  H   H1569     1.0  0.96928  0.29122  0.61204  1.0000
  C   C1985     1.0  0.89906  0.47633  0.66164  1.0000
  H   H1570     1.0  0.90327  0.19624  0.59252  1.0000
  H   H1571     1.0  0.86030  0.20858  0.59151  1.0000
  H   H1572     1.0  0.80313  0.26542  0.62169  1.0000
  H   H1573     1.0  0.76501  0.23376  0.65126  1.0000
  H   H1574     1.0  0.76926  0.19161  0.67071  1.0000
  H   H1575     1.0  0.81451  0.18352  0.66263  1.0000
  H   H1576     1.0  0.85360  0.21553  0.63427  1.0000
  H   H1577     1.0  0.88127  0.30216  0.64328  1.0000
  H   H1578     1.0  0.90245  0.35861  0.65143  1.0000
  H   H1579     1.0  0.90623  0.39462  0.62076  1.0000
  H   H1580     1.0  0.88697  0.37392  0.58250  1.0000
  H   H1581     1.0  0.86409  0.31801  0.57443  1.0000
  H   H1582     1.0  0.64944  0.32157  0.49345  1.0000
  H   H1583     1.0  0.85088  0.31117  0.67173  1.0000
  H   H1584     1.0  0.81253  0.42980  0.49164  1.0000
  C   C1986     1.0  0.69772  0.43037  0.47871  1.0000
  C   C1987     1.0  0.79827  0.11585  0.48786  1.0000
  H   H1585     1.0  0.77450  0.46895  0.49675  1.0000
  C   C1988     1.0  0.99638  0.03315  0.47045  1.0000
  C   C1989     1.0  0.77351  0.28994  0.67415  1.0000
  C   C1990     1.0  0.84858  0.03813  0.67272  1.0000
  C   C1991     1.0  0.73058  0.45107  0.47842  1.0000
  H   H1586     1.0  0.68057  0.01036  0.57451  1.0000
  C   C1992     1.0  0.81021  0.46007  0.56527  1.0000
  C   C1993     1.0  0.86556  0.48169  0.55620  1.0000
  H   H1587     1.0  0.80260  0.12501  0.50494  1.0000
  H   H1588     1.0  0.99616  0.20102  0.69445  1.0000
  C   C1994     1.0  0.95618  0.40244  0.46988  1.0000
  C   C1995     1.0  0.80436  0.30318  0.66601  1.0000
  C   C1996     1.0  0.74917  0.45299  0.49703  1.0000
  C   C1997     1.0  0.63463  0.21197  0.59170  1.0000
  C   C1998     1.0  0.63781  0.13672  0.54911  1.0000
  C   C1999     1.0  0.66788  0.14090  0.55365  1.0000
  C   C2000     1.0  0.69125  0.15292  0.53710  1.0000
  C   C2001     1.0  0.68463  0.16022  0.51573  1.0000
  H   H1589     1.0  0.64665  0.23540  0.58456  1.0000
  H   H1590     1.0  0.63715  0.19038  0.56116  1.0000
  H   H1591     1.0  0.59285  0.12852  0.61781  1.0000
  H   H1592     1.0  0.67352  0.13503  0.56992  1.0000
  H   H1593     1.0  0.71433  0.15587  0.54075  1.0000
  H   H1594     1.0  0.70261  0.16892  0.50280  1.0000
  C   C2002     1.0  0.68453  0.31321  0.54057  1.0000
  H   H1595     1.0  0.82736  0.09469  0.49135  1.0000
  C   C2003     1.0  0.60464  0.15171  0.61035  1.0000
  H   H1596     1.0  0.88945  0.16396  0.70981  1.0000
  H   H1597     1.0  0.90146  0.46104  0.57348  1.0000
  H   H1598     1.0  0.88903  0.45001  0.49511  1.0000
  C   C2004     1.0  0.73770  0.37061  0.48073  1.0000
  H   H1599     1.0  0.00270  0.14713  0.69372  1.0000
  C   C2005     1.0  0.51666  0.09817  0.55517  1.0000
  C   C2006     1.0  0.75635  0.03125  0.55146  1.0000
  H   H1600     1.0  0.75601  0.29273  0.66474  1.0000
  H   H1601     1.0  0.00449  0.06864  0.69000  1.0000
  C   C2007     1.0  0.88701  0.30468  0.70187  1.0000
  H   H1602     1.0  0.57637  0.05347  0.57147  1.0000
  C   C2008     1.0  0.61887  0.05246  0.61644  1.0000
  C   C2009     1.0  0.73907  0.04686  0.51810  1.0000
  S   S265      1.0  0.61194  0.04508  0.50291  1.0000
  C   C2010     1.0  0.76658  0.01430  0.61789  1.0000
  C   C2011     1.0  0.77167  0.00779  0.68070  1.0000
  C   C2012     1.0  0.95118  0.23569  0.69129  1.0000
  H   H1603     1.0  0.94085  0.18786  0.68857  1.0000
  C   C2013     1.0  0.96364  0.46957  0.60433  1.0000
  H   H1604     1.0  0.92037  0.47952  0.66982  1.0000
  C   C2014     1.0  0.86877  0.05157  0.65432  1.0000
  H   H1605     1.0  0.65839  0.39749  0.49935  1.0000
  H   H1606     1.0  0.96833  0.28500  0.69570  1.0000
  H   H1607     1.0  0.68869  0.22218  0.46869  1.0000
  C   C2015     1.0  0.95911  0.21210  0.69103  1.0000
  H   H1608     1.0  0.72125  0.03128  0.69972  1.0000
  C   C2016     1.0  0.87873  0.03393  0.64200  1.0000
  C   C2017     1.0  0.78484  0.46445  0.67481  1.0000
  C   C2018     1.0  0.83783  0.00677  0.67872  1.0000
  H   H1609     1.0  0.55128  0.12766  0.57955  1.0000
  C   C2019     1.0  0.91559  0.35320  0.48606  1.0000
  C   C2020     1.0  0.79121  0.40708  0.49293  1.0000
  C   C2021     1.0  0.93271  0.35605  0.69482  1.0000
  C   C2022     1.0  0.68037  0.29453  0.47059  1.0000
  C   C2023     1.0  0.66824  0.32010  0.55678  1.0000
  C   C2024     1.0  0.93024  0.44745  0.48578  1.0000
  C   C2025     1.0  0.76291  0.47380  0.68054  1.0000
  H   H1610     1.0  0.82715  0.44509  0.53724  1.0000
  H   H1611     1.0  0.57934  0.07807  0.53365  1.0000
  C   C2026     1.0  0.73051  0.45205  0.68052  1.0000
  C   C2027     1.0  0.86275  0.45726  0.63010  1.0000
  C   C2028     1.0  0.89039  0.46188  0.64056  1.0000
  C   C2029     1.0  0.82712  0.30005  0.67819  1.0000
  H   H1612     1.0  0.65996  0.36488  0.46944  1.0000
  C   C2030     1.0  0.97469  0.26690  0.69472  1.0000
  C   C2031     1.0  0.84335  0.46646  0.64099  1.0000
  C   C2032     1.0  0.90379  0.33716  0.70557  1.0000
  C   C2033     1.0  0.85129  0.48010  0.66248  1.0000
  H   H1613     1.0  0.90112  0.34008  0.50031  1.0000
  C   C2034     1.0  0.92809  0.31040  0.67599  1.0000
  C   C2035     1.0  0.77822  0.12073  0.47370  1.0000
  C   C2036     1.0  0.96346  0.46268  0.48563  1.0000
  C   C2037     1.0  0.68379  0.41254  0.49823  1.0000
  C   C2038     1.0  0.64102  0.43198  0.46695  1.0000
  C   C2039     1.0  0.63164  0.14503  0.52779  1.0000
  H   H1614     1.0  0.95791  0.23742  0.60268  1.0000
  C   C2040     1.0  0.71975  0.42089  0.67456  1.0000
  C   C2041     1.0  0.74143  0.41136  0.66907  1.0000
  C   C2042     1.0  0.77393  0.43294  0.66946  1.0000
  C   C2043     1.0  0.64532  0.32755  0.55018  1.0000
  C   C2044     1.0  0.96225  0.05374  0.70898  1.0000
  H   H1615     1.0  0.85613  0.44605  0.61369  1.0000
  H   H1616     1.0  0.90493  0.45391  0.63248  1.0000
  H   H1617     1.0  0.79848  0.49933  0.63404  1.0000
  H   H1618     1.0  0.96738  0.35744  0.67184  1.0000
  C   C2045     1.0  0.70108  0.23369  0.52695  1.0000
  S   S266      1.0  0.70981  0.01364  0.61867  1.0000
  H   H1619     1.0  0.97546  0.45669  0.60897  1.0000
  H   H1620     1.0  0.99064  0.33824  0.49160  1.0000
  H   H1621     1.0  0.79105  0.21856  0.70850  1.0000
  H   H1622     1.0  0.68633  0.21546  0.53879  1.0000
  H   H1623     1.0  0.77416  0.03598  0.56421  1.0000
  C   C2046     1.0  0.84684  0.11925  0.70681  1.0000
  H   H1624     1.0  0.73295  0.38715  0.66450  1.0000
  H   H1625     1.0  0.79031  0.42485  0.66569  1.0000
  C   C2047     1.0  0.61482  0.15604  0.58783  1.0000
  C   C2048     1.0  0.70251  0.41410  0.51659  1.0000
  C   C2049     1.0  0.73518  0.43420  0.51596  1.0000
  H   H1626     1.0  0.63923  0.25682  0.48690  1.0000
  C   C2050     1.0  0.81856  0.48001  0.58386  1.0000
  C   C2051     1.0  0.98067  0.49301  0.49481  1.0000
  C   C2052     1.0  0.62540  0.20764  0.61428  1.0000
  H   H1627     1.0  0.69171  0.40006  0.53155  1.0000
  H   H1628     1.0  0.74949  0.43538  0.53033  1.0000
  H   H1629     1.0  0.57399  0.44428  0.49102  1.0000
  H   H1630     1.0  0.65564  0.09329  0.63321  1.0000
  Fe  Fe133     1.0  0.73409  0.06637  0.61351  1.0000
  H   H1631     1.0  0.71373  0.45960  0.68453  1.0000
  H   H1632     1.0  0.88823  0.17988  0.67029  1.0000
  C   C2053     1.0  0.74026  0.28198  0.49765  1.0000
  C   C2054     1.0  0.71238  0.28022  0.50556  1.0000
  P   P70       1.0  0.70196  0.30895  0.49668  1.0000
  C   C2055     1.0  0.67796  0.31365  0.51758  1.0000
  C   C2056     1.0  0.73685  0.34740  0.49502  1.0000
  C   C2057     1.0  0.76283  0.35505  0.50918  1.0000
  C   C2058     1.0  0.78982  0.38476  0.50813  1.0000
  H   H1633     1.0  0.99484  0.40387  0.50453  1.0000
  C   C2059     1.0  0.88006  0.48618  0.67230  1.0000
  C   C2060     1.0  0.66051  0.05621  0.53113  1.0000
  C   C2061     1.0  0.56921  0.10449  0.55813  1.0000
  H   H1634     1.0  0.75576  0.30047  0.48630  1.0000
  H   H1635     1.0  0.76242  0.33813  0.52110  1.0000
  H   H1636     1.0  0.80972  0.39031  0.51903  1.0000
  H   H1637     1.0  0.73841  0.47736  0.63858  1.0000
  H   H1638     1.0  0.73697  0.22059  0.52612  1.0000
  C   C2062     1.0  0.89905  0.29147  0.68662  1.0000
  C   C2063     1.0  0.64817  0.45686  0.48174  1.0000
  H   H1639     1.0  0.62998  0.48133  0.50101  1.0000
  C   C2064     1.0  0.70964  0.01939  0.51929  1.0000
  H   H1640     1.0  0.60898  0.14293  0.52397  1.0000
  H   H1641     1.0  0.81080  0.31636  0.65042  1.0000
  H   H1642     1.0  0.69462  0.40414  0.67408  1.0000
  C   C2065     1.0  0.83419  0.50065  0.70545  1.0000
  H   H1643     1.0  0.77095  0.26246  0.49933  1.0000
  C   C2066     1.0  0.50970  0.07762  0.53704  1.0000
  H   H1644     1.0  0.76644  0.41748  0.46752  1.0000
  H   H1645     1.0  0.69184  0.01575  0.50692  1.0000
  H   H1646     1.0  0.67013  0.25266  0.52548  1.0000
  C   C2067     1.0  0.72963  0.23658  0.51987  1.0000
  C   C2068     1.0  0.59358  0.06264  0.58493  1.0000
  H   H1647     1.0  0.64985  0.16238  0.49462  1.0000
  H   H1648     1.0  0.92671  0.22973  0.68948  1.0000
  C   C2069     1.0  0.91464  0.46177  0.49550  1.0000
  C   C2070     1.0  0.59669  0.04145  0.59893  1.0000
  C   C2071     1.0  0.73399  0.49664  0.60729  1.0000
  H   H1649     1.0  0.77776  0.03942  0.62008  1.0000
  C   C2072     1.0  0.83367  0.46103  0.55138  1.0000
  H   H1650     1.0  0.62060  0.33352  0.52226  1.0000
  C   C2073     1.0  0.93797  0.38500  0.48843  1.0000
  C   C2074     1.0  0.59257  0.44042  0.48469  1.0000
  H   H1651     1.0  0.91619  0.42479  0.47803  1.0000
  C   C2075     1.0  0.63509  0.10594  0.60587  1.0000
  H   H1652     1.0  0.80373  0.07699  0.69833  1.0000
  C   C2076     1.0  0.97543  0.50028  0.61192  1.0000
  C   C2077     1.0  0.63834  0.32767  0.52732  1.0000
  H   H1653     1.0  0.77077  0.49804  0.68473  1.0000
  C   C2078     1.0  0.76515  0.40002  0.47926  1.0000
  H   H1654     1.0  0.94546  0.38116  0.69780  1.0000
  C   C2079     1.0  0.76232  0.05294  0.53427  1.0000
  H   H1655     1.0  0.88590  0.26666  0.68271  1.0000
  H   H1656     1.0  0.52686  0.05471  0.51527  1.0000
  H   H1657     1.0  0.84102  0.05210  0.68206  1.0000
  C   C2080     1.0  0.74891  0.26034  0.50491  1.0000
  H   H1658     1.0  0.82200  0.46280  0.63271  1.0000
  C   C2081     1.0  0.97883  0.01806  0.69455  1.0000
  Fe  Fe134     1.0  0.59612  0.06570  0.47526  1.0000
  H   H1659     1.0  0.92779  0.43200  0.58435  1.0000
  C   C2082     1.0  0.56190  0.08360  0.54001  1.0000
  S   S267      1.0  0.91506  0.42031  0.69265  1.0000
  C   C2083     1.0  0.53222  0.07021  0.52960  1.0000
  S   S268      1.0  0.83280  0.31223  0.49150  1.0000
  H   H1660     1.0  0.60318  0.17416  0.64111  1.0000
  H   H1661     1.0  0.87213  0.37893  0.49780  1.0000
  C   C2084     1.0  0.72982  0.49200  0.58399  1.0000
  H   H1662     1.0  0.89386  0.04412  0.62747  1.0000
  H   H1663     1.0  0.78462  0.07484  0.53384  1.0000
  S   S269      1.0  0.57618  0.09707  0.48149  1.0000
  C   C2085     1.0  0.54628  0.11155  0.56572  1.0000
  C   C2086     1.0  0.61024  0.17749  0.62357  1.0000
  H   H1664     1.0  0.64935  0.01396  0.60510  1.0000
  H   H1665     1.0  0.93731  0.30006  0.66435  1.0000
  H   H1666     1.0  0.74337  0.06408  0.50519  1.0000
  H   H1667     1.0  0.62136  0.03615  0.62734  1.0000
  C   C2087     1.0  0.74957  0.01790  0.68014  1.0000
  H   H1668     1.0  0.64307  0.03613  0.54053  1.0000
  C   C2088     1.0  0.98384  0.04862  0.69700  1.0000
  C   C2089     1.0  0.65158  0.06614  0.51176  1.0000
  C   C2090     1.0  0.81207  0.09869  0.48023  1.0000
  H   H1669     1.0  0.71737  0.36599  0.47063  1.0000
  C   C2091     1.0  0.58512  0.41487  0.47066  1.0000
  H   H1670     1.0  0.74135  0.02174  0.66408  1.0000
  P   P71       1.0  0.82645  0.49300  0.67572  1.0000
  H   H1671     1.0  0.88340  0.48183  0.54536  1.0000
  C   C2092     1.0  0.81924  0.28348  0.69865  1.0000
  C   C2093     1.0  0.81027  0.21505  0.71350  1.0000
  C   C2094     1.0  0.93204  0.49170  0.50484  1.0000
  P   P72       1.0  0.00697  0.01117  0.67958  1.0000
  C   C2095     1.0  0.76551  0.27384  0.69467  1.0000
  H   H1672     1.0  0.65706  0.02770  0.47422  1.0000
  H   H1673     1.0  0.80016  0.47917  0.59451  1.0000
  H   H1674     1.0  0.71205  0.07023  0.47022  1.0000
  C   C2096     1.0  0.73813  0.02314  0.70023  1.0000
  H   H1675     1.0  0.84410  0.46287  0.71138  1.0000
  H   H1676     1.0  0.96639  0.07736  0.71117  1.0000
  H   H1677     1.0  0.58190  0.01651  0.59611  1.0000
  H   H1678     1.0  0.78047  0.16465  0.71347  1.0000
  H   H1679     1.0  0.88798  0.49828  0.68819  1.0000
  H   H1680     1.0  0.56063  0.39864  0.46643  1.0000
  C   C2097     1.0  0.00610  0.27456  0.69805  1.0000
  H   H1681     1.0  0.52640  0.00496  0.51876  1.0000
  C   C2098     1.0  0.78831  0.27082  0.70698  1.0000
  H   H1682     1.0  0.80336  0.37445  0.71343  1.0000
  C   C2099     1.0  0.72695  0.00384  0.55277  1.0000
  P   P73       1.0  0.84903  0.28066  0.71507  1.0000
  Fe  Fe135     1.0  0.65118  0.42681  0.93142  1.0000
  H   H1683     1.0  0.65172  0.05458  0.93408  1.0000
  C   C2100     1.0  0.55013  0.47097  0.89243  1.0000
  C   C2101     1.0  0.55140  0.40482  0.88373  1.0000
  H   H1684     1.0  0.93160  0.03246  0.84359  1.0000
  H   H1685     1.0  0.59222  0.47437  0.94356  1.0000
  S   S270      1.0  0.99286  0.05321  0.90626  1.0000
  C   C2102     1.0  0.62607  0.09874  0.96046  1.0000
  C   C2103     1.0  0.93269  0.10228  0.84106  1.0000
  S   S271      1.0  0.87428  0.39039  0.93508  1.0000
  Fe  Fe136     1.0  0.75815  0.07874  0.91928  1.0000
  S   S272      1.0  0.76622  0.08220  0.88174  1.0000
  Fe  Fe137     1.0  0.89757  0.42375  0.77539  1.0000
  S   S273      1.0  0.94504  0.44520  0.79190  1.0000
  S   S274      1.0  0.85635  0.40869  0.79844  1.0000
  S   S275      1.0  0.90496  0.39029  0.75445  1.0000
  S   S276      1.0  0.91246  0.46107  0.74888  1.0000
  Fe  Fe138     1.0  0.90924  0.16602  0.80523  1.0000
  S   S277      1.0  0.95830  0.19960  0.79295  1.0000
  S   S278      1.0  0.90429  0.16651  0.84304  1.0000
  Fe  Fe139     1.0  0.88633  0.14106  0.75787  1.0000
  S   S279      1.0  0.93395  0.17227  0.74286  1.0000
  S   S280      1.0  0.84622  0.10783  0.73521  1.0000
  Fe  Fe140     1.0  0.95245  0.15846  0.77267  1.0000
  C   C2104     1.0  0.78814  0.32732  0.91413  1.0000
  Fe  Fe141     1.0  0.93410  0.20964  0.76471  1.0000
  S   S281      1.0  0.94673  0.25510  0.74675  1.0000
  S   S282      1.0  0.90488  0.12444  0.78648  1.0000
  S   S283      1.0  0.88523  0.17894  0.77830  1.0000
  S   S284      1.0  0.85791  0.45875  0.91325  1.0000
  Fe  Fe142     1.0  0.71930  0.08930  0.95484  1.0000
  Fe  Fe143     1.0  0.90764  0.39472  0.90787  1.0000
  C   C2105     1.0  0.94807  0.31110  0.74428  1.0000
  C   C2106     1.0  0.94902  0.28896  0.75872  1.0000
  C   C2107     1.0  0.95468  0.29568  0.78172  1.0000
  C   C2108     1.0  0.96082  0.32505  0.78995  1.0000
  C   C2109     1.0  0.97306  0.42392  0.83781  1.0000
  H   H1686     1.0  0.95606  0.27901  0.79289  1.0000
  C   C2110     1.0  0.97000  0.05733  0.77024  1.0000
  C   C2111     1.0  0.96713  0.08463  0.76937  1.0000
  C   C2112     1.0  0.84299  0.48249  0.71863  1.0000
  H   H1687     1.0  0.94404  0.30622  0.72645  1.0000
  H   H1688     1.0  0.94404  0.08256  0.76887  1.0000
  C   C2113     1.0  0.80470  0.10664  0.87150  1.0000
  C   C2114     1.0  0.83081  0.12039  0.88599  1.0000
  C   C2115     1.0  0.86137  0.13871  0.87708  1.0000
  C   C2116     1.0  0.86588  0.14325  0.85374  1.0000
  C   C2117     1.0  0.83974  0.12997  0.83932  1.0000
  C   C2118     1.0  0.80921  0.11187  0.84822  1.0000
  H   H1689     1.0  0.82744  0.11655  0.90397  1.0000
  H   H1690     1.0  0.88158  0.14905  0.88825  1.0000
  H   H1691     1.0  0.84300  0.13359  0.82131  1.0000
  H   H1692     1.0  0.78902  0.10150  0.83699  1.0000
  H   H1693     1.0  0.88931  0.02931  0.78006  1.0000
  S   S285      1.0  0.70755  0.05048  0.93030  1.0000
  C   C2119     1.0  0.87114  0.16620  0.93915  1.0000
  C   C2120     1.0  0.88286  0.37764  0.81867  1.0000
  C   C2121     1.0  0.86429  0.39160  0.82159  1.0000
  H   H1694     1.0  0.88402  0.01289  0.90407  1.0000
  H   H1695     1.0  0.89130  0.37642  0.80213  1.0000
  S   S286      1.0  0.76906  0.11928  0.94204  1.0000
  H   H1696     1.0  0.94910  0.03429  0.77012  1.0000
  C   C2122     1.0  0.56858  0.42372  0.86538  1.0000
  C   C2123     1.0  0.96058  0.34746  0.77534  1.0000
  S   S287      1.0  0.97472  0.45152  0.74225  1.0000
  H   H1697     1.0  0.86068  0.39904  0.72214  1.0000
  H   H1698     1.0  0.89438  0.34802  0.71653  1.0000
  S   S288      1.0  0.00650  0.02775  0.77244  1.0000
  C   C2124     1.0  0.52062  0.44357  0.88980  1.0000
  H   H1699     1.0  0.92811  0.11860  0.94548  1.0000
  C   C2125     1.0  0.86336  0.04054  0.75591  1.0000
  C   C2126     1.0  0.77209  0.30953  0.93311  1.0000
  H   H1700     1.0  0.88881  0.25372  0.72675  1.0000
  C   C2127     1.0  0.84411  0.03067  0.73671  1.0000
  H   H1701     1.0  0.88338  0.46010  0.85913  1.0000
  H   H1702     1.0  0.65638  0.31633  0.94673  1.0000
  C   C2128     1.0  0.90569  0.48052  0.85456  1.0000
  C   C2129     1.0  0.78464  0.47152  0.95201  1.0000
  S   S289      1.0  0.95030  0.41211  0.92975  1.0000
  C   C2130     1.0  0.58221  0.05402  0.94171  1.0000
  C   C2131     1.0  0.99276  0.21276  0.84597  1.0000
  H   H1703     1.0  0.86971  0.26965  0.75938  1.0000
  S   S290      1.0  0.70530  0.48581  0.85962  1.0000
  C   C2132     1.0  0.96121  0.11985  0.82959  1.0000
  H   H1704     1.0  0.73948  0.02174  0.73649  1.0000
  H   H1705     1.0  0.86075  0.08141  0.89146  1.0000
  C   C2133     1.0  0.96234  0.44095  0.84995  1.0000
  C   C2134     1.0  0.77043  0.00750  0.72152  1.0000
  H   H1706     1.0  0.91941  0.11347  0.84617  1.0000
  H   H1707     1.0  0.71066  0.32559  0.94655  1.0000
  C   C2135     1.0  0.73860  0.46546  0.78947  1.0000
  Fe  Fe144     1.0  0.91805  0.41167  0.95668  1.0000
  H   H1708     1.0  0.96685  0.33086  0.80753  1.0000
  C   C2136     1.0  0.83226  0.48837  0.80960  1.0000
  C   C2137     1.0  0.92661  0.07552  0.90043  1.0000
  H   H1709     1.0  0.93787  0.42968  0.85519  1.0000
  C   C2138     1.0  0.93699  0.09257  0.92046  1.0000
  C   C2139     1.0  0.72374  0.47988  0.77862  1.0000
  S   S291      1.0  0.92989  0.46162  0.95107  1.0000
  C   C2140     1.0  0.97410  0.01793  0.86782  1.0000
  C   C2141     1.0  0.85875  0.20385  0.72648  1.0000
  C   C2142     1.0  0.82823  0.17868  0.72301  1.0000
  H   H1710     1.0  0.98961  0.03960  0.85921  1.0000
  C   C2143     1.0  0.86328  0.38253  0.86185  1.0000
  H   H1711     1.0  0.60918  0.43869  0.84384  1.0000
  C   C2144     1.0  0.69449  0.31037  0.95933  1.0000
  H   H1712     1.0  0.90503  0.35443  0.83463  1.0000
  Fe  Fe145     1.0  0.72624  0.03121  0.95652  1.0000
  H   H1713     1.0  0.73538  0.45359  0.83357  1.0000
  C   C2145     1.0  0.78804  0.47621  0.92875  1.0000
  H   H1714     1.0  0.70405  0.24555  0.94842  1.0000
  Fe  Fe146     1.0  0.71838  0.47470  0.94369  1.0000
  C   C2146     1.0  0.59365  0.08134  0.95467  1.0000
  C   C2147     1.0  0.84087  0.24055  0.71706  1.0000
  C   C2148     1.0  0.77520  0.35576  0.95005  1.0000
  C   C2149     1.0  0.79864  0.04471  0.83109  1.0000
  C   C2150     1.0  0.87673  0.00946  0.86780  1.0000
  C   C2151     1.0  0.85096  0.48990  0.74131  1.0000
  H   H1715     1.0  0.87816  0.10966  0.92735  1.0000
  S   S292      1.0  0.64452  0.45967  0.90867  1.0000
  Fe  Fe147     1.0  0.98818  0.05089  0.94410  1.0000
  C   C2152     1.0  0.63581  0.06218  0.93989  1.0000
  S   S293      1.0  0.99397  0.15030  0.77072  1.0000
  C   C2153     1.0  0.53979  0.41137  0.93816  1.0000
  C   C2154     1.0  0.60474  0.40362  0.86759  1.0000
  C   C2155     1.0  0.58717  0.38401  0.88538  1.0000
  C   C2156     1.0  0.56049  0.38445  0.89335  1.0000
  H   H1716     1.0  0.97317  0.18972  0.85021  1.0000
  C   C2157     1.0  0.85276  0.04867  0.85092  1.0000
  C   C2158     1.0  0.85381  0.05932  0.82877  1.0000
  H   H1717     1.0  0.62591  0.40390  0.86181  1.0000
  H   H1718     1.0  0.59466  0.36893  0.89329  1.0000
  H   H1719     1.0  0.54726  0.36916  0.90715  1.0000
  C   C2159     1.0  0.75890  0.17801  0.91693  1.0000
  C   C2160     1.0  0.74724  0.15565  0.89976  1.0000
  C   C2161     1.0  0.76783  0.15553  0.88357  1.0000
  C   C2162     1.0  0.80009  0.17776  0.88448  1.0000
  C   C2163     1.0  0.81211  0.20069  0.90149  1.0000
  C   C2164     1.0  0.79116  0.20029  0.91793  1.0000
  P   P74       1.0  0.85429  0.22799  0.90390  1.0000
  C   C2165     1.0  0.87296  0.20720  0.91531  1.0000
  C   C2166     1.0  0.87176  0.24320  0.87645  1.0000
  C   C2167     1.0  0.87477  0.22331  0.86094  1.0000
  C   C2168     1.0  0.88862  0.23451  0.83988  1.0000
  C   C2169     1.0  0.90022  0.26592  0.83419  1.0000
  C   C2170     1.0  0.89853  0.28623  0.84975  1.0000
  C   C2171     1.0  0.88453  0.27506  0.87080  1.0000
  C   C2172     1.0  0.85644  0.18190  0.93010  1.0000
  H   H1720     1.0  0.85891  0.47660  0.75115  1.0000
  C   C2173     1.0  0.90259  0.17601  0.93393  1.0000
  C   C2174     1.0  0.91918  0.20109  0.91914  1.0000
  C   C2175     1.0  0.90441  0.21658  0.90979  1.0000
  C   C2176     1.0  0.85960  0.25891  0.92307  1.0000
  C   C2177     1.0  0.84779  0.27885  0.91742  1.0000
  C   C2178     1.0  0.85163  0.30261  0.93220  1.0000
  H   H1721     1.0  0.77796  0.04396  0.82370  1.0000
  C   C2179     1.0  0.99717  0.20723  0.94874  1.0000
  C   C2180     1.0  0.87350  0.26191  0.94438  1.0000
  C   C2181     1.0  0.99885  0.25726  0.94881  1.0000
  H   H1722     1.0  0.72239  0.13784  0.89935  1.0000
  H   H1723     1.0  0.75893  0.13755  0.87064  1.0000
  H   H1724     1.0  0.81533  0.17622  0.87209  1.0000
  H   H1725     1.0  0.79959  0.21663  0.93186  1.0000
  H   H1726     1.0  0.86706  0.19918  0.86523  1.0000
  H   H1727     1.0  0.89052  0.21877  0.82805  1.0000
  H   H1728     1.0  0.91075  0.27457  0.81781  1.0000
  H   H1729     1.0  0.90820  0.31079  0.84558  1.0000
  H   H1730     1.0  0.88439  0.29173  0.88248  1.0000
  H   H1731     1.0  0.83220  0.17417  0.93462  1.0000
  C   C2182     1.0  0.92100  0.48048  0.83482  1.0000
  C   C2183     1.0  0.83058  0.46411  0.92889  1.0000
  H   H1732     1.0  0.94333  0.20821  0.91468  1.0000
  H   H1733     1.0  0.91758  0.23583  0.89823  1.0000
  H   H1734     1.0  0.83604  0.27640  0.90139  1.0000
  H   H1735     1.0  0.84371  0.31875  0.92727  1.0000
  H   H1736     1.0  0.00285  0.39584  0.92161  1.0000
  H   H1737     1.0  0.59502  0.02389  0.92402  1.0000
  H   H1738     1.0  0.88210  0.24646  0.94949  1.0000
  C   C2184     1.0  0.92158  0.07058  0.84616  1.0000
  C   C2185     1.0  0.88150  0.36816  0.85880  1.0000
  H   H1739     1.0  0.77049  0.36724  0.96384  1.0000
  S   S294      1.0  0.69787  0.43824  0.91663  1.0000
  H   H1740     1.0  0.91400  0.16404  0.94126  1.0000
  H   H1741     1.0  0.82795  0.06624  0.80200  1.0000
  C   C2186     1.0  0.99439  0.11456  0.76967  1.0000
  C   C2187     1.0  0.51295  0.39971  0.92427  1.0000
  C   C2188     1.0  0.86506  0.23460  0.72357  1.0000
  H   H1742     1.0  0.94076  0.29881  0.90406  1.0000
  C   C2189     1.0  0.95155  0.34129  0.95166  1.0000
  H   H1743     1.0  0.84592  0.45976  0.79037  1.0000
  S   S295      1.0  0.89591  0.35737  0.88215  1.0000
  C   C2190     1.0  0.71738  0.23973  0.96015  1.0000
  C   C2191     1.0  0.84913  0.29489  0.74319  1.0000
  H   H1744     1.0  0.78195  0.25897  0.72314  1.0000
  H   H1745     1.0  0.93795  0.34485  0.91762  1.0000
  H   H1746     1.0  0.96943  0.14412  0.82528  1.0000
  H   H1747     1.0  0.91034  0.45999  0.82405  1.0000
  S   S296      1.0  0.97369  0.38589  0.78513  1.0000
  C   C2192     1.0  0.83762  0.31556  0.74697  1.0000
  C   C2193     1.0  0.83489  0.32417  0.76894  1.0000
  C   C2194     1.0  0.84398  0.31255  0.78724  1.0000
  C   C2195     1.0  0.85695  0.29333  0.78359  1.0000
  C   C2196     1.0  0.85963  0.28459  0.76167  1.0000
  H   H1748     1.0  0.97504  0.48514  0.86548  1.0000
  H   H1749     1.0  0.76523  0.28498  0.93358  1.0000
  H   H1750     1.0  0.00474  0.19169  0.94182  1.0000
  C   C2197     1.0  0.59535  0.42335  0.85753  1.0000
  C   C2198     1.0  0.60356  0.04484  0.93417  1.0000
  H   H1751     1.0  0.87525  0.06893  0.81895  1.0000
  Fe  Fe148     1.0  0.92489  0.42966  0.72945  1.0000
  H   H1752     1.0  0.95837  0.09584  0.92859  1.0000
  C   C2199     1.0  0.00443  0.43832  0.83077  1.0000
  H   H1753     1.0  0.95711  0.39954  0.83373  1.0000
  C   C2200     1.0  0.79100  0.37334  0.93101  1.0000
  H   H1754     1.0  0.56322  0.42160  0.93092  1.0000
  H   H1755     1.0  0.80970  0.37296  0.89836  1.0000
  H   H1756     1.0  0.82610  0.34019  0.77182  1.0000
  H   H1757     1.0  0.84135  0.31879  0.80426  1.0000
  H   H1758     1.0  0.86484  0.28511  0.79778  1.0000
  S   S297      1.0  0.54161  0.02954  0.93496  1.0000
  H   H1759     1.0  0.85681  0.38558  0.87865  1.0000
  C   C2201     1.0  0.85395  0.39354  0.84317  1.0000
  C   C2202     1.0  0.97908  0.10607  0.82357  1.0000
  C   C2203     1.0  0.77539  0.41119  0.74865  1.0000
  C   C2204     1.0  0.77335  0.38350  0.75657  1.0000
  C   C2205     1.0  0.77650  0.37968  0.77959  1.0000
  C   C2206     1.0  0.78121  0.40330  0.79480  1.0000
  C   C2207     1.0  0.78270  0.43099  0.78708  1.0000
  C   C2208     1.0  0.78023  0.43493  0.76380  1.0000
  P   P75       1.0  0.79034  0.46248  0.80635  1.0000
  H   H1760     1.0  0.56155  0.43899  0.85722  1.0000
  C   C2209     1.0  0.77626  0.44726  0.83429  1.0000
  C   C2210     1.0  0.74880  0.44549  0.84307  1.0000
  C   C2211     1.0  0.73871  0.43400  0.86483  1.0000
  C   C2212     1.0  0.75609  0.42458  0.87817  1.0000
  C   C2213     1.0  0.78373  0.42667  0.86971  1.0000
  C   C2214     1.0  0.79389  0.43814  0.84793  1.0000
  H   H1761     1.0  0.98137  0.06346  0.82297  1.0000
  Fe  Fe149     1.0  0.95372  0.41416  0.76905  1.0000
  H   H1762     1.0  0.85802  0.14629  0.95016  1.0000
  C   C2215     1.0  0.85391  0.48136  0.79959  1.0000
  H   H1763     1.0  0.81442  0.47770  0.89940  1.0000
  S   S298      1.0  0.91945  0.44298  0.89780  1.0000
  H   H1764     1.0  0.54907  0.35041  0.94533  1.0000
  H   H1765     1.0  0.76960  0.36510  0.74486  1.0000
  H   H1766     1.0  0.77596  0.35865  0.78568  1.0000
  H   H1767     1.0  0.78427  0.39995  0.81243  1.0000
  H   H1768     1.0  0.78216  0.45638  0.75727  1.0000
  H   H1769     1.0  0.95357  0.35732  0.74122  1.0000
  H   H1770     1.0  0.71764  0.43307  0.87143  1.0000
  H   H1771     1.0  0.74859  0.41640  0.89524  1.0000
  H   H1772     1.0  0.79779  0.42026  0.88025  1.0000
  H   H1773     1.0  0.81569  0.44012  0.84182  1.0000
  H   H1774     1.0  0.94030  0.06588  0.89321  1.0000
  C   C2216     1.0  0.89882  0.07089  0.88983  1.0000
  H   H1775     1.0  0.72478  0.44083  0.79386  1.0000
  H   H1776     1.0  0.83999  0.40475  0.84555  1.0000
  H   H1777     1.0  0.00143  0.11991  0.81506  1.0000
  C   C2217     1.0  0.96788  0.07437  0.82817  1.0000
  H   H1778     1.0  0.96472  0.23509  0.84848  1.0000
  C   C2218     1.0  0.82721  0.45926  0.95219  1.0000
  C   C2219     1.0  0.79728  0.03368  0.85301  1.0000
  H   H1779     1.0  0.53795  0.46841  0.94508  1.0000
  C   C2220     1.0  0.87433  0.02163  0.76520  1.0000
  C   C2221     1.0  0.81135  0.47312  0.91733  1.0000
  C   C2222     1.0  0.82409  0.03518  0.86277  1.0000
  S   S299      1.0  0.61631  0.37680  0.94092  1.0000
  Fe  Fe150     1.0  0.88898  0.44052  0.92669  1.0000
  C   C2223     1.0  0.89056  0.36502  0.83712  1.0000
  C   C2224     1.0  0.91980  0.10524  0.93002  1.0000
  H   H1780     1.0  0.95388  0.26819  0.93053  1.0000
  C   C2225     1.0  0.53673  0.41139  0.96161  1.0000
  C   C2226     1.0  0.94639  0.30609  0.92149  1.0000
  C   C2227     1.0  0.94487  0.33212  0.92910  1.0000
  C   C2228     1.0  0.77109  0.48258  0.79441  1.0000
  H   H1781     1.0  0.79850  0.39807  0.93019  1.0000
  H   H1782     1.0  0.77319  0.48296  0.91959  1.0000
  H   H1783     1.0  0.83068  0.32508  0.73303  1.0000
  C   C2229     1.0  0.95403  0.28891  0.93651  1.0000
  C   C2230     1.0  0.95339  0.34005  0.75259  1.0000
  C   C2231     1.0  0.89194  0.10048  0.91972  1.0000
  C   C2232     1.0  0.93929  0.05667  0.83956  1.0000
  Fe  Fe151     1.0  0.95914  0.46020  0.92249  1.0000
  S   S300      1.0  0.77587  0.05568  0.94330  1.0000
  P   P76       1.0  0.51714  0.40565  0.89416  1.0000
  H   H1784     1.0  0.94988  0.36116  0.95771  1.0000
  C   C2233     1.0  0.88174  0.08383  0.89948  1.0000
  C   C2234     1.0  0.97131  0.01773  0.89133  1.0000
  H   H1785     1.0  0.57757  0.08897  0.96028  1.0000
  C   C2235     1.0  0.82686  0.05743  0.81894  1.0000
  H   H1786     1.0  0.86980  0.06298  0.76343  1.0000
  Fe  Fe152     1.0  0.96079  0.48024  0.76383  1.0000
  H   H1787     1.0  0.77340  0.41431  0.73072  1.0000
  Fe  Fe153     1.0  0.69389  0.47500  0.89664  1.0000
  H   H1788     1.0  0.82323  0.15483  0.72560  1.0000
  P   P77       1.0  0.88698  0.04974  0.86353  1.0000
  C   C2236     1.0  0.98803  0.23846  0.84507  1.0000
  C   C2237     1.0  0.52953  0.32700  0.94849  1.0000
  C   C2238     1.0  0.88628  0.50285  0.80079  1.0000
  H   H1789     1.0  0.57110  0.46964  0.89638  1.0000
  H   H1790     1.0  0.82253  0.02612  0.87965  1.0000
  C   C2239     1.0  0.98320  0.47236  0.85534  1.0000
  H   H1791     1.0  0.69859  0.46663  0.77518  1.0000
  H   H1792     1.0  0.74295  0.17738  0.92983  1.0000
  H   H1793     1.0  0.84206  0.45237  0.96121  1.0000
  Fe  Fe154     1.0  0.66904  0.49507  0.93594  1.0000
  C   C2240     1.0  0.86615  0.30588  0.95314  1.0000
  C   C2241     1.0  0.64724  0.08898  0.95332  1.0000
  C   C2242     1.0  0.00008  0.06013  0.77135  1.0000
  C   C2243     1.0  0.76517  0.32360  0.95111  1.0000
  C   C2244     1.0  0.79734  0.35913  0.91303  1.0000
  H   H1794     1.0  0.69650  0.19196  0.94825  1.0000
  H   H1795     1.0  0.79355  0.31653  0.90025  1.0000
  C   C2245     1.0  0.66355  0.30503  0.95927  1.0000
  H   H1796     1.0  0.87756  0.19959  0.73165  1.0000
  C   C2246     1.0  0.52964  0.30103  0.93928  1.0000
  H   H1797     1.0  0.54945  0.30440  0.92903  1.0000
  C   C2247     1.0  0.74845  0.01780  0.72091  1.0000
  H   H1798     1.0  0.91887  0.03259  0.72776  1.0000
  C   C2248     1.0  0.00830  0.23713  0.93959  1.0000
  C   C2249     1.0  0.80407  0.18426  0.71633  1.0000
  H   H1799     1.0  0.83631  0.04589  0.72954  1.0000
  C   C2250     1.0  0.58942  0.49465  0.94518  1.0000
  H   H1800     1.0  0.77553  0.02448  0.86256  1.0000
  C   C2251     1.0  0.55889  0.49132  0.94617  1.0000
  H   H1801     1.0  0.00363  0.42354  0.95647  1.0000
  H   H1802     1.0  0.84257  0.02302  0.92019  1.0000
  H   H1803     1.0  0.65383  0.00694  0.90005  1.0000
  H   H1804     1.0  0.90283  0.49758  0.79258  1.0000
  C   C2252     1.0  0.80443  0.46330  0.96379  1.0000
  S   S301      1.0  0.67197  0.46127  0.95976  1.0000
  S   S302      1.0  0.68742  0.10979  0.96218  1.0000
  C   C2253     1.0  0.96080  0.29802  0.95919  1.0000
  C   C2254     1.0  0.82523  0.00590  0.93157  1.0000
  H   H1805     1.0  0.78675  0.01053  0.91813  1.0000
  S   S303      1.0  0.94159  0.03185  0.96187  1.0000
  C   C2255     1.0  0.87657  0.28519  0.95937  1.0000
  C   C2256     1.0  0.93549  0.02846  0.71852  1.0000
  C   C2257     1.0  0.71308  0.20941  0.95995  1.0000
  C   C2258     1.0  0.52577  0.50293  0.88714  1.0000
  C   C2259     1.0  0.55269  0.50050  0.89096  1.0000
  H   H1806     1.0  0.86952  0.32460  0.96448  1.0000
  H   H1807     1.0  0.60417  0.41938  0.96546  1.0000
  S   S304      1.0  0.00534  0.50304  0.91349  1.0000
  Fe  Fe155     1.0  0.93529  0.87688  0.10648  1.0000
  S   S305      1.0  0.91188  0.83907  0.08042  1.0000
  S   S306      1.0  0.96053  0.92880  0.09787  1.0000
  Fe  Fe156     1.0  0.91594  0.82903  0.14465  1.0000
  S   S307      1.0  0.89029  0.78846  0.12110  1.0000
  S   S308      1.0  0.91929  0.82097  0.18192  1.0000
  Fe  Fe157     1.0  0.93325  0.81480  0.09931  1.0000
  S   S309      1.0  0.95348  0.78859  0.08114  1.0000
  Fe  Fe158     1.0  0.87159  0.81737  0.10496  1.0000
  S   S310      1.0  0.82133  0.79360  0.09149  1.0000
  S   S311      1.0  0.95991  0.85406  0.12364  1.0000
  S   S312      1.0  0.89398  0.85625  0.13035  1.0000
  H   H1808     1.0  0.74406  0.91495  0.04090  1.0000
  S   S313      1.0  0.93692  0.96229  0.99883  1.0000
  Fe  Fe159     1.0  0.64268  0.87321  0.08716  1.0000
  S   S314      1.0  0.67236  0.92061  0.10299  1.0000
  S   S315      1.0  0.59537  0.85913  0.07089  1.0000
  Fe  Fe160     1.0  0.69564  0.85662  0.09131  1.0000
  S   S316      1.0  0.72916  0.90266  0.10726  1.0000
  S   S317      1.0  0.70622  0.81887  0.08020  1.0000
  Fe  Fe161     1.0  0.68702  0.89530  0.12740  1.0000
  S   S318      1.0  0.69137  0.90193  0.16517  1.0000
  Fe  Fe162     1.0  0.71137  0.92354  0.08152  1.0000
  S   S319      1.0  0.74553  0.96757  0.06312  1.0000
  S   S320      1.0  0.65420  0.84723  0.11323  1.0000
  S   S321      1.0  0.68095  0.87809  0.06383  1.0000
  C   C2260     1.0  0.66661  0.50701  0.00425  1.0000
  H   H1809     1.0  0.92352  0.99910  0.17205  1.0000
  C   C2261     1.0  0.52714  0.93348  0.98352  1.0000
  C   C2262     1.0  0.94874  0.98916  0.12103  1.0000
  H   H1810     1.0  0.54822  0.52542  0.05441  1.0000
  H   H1811     1.0  0.94755  0.61311  0.12309  1.0000
  H   H1812     1.0  0.61936  0.61620  0.07776  1.0000
  H   H1813     1.0  0.97583  0.00190  0.03616  1.0000
  H   H1814     1.0  0.58855  0.86328  0.11934  1.0000
  H   H1815     1.0  0.66909  0.93405  0.00096  1.0000
  C   C2263     1.0  0.83051  0.98865  0.07776  1.0000
  C   C2264     1.0  0.68595  0.93119  0.17784  1.0000
  C   C2265     1.0  0.67981  0.95153  0.16512  1.0000
  C   C2266     1.0  0.67413  0.97357  0.17603  1.0000
  C   C2267     1.0  0.68737  0.93370  0.20137  1.0000
  H   H1816     1.0  0.67920  0.95011  0.14696  1.0000
  C   C2268     1.0  0.99721  0.65937  0.20396  1.0000
  C   C2269     1.0  0.73301  0.96990  0.03576  1.0000
  H   H1817     1.0  0.55182  0.98461  0.01279  1.0000
  P   P78       1.0  0.82341  0.94670  0.98056  1.0000
  C   C2270     1.0  0.71292  0.97567  0.99251  1.0000
  C   C2271     1.0  0.69268  0.95085  0.00658  1.0000
  C   C2272     1.0  0.70252  0.94828  0.02832  1.0000
  H   H1818     1.0  0.54925  0.81099  0.15868  1.0000
  C   C2273     1.0  0.58373  0.91012  0.97218  1.0000
  H   H1819     1.0  0.51813  0.95082  0.18274  1.0000
  H   H1820     1.0  0.68627  0.92986  0.03939  1.0000
  C   C2274     1.0  0.53673  0.94175  0.05387  1.0000
  C   C2275     1.0  0.00534  0.72127  0.09423  1.0000
  H   H1821     1.0  0.53990  0.87923  0.03279  1.0000
  C   C2276     1.0  0.83780  0.67388  0.96829  1.0000
  H   H1822     1.0  0.72605  0.85827  0.03800  1.0000
  C   C2277     1.0  0.51157  0.84530  0.11374  1.0000
  C   C2278     1.0  0.77762  0.92835  0.01382  1.0000
  H   H1823     1.0  0.55133  0.81927  0.19970  1.0000
  H   H1824     1.0  0.77939  0.96677  0.15322  1.0000
  C   C2279     1.0  0.89452  0.98207  0.14222  1.0000
  C   C2280     1.0  0.99351  0.63201  0.21399  1.0000
  H   H1825     1.0  0.88683  0.95525  0.97295  1.0000
  H   H1826     1.0  0.91164  0.90453  0.02263  1.0000
  C   C2281     1.0  0.89321  0.97418  0.11934  1.0000
  C   C2282     1.0  0.81320  0.96387  0.13147  1.0000
  C   C2283     1.0  0.74398  0.87486  0.02657  1.0000
  H   H1827     1.0  0.68625  0.51106  0.99357  1.0000
  H   H1828     1.0  0.96407  0.88438  0.16862  1.0000
  C   C2284     1.0  0.00195  0.78798  0.05983  1.0000
  C   C2285     1.0  0.91817  0.78552  0.18868  1.0000
  C   C2286     1.0  0.57946  0.92995  0.10010  1.0000
  C   C2287     1.0  0.58700  0.85807  0.98829  1.0000
  H   H1829     1.0  0.89685  0.96571  0.04345  1.0000
  C   C2288     1.0  0.92143  0.73979  0.17765  1.0000
  C   C2289     1.0  0.92101  0.76724  0.17192  1.0000
  H   H1830     1.0  0.96957  0.99136  0.11289  1.0000
  H   H1831     1.0  0.90553  0.60774  0.14925  1.0000
  H   H1832     1.0  0.92384  0.72597  0.16450  1.0000
  H   H1833     1.0  0.92354  0.77450  0.15451  1.0000
  C   C2290     1.0  0.99401  0.80164  0.07734  1.0000
  C   C2291     1.0  0.55901  0.85896  0.99043  1.0000
  H   H1834     1.0  0.88051  0.91491  0.10570  1.0000
  C   C2292     1.0  0.56346  0.85375  0.08781  1.0000
  H   H1835     1.0  0.62757  0.94304  0.10759  1.0000
  C   C2293     1.0  0.99163  0.79120  0.14420  1.0000
  C   C2294     1.0  0.94979  0.99667  0.14382  1.0000
  H   H1836     1.0  0.78546  0.95311  0.01560  1.0000
  H   H1837     1.0  0.85466  0.93265  0.01668  1.0000
  H   H1838     1.0  0.98367  0.77127  0.04873  1.0000
  C   C2295     1.0  0.79120  0.80361  0.08930  1.0000
  C   C2296     1.0  0.76519  0.78420  0.07574  1.0000
  C   C2297     1.0  0.73997  0.78976  0.07320  1.0000
  C   C2298     1.0  0.74006  0.81491  0.08414  1.0000
  C   C2299     1.0  0.76611  0.83483  0.09774  1.0000
  C   C2300     1.0  0.79166  0.82904  0.10046  1.0000
  H   H1839     1.0  0.76445  0.76447  0.06717  1.0000
  H   H1840     1.0  0.72003  0.77422  0.06274  1.0000
  H   H1841     1.0  0.76631  0.85427  0.10629  1.0000
  H   H1842     1.0  0.81145  0.84397  0.11120  1.0000
  C   C2301     1.0  0.95376  0.93847  0.07043  1.0000
  C   C2302     1.0  0.93275  0.91523  0.05569  1.0000
  C   C2303     1.0  0.92779  0.92291  0.03389  1.0000
  C   C2304     1.0  0.94362  0.95408  0.02657  1.0000
  C   C2305     1.0  0.96387  0.97770  0.04149  1.0000
  C   C2306     1.0  0.96931  0.96987  0.06325  1.0000
  H   H1843     1.0  0.92010  0.89123  0.06094  1.0000
  C   C2307     1.0  0.85829  0.99149  0.08712  1.0000
  C   C2308     1.0  0.52564  0.91098  0.18226  1.0000
  H   H1844     1.0  0.98579  0.98815  0.07438  1.0000
  H   H1845     1.0  0.99454  0.76273  0.11828  1.0000
  H   H1846     1.0  0.51948  0.99544  0.14143  1.0000
  C   C2309     1.0  0.57348  0.97974  0.20743  1.0000
  C   C2310     1.0  0.52661  0.91074  0.04775  1.0000
  P   P79       1.0  0.56761  0.93371  0.17703  1.0000
  H   H1847     1.0  0.53676  0.92960  0.99880  1.0000
  C   C2311     1.0  0.60186  0.94053  0.13768  1.0000
  H   H1848     1.0  0.57182  0.99895  0.14100  1.0000
  C   C2312     1.0  0.58641  0.91512  0.19176  1.0000
  H   H1849     1.0  0.81823  0.93087  0.06270  1.0000
  H   H1850     1.0  0.58859  0.83844  0.99510  1.0000
  H   H1851     1.0  0.74981  0.83961  0.00959  1.0000
  H   H1852     1.0  0.56422  0.57948  0.06613  1.0000
  H   H1853     1.0  0.54245  0.85537  0.14218  1.0000
  C   C2313     1.0  0.60667  0.87894  0.19235  1.0000
  H   H1854     1.0  0.53005  0.91592  0.09800  1.0000
  C   C2314     1.0  0.97886  0.66199  0.13074  1.0000
  H   H1855     1.0  0.52011  0.94705  0.06190  1.0000
  H   H1856     1.0  0.76262  0.94520  0.97260  1.0000
  C   C2315     1.0  0.53959  0.58362  0.00936  1.0000
  C   C2316     1.0  0.56627  0.61268  0.01462  1.0000
  C   C2317     1.0  0.59653  0.61626  0.01386  1.0000
  C   C2318     1.0  0.60035  0.59093  0.00785  1.0000
  C   C2319     1.0  0.57389  0.56193  0.00279  1.0000
  C   C2320     1.0  0.54363  0.55822  0.00358  1.0000
  C   C2321     1.0  0.55721  0.88470  0.98221  1.0000
  H   H1857     1.0  0.80781  0.96761  0.08040  1.0000
  C   C2322     1.0  0.54032  0.85272  0.12412  1.0000
  C   C2323     1.0  0.55043  0.92368  0.10893  1.0000
  C   C2324     1.0  0.74339  0.99737  0.99994  1.0000
  C   C2325     1.0  0.68138  0.95546  0.21222  1.0000
  H   H1858     1.0  0.99528  0.86938  0.19297  1.0000
  C   C2326     1.0  0.57259  0.93356  0.14679  1.0000
  C   C2327     1.0  0.78110  0.88587  0.99615  1.0000
  C   C2328     1.0  0.54697  0.92552  0.13214  1.0000
  C   C2329     1.0  0.51783  0.99996  0.10544  1.0000
  H   H1859     1.0  0.96196  0.70444  0.16782  1.0000
  C   C2330     1.0  0.63595  0.98114  0.99049  1.0000
  C   C2331     1.0  0.75357  0.99418  0.02140  1.0000
  H   H1860     1.0  0.56395  0.63268  0.01918  1.0000
  H   H1861     1.0  0.61710  0.63881  0.01767  1.0000
  H   H1862     1.0  0.62383  0.59387  0.00684  1.0000
  H   H1863     1.0  0.52341  0.53568  0.99915  1.0000
  H   H1864     1.0  0.98683  0.65822  0.18759  1.0000
  C   C2332     1.0  0.58130  0.57163  0.06624  1.0000
  C   C2333     1.0  0.61247  0.59244  0.07276  1.0000
  C   C2334     1.0  0.63480  0.58267  0.07277  1.0000
  C   C2335     1.0  0.62602  0.55212  0.06621  1.0000
  C   C2336     1.0  0.59477  0.53104  0.05953  1.0000
  C   C2337     1.0  0.57237  0.54098  0.05966  1.0000
  C   C2338     1.0  0.60527  0.93879  0.11443  1.0000
  C   C2339     1.0  0.51045  0.87808  0.18205  1.0000
  H   H1865     1.0  0.62660  0.98999  0.07730  1.0000
  C   C2340     1.0  0.52854  0.80619  0.19155  1.0000
  H   H1866     1.0  0.98101  0.71249  0.09920  1.0000
  H   H1867     1.0  0.79196  0.87725  0.98453  1.0000
  C   C2341     1.0  0.60913  0.99861  0.17559  1.0000
  H   H1868     1.0  0.83369  0.85402  0.05005  1.0000
  C   C2342     1.0  0.53316  0.00297  0.08496  1.0000
  H   H1869     1.0  0.64075  0.96209  0.99017  1.0000
  C   C2343     1.0  0.65506  0.52779  0.00352  1.0000
  C   C2344     1.0  0.62942  0.52250  0.01692  1.0000
  H   H1870     1.0  0.58165  0.92671  0.08230  1.0000
  C   C2345     1.0  0.98694  0.94145  0.20821  1.0000
  H   H1871     1.0  0.61888  0.99455  0.16053  1.0000
  C   C2346     1.0  0.95940  0.68480  0.15800  1.0000
  C   C2347     1.0  0.85382  0.97156  0.00033  1.0000
  C   C2348     1.0  0.75417  0.90682  0.02824  1.0000
  H   H1872     1.0  0.65900  0.59885  0.07780  1.0000
  H   H1873     1.0  0.64371  0.54496  0.06620  1.0000
  C   C2349     1.0  0.99956  0.76954  0.13580  1.0000
  H   H1874     1.0  0.51723  0.64058  0.99415  1.0000
  C   C2350     1.0  0.93152  0.65586  0.16009  1.0000
  H   H1875     1.0  0.77517  0.87762  0.15209  1.0000
  C   C2351     1.0  0.75735  0.86437  0.01048  1.0000
  H   H1876     1.0  0.51958  0.68657  0.01262  1.0000
  H   H1877     1.0  0.98431  0.96142  0.21239  1.0000
  H   H1878     1.0  0.66581  0.54786  0.99229  1.0000
  H   H1879     1.0  0.62079  0.53885  0.01596  1.0000
  C   C2352     1.0  0.52750  0.80179  0.16823  1.0000
  H   H1880     1.0  0.52374  0.86615  0.17964  1.0000
  H   H1881     1.0  0.99689  0.66407  0.11914  1.0000
  C   C2353     1.0  0.91896  0.73031  0.20020  1.0000
  H   H1882     1.0  0.87385  0.97953  0.15076  1.0000
  C   C2354     1.0  0.57856  0.92681  0.03280  1.0000
  H   H1883     1.0  0.80773  0.88473  0.04040  1.0000
  H   H1884     1.0  0.52389  0.91954  0.13844  1.0000
  H   H1885     1.0  0.91300  0.65359  0.17132  1.0000
  C   C2355     1.0  0.88853  0.97654  0.03141  1.0000
  C   C2356     1.0  0.92731  0.63002  0.14763  1.0000
  H   H1886     1.0  0.98127  0.61019  0.20475  1.0000
  S   S322      1.0  0.66413  0.00091  0.21288  1.0000
  H   H1887     1.0  0.98015  0.80020  0.13328  1.0000
  C   C2357     1.0  0.98332  0.68808  0.14330  1.0000
  C   C2358     1.0  0.99708  0.80015  0.16682  1.0000
  C   C2359     1.0  0.50881  0.84223  0.09032  1.0000
  C   C2360     1.0  0.78641  0.53181  0.05025  1.0000
  C   C2361     1.0  0.80156  0.53565  0.02959  1.0000
  C   C2362     1.0  0.79558  0.50936  0.01694  1.0000
  H   H1888     1.0  0.63462  0.88174  0.97545  1.0000
  C   C2363     1.0  0.54761  0.90325  0.03739  1.0000
  H   H1889     1.0  0.95829  0.93000  0.17809  1.0000
  H   H1890     1.0  0.69246  0.91829  0.21129  1.0000
  C   C2364     1.0  0.78855  0.95214  0.14717  1.0000
  H   H1891     1.0  0.58804  0.88899  0.16290  1.0000
  H   H1892     1.0  0.61244  0.97580  0.03466  1.0000
  C   C2365     1.0  0.95098  0.63307  0.13295  1.0000
  C   C2366     1.0  0.92067  0.97814  0.10878  1.0000
  H   H1893     1.0  0.79105  0.55222  0.06007  1.0000
  H   H1894     1.0  0.81783  0.55896  0.02331  1.0000
  H   H1895     1.0  0.80699  0.51225  0.00076  1.0000
  C   C2367     1.0  0.58407  0.97360  0.18710  1.0000
  H   H1896     1.0  0.62172  0.94624  0.14861  1.0000
  H   H1897     1.0  0.99012  0.81633  0.17333  1.0000
  H   H1898     1.0  0.59484  0.92090  0.02482  1.0000
  C   C2368     1.0  0.58857  0.95789  0.03868  1.0000
  S   S323      1.0  0.92024  0.69592  0.20646  1.0000
  C   C2369     1.0  0.79114  0.91803  0.99753  1.0000
  H   H1899     1.0  0.82340  0.98795  0.12588  1.0000
  C   C2370     1.0  0.59301  0.89388  0.18064  1.0000
  H   H1900     1.0  0.52114  0.00259  0.06949  1.0000
  H   H1901     1.0  0.88245  0.83529  0.21098  1.0000
  H   H1902     1.0  0.75553  0.91192  0.16654  1.0000
  H   H1903     1.0  0.57677  0.54247  0.99759  1.0000
  C   C2371     1.0  0.56634  0.85720  0.11122  1.0000
  H   H1904     1.0  0.84520  0.66978  0.98458  1.0000
  C   C2372     1.0  0.61119  0.90816  0.96903  1.0000
  C   C2373     1.0  0.53455  0.84591  0.07747  1.0000
  P   P80       1.0  0.85687  0.95962  0.10344  1.0000
  H   H1905     1.0  0.86981  0.86935  0.08269  1.0000
  C   C2374     1.0  0.82433  0.94451  0.12310  1.0000
  C   C2375     1.0  0.81074  0.91347  0.13091  1.0000
  C   C2376     1.0  0.78612  0.90184  0.14658  1.0000
  C   C2377     1.0  0.77507  0.92117  0.15474  1.0000
  H   H1906     1.0  0.99421  0.71748  0.05880  1.0000
  C   C2378     1.0  0.51046  0.63897  0.01170  1.0000
  H   H1907     1.0  0.81891  0.89806  0.12483  1.0000
  C   C2379     1.0  0.91526  0.77590  0.21124  1.0000
  H   H1908     1.0  0.61300  0.86370  0.18342  1.0000
  C   C2380     1.0  0.92273  0.99324  0.15439  1.0000
  C   C2381     1.0  0.99351  0.88980  0.19736  1.0000
  C   C2382     1.0  0.85124  0.92750  0.08550  1.0000
  C   C2383     1.0  0.83038  0.91834  0.06706  1.0000
  C   C2384     1.0  0.82429  0.89208  0.05425  1.0000
  C   C2385     1.0  0.83893  0.87480  0.05964  1.0000
  C   C2386     1.0  0.85939  0.88349  0.07807  1.0000
  C   C2387     1.0  0.86540  0.90954  0.09106  1.0000
  C   C2388     1.0  0.86438  0.95781  0.01632  1.0000
  C   C2389     1.0  0.97573  0.89817  0.18348  1.0000
  C   C2390     1.0  0.56131  0.00055  0.12537  1.0000
  C   C2391     1.0  0.67404  0.97499  0.19963  1.0000
  C   C2392     1.0  0.97236  0.92389  0.18889  1.0000
  C   C2393     1.0  0.56804  0.96546  0.04991  1.0000
  H   H1909     1.0  0.60518  0.50570  0.09813  1.0000
  C   C2394     1.0  0.51190  0.66510  0.02211  1.0000
  C   C2395     1.0  0.61293  0.88247  0.97731  1.0000
  H   H1910     1.0  0.51164  0.55401  0.05193  1.0000
  C   C2396     1.0  0.53182  0.99863  0.12564  1.0000
  C   C2397     1.0  0.60924  0.97884  0.97973  1.0000
  H   H1911     1.0  0.66928  0.98918  0.16619  1.0000
  H   H1912     1.0  0.84106  0.71741  0.97845  1.0000
  H   H1913     1.0  0.53876  0.83976  0.99866  1.0000
  H   H1914     1.0  0.53190  0.84208  0.05950  1.0000
  H   H1915     1.0  0.00711  0.96024  0.00357  1.0000
  H   H1916     1.0  0.53512  0.88444  0.98387  1.0000
  H   H1917     1.0  0.92030  0.97230  0.09112  1.0000
  H   H1918     1.0  0.92635  0.52633  0.97196  1.0000
  C   C2398     1.0  0.61294  0.88427  0.21540  1.0000
  C   C2399     1.0  0.59335  0.92072  0.21487  1.0000
  S   S324      1.0  0.69955  0.98032  0.96612  1.0000
  H   H1919     1.0  0.98480  0.53214  0.24741  1.0000
  S   S325      1.0  0.66610  0.96524  0.27322  1.0000
  P   P81       1.0  0.88616  0.98932  0.36595  1.0000
  H   H1920     1.0  0.54731  0.92952  0.34033  1.0000
  H   H1921     1.0  0.99133  0.69643  0.46562  1.0000
  C   C2400     1.0  0.87310  0.94913  0.37392  1.0000
  H   H1922     1.0  0.88313  0.50856  0.26821  1.0000
  H   H1923     1.0  0.97370  0.76654  0.32213  1.0000
  Fe  Fe163     1.0  0.62170  0.95628  0.29113  1.0000
  S   S326      1.0  0.58546  0.90675  0.30246  1.0000
  C   C2401     1.0  0.00238  0.70440  0.44929  1.0000
  C   C2402     1.0  0.99083  0.93848  0.32819  1.0000
  H   H1924     1.0  0.94546  0.87712  0.26703  1.0000
  H   H1925     1.0  0.61360  0.58704  0.34373  1.0000
  C   C2403     1.0  0.86177  0.81923  0.24375  1.0000
  H   H1926     1.0  0.89088  0.53516  0.21905  1.0000
  C   C2404     1.0  0.79184  0.69369  0.30477  1.0000
  Fe  Fe164     1.0  0.62763  0.58388  0.42542  1.0000
  S   S327      1.0  0.64300  0.63549  0.42345  1.0000
  H   H1927     1.0  0.55505  0.96079  0.21710  1.0000
  H   H1928     1.0  0.84251  0.00236  0.39141  1.0000
  S   S328      1.0  0.66105  0.56919  0.41249  1.0000
  Fe  Fe165     1.0  0.85991  0.78653  0.45040  1.0000
  Fe  Fe166     1.0  0.89270  0.67019  0.28934  1.0000
  S   S329      1.0  0.92013  0.64774  0.30128  1.0000
  S   S330      1.0  0.85744  0.67421  0.31087  1.0000
  Fe  Fe167     1.0  0.91702  0.67925  0.24224  1.0000
  S   S331      1.0  0.94544  0.65607  0.24993  1.0000
  Fe  Fe168     1.0  0.90331  0.62013  0.26928  1.0000
  S   S332      1.0  0.89349  0.57000  0.27141  1.0000
  Fe  Fe169     1.0  0.96011  0.68549  0.28116  1.0000
  H   H1929     1.0  0.83861  0.80282  0.23700  1.0000
  S   S333      1.0  0.87323  0.64031  0.25840  1.0000
  S   S334      1.0  0.93420  0.71102  0.27242  1.0000
  H   H1930     1.0  0.96436  0.79628  0.29368  1.0000
  S   S335      1.0  0.84754  0.81292  0.42534  1.0000
  H   H1931     1.0  0.95214  0.50716  0.44200  1.0000
  Fe  Fe170     1.0  0.88064  0.75670  0.41482  1.0000
  S   S336      1.0  0.86851  0.77962  0.38693  1.0000
  S   S337      1.0  0.90451  0.72861  0.40787  1.0000
  Fe  Fe171     1.0  0.89272  0.82312  0.40812  1.0000
  S   S338      1.0  0.93254  0.86474  0.39003  1.0000
  Fe  Fe172     1.0  0.82461  0.76663  0.40692  1.0000
  S   S339      1.0  0.77628  0.74861  0.39131  1.0000
  S   S340      1.0  0.90690  0.80049  0.43510  1.0000
  H   H1932     1.0  0.99154  0.91894  0.37937  1.0000
  C   C2405     1.0  0.86895  0.68530  0.33884  1.0000
  C   C2406     1.0  0.85205  0.69566  0.35164  1.0000
  C   C2407     1.0  0.86220  0.70742  0.37334  1.0000
  C   C2408     1.0  0.88954  0.70926  0.38225  1.0000
  C   C2409     1.0  0.90573  0.69748  0.36998  1.0000
  C   C2410     1.0  0.89539  0.68544  0.34819  1.0000
  H   H1933     1.0  0.83171  0.69565  0.34449  1.0000
  H   H1934     1.0  0.84905  0.71552  0.38304  1.0000
  H   H1935     1.0  0.92683  0.69871  0.37691  1.0000
  H   H1936     1.0  0.90835  0.67718  0.33848  1.0000
  C   C2411     1.0  0.68106  0.66510  0.41442  1.0000
  C   C2412     1.0  0.68289  0.68992  0.40172  1.0000
  C   C2413     1.0  0.71216  0.71476  0.39471  1.0000
  C   C2414     1.0  0.74039  0.71595  0.40090  1.0000
  C   C2415     1.0  0.73893  0.69129  0.41386  1.0000
  C   C2416     1.0  0.70924  0.66570  0.42044  1.0000
  H   H1937     1.0  0.66142  0.68987  0.39712  1.0000
  H   H1938     1.0  0.71289  0.73349  0.38467  1.0000
  H   H1939     1.0  0.76055  0.69195  0.41881  1.0000
  H   H1940     1.0  0.70819  0.64687  0.43054  1.0000
  C   C2417     1.0  0.97340  0.96913  0.40586  1.0000
  C   C2418     1.0  0.99096  0.95879  0.39380  1.0000
  C   C2419     1.0  0.97801  0.92670  0.38906  1.0000
  C   C2420     1.0  0.94772  0.90464  0.39678  1.0000
  C   C2421     1.0  0.93031  0.91490  0.40916  1.0000
  C   C2422     1.0  0.94296  0.94713  0.41339  1.0000
  C   C2423     1.0  0.97729  0.81606  0.28252  1.0000
  C   C2424     1.0  0.81070  0.99428  0.32184  1.0000
  H   H1941     1.0  0.90703  0.89807  0.41528  1.0000
  H   H1942     1.0  0.88270  0.58879  0.43004  1.0000
  C   C2425     1.0  0.51956  0.91363  0.43590  1.0000
  H   H1943     1.0  0.85513  0.52202  0.31560  1.0000
  C   C2426     1.0  0.82783  0.53110  0.26627  1.0000
  C   C2427     1.0  0.85785  0.53390  0.26777  1.0000
  C   C2428     1.0  0.84406  0.90495  0.39933  1.0000
  C   C2429     1.0  0.00750  0.84007  0.28842  1.0000
  H   H1944     1.0  0.00333  0.56556  0.32762  1.0000
  H   H1945     1.0  0.82572  0.55192  0.26700  1.0000
  S   S341      1.0  0.61506  0.51586  0.35965  1.0000
  H   H1946     1.0  0.96786  0.71613  0.43725  1.0000
  C   C2430     1.0  0.54392  0.89084  0.30072  1.0000
  H   H1947     1.0  0.68215  0.95679  0.23031  1.0000
  C   C2431     1.0  0.91660  0.85826  0.23757  1.0000
  S   S342      1.0  0.64908  0.99596  0.31544  1.0000
  H   H1948     1.0  0.92913  0.95503  0.42256  1.0000
  C   C2432     1.0  0.53077  0.90879  0.29330  1.0000
  C   C2433     1.0  0.92928  0.52928  0.45845  1.0000
  H   H1949     1.0  0.80598  0.67086  0.42002  1.0000
  C   C2434     1.0  0.98926  0.71557  0.43336  1.0000
  H   H1950     1.0  0.54604  0.93301  0.28848  1.0000
  Fe  Fe173     1.0  0.57557  0.51570  0.43688  1.0000
  C   C2435     1.0  0.73640  0.59645  0.39313  1.0000
  C   C2436     1.0  0.99070  0.84097  0.43307  1.0000
  C   C2437     1.0  0.96555  0.56206  0.23920  1.0000
  C   C2438     1.0  0.52141  0.88819  0.42703  1.0000
  C   C2439     1.0  0.89523  0.60194  0.44485  1.0000
  H   H1951     1.0  0.89282  0.74075  0.30303  1.0000
  C   C2440     1.0  0.96389  0.81729  0.26199  1.0000
  H   H1952     1.0  0.78308  0.73659  0.34587  1.0000
  H   H1953     1.0  0.64443  0.61476  0.37774  1.0000
  C   C2441     1.0  0.73316  0.54186  0.32239  1.0000
  H   H1954     1.0  0.51438  0.95195  0.32904  1.0000
  C   C2442     1.0  0.60625  0.90512  0.22666  1.0000
  H   H1955     1.0  0.84693  0.86353  0.39226  1.0000
  H   H1956     1.0  0.63973  0.57614  0.31209  1.0000
  C   C2443     1.0  0.76282  0.55211  0.31279  1.0000
  C   C2444     1.0  0.85389  0.88723  0.38702  1.0000
  H   H1957     1.0  0.53357  0.84552  0.31325  1.0000
  H   H1958     1.0  0.98804  0.79280  0.39112  1.0000
  C   C2445     1.0  0.58230  0.79852  0.24821  1.0000
  H   H1959     1.0  0.78745  0.75788  0.44284  1.0000
  C   C2446     1.0  0.94617  0.88453  0.45497  1.0000
  H   H1960     1.0  0.57021  0.98627  0.36234  1.0000
  H   H1961     1.0  0.97851  0.59425  0.34378  1.0000
  C   C2447     1.0  0.90211  0.76262  0.31225  1.0000
  C   C2448     1.0  0.91745  0.76624  0.33287  1.0000
  C   C2449     1.0  0.92892  0.79406  0.34502  1.0000
  C   C2450     1.0  0.92519  0.81845  0.33650  1.0000
  C   C2451     1.0  0.91002  0.81518  0.31568  1.0000
  C   C2452     1.0  0.89822  0.78694  0.30368  1.0000
  P   P82       1.0  0.90313  0.84597  0.30594  1.0000
  C   C2453     1.0  0.86787  0.84159  0.31922  1.0000
  C   C2454     1.0  0.93749  0.88304  0.31333  1.0000
  C   C2455     1.0  0.96788  0.88688  0.31133  1.0000
  C   C2456     1.0  0.56645  0.94938  0.41464  1.0000
  C   C2457     1.0  0.92503  0.60576  0.44949  1.0000
  C   C2458     1.0  0.96075  0.93500  0.32994  1.0000
  C   C2459     1.0  0.93418  0.90749  0.32244  1.0000
  C   C2460     1.0  0.85480  0.82213  0.33815  1.0000
  C   C2461     1.0  0.82705  0.81819  0.34792  1.0000
  C   C2462     1.0  0.81215  0.83370  0.33894  1.0000
  C   C2463     1.0  0.82503  0.85322  0.32015  1.0000
  C   C2464     1.0  0.85275  0.85712  0.31028  1.0000
  C   C2465     1.0  0.89704  0.84296  0.27578  1.0000
  C   C2466     1.0  0.86695  0.82191  0.26702  1.0000
  H   H1962     1.0  0.92017  0.74736  0.33960  1.0000
  H   H1963     1.0  0.93989  0.79636  0.36135  1.0000
  H   H1964     1.0  0.93347  0.83958  0.34643  1.0000
  H   H1965     1.0  0.88584  0.78339  0.28785  1.0000
  H   H1966     1.0  0.97101  0.86828  0.30446  1.0000
  C   C2467     1.0  0.51569  0.86305  0.23616  1.0000
  C   C2468     1.0  0.93825  0.50554  0.23339  1.0000
  H   H1967     1.0  0.95792  0.95334  0.33758  1.0000
  H   H1968     1.0  0.91117  0.90524  0.32417  1.0000
  H   H1969     1.0  0.86572  0.80972  0.34537  1.0000
  H   H1970     1.0  0.81696  0.80290  0.36243  1.0000
  H   H1971     1.0  0.79053  0.83041  0.34651  1.0000
  H   H1972     1.0  0.81332  0.86507  0.31310  1.0000
  H   H1973     1.0  0.86227  0.87206  0.29558  1.0000
  H   H1974     1.0  0.84748  0.80733  0.27815  1.0000
  H   H1975     1.0  0.59270  0.00087  0.32394  1.0000
  C   C2469     1.0  0.75140  0.59423  0.33710  1.0000
  H   H1976     1.0  0.88128  0.88660  0.35909  1.0000
  Fe  Fe174     1.0  0.61802  0.53011  0.39594  1.0000
  S   S343      1.0  0.61089  0.98479  0.26688  1.0000
  C   C2470     1.0  0.87230  0.67627  0.45469  1.0000
  C   C2471     1.0  0.70232  0.61115  0.34831  1.0000
  C   C2472     1.0  0.78652  0.65008  0.41250  1.0000
  S   S344      1.0  0.58498  0.54674  0.40657  1.0000
  C   C2473     1.0  0.98221  0.82456  0.41268  1.0000
  H   H1977     1.0  0.97016  0.84240  0.23107  1.0000
  C   C2474     1.0  0.92194  0.86104  0.26086  1.0000
  C   C2475     1.0  0.65580  0.60972  0.36402  1.0000
  C   C2476     1.0  0.98071  0.84243  0.24718  1.0000
  C   C2477     1.0  0.74322  0.59676  0.41610  1.0000
  H   H1978     1.0  0.58895  0.93713  0.22392  1.0000
  C   C2478     1.0  0.88209  0.61498  0.45924  1.0000
  C   C2479     1.0  0.72742  0.56275  0.33462  1.0000
  P   P83       1.0  0.74352  0.62257  0.35048  1.0000
  C   C2480     1.0  0.54625  0.89344  0.41268  1.0000
  C   C2481     1.0  0.74145  0.74922  0.45226  1.0000
  H   H1979     1.0  0.58332  0.97302  0.40924  1.0000
  H   H1980     1.0  0.59318  0.78512  0.24285  1.0000
  H   H1981     1.0  0.75534  0.68467  0.36417  1.0000
  C   C2482     1.0  0.80805  0.51175  0.32377  1.0000
  H   H1982     1.0  0.80676  0.54089  0.38681  1.0000
  C   C2483     1.0  0.68763  0.61821  0.36578  1.0000
  H   H1983     1.0  0.79428  0.67051  0.37961  1.0000
  C   C2484     1.0  0.96490  0.53326  0.24057  1.0000
  C   C2485     1.0  0.99439  0.91444  0.31883  1.0000
  C   C2486     1.0  0.78147  0.71642  0.33737  1.0000
  C   C2487     1.0  0.00514  0.93345  0.22201  1.0000
  C   C2488     1.0  0.94060  0.51155  0.35180  1.0000
  C   C2489     1.0  0.76807  0.62368  0.42581  1.0000
  C   C2490     1.0  0.63849  0.59436  0.34476  1.0000
  H   H1984     1.0  0.78911  0.94418  0.31867  1.0000
  H   H1985     1.0  0.96394  0.71228  0.32316  1.0000
  H   H1986     1.0  0.97967  0.85445  0.43772  1.0000
  C   C2491     1.0  0.79485  0.71990  0.31604  1.0000
  C   C2492     1.0  0.82290  0.57168  0.41564  1.0000
  H   H1987     1.0  0.93574  0.87188  0.22594  1.0000
  C   C2493     1.0  0.77972  0.64984  0.38954  1.0000
  H   H1988     1.0  0.61163  0.90969  0.24447  1.0000
  H   H1989     1.0  0.69826  0.52185  0.40961  1.0000
  H   H1990     1.0  0.00743  0.51774  0.30201  1.0000
  S   S345      1.0  0.83478  0.73994  0.43288  1.0000
  H   H1991     1.0  0.81964  0.55313  0.42711  1.0000
  H   H1992     1.0  0.82930  0.89485  0.41407  1.0000
  H   H1993     1.0  0.94062  0.79836  0.25743  1.0000
  H   H1994     1.0  0.80192  0.69620  0.28812  1.0000
  C   C2494     1.0  0.91191  0.53472  0.22438  1.0000
  C   C2495     1.0  0.58327  0.83948  0.27119  1.0000
  C   C2496     1.0  0.80864  0.96530  0.32579  1.0000
  C   C2497     1.0  0.93848  0.56240  0.23168  1.0000
  H   H1995     1.0  0.58744  0.92809  0.39477  1.0000
  C   C2498     1.0  0.94739  0.00050  0.35948  1.0000
  H   H1996     1.0  0.89531  0.72670  0.45668  1.0000
  H   H1997     1.0  0.71244  0.59898  0.46257  1.0000
  C   C2499     1.0  0.92973  0.50464  0.44693  1.0000
  C   C2500     1.0  0.99543  0.80625  0.40661  1.0000
  C   C2501     1.0  0.78183  0.60353  0.32908  1.0000
  H   H1998     1.0  0.89704  0.94048  0.34661  1.0000
  C   C2502     1.0  0.55403  0.83282  0.26227  1.0000
  C   C2503     1.0  0.55300  0.79178  0.23931  1.0000
  H   H1999     1.0  0.97119  0.62579  0.27784  1.0000
  C   C2504     1.0  0.81560  0.56462  0.39282  1.0000
  C   C2505     1.0  0.75415  0.62322  0.37979  1.0000
  C   C2506     1.0  0.53904  0.80948  0.24581  1.0000
  H   H2000     1.0  0.81191  0.53401  0.31740  1.0000
  H   H2001     1.0  0.53434  0.51911  0.37140  1.0000
  C   C2507     1.0  0.97305  0.91419  0.45311  1.0000
  C   C2508     1.0  0.65322  0.58815  0.32698  1.0000
  H   H2002     1.0  0.81056  0.59084  0.30930  1.0000
  P   P84       1.0  0.99960  0.59761  0.24928  1.0000
  H   H2003     1.0  0.96299  0.62483  0.31876  1.0000
  H   H2004     1.0  0.52675  0.91111  0.23811  1.0000
  C   C2509     1.0  0.97899  0.61314  0.28851  1.0000
  H   H2005     1.0  0.59483  0.85782  0.28373  1.0000
  H   H2006     1.0  0.80720  0.74282  0.30818  1.0000
  H   H2007     1.0  0.93732  0.58381  0.23212  1.0000
  S   S346      1.0  0.61458  0.55499  0.45726  1.0000
  H   H2008     1.0  0.70411  0.55438  0.34170  1.0000
  C   C2510     1.0  0.83159  0.61887  0.38537  1.0000
  Fe  Fe175     1.0  0.64608  0.53857  0.44311  1.0000
  C   C2511     1.0  0.98723  0.76062  0.33352  1.0000
  C   C2512     1.0  0.52388  0.92021  0.34745  1.0000
  H   H2009     1.0  0.80107  0.62720  0.33189  1.0000
  C   C2513     1.0  0.87315  0.90026  0.36816  1.0000
  H   H2010     1.0  0.54328  0.84591  0.26835  1.0000
  C   C2514     1.0  0.78736  0.58279  0.31650  1.0000
  C   C2515     1.0  0.83456  0.60247  0.42355  1.0000
  H   H2011     1.0  0.76667  0.53623  0.30243  1.0000
  C   C2516     1.0  0.88653  0.83750  0.22905  1.0000
  H   H2012     1.0  0.81436  0.58280  0.36002  1.0000
  C   C2517     1.0  0.90019  0.52575  0.46504  1.0000
  C   C2518     1.0  0.85364  0.93578  0.39285  1.0000
  H   H2013     1.0  0.91218  0.78958  0.22412  1.0000
  C   C2519     1.0  0.59752  0.82251  0.26405  1.0000
  H   H2014     1.0  0.99217  0.73334  0.40001  1.0000
  C   C2520     1.0  0.91182  0.50631  0.22514  1.0000
  H   H2015     1.0  0.72873  0.57644  0.42655  1.0000
  H   H2016     1.0  0.54003  0.86934  0.23367  1.0000
  H   H2017     1.0  0.84825  0.65009  0.41357  1.0000
  C   C2521     1.0  0.54197  0.94428  0.42931  1.0000
  C   C2522     1.0  0.76417  0.66069  0.33702  1.0000
  H   H2018     1.0  0.82955  0.94090  0.34174  1.0000
  H   H2019     1.0  0.77321  0.64417  0.30550  1.0000
  C   C2523     1.0  0.00329  0.72547  0.41216  1.0000
  C   C2524     1.0  0.51223  0.89500  0.36244  1.0000
  C   C2525     1.0  0.99358  0.59742  0.27928  1.0000
  H   H2020     1.0  0.99600  0.69852  0.34751  1.0000
  H   H2021     1.0  0.77281  0.62410  0.44369  1.0000
  H   H2022     1.0  0.71674  0.57559  0.38586  1.0000
  C   C2526     1.0  0.97399  0.61236  0.31175  1.0000
  H   H2023     1.0  0.69631  0.59229  0.31454  1.0000
  C   C2527     1.0  0.76592  0.68692  0.34774  1.0000
  C   C2528     1.0  0.92284  0.51549  0.31443  1.0000
  H   H2024     1.0  0.71442  0.51784  0.31994  1.0000
  H   H2025     1.0  0.62024  0.82782  0.27096  1.0000
  C   C2529     1.0  0.92652  0.52342  0.33728  1.0000
  C   C2530     1.0  0.98285  0.59530  0.32583  1.0000
  Fe  Fe176     1.0  0.65717  0.99659  0.25060  1.0000
  H   H2026     1.0  0.98734  0.92049  0.43801  1.0000
  H   H2027     1.0  0.70064  0.63016  0.38083  1.0000
  C   C2531     1.0  0.83910  0.62610  0.40817  1.0000
  H   H2028     1.0  0.96484  0.82558  0.40179  1.0000
  C   C2532     1.0  0.68516  0.59690  0.32859  1.0000
  C   C2533     1.0  0.77597  0.66411  0.31497  1.0000
  H   H2029     1.0  0.91927  0.53948  0.34357  1.0000
  H   H2030     1.0  0.83490  0.63712  0.37361  1.0000
  H   H2031     1.0  0.52646  0.88448  0.36653  1.0000
  C   C2534     1.0  0.98174  0.72995  0.33406  1.0000
  H   H2032     1.0  0.89028  0.67681  0.44375  1.0000
  C   C2535     1.0  0.81988  0.58821  0.37770  1.0000
  H   H2033     1.0  0.60750  0.65878  0.44668  1.0000
  C   C2536     1.0  0.88237  0.93091  0.36139  1.0000
  H   H2034     1.0  0.91339  0.74101  0.23446  1.0000
  C   C2537     1.0  0.91575  0.74838  0.21706  1.0000
  H   H2035     1.0  0.91304  0.52575  0.30306  1.0000
  C   C2538     1.0  0.52361  0.85950  0.30726  1.0000
  H   H2036     1.0  0.54027  0.96426  0.43508  1.0000
  H   H2037     1.0  0.93494  0.59530  0.43852  1.0000
  H   H2038     1.0  0.84595  0.94913  0.40275  1.0000
  C   C2539     1.0  0.83161  0.96357  0.33892  1.0000
  H   H2039     1.0  0.79281  0.99566  0.31175  1.0000
  H   H2040     1.0  0.77602  0.56796  0.44561  1.0000
  P   P85       1.0  0.84394  0.61106  0.45317  1.0000
  C   C2540     1.0  0.00222  0.58015  0.29354  1.0000
  H   H2041     1.0  0.54133  0.77289  0.22722  1.0000
  C   C2541     1.0  0.85669  0.99092  0.34836  1.0000
  C   C2542     1.0  0.99693  0.57918  0.31672  1.0000
  H   H2042     1.0  0.73972  0.76231  0.43816  1.0000
  H   H2043     1.0  0.54764  0.87374  0.40590  1.0000
  C   C2543     1.0  0.76842  0.74659  0.45484  1.0000
  C   C2544     1.0  0.56871  0.92402  0.40642  1.0000
  H   H2044     1.0  0.94458  0.51865  0.36934  1.0000
  H   H2045     1.0  0.74114  0.52055  0.38819  1.0000
  C   C2545     1.0  0.00009  0.72227  0.34788  1.0000
  H   H2046     1.0  0.93949  0.86802  0.44122  1.0000
  H   H2047     1.0  0.94281  0.98522  0.37381  1.0000
  C   C2546     1.0  0.84633  0.64753  0.46145  1.0000
  C   C2547     1.0  0.61321  0.66897  0.46342  1.0000
  H   H2048     1.0  0.59725  0.93840  0.45641  1.0000
  C   C2548     1.0  0.00485  0.63290  0.23592  1.0000
  H   H2049     1.0  0.62387  0.87296  0.22437  1.0000
  H   H2050     1.0  0.65957  0.67450  0.46320  1.0000
  C   C2549     1.0  0.87534  0.70462  0.46206  1.0000
  C   C2550     1.0  0.78254  0.56220  0.46163  1.0000
  C   C2551     1.0  0.86021  0.50675  0.26693  1.0000
  C   C2552     1.0  0.00493  0.50402  0.28713  1.0000
  C   C2553     1.0  0.83254  0.50499  0.32275  1.0000
  C   C2554     1.0  0.70444  0.50400  0.41322  1.0000
  C   C2555     1.0  0.72855  0.50321  0.40118  1.0000
  S   S347      1.0  0.67896  0.53090  0.46519  1.0000
  H   H2051     1.0  0.69638  0.73782  0.46579  1.0000
  H   H2052     1.0  0.63274  0.70430  0.52351  1.0000
  H   H2053     1.0  0.64497  0.91838  0.57790  1.0000
  C   C2556     1.0  0.64193  0.96758  0.56040  1.0000
  C   C2557     1.0  0.64278  0.67791  0.47288  1.0000
  H   H2054     1.0  0.94108  0.97130  0.66245  1.0000
  C   C2558     1.0  0.69590  0.92781  0.53541  1.0000
  C   C2559     1.0  0.60995  0.94262  0.47222  1.0000
  Fe  Fe177     1.0  0.80328  0.86842  0.57122  1.0000
  S   S348      1.0  0.75784  0.86368  0.58385  1.0000
  S   S349      1.0  0.81196  0.87426  0.53373  1.0000
  Fe  Fe178     1.0  0.82967  0.87351  0.61900  1.0000
  S   S350      1.0  0.78597  0.86873  0.63458  1.0000
  S   S351      1.0  0.87089  0.88106  0.64090  1.0000
  Fe  Fe179     1.0  0.76053  0.83055  0.60908  1.0000
  S   S352      1.0  0.71935  0.78515  0.62171  1.0000
  Fe  Fe180     1.0  0.78843  0.90240  0.60799  1.0000
  S   S353      1.0  0.79624  0.95100  0.61533  1.0000
  S   S354      1.0  0.80413  0.83309  0.59489  1.0000
  S   S355      1.0  0.83385  0.90900  0.59370  1.0000
  H   H2055     1.0  0.65163  0.91668  0.50237  1.0000
  S   S356      1.0  0.79641  0.60536  0.58980  1.0000
  H   H2056     1.0  0.91795  0.58681  0.58053  1.0000
  Fe  Fe181     1.0  0.73556  0.63207  0.60450  1.0000
  S   S357      1.0  0.78273  0.66445  0.58950  1.0000
  S   S358      1.0  0.70094  0.64798  0.61390  1.0000
  Fe  Fe182     1.0  0.77196  0.62346  0.56722  1.0000
  S   S359      1.0  0.77965  0.63365  0.53004  1.0000
  Fe  Fe183     1.0  0.80155  0.64273  0.61383  1.0000
  S   S360      1.0  0.84459  0.67026  0.63583  1.0000
  S   S361      1.0  0.72338  0.59157  0.58101  1.0000
  S   S362      1.0  0.75490  0.61331  0.63064  1.0000
  C   C2560     1.0  0.59828  0.68559  0.49721  1.0000
  C   C2561     1.0  0.74863  0.60568  0.51329  1.0000
  C   C2562     1.0  0.73268  0.57411  0.51964  1.0000
  C   C2563     1.0  0.67366  0.93197  0.54759  1.0000
  H   H2057     1.0  0.78009  0.94981  0.66270  1.0000
  C   C2564     1.0  0.81937  0.54855  0.62747  1.0000
  C   C2565     1.0  0.65051  0.69101  0.49458  1.0000
  H   H2058     1.0  0.89320  0.82563  0.66448  1.0000
  C   C2566     1.0  0.95764  0.97333  0.64963  1.0000
  C   C2567     1.0  0.93186  0.80606  0.49792  1.0000
  C   C2568     1.0  0.69029  0.74571  0.56573  1.0000
  C   C2569     1.0  0.83385  0.61905  0.70251  1.0000
  C   C2570     1.0  0.81411  0.60330  0.68424  1.0000
  C   C2571     1.0  0.81711  0.61912  0.66394  1.0000
  C   C2572     1.0  0.83989  0.65081  0.66168  1.0000
  C   C2573     1.0  0.85948  0.66675  0.68004  1.0000
  H   H2059     1.0  0.79673  0.57859  0.68559  1.0000
  H   H2060     1.0  0.80247  0.60623  0.64978  1.0000
  H   H2061     1.0  0.87687  0.69131  0.67845  1.0000
  C   C2574     1.0  0.71704  0.74815  0.61948  1.0000
  C   C2575     1.0  0.73900  0.74334  0.60748  1.0000
  C   C2576     1.0  0.73495  0.71282  0.60576  1.0000
  C   C2577     1.0  0.70880  0.68715  0.61588  1.0000
  C   C2578     1.0  0.68701  0.69225  0.62763  1.0000
  C   C2579     1.0  0.69117  0.72243  0.62951  1.0000
  H   H2062     1.0  0.75883  0.76301  0.59945  1.0000
  H   H2063     1.0  0.75179  0.70905  0.59656  1.0000
  H   H2064     1.0  0.66663  0.67260  0.63533  1.0000
  H   H2065     1.0  0.67391  0.72574  0.63861  1.0000
  C   C2580     1.0  0.77119  0.96729  0.61492  1.0000
  C   C2581     1.0  0.73823  0.94893  0.61340  1.0000
  C   C2582     1.0  0.71951  0.96332  0.61445  1.0000
  C   C2583     1.0  0.79795  0.81600  0.69912  1.0000
  C   C2584     1.0  0.88850  0.89931  0.70766  1.0000
  C   C2585     1.0  0.74913  0.88202  0.69271  1.0000
  H   H2066     1.0  0.72722  0.92373  0.61187  1.0000
  H   H2067     1.0  0.69403  0.94906  0.61365  1.0000
  C   C2586     1.0  0.97058  0.56321  0.55790  1.0000
  H   H2068     1.0  0.78574  0.72727  0.69437  1.0000
  C   C2587     1.0  0.82025  0.84778  0.51987  1.0000
  C   C2588     1.0  0.83330  0.85489  0.49816  1.0000
  C   C2589     1.0  0.84223  0.83509  0.48747  1.0000
  C   C2590     1.0  0.83828  0.80830  0.49862  1.0000
  C   C2591     1.0  0.82395  0.80059  0.51976  1.0000
  C   C2592     1.0  0.81490  0.82020  0.53044  1.0000
  H   H2069     1.0  0.83713  0.87606  0.48981  1.0000
  H   H2070     1.0  0.98642  0.65271  0.70733  1.0000
  H   H2071     1.0  0.82055  0.77968  0.52807  1.0000
  H   H2072     1.0  0.80434  0.81423  0.54700  1.0000
  Fe  Fe184     1.0  0.74851  0.57639  0.60547  1.0000
  H   H2073     1.0  0.92025  0.94462  0.62639  1.0000
  C   C2593     1.0  0.69217  0.88939  0.56268  1.0000
  H   H2074     1.0  0.88266  0.75890  0.66580  1.0000
  H   H2075     1.0  0.91799  0.52481  0.63185  1.0000
  H   H2076     1.0  0.89668  0.54475  0.54036  1.0000
  H   H2077     1.0  0.97094  0.54119  0.61108  1.0000
  H   H2078     1.0  0.79167  0.72741  0.47477  1.0000
  C   C2594     1.0  0.92221  0.60264  0.61468  1.0000
  C   C2595     1.0  0.99886  0.97697  0.61560  1.0000
  C   C2596     1.0  0.89064  0.89237  0.68498  1.0000
  C   C2597     1.0  0.87017  0.89321  0.66875  1.0000
  C   C2598     1.0  0.84894  0.90296  0.67511  1.0000
  H   H2079     1.0  0.73502  0.52496  0.46815  1.0000
  C   C2599     1.0  0.64362  0.95423  0.51294  1.0000
  H   H2080     1.0  0.90783  0.88587  0.68008  1.0000
  H   H2081     1.0  0.83439  0.90559  0.66265  1.0000
  H   H2082     1.0  0.56024  0.98217  0.51053  1.0000
  C   C2600     1.0  0.79441  0.72613  0.64102  1.0000
  C   C2601     1.0  0.78642  0.74787  0.64908  1.0000
  C   C2602     1.0  0.80434  0.77936  0.64280  1.0000
  C   C2603     1.0  0.83023  0.78919  0.62843  1.0000
  C   C2604     1.0  0.83790  0.76736  0.61963  1.0000
  C   C2605     1.0  0.81972  0.73573  0.62614  1.0000
  P   P86       1.0  0.86478  0.77781  0.59603  1.0000
  C   C2606     1.0  0.84031  0.75346  0.57319  1.0000
  C   C2607     1.0  0.88125  0.81891  0.58946  1.0000
  C   C2608     1.0  0.87207  0.82845  0.56999  1.0000
  C   C2609     1.0  0.88299  0.86025  0.56599  1.0000
  C   C2610     1.0  0.90350  0.88273  0.58135  1.0000
  C   C2611     1.0  0.91399  0.87354  0.60029  1.0000
  C   C2612     1.0  0.90285  0.84172  0.60438  1.0000
  C   C2613     1.0  0.85025  0.73698  0.55933  1.0000
  C   C2614     1.0  0.82990  0.71646  0.54284  1.0000
  C   C2615     1.0  0.79956  0.71218  0.54013  1.0000
  C   C2616     1.0  0.78959  0.72862  0.55377  1.0000
  C   C2617     1.0  0.80993  0.74931  0.57014  1.0000
  C   C2618     1.0  0.89773  0.77146  0.60053  1.0000
  C   C2619     1.0  0.89604  0.74917  0.61607  1.0000
  C   C2620     1.0  0.92104  0.74320  0.61815  1.0000
  C   C2621     1.0  0.94823  0.75998  0.60511  1.0000
  C   C2622     1.0  0.95024  0.78234  0.58968  1.0000
  C   C2623     1.0  0.92506  0.78799  0.58729  1.0000
  H   H2083     1.0  0.77979  0.70145  0.64518  1.0000
  H   H2084     1.0  0.76551  0.74006  0.65935  1.0000
  H   H2085     1.0  0.79761  0.79609  0.64852  1.0000
  H   H2086     1.0  0.84298  0.81359  0.62342  1.0000
  H   H2087     1.0  0.82381  0.71802  0.61872  1.0000
  H   H2088     1.0  0.85587  0.81132  0.55822  1.0000
  H   H2089     1.0  0.87462  0.86735  0.55141  1.0000
  H   H2090     1.0  0.91049  0.90711  0.57884  1.0000
  H   H2091     1.0  0.92931  0.89082  0.61255  1.0000
  H   H2092     1.0  0.91006  0.83484  0.61963  1.0000
  H   H2093     1.0  0.87324  0.73918  0.56152  1.0000
  H   H2094     1.0  0.83716  0.70302  0.53258  1.0000
  H   H2095     1.0  0.78359  0.69558  0.52779  1.0000
  H   H2096     1.0  0.76611  0.72535  0.55172  1.0000
  H   H2097     1.0  0.80180  0.76181  0.58061  1.0000
  H   H2098     1.0  0.87546  0.73601  0.62647  1.0000
  H   H2099     1.0  0.91910  0.72542  0.62989  1.0000
  H   H2100     1.0  0.96787  0.75584  0.60695  1.0000
  H   H2101     1.0  0.97153  0.79547  0.57976  1.0000
  H   H2102     1.0  0.92685  0.80506  0.57497  1.0000
  C   C2624     1.0  0.95229  0.99289  0.70475  1.0000
  C   C2625     1.0  0.78519  0.99996  0.61712  1.0000
  H   H2103     1.0  0.66236  0.59050  0.50267  1.0000
  P   P87       1.0  0.68840  0.70120  0.50698  1.0000
  C   C2626     1.0  0.68637  0.66599  0.51803  1.0000
  C   C2627     1.0  0.71872  0.71727  0.48571  1.0000
  C   C2628     1.0  0.74581  0.71453  0.48808  1.0000
  C   C2629     1.0  0.98795  0.58203  0.53977  1.0000
  H   H2104     1.0  0.87618  0.98910  0.63863  1.0000
  C   C2630     1.0  0.85936  0.80606  0.69142  1.0000
  H   H2105     1.0  0.85297  0.84110  0.47099  1.0000
  C   C2631     1.0  0.69922  0.66592  0.53926  1.0000
  C   C2632     1.0  0.69814  0.63874  0.54734  1.0000
  C   C2633     1.0  0.68471  0.61154  0.53423  1.0000
  C   C2634     1.0  0.67235  0.61151  0.51296  1.0000
  C   C2635     1.0  0.67327  0.63862  0.50483  1.0000
  C   C2636     1.0  0.69894  0.73075  0.52859  1.0000
  C   C2637     1.0  0.71368  0.77675  0.56166  1.0000
  C   C2638     1.0  0.72998  0.78491  0.54124  1.0000
  C   C2639     1.0  0.72268  0.76207  0.52473  1.0000
  C   C2640     1.0  0.91953  0.54657  0.62686  1.0000
  C   C2641     1.0  0.93954  0.57342  0.52212  1.0000
  H   H2106     1.0  0.74801  0.70147  0.50197  1.0000
  H   H2107     1.0  0.85624  0.51506  0.60377  1.0000
  C   C2642     1.0  0.71798  0.59201  0.47847  1.0000
  H   H2108     1.0  0.89951  0.54452  0.47395  1.0000
  H   H2109     1.0  0.83945  0.79626  0.68005  1.0000
  H   H2110     1.0  0.71021  0.68665  0.54971  1.0000
  H   H2111     1.0  0.70776  0.63885  0.56385  1.0000
  H   H2112     1.0  0.66404  0.63813  0.48814  1.0000
  H   H2113     1.0  0.74829  0.80902  0.53821  1.0000
  H   H2114     1.0  0.73571  0.76917  0.50908  1.0000
  C   C2643     1.0  0.61231  0.96589  0.48685  1.0000
  H   H2115     1.0  0.97582  0.81543  0.68142  1.0000
  C   C2644     1.0  0.63794  0.99497  0.59305  1.0000
  C   C2645     1.0  0.98723  0.72226  0.63352  1.0000
  C   C2646     1.0  0.93857  0.68240  0.65053  1.0000
  C   C2647     1.0  0.87882  0.74749  0.70105  1.0000
  C   C2648     1.0  0.96137  0.92878  0.48932  1.0000
  C   C2649     1.0  0.93523  0.89838  0.49159  1.0000
  P   P88       1.0  0.97131  0.95729  0.51141  1.0000
  H   H2116     1.0  0.72251  0.98778  0.56665  1.0000
  H   H2117     1.0  0.63061  0.98985  0.51819  1.0000
  C   C2650     1.0  0.76629  0.53096  0.49573  1.0000
  H   H2118     1.0  0.56796  0.66549  0.46823  1.0000
  C   C2651     1.0  0.98296  0.93035  0.54897  1.0000
  H   H2119     1.0  0.99646  0.51129  0.62240  1.0000
  C   C2652     1.0  0.99308  0.74160  0.65222  1.0000
  H   H2120     1.0  0.99205  0.59553  0.61011  1.0000
  C   C2653     1.0  0.92899  0.63537  0.48301  1.0000
  C   C2654     1.0  0.93659  0.95349  0.52491  1.0000
  C   C2655     1.0  0.90838  0.94265  0.51266  1.0000
  C   C2656     1.0  0.88193  0.94115  0.52281  1.0000
  C   C2657     1.0  0.88345  0.95070  0.54514  1.0000
  C   C2658     1.0  0.91167  0.96228  0.55730  1.0000
  C   C2659     1.0  0.93831  0.96403  0.54714  1.0000
  C   C2660     1.0  0.98594  0.84669  0.48983  1.0000
  C   C2661     1.0  0.74096  0.61468  0.49283  1.0000
  P   P89       1.0  0.91566  0.52612  0.58244  1.0000
  H   H2121     1.0  0.92051  0.89163  0.50650  1.0000
  H   H2122     1.0  0.73490  0.85687  0.69037  1.0000
  C   C2662     1.0  0.95985  0.69282  0.63255  1.0000
  H   H2123     1.0  0.95769  0.91803  0.55177  1.0000
  C   C2663     1.0  0.97165  0.73150  0.67025  1.0000
  H   H2124     1.0  0.74733  0.89277  0.65764  1.0000
  H   H2125     1.0  0.69876  0.52691  0.50976  1.0000
  H   H2126     1.0  0.91687  0.65996  0.64961  1.0000
  H   H2127     1.0  0.86002  0.93234  0.51343  1.0000
  H   H2128     1.0  0.00205  0.95895  0.46864  1.0000
  H   H2129     1.0  0.86269  0.94922  0.55292  1.0000
  H   H2130     1.0  0.59254  0.97367  0.60931  1.0000
  H   H2131     1.0  0.82966  0.91661  0.70249  1.0000
  C   C2664     1.0  0.96625  0.96013  0.61199  1.0000
  H   H2132     1.0  0.98591  0.60115  0.50757  1.0000
  C   C2665     1.0  0.84055  0.57888  0.63492  1.0000
  C   C2666     1.0  0.85774  0.58328  0.65479  1.0000
  C   C2667     1.0  0.85421  0.55742  0.66703  1.0000
  C   C2668     1.0  0.89426  0.75572  0.68033  1.0000
  H   H2133     1.0  0.99531  0.87950  0.62237  1.0000
  H   H2134     1.0  0.84279  0.59896  0.62573  1.0000
  H   H2135     1.0  0.87310  0.60679  0.66105  1.0000
  H   H2136     1.0  0.86803  0.56140  0.68219  1.0000
  C   C2669     1.0  0.99069  0.99661  0.50016  1.0000
  C   C2670     1.0  0.00726  0.79674  0.68695  1.0000
  C   C2671     1.0  0.53796  0.97357  0.50170  1.0000
  C   C2672     1.0  0.98210  0.00253  0.47885  1.0000
  C   C2673     1.0  0.62415  0.92496  0.47796  1.0000
  C   C2674     1.0  0.95650  0.85356  0.52012  1.0000
  H   H2137     1.0  0.62233  0.90691  0.46662  1.0000
  C   C2675     1.0  0.67019  0.89350  0.57497  1.0000
  C   C2676     1.0  0.97511  0.60451  0.70380  1.0000
  H   H2138     1.0  0.67794  0.73944  0.58172  1.0000
  S   S363      1.0  0.85341  0.78539  0.48774  1.0000
  C   C2677     1.0  0.85241  0.70455  0.47606  1.0000
  C   C2678     1.0  0.70314  0.56029  0.48441  1.0000
  H   H2139     1.0  0.71295  0.74769  0.68724  1.0000
  H   H2140     1.0  0.77962  0.67448  0.69526  1.0000
  C   C2679     1.0  0.99808  0.61214  0.62374  1.0000
  C   C2680     1.0  0.71675  0.73487  0.46775  1.0000
  H   H2141     1.0  0.94832  0.96920  0.70364  1.0000
  H   H2142     1.0  0.84443  0.58517  0.49807  1.0000
  H   H2143     1.0  0.78522  0.84408  0.67874  1.0000
  C   C2681     1.0  0.74694  0.79626  0.68111  1.0000
  C   C2682     1.0  0.00112  0.60381  0.64578  1.0000
  H   H2144     1.0  0.72260  0.90379  0.53369  1.0000
  H   H2145     1.0  0.80332  0.62603  0.48139  1.0000
  H   H2146     1.0  0.91283  0.97010  0.57452  1.0000
  C   C2683     1.0  0.00356  0.64225  0.61907  1.0000
  H   H2147     1.0  0.92237  0.62394  0.60996  1.0000
  C   C2684     1.0  0.96501  0.50732  0.50441  1.0000
  H   H2148     1.0  0.68416  0.59055  0.54043  1.0000
  C   C2685     1.0  0.98422  0.86486  0.50742  1.0000
  C   C2686     1.0  0.92141  0.56563  0.71417  1.0000
  H   H2149     1.0  0.80514  0.54510  0.61251  1.0000
  H   H2150     1.0  0.99087  0.82741  0.62030  1.0000
  H   H2151     1.0  0.95515  0.86754  0.53363  1.0000
  C   C2687     1.0  0.99622  0.95120  0.53076  1.0000
  C   C2688     1.0  0.92247  0.56793  0.64347  1.0000
  C   C2689     1.0  0.92209  0.55476  0.54037  1.0000
  C   C2690     1.0  0.73365  0.99606  0.61671  1.0000
  H   H2152     1.0  0.92720  0.61295  0.65027  1.0000
  H   H2153     1.0  0.66508  0.69872  0.55294  1.0000
  H   H2154     1.0  0.00196  0.64884  0.60190  1.0000
  H   H2155     1.0  0.73854  0.56702  0.53537  1.0000
  H   H2156     1.0  0.91142  0.78338  0.49414  1.0000
  H   H2157     1.0  0.90845  0.81583  0.52467  1.0000
  H   H2158     1.0  0.90737  0.85297  0.47607  1.0000
  H   H2159     1.0  0.71926  0.79443  0.57442  1.0000
  H   H2160     1.0  0.94196  0.64805  0.49790  1.0000
  C   C2691     1.0  0.85640  0.65096  0.70049  1.0000
  P   P90       1.0  0.66528  0.96243  0.53919  1.0000
  C   C2692     1.0  0.94564  0.95817  0.62901  1.0000
  C   C2693     1.0  0.93751  0.54925  0.55833  1.0000
  C   C2694     1.0  0.95115  0.57301  0.70590  1.0000
  H   H2161     1.0  0.96016  0.80215  0.47220  1.0000
  H   H2162     1.0  0.98334  0.70225  0.70532  1.0000
  C   C2695     1.0  0.79311  0.71996  0.70926  1.0000
  C   C2696     1.0  0.71019  0.55144  0.50512  1.0000
  H   H2163     1.0  0.70691  0.94171  0.52048  1.0000
  C   C2697     1.0  0.77737  0.82098  0.68567  1.0000
  C   C2698     1.0  0.94463  0.70151  0.66944  1.0000
  C   C2699     1.0  0.77496  0.93457  0.67718  1.0000
  C   C2700     1.0  0.92444  0.59625  0.63736  1.0000
  C   C2701     1.0  0.77061  0.72922  0.47270  1.0000
  C   C2702     1.0  0.73669  0.76675  0.69068  1.0000
  C   C2703     1.0  0.64091  0.93068  0.49826  1.0000
  H   H2164     1.0  0.75275  0.63914  0.48803  1.0000
  C   C2704     1.0  0.96850  0.62833  0.70933  1.0000
  H   H2165     1.0  0.95503  0.67839  0.61771  1.0000
  C   C2705     1.0  0.68309  0.72273  0.54937  1.0000
  C   C2706     1.0  0.78688  0.94719  0.69856  1.0000
  H   H2166     1.0  0.85553  0.74446  0.70243  1.0000
  C   C2707     1.0  0.75625  0.90215  0.67427  1.0000
  H   H2167     1.0  0.85461  0.72649  0.48169  1.0000
  C   C2708     1.0  0.84667  0.90978  0.69773  1.0000
  H   H2168     1.0  0.84129  0.96549  0.67131  1.0000
  C   C2709     1.0  0.60605  0.97227  0.59539  1.0000
  C   C2710     1.0  0.59182  0.94757  0.57997  1.0000
  C   C2711     1.0  0.60970  0.94518  0.56254  1.0000
  H   H2169     1.0  0.72830  0.50926  0.57357  1.0000
  C   C2712     1.0  0.89925  0.63175  0.47838  1.0000
  H   H2170     1.0  0.56710  0.92997  0.58179  1.0000
  H   H2171     1.0  0.59860  0.92553  0.55101  1.0000
  H   H2172     1.0  0.54355  0.94018  0.48208  1.0000
  C   C2713     1.0  0.70330  0.99773  0.53674  1.0000
  C   C2714     1.0  0.79713  0.54804  0.50408  1.0000
  C   C2715     1.0  0.75909  0.53783  0.47443  1.0000
  C   C2716     1.0  0.59094  0.67275  0.47557  1.0000
  C   C2717     1.0  0.99048  0.99058  0.65335  1.0000
  H   H2173     1.0  0.82149  0.83553  0.70236  1.0000
  S   S364      1.0  0.73566  0.52930  0.62097  1.0000
  C   C2718     1.0  0.66103  0.91478  0.56755  1.0000
  H   H2174     1.0  0.99226  0.90951  0.57800  1.0000
  C   C2719     1.0  0.95953  0.81705  0.48533  1.0000
  C   C2720     1.0  0.91891  0.55349  0.60398  1.0000
  C   C2721     1.0  0.93360  0.50341  0.59172  1.0000
  C   C2722     1.0  0.82086  0.57200  0.49111  1.0000
  H   H2175     1.0  0.90674  0.93559  0.49521  1.0000
  C   C2723     1.0  0.82638  0.67614  0.48263  1.0000
  C   C2724     1.0  0.62891  0.97157  0.50714  1.0000
  C   C2725     1.0  0.84874  0.98952  0.66675  1.0000
  H   H2176     1.0  0.93604  0.76550  0.66215  1.0000
  H   H2177     1.0  0.99613  0.58013  0.64910  1.0000
  H   H2178     1.0  0.96028  0.97396  0.55652  1.0000
  C   C2726     1.0  0.91958  0.58142  0.59801  1.0000
  H   H2179     1.0  0.92328  0.56253  0.66108  1.0000
  H   H2180     1.0  0.80866  0.67620  0.49349  1.0000
  H   H2181     1.0  0.97851  0.53095  0.51096  1.0000
  H   H2182     1.0  0.69974  0.87339  0.56873  1.0000
  H   H2183     1.0  0.58094  0.68832  0.50671  1.0000
  H   H2184     1.0  0.80246  0.54310  0.52083  1.0000
  H   H2185     1.0  0.88957  0.64194  0.48978  1.0000
  C   C2727     1.0  0.92766  0.87637  0.47439  1.0000
  C   C2728     1.0  0.62788  0.69462  0.50672  1.0000
  C   C2729     1.0  0.65580  0.99272  0.57560  1.0000
  C   C2730     1.0  0.83245  0.52688  0.65989  1.0000
  C   C2731     1.0  0.81536  0.52265  0.63988  1.0000
  C   C2732     1.0  0.97245  0.58709  0.52186  1.0000
  C   C2733     1.0  0.93024  0.82432  0.51523  1.0000
  C   C2734     1.0  0.78818  0.78618  0.70828  1.0000
  H   H2186     1.0  0.95522  0.55415  0.70108  1.0000
  P   P91       1.0  0.81063  0.98921  0.70184  1.0000
  H   H2187     1.0  0.82018  0.53610  0.70673  1.0000
  C   C2735     1.0  0.51878  0.98634  0.50645  1.0000
  H   H2188     1.0  0.74830  0.73912  0.71246  1.0000
  C   C2736     1.0  0.81379  0.57920  0.46970  1.0000
  H   H2189     1.0  0.93974  0.84803  0.69021  1.0000
  P   P92       1.0  0.97691  0.75717  0.69360  1.0000
  H   H2190     1.0  0.96445  0.98361  0.46862  1.0000
  C   C2737     1.0  0.93916  0.75476  0.69712  1.0000
  C   C2738     1.0  0.96067  0.51717  0.60555  1.0000
  H   H2191     1.0  0.95703  0.94832  0.59611  1.0000
  C   C2739     1.0  0.75700  0.76184  0.70462  1.0000
  H   H2192     1.0  0.92760  0.57698  0.50798  1.0000
  C   C2740     1.0  0.92434  0.75932  0.67834  1.0000
  C   C2741     1.0  0.70499  0.90651  0.54289  1.0000
  H   H2193     1.0  0.66091  0.88080  0.59063  1.0000
  C   C2742     1.0  0.82339  0.64769  0.47555  1.0000
  C   C2743     1.0  0.88991  0.82235  0.68254  1.0000
  H   H2194     1.0  0.92778  0.69327  0.68317  1.0000
  H   H2195     1.0  0.73124  0.79998  0.67021  1.0000
  C   C2744     1.0  0.91604  0.83501  0.69699  1.0000
  H   H2196     1.0  0.98318  0.55964  0.57150  1.0000
  C   C2745     1.0  0.00233  0.92510  0.56364  1.0000
  C   C2746     1.0  0.99978  0.81985  0.68077  1.0000
  H   H2197     1.0  0.60169  0.97997  0.48241  1.0000
  C   C2747     1.0  0.98099  0.93611  0.47038  1.0000
  C   C2748     1.0  0.94189  0.62243  0.46854  1.0000
  C   C2749     1.0  0.52860  0.95007  0.48543  1.0000
  H   H2198     1.0  0.00365  0.73065  0.61950  1.0000
  H   H2199     1.0  0.74775  0.51292  0.50601  1.0000
  H   H2200     1.0  0.96481  0.62489  0.47214  1.0000
  C   C2750     1.0  0.86626  0.90776  0.71412  1.0000
  H   H2201     1.0  0.52127  0.87618  0.47270  1.0000
  H   H2202     1.0  0.00613  0.50616  0.49430  1.0000
  C   C2751     1.0  0.76007  0.89442  0.71419  1.0000
  H   H2203     1.0  0.00411  0.88764  0.51148  1.0000
  H   H2204     1.0  0.92006  0.50332  0.51161  1.0000
  C   C2752     1.0  0.85464  0.80260  0.71480  1.0000
  H   H2205     1.0  0.87141  0.66349  0.71458  1.0000
  C   C2753     1.0  0.78998  0.69011  0.70956  1.0000
  C   C2754     1.0  0.82934  0.52336  0.71601  1.0000
  C   C2755     1.0  0.86888  0.00299  0.64831  1.0000
  S   S365      1.0  0.96406  0.56435  0.46617  1.0000
  H   H2206     1.0  0.98130  0.82182  0.76313  1.0000
  C   C2756     1.0  0.77157  0.97735  0.94550  1.0000
  H   H2207     1.0  0.95878  0.99080  0.83716  1.0000
  H   H2208     1.0  0.98139  0.54296  0.96052  1.0000
  H   H2209     1.0  0.88130  0.73648  0.73595  1.0000
  C   C2757     1.0  0.91934  0.50661  0.86875  1.0000
  C   C2758     1.0  0.63388  0.98466  0.90517  1.0000
  C   C2759     1.0  0.78862  0.51415  0.78757  1.0000
  H   H2210     1.0  0.82590  0.66635  0.82694  1.0000
  H   H2211     1.0  0.91009  0.97850  0.72424  1.0000
  H   H2212     1.0  0.69997  0.59733  0.92453  1.0000
  H   H2213     1.0  0.87544  0.97858  0.76182  1.0000
  Fe  Fe185     1.0  0.92588  0.93224  0.81383  1.0000
  S   S366      1.0  0.97534  0.94693  0.80315  1.0000
  S   S367      1.0  0.91346  0.92738  0.85077  1.0000
  S   S368      1.0  0.90310  0.89112  0.79018  1.0000
  S   S369      1.0  0.92023  0.96494  0.79040  1.0000
  Fe  Fe186     1.0  0.86343  0.61951  0.80799  1.0000
  S   S370      1.0  0.90988  0.66476  0.80926  1.0000
  S   S371      1.0  0.84681  0.59338  0.84114  1.0000
  Fe  Fe187     1.0  0.86059  0.62358  0.75684  1.0000
  C   C2760     1.0  0.93381  0.96174  0.88987  1.0000
  C   C2761     1.0  0.00208  0.92431  0.87691  1.0000
  Fe  Fe188     1.0  0.92287  0.64493  0.77974  1.0000
  H   H2214     1.0  0.52764  0.52580  0.88663  1.0000
  Fe  Fe189     1.0  0.88920  0.68354  0.78388  1.0000
  H   H2215     1.0  0.85451  0.92242  0.87599  1.0000
  S   S372      1.0  0.87783  0.59902  0.77990  1.0000
  S   S373      1.0  0.84143  0.63938  0.78492  1.0000
  C   C2762     1.0  0.99805  0.70842  0.73988  1.0000
  C   C2763     1.0  0.94665  0.83292  0.77567  1.0000
  C   C2764     1.0  0.95802  0.81249  0.77028  1.0000
  C   C2765     1.0  0.93934  0.77987  0.77410  1.0000
  C   C2766     1.0  0.90885  0.76733  0.78293  1.0000
  C   C2767     1.0  0.95407  0.55458  0.91056  1.0000
  P   P93       1.0  0.96651  0.56686  0.88177  1.0000
  H   H2216     1.0  0.94841  0.76444  0.77021  1.0000
  H   H2217     1.0  0.87852  0.58110  0.90198  1.0000
  H   H2218     1.0  0.75756  0.63020  0.92947  1.0000
  H   H2219     1.0  0.87398  0.77828  0.79506  1.0000
  H   H2220     1.0  0.87695  0.67965  0.90166  1.0000
  H   H2221     1.0  0.79479  0.63276  0.85851  1.0000
  H   H2222     1.0  0.75432  0.87885  0.72855  1.0000
  C   C2768     1.0  0.74476  0.51499  0.85397  1.0000
  C   C2769     1.0  0.76897  0.52048  0.86909  1.0000
  C   C2770     1.0  0.80019  0.54400  0.86457  1.0000
  C   C2771     1.0  0.80744  0.56288  0.84526  1.0000
  C   C2772     1.0  0.78328  0.55731  0.83003  1.0000
  C   C2773     1.0  0.75207  0.53313  0.83424  1.0000
  C   C2774     1.0  0.84349  0.51571  0.82256  1.0000
  H   H2223     1.0  0.81877  0.54742  0.87607  1.0000
  H   H2224     1.0  0.78859  0.57175  0.81511  1.0000
  H   H2225     1.0  0.73345  0.52890  0.82241  1.0000
  H   H2226     1.0  0.90763  0.71306  0.86959  1.0000
  C   C2775     1.0  0.81366  0.55578  0.93512  1.0000
  C   C2776     1.0  0.86650  0.99309  0.75498  1.0000
  C   C2777     1.0  0.88098  0.81501  0.72920  1.0000
  C   C2778     1.0  0.93621  0.96214  0.86629  1.0000
  C   C2779     1.0  0.80710  0.74056  0.72754  1.0000
  Fe  Fe190     1.0  0.90304  0.92553  0.76532  1.0000
  S   S374      1.0  0.71826  0.51262  0.92269  1.0000
  H   H2227     1.0  0.82710  0.52082  0.83118  1.0000
  H   H2228     1.0  0.81375  0.52800  0.79050  1.0000
  H   H2229     1.0  0.95876  0.58810  0.83717  1.0000
  S   S375      1.0  0.97041  0.87387  0.77021  1.0000
  C   C2780     1.0  0.61295  0.55084  0.94876  1.0000
  C   C2781     1.0  0.94850  0.53308  0.86328  1.0000
  C   C2782     1.0  0.79385  0.99901  0.93051  1.0000
  C   C2783     1.0  0.94914  0.58272  0.77100  1.0000
  C   C2784     1.0  0.93058  0.99807  0.71651  1.0000
  S   S376      1.0  0.88352  0.72656  0.78747  1.0000
  C   C2785     1.0  0.83547  0.70074  0.96485  1.0000
  C   C2786     1.0  0.55569  0.51797  0.94833  1.0000
  C   C2787     1.0  0.93873  0.62087  0.71742  1.0000
  C   C2788     1.0  0.97362  0.61236  0.77784  1.0000
  H   H2230     1.0  0.87067  0.89187  0.91861  1.0000
  C   C2789     1.0  0.88198  0.92418  0.94618  1.0000
  H   H2231     1.0  0.90716  0.83544  0.78902  1.0000
  S   S377      1.0  0.83032  0.59764  0.72713  1.0000
  S   S378      1.0  0.96983  0.64626  0.77936  1.0000
  H   H2232     1.0  0.98520  0.55363  0.83780  1.0000
  C   C2790     1.0  0.95483  0.55729  0.76883  1.0000
  C   C2791     1.0  0.94766  0.61123  0.88880  1.0000
  C   C2792     1.0  0.87589  0.53709  0.82390  1.0000
  P   P94       1.0  0.81508  0.78059  0.72598  1.0000
  C   C2793     1.0  0.89750  0.78770  0.78817  1.0000
  C   C2794     1.0  0.59287  0.93182  0.89602  1.0000
  H   H2233     1.0  0.63602  0.99898  0.93948  1.0000
  C   C2795     1.0  0.80478  0.57770  0.92900  1.0000
  H   H2234     1.0  0.79938  0.53734  0.94698  1.0000
  Fe  Fe191     1.0  0.96820  0.97725  0.77805  1.0000
  H   H2235     1.0  0.93627  0.53476  0.76289  1.0000
  H   H2236     1.0  0.86343  0.62002  0.89112  1.0000
  H   H2237     1.0  0.78749  0.55270  0.77111  1.0000
  C   C2796     1.0  0.86771  0.98910  0.84924  1.0000
  H   H2238     1.0  0.86934  0.95794  0.90903  1.0000
  C   C2797     1.0  0.00545  0.75553  0.75813  1.0000
  H   H2239     1.0  0.88216  0.70656  0.83235  1.0000
  H   H2240     1.0  0.63366  0.57399  0.94981  1.0000
  H   H2241     1.0  0.67794  0.55671  0.89484  1.0000
  P   P95       1.0  0.58326  0.94497  0.96287  1.0000
  C   C2798     1.0  0.81932  0.64997  0.86134  1.0000
  C   C2799     1.0  0.82108  0.65761  0.92961  1.0000
  H   H2242     1.0  0.92613  0.57951  0.76696  1.0000
  C   C2800     1.0  0.91156  0.83128  0.72028  1.0000
  H   H2243     1.0  0.99886  0.55991  0.92178  1.0000
  C   C2801     1.0  0.84843  0.51427  0.75122  1.0000
  C   C2802     1.0  0.83689  0.66908  0.84331  1.0000
  H   H2244     1.0  0.63163  0.92686  0.96054  1.0000
  H   H2245     1.0  0.93351  0.74154  0.73249  1.0000
  H   H2246     1.0  0.99690  0.78657  0.73765  1.0000
  C   C2803     1.0  0.75635  0.58523  0.88543  1.0000
  H   H2247     1.0  0.78588  0.93606  0.73405  1.0000
  C   C2804     1.0  0.59758  0.95136  0.93425  1.0000
  S   S379      1.0  0.95088  0.93993  0.75131  1.0000
  C   C2805     1.0  0.91633  0.82025  0.78475  1.0000
  H   H2248     1.0  0.91828  0.93998  0.89844  1.0000
  H   H2249     1.0  0.88421  0.55855  0.83346  1.0000
  H   H2250     1.0  0.99824  0.68655  0.74078  1.0000
  H   H2251     1.0  0.79903  0.65766  0.72808  1.0000
  H   H2252     1.0  0.90351  0.89730  0.72016  1.0000
  C   C2806     1.0  0.74134  0.51132  0.77206  1.0000
  S   S380      1.0  0.65544  0.53097  0.94586  1.0000
  H   H2253     1.0  0.88889  0.52723  0.94413  1.0000
  C   C2807     1.0  0.76917  0.60868  0.90200  1.0000
  C   C2808     1.0  0.00324  0.61610  0.78290  1.0000
  C   C2809     1.0  0.84757  0.98337  0.73560  1.0000
  Fe  Fe192     1.0  0.95228  0.90767  0.77783  1.0000
  C   C2810     1.0  0.98886  0.74552  0.71891  1.0000
  C   C2811     1.0  0.82298  0.60166  0.91355  1.0000
  H   H2254     1.0  0.84276  0.96175  0.72750  1.0000
  C   C2812     1.0  0.82401  0.84037  0.77673  1.0000
  C   C2813     1.0  0.80585  0.82009  0.79402  1.0000
  C   C2814     1.0  0.79060  0.78764  0.79076  1.0000
  C   C2815     1.0  0.79367  0.77547  0.77025  1.0000
  C   C2816     1.0  0.81298  0.79573  0.75315  1.0000
  C   C2817     1.0  0.82773  0.82831  0.75641  1.0000
  H   H2255     1.0  0.57540  0.52151  0.89361  1.0000
  H   H2256     1.0  0.54581  0.95648  0.92878  1.0000
  C   C2818     1.0  0.85853  0.58077  0.91003  1.0000
  H   H2257     1.0  0.98279  0.90029  0.87807  1.0000
  H   H2258     1.0  0.83310  0.54785  0.74685  1.0000
  H   H2259     1.0  0.77776  0.00300  0.73768  1.0000
  H   H2260     1.0  0.84679  0.53972  0.93001  1.0000
  C   C2819     1.0  0.58241  0.92719  0.91836  1.0000
  C   C2820     1.0  0.93424  0.53475  0.95500  1.0000
  C   C2821     1.0  0.95123  0.98951  0.90239  1.0000
  S   S381      1.0  0.99475  0.53169  0.77098  1.0000
  C   C2822     1.0  0.81519  0.70102  0.74618  1.0000
  C   C2823     1.0  0.81866  0.73101  0.74583  1.0000
  C   C2824     1.0  0.84048  0.55726  0.92564  1.0000
  C   C2825     1.0  0.83831  0.92864  0.96146  1.0000
  C   C2826     1.0  0.86553  0.67643  0.88542  1.0000
  C   C2827     1.0  0.61856  0.96058  0.88942  1.0000
  H   H2261     1.0  0.52312  0.57490  0.96478  1.0000
  C   C2828     1.0  0.84979  0.60286  0.90390  1.0000
  H   H2262     1.0  0.83514  0.86556  0.77897  1.0000
  H   H2263     1.0  0.80336  0.82960  0.80984  1.0000
  H   H2264     1.0  0.77611  0.77191  0.80405  1.0000
  H   H2265     1.0  0.78077  0.75031  0.76776  1.0000
  H   H2266     1.0  0.84180  0.84451  0.74318  1.0000
  H   H2267     1.0  0.74728  0.97223  0.94477  1.0000
  C   C2829     1.0  0.72360  0.56707  0.88251  1.0000
  H   H2268     1.0  0.90686  0.93114  0.94656  1.0000
  H   H2269     1.0  0.96130  0.50708  0.81335  1.0000
  C   C2830     1.0  0.83356  0.65347  0.88257  1.0000
  C   C2831     1.0  0.99732  0.76477  0.73808  1.0000
  C   C2832     1.0  0.81814  0.90715  0.94521  1.0000
  C   C2833     1.0  0.80098  0.68062  0.72803  1.0000
  H   H2270     1.0  0.82433  0.69390  0.76030  1.0000
  H   H2271     1.0  0.83119  0.74695  0.75959  1.0000
  H   H2272     1.0  0.87795  0.81217  0.74727  1.0000
  C   C2834     1.0  0.62357  0.98008  0.92755  1.0000
  H   H2273     1.0  0.81136  0.68908  0.91013  1.0000
  C   C2835     1.0  0.86160  0.90211  0.93050  1.0000
  C   C2836     1.0  0.87045  0.93761  0.96143  1.0000
  C   C2837     1.0  0.95236  0.59968  0.84981  1.0000
  H   H2274     1.0  0.92232  0.54751  0.81343  1.0000
  H   H2275     1.0  0.78367  0.57591  0.93635  1.0000
  H   H2276     1.0  0.85525  0.52090  0.76854  1.0000
  C   C2838     1.0  0.97504  0.55372  0.92642  1.0000
  C   C2839     1.0  0.98478  0.56145  0.77399  1.0000
  H   H2277     1.0  0.90626  0.54553  0.90533  1.0000
  S   S382      1.0  0.86218  0.91569  0.74245  1.0000
  C   C2840     1.0  0.94148  0.61977  0.84285  1.0000
  C   C2841     1.0  0.96519  0.54404  0.94856  1.0000
  H   H2278     1.0  0.85389  0.94240  0.83781  1.0000
  C   C2842     1.0  0.77379  0.52836  0.77639  1.0000
  C   C2843     1.0  0.94958  0.50699  0.82883  1.0000
  H   H2279     1.0  0.58105  0.91313  0.88380  1.0000
  H   H2280     1.0  0.79348  0.90081  0.94441  1.0000
  C   C2844     1.0  0.93678  0.63129  0.88179  1.0000
  H   H2281     1.0  0.93393  0.63936  0.72203  1.0000
  H   H2282     1.0  0.00059  0.56564  0.72532  1.0000
  C   C2845     1.0  0.54434  0.94098  0.96333  1.0000
  C   C2846     1.0  0.93320  0.63516  0.85886  1.0000
  C   C2847     1.0  0.96315  0.53333  0.84286  1.0000
  H   H2283     1.0  0.89226  0.58397  0.72639  1.0000
  H   H2284     1.0  0.92389  0.65000  0.85353  1.0000
  H   H2285     1.0  0.83275  0.63184  0.95386  1.0000
  H   H2286     1.0  0.93901  0.62305  0.82502  1.0000
  H   H2287     1.0  0.72990  0.52249  0.76355  1.0000
  H   H2288     1.0  0.90703  0.50542  0.88406  1.0000
  H   H2289     1.0  0.62669  0.96425  0.87211  1.0000
  C   C2848     1.0  0.83525  0.00156  0.72680  1.0000
  C   C2849     1.0  0.85959  0.95777  0.85224  1.0000
  H   H2290     1.0  0.93066  0.64353  0.89413  1.0000
  H   H2291     1.0  0.77168  0.58072  0.87494  1.0000
  H   H2292     1.0  0.93181  0.84123  0.73146  1.0000
  C   C2850     1.0  0.92309  0.54556  0.91729  1.0000
  C   C2851     1.0  0.89725  0.53087  0.81271  1.0000
  C   C2852     1.0  0.87694  0.99788  0.88943  1.0000
  C   C2853     1.0  0.89334  0.74292  0.71984  1.0000
  C   C2854     1.0  0.88300  0.69540  0.86734  1.0000
  C   C2855     1.0  0.83064  0.65235  0.95076  1.0000
  C   C2856     1.0  0.95661  0.99027  0.85531  1.0000
  H   H2293     1.0  0.94905  0.98911  0.92055  1.0000
  C   C2857     1.0  0.92330  0.74622  0.71786  1.0000
  C   C2858     1.0  0.81876  0.68464  0.92631  1.0000
  C   C2859     1.0  0.86865  0.69176  0.84632  1.0000
  H   H2294     1.0  0.95035  0.60866  0.90667  1.0000
  C   C2860     1.0  0.98954  0.71739  0.71986  1.0000
  H   H2295     1.0  0.58069  0.56831  0.95121  1.0000
  C   C2861     1.0  0.82971  0.89376  0.92991  1.0000
  P   P96       1.0  0.81146  0.63028  0.90660  1.0000
  H   H2296     1.0  0.71388  0.54883  0.86980  1.0000
  C   C2862     1.0  0.82596  0.70611  0.94386  1.0000
  C   C2863     1.0  0.77840  0.92693  0.71720  1.0000
  C   C2864     1.0  0.74861  0.61312  0.91603  1.0000
  S   S383      1.0  0.90703  0.66841  0.75426  1.0000
  H   H2297     1.0  0.97761  0.93779  0.85328  1.0000
  C   C2865     1.0  0.70334  0.57158  0.89654  1.0000
  C   C2866     1.0  0.83648  0.53006  0.73881  1.0000
  C   C2867     1.0  0.91318  0.53542  0.93935  1.0000
  C   C2868     1.0  0.58287  0.54760  0.94953  1.0000
  C   C2869     1.0  0.86837  0.96646  0.89239  1.0000
  C   C2870     1.0  0.95458  0.59449  0.87285  1.0000
  C   C2871     1.0  0.85983  0.94644  0.87381  1.0000
  C   C2872     1.0  0.61649  0.52454  0.94646  1.0000
  C   C2873     1.0  0.83417  0.99049  0.94720  1.0000
  H   H2298     1.0  0.81403  0.87704  0.91750  1.0000
  S   S384      1.0  0.51899  0.51664  0.95058  1.0000
  C   C2874     1.0  0.71584  0.59457  0.91328  1.0000
  H   H2299     1.0  0.56240  0.90485  0.92326  1.0000
  C   C2875     1.0  0.78047  0.96215  0.96138  1.0000
  H   H2300     1.0  0.85846  0.99552  0.94749  1.0000
  C   C2876     1.0  0.81186  0.96854  0.96226  1.0000
  C   C2877     1.0  0.53231  0.94843  0.94421  1.0000
  H   H2301     1.0  0.76371  0.50638  0.88419  1.0000
  H   H2302     1.0  0.82417  0.72696  0.94120  1.0000
  C   C2878     1.0  0.00567  0.72728  0.75906  1.0000
  C   C2879     1.0  0.91519  0.58955  0.71988  1.0000
  H   H2303     1.0  0.86751  0.99760  0.83241  1.0000
  C   C2880     1.0  0.99918  0.94549  0.86285  1.0000
  H   H2304     1.0  0.90326  0.54138  0.71638  1.0000
