data_image0
_chemical_formula_structural       FeS2FeS2FeSFeS3FeS2FeS2FeSFeHS2CHC3HC4HC3H2C2H2C2HC6H4CHC4H2C3HC2HCH3C3HC2HCHCHPCHC2HCH3CH2CH3C3HCHCHPC5H4CH2CH2CH3CHC3HC6H4C2HC2HC2H2PC3H3CH3SH2CH4CHC4H2CHCH2C8PCH2CHCHC5H3CHCH2CH3C4PC4H2CHC2H4C4HCH2CH2C2FeS2FeS2FeSFeS3FeSCFeS2FeSFeS3CHSHSH2C3H5CSHC4HC10H4C2H5C4HC4H4CSH3CHC5PC3H3C12H2CHC2H12CHC6H3C6H2C2HCH2CHC6FeHC6PCH2CH2C6HC4H5CH8C2HC3H2C2H2CHCSCH2CPC4HC5H2C2HCHCHCHC2HC3HCH2CH2CH3CHC2HCH3C2HCHC5HC2HC2HPH3CH4C2H6CPH2C4HC3HCH2CH4CH2SFe2HSFeSHCS3FeSCFeSFeHSFeS2FeS2FeSFeS3FeS2FeS2FeSFeS3C2H2C2HCHC7H4CHC7H4CHC7H3C3HCHC2H2C3H2CHC2H3CHC2PCH3CH2C12HC2PC4H2CH3CH4C2HC6PC4H2C12H2CH3C2H12CSHC6HC6PC3HC5H3CH5CHCH3C2H2CHC2H3CHC7PC18H20C6H3C2H3C4H2SH2C2H8CHC3H4CHCSC5FeH2CH2C2H2CH3CH3C2HC3H2CH2C4PH3C2HC2HC10H4CHCPFeS2FeS2FeSFeS3FeS2FeS2FeSFeS3FeCSC4S2H2FeHSHCS2HCH3C4H2PCSHCH2CH2C6H2CHCHC8H4C6H6CHCHCFeC4HC4H3C3HC2HC4HCH2C2HC2H2CH3C6H2CHC8SH4C2H4C6PC18H21CFeSCSCH2CHC3HPH2CHC6H5C2HCH2C4HCHCHCPCH2C3FeH2C6PC18H22CHC6PC12HCHC4HCH8CH3CHPHCHCH5CHCHCPHPCHC2HCH3CHSC4HCHFeHC5H2CH2C2HC2HCHC3SHSC2SFeS2FeSCFeSFeS3FeS2FeS2FeSFeS3CH2CPH2CH2C5HCHC2HC2HC6H4C2HC5H5CH4CH4C3H2C3H2CH3C4HCHC3H3CH3C3SC2HC2HFeHCHCHCHC2HC3H8CH2C3HC2H2C2PHCHC2HC9H2C2HC3H2C2H5C6PC3H2C13H5C2H2C3H3CHCHC3H3C2H3CSC4HC3HC7HCHSHCHCHCHC2H5C3H2CH2CH4CHCHCHFeHCHPC5HC2HFeS2FeS2FeSFeS3FeS2FeS2FeSFeS3H2C2HC4H2CHC3H8C6H5C3H3C2HC6PC6HC3H2CH2CH6CHCHCH2C2H2CHCH5C3PC14H3CHCH8C2HC2H3CH2CH2C2HCHCHC4PC16H3CH9C2HCHCH2CHCH2CHCHC3H2C4H2CFeS2FeS2FeSFeS3FeS2FeS2FeCFeS3C2H6CHC2HCH3C7H4CH2CHC2HCH4C2H2CHC2H2CHC2H2CHC5H2C2H3CPHC2H4CHCH2C3HC2HCH2C2HC3HC3HCH2C2HC2H4C3HC3HC4H2PC7H2CH2CHCH6C2HC5PHC7H2CHC6H2C3HC2HSH2CH4C6FeS2FeS2FeSFeS3FeSHFeS2FeSFeS3HC3SCHCH3CHC2HC2HC2H2C3HC7H4C4HCHC6H2CHC3H2C3HC2H2C2H3C3HC2H3CHSHCHC5HC2HCH2C2HCHC2H2C4H2CHCH3C2HC3HCHCHC3HPC7PC4HC4H3C3HC2H7CPHC2HCH5CH2CHCHSH3C3HC2HC2SC2H3CHC2HC3HCSH4CHC3H4C6H3CH3PH3CH2C5HCH2C2H3CSCH3CH2C6H4C9H3CH7PC3HCFeC2FeCSH2CS2FeSHFeSHCSFeS2FeS2FeSFeS3FeS2FeSHFeSFeS3C6H4C6H4C6H4C4H3C2H3C2H3SC3HC2HCHC2H5C3H2C7PC2HC12H2CH2C2H4PH6CH2CHC6PC16H18C7H3CH2FeC4HC3H4CH2C7H2CHCHC3HC3HC2HCHC3HCPH4C3H2C4HC3HPCH2CHC5HCHC2H3CSC3SHCFeHPH2C3H3C2HCHCHSHC2HC5HPCHCH2C3H2C2H2C3HCSH2C2H4C4H3C2H4C3HC2HC2H2CH2C3HCH2FeHCSHC4HC3FeC2H2C2HPHCHC6HCH3C2HFeS2FeS2FeSFeS3FeS2FeS2FeSFeS3CHFeHSC2HSFeS2FeSHCS2CHCHCHC6H4C6H3C7H8CH2C4H2C3H2CHC2H2C6SFeHCHC5HCH6SH4C8PC18H20C2PC3HC10HCH6CH2CH3C4H2C3PHC2H8CH2FeC3HCPCHSCH2CH4CHC4H2PH2PC16H4CH7C3H3CHC10SCH2CFeH2CFeC3HC4H2C3HCHCHC4HC6HCH2C2HC3HFeCH3C2H2CH3CHCH2CHSH3FeH2FeS2FeSFeHS2FeS2FeS2FeSFeS3CHSHCH2C2HCH3CHCH4CHC6H4PSCH2C3H3C5SH3C2HC2SC2HC3HC6PC18HCH6CH7CH3CPC7HC6PC3HC6H4CHCH3C2H2CSH3CH2C4HC3HC2H5C5H2C2H3CHC3H2CHCHSH2C2HSH4C2H4CHC2HC4H2CHC5HC4H3CHCHCHPC8H3C2HCHCH4C3H7C3HCH4C5FeS2FeSCFeSFeS3FeS2FeS2FeSFeS3H3C7H2C3SHC2HC8H4C2H2C5HCH8C4H2CHCH6PC4HC2H2CH2CHC5H2C11HC3HC2H7CH7CH2CPCHC5PC15HC4H15CH3C2H2C2H2CHCH2PHCHC5H2CHCH3C
_chemical_formula_sum              "Fe128 S256 H1536 C1920 P64"
_cell_length_a       42.095
_cell_length_b       42.2191
_cell_length_c       85.0656
_cell_angle_alpha    90.7516
_cell_angle_beta     90.6219
_cell_angle_gamma    90.6979

_space_group_name_H-M_alt    "P 1"
_space_group_IT_number       1

loop_
  _space_group_symop_operation_xyz
  'x, y, z'

loop_
  _atom_site_type_symbol
  _atom_site_label
  _atom_site_symmetry_multiplicity
  _atom_site_fract_x
  _atom_site_fract_y
  _atom_site_fract_z
  _atom_site_occupancy
  Fe  Fe1       1.0  0.19407  0.41806  0.05214  1.0000
  S   S1        1.0  0.20562  0.39458  0.02875  1.0000
  S   S2        1.0  0.23572  0.44483  0.06479  1.0000
  Fe  Fe2       1.0  0.12478  0.39579  0.04936  1.0000
  S   S3        1.0  0.13162  0.37162  0.02611  1.0000
  S   S4        1.0  0.07868  0.39399  0.06315  1.0000
  Fe  Fe3       1.0  0.17652  0.35239  0.03656  1.0000
  S   S5        1.0  0.19157  0.30224  0.02883  1.0000
  Fe  Fe4       1.0  0.16009  0.41516  0.01956  1.0000
  S   S6        1.0  0.14922  0.43103  0.99426  1.0000
  S   S7        1.0  0.16828  0.37415  0.06043  1.0000
  S   S8        1.0  0.14986  0.44095  0.04235  1.0000
  Fe  Fe5       1.0  0.17001  0.10766  0.04356  1.0000
  S   S9        1.0  0.13803  0.07661  0.05822  1.0000
  S   S10       1.0  0.17059  0.15955  0.05278  1.0000
  Fe  Fe6       1.0  0.18252  0.05133  0.02063  1.0000
  S   S11       1.0  0.15153  0.01804  0.03398  1.0000
  S   S12       1.0  0.20541  0.03329  0.99793  1.0000
  Fe  Fe7       1.0  0.11767  0.05871  0.03523  1.0000
  S   S13       1.0  0.06778  0.05768  0.02483  1.0000
  Fe  Fe8       1.0  0.17544  0.03847  0.05597  1.0000
  H   H1        1.0  0.17275  0.45155  0.13596  1.0000
  S   S14       1.0  0.14766  0.09123  0.02072  1.0000
  S   S15       1.0  0.20860  0.07032  0.04246  1.0000
  C   C1        1.0  0.00833  0.39180  0.02981  1.0000
  H   H2        1.0  0.26859  0.30237  0.98310  1.0000
  C   C2        1.0  0.04521  0.39009  0.98783  1.0000
  C   C3        1.0  0.13132  0.45957  0.26231  1.0000
  C   C4        1.0  0.01325  0.39724  0.06242  1.0000
  H   H3        1.0  0.17609  0.37213  0.09265  1.0000
  C   C5        1.0  0.27550  0.41287  0.11919  1.0000
  C   C6        1.0  0.01888  0.40893  0.98478  1.0000
  C   C7        1.0  0.25577  0.32429  0.98457  1.0000
  C   C8        1.0  0.37460  0.43301  0.30206  1.0000
  H   H4        1.0  0.23468  0.40801  0.29929  1.0000
  C   C9        1.0  0.22286  0.38077  0.98885  1.0000
  C   C10       1.0  0.03220  0.04280  0.05094  1.0000
  C   C11       1.0  0.03221  0.05287  0.03536  1.0000
  H   H5        1.0  0.03618  0.04050  0.99499  1.0000
  H   H6        1.0  0.05447  0.03852  0.05696  1.0000
  C   C12       1.0  0.01687  0.29303  0.04668  1.0000
  C   C13       1.0  0.25111  0.34303  0.05919  1.0000
  H   H7        1.0  0.26064  0.42744  0.11186  1.0000
  H   H8        1.0  0.05643  0.21208  0.03254  1.0000
  C   C14       1.0  0.07011  0.40194  0.99724  1.0000
  C   C15       1.0  0.32161  0.40841  0.13622  1.0000
  H   H9        1.0  0.07785  0.99845  0.00318  1.0000
  C   C16       1.0  0.18344  0.26284  0.03543  1.0000
  C   C17       1.0  0.18959  0.23700  0.02528  1.0000
  C   C18       1.0  0.18507  0.20534  0.03015  1.0000
  C   C19       1.0  0.17508  0.19896  0.04545  1.0000
  C   C20       1.0  0.16896  0.22482  0.05559  1.0000
  C   C21       1.0  0.17250  0.25648  0.05057  1.0000
  H   H10       1.0  0.19814  0.24148  0.01357  1.0000
  H   H11       1.0  0.19008  0.18586  0.02221  1.0000
  H   H12       1.0  0.16173  0.22023  0.06749  1.0000
  H   H13       1.0  0.16751  0.27588  0.05855  1.0000
  C   C22       1.0  0.26787  0.44532  0.99424  1.0000
  H   H14       1.0  0.27982  0.38562  0.05995  1.0000
  C   C23       1.0  0.10388  0.25558  0.00883  1.0000
  C   C24       1.0  0.40803  0.07330  0.19259  1.0000
  C   C25       1.0  0.04103  0.39372  0.05354  1.0000
  C   C26       1.0  0.03836  0.39069  0.03721  1.0000
  H   H15       1.0  0.01506  0.39954  0.07507  1.0000
  H   H16       1.0  0.05950  0.38778  0.03028  1.0000
  C   C27       1.0  0.20908  0.35201  0.99330  1.0000
  C   C28       1.0  0.14923  0.43284  0.11515  1.0000
  C   C29       1.0  0.22849  0.27063  0.12516  1.0000
  H   H17       1.0  0.25716  0.01152  0.07679  1.0000
  C   C30       1.0  0.07199  0.23126  0.02900  1.0000
  C   C31       1.0  0.26797  0.38072  0.12131  1.0000
  H   H18       1.0  0.18774  0.43397  0.28736  1.0000
  C   C32       1.0  0.35514  0.45187  0.29269  1.0000
  H   H19       1.0  0.05850  0.12516  0.04029  1.0000
  H   H20       1.0  0.28314  0.33755  0.13257  1.0000
  H   H21       1.0  0.13163  0.40959  0.09401  1.0000
  C   C33       1.0  0.09496  0.47010  0.28371  1.0000
  C   C34       1.0  0.11566  0.44958  0.27584  1.0000
  C   C35       1.0  0.31472  0.37624  0.13818  1.0000
  H   H22       1.0  0.35500  0.44805  0.28009  1.0000
  C   C36       1.0  0.22561  0.32381  0.99128  1.0000
  C   C37       1.0  0.23150  0.32282  0.06771  1.0000
  H   H23       1.0  0.11488  0.35052  0.08435  1.0000
  C   C38       1.0  0.06193  0.36422  0.29237  1.0000
  H   H24       1.0  0.07796  0.32286  0.06621  1.0000
  C   C39       1.0  0.23708  0.43130  0.29422  1.0000
  H   H25       1.0  0.21516  0.30167  0.99515  1.0000
  P   P1        1.0  0.04013  0.49087  0.00923  1.0000
  C   C40       1.0  0.21065  0.44591  0.28756  1.0000
  H   H26       1.0  0.00468  0.16425  0.08086  1.0000
  C   C41       1.0  0.22150  0.32717  0.12144  1.0000
  C   C42       1.0  0.26673  0.44666  0.29427  1.0000
  H   H27       1.0  0.14156  0.00449  0.99595  1.0000
  C   C43       1.0  0.01776  0.43980  0.99090  1.0000
  H   H28       1.0  0.03260  0.45779  0.03865  1.0000
  H   H29       1.0  0.12980  0.44941  0.11570  1.0000
  H   H30       1.0  0.99939  0.39968  0.97763  1.0000
  C   C44       1.0  0.15516  0.99604  0.98607  1.0000
  H   H31       1.0  0.40197  0.08210  0.20419  1.0000
  H   H32       1.0  0.19529  0.24793  0.14062  1.0000
  C   C45       1.0  0.04196  0.45130  0.00100  1.0000
  H   H33       1.0  0.18580  0.35168  0.99864  1.0000
  H   H34       1.0  0.00565  0.14526  0.04690  1.0000
  H   H35       1.0  0.05723  0.40784  0.27987  1.0000
  C   C46       1.0  0.26670  0.45257  0.02266  1.0000
  C   C47       1.0  0.24446  0.46549  0.08299  1.0000
  C   C48       1.0  0.30200  0.42669  0.12672  1.0000
  H   H36       1.0  0.27096  0.39631  0.08793  1.0000
  C   C49       1.0  0.20038  0.39091  0.11321  1.0000
  H   H37       1.0  0.24345  0.01289  0.02478  1.0000
  C   C50       1.0  0.23799  0.29908  0.11829  1.0000
  H   H38       1.0  0.08784  0.44081  0.01139  1.0000
  P   P2        1.0  0.23294  0.36350  0.11186  1.0000
  C   C51       1.0  0.18633  0.29791  0.13867  1.0000
  C   C52       1.0  0.20264  0.27002  0.13532  1.0000
  C   C53       1.0  0.22165  0.47072  0.09458  1.0000
  C   C54       1.0  0.16295  0.46086  0.98118  1.0000
  C   C55       1.0  0.19881  0.41303  0.12566  1.0000
  H   H39       1.0  0.24114  0.24899  0.12255  1.0000
  H   H40       1.0  0.11358  0.25522  0.99709  1.0000
  H   H41       1.0  0.41626  0.02596  0.20048  1.0000
  H   H42       1.0  0.07796  0.21166  0.00574  1.0000
  C   C56       1.0  0.05045  0.04107  0.98447  1.0000
  H   H43       1.0  0.28650  0.01043  0.04480  1.0000
  H   H44       1.0  0.01071  0.21990  0.07301  1.0000
  C   C57       1.0  0.04453  0.13723  0.03148  1.0000
  H   H45       1.0  0.06965  0.08727  0.99009  1.0000
  H   H46       1.0  0.06142  0.46052  0.06400  1.0000
  C   C58       1.0  0.06398  0.39714  0.29091  1.0000
  H   H47       1.0  0.00658  0.38965  0.01716  1.0000
  H   H48       1.0  0.04893  0.12668  0.07722  1.0000
  H   H49       1.0  0.02393  0.27364  0.08533  1.0000
  C   C59       1.0  0.26542  0.36928  0.06664  1.0000
  H   H50       1.0  0.09952  0.14512  0.06542  1.0000
  C   C60       1.0  0.27566  0.47691  0.08588  1.0000
  C   C61       1.0  0.40764  0.09370  0.17978  1.0000
  C   C62       1.0  0.19572  0.32641  0.13180  1.0000
  H   H51       1.0  0.11332  0.23309  0.08236  1.0000
  C   C63       1.0  0.01429  0.28379  0.07469  1.0000
  C   C64       1.0  0.33614  0.41958  0.98448  1.0000
  C   C65       1.0  0.08389  0.23105  0.01372  1.0000
  C   C66       1.0  0.24059  0.35512  0.09130  1.0000
  C   C67       1.0  0.06942  0.06776  0.98169  1.0000
  C   C68       1.0  0.00320  0.03734  0.05858  1.0000
  H   H52       1.0  0.04643  0.36637  0.98290  1.0000
  H   H53       1.0  0.12021  0.42614  0.28025  1.0000
  H   H54       1.0  0.19720  0.12242  0.97545  1.0000
  H   H55       1.0  0.02824  0.29022  0.03542  1.0000
  C   C69       1.0  0.08056  0.25576  0.03963  1.0000
  C   C70       1.0  0.11177  0.28045  0.01919  1.0000
  H   H56       1.0  0.10735  0.29980  0.04239  1.0000
  C   C71       1.0  0.01443  0.14864  0.03515  1.0000
  C   C72       1.0  0.02888  0.27821  0.06016  1.0000
  H   H57       1.0  0.38966  0.41542  0.29665  1.0000
  C   C73       1.0  0.21381  0.47597  0.28108  1.0000
  C   C74       1.0  0.06836  0.43225  0.00399  1.0000
  H   H58       1.0  0.14749  0.44388  0.25629  1.0000
  H   H59       1.0  0.15062  0.26125  0.10009  1.0000
  P   P3        1.0  0.27105  0.41925  0.97729  1.0000
  C   C75       1.0  0.36819  0.41532  0.98092  1.0000
  C   C76       1.0  0.28804  0.36239  0.13076  1.0000
  C   C77       1.0  0.26922  0.43274  0.00945  1.0000
  H   H60       1.0  0.34210  0.41928  0.14206  1.0000
  H   H61       1.0  0.21000  0.40254  0.99076  1.0000
  H   H62       1.0  0.12752  0.29933  0.01544  1.0000
  C   C78       1.0  0.25079  0.99429  0.08553  1.0000
  H   H63       1.0  0.10587  0.20041  0.05730  1.0000
  H   H64       1.0  0.33003  0.36210  0.14554  1.0000
  H   H65       1.0  0.04630  0.15503  0.99268  1.0000
  S   S16       1.0  0.18689  0.00481  0.07678  1.0000
  H   H66       1.0  0.00297  0.06623  0.01561  1.0000
  H   H67       1.0  0.30718  0.45173  0.12528  1.0000
  C   C79       1.0  0.17339  0.43400  0.12655  1.0000
  H   H68       1.0  0.18273  0.34769  0.13458  1.0000
  H   H69       1.0  0.26720  0.44266  0.03436  1.0000
  H   H70       1.0  0.25804  0.29916  0.11040  1.0000
  H   H71       1.0  0.27197  0.40755  0.01117  1.0000
  C   C80       1.0  0.22587  0.32900  0.08362  1.0000
  H   H72       1.0  0.21726  0.41438  0.13463  1.0000
  C   C81       1.0  0.15029  0.41045  0.10293  1.0000
  C   C82       1.0  0.18670  0.00619  0.98436  1.0000
  C   C83       1.0  0.10032  0.28054  0.03455  1.0000
  C   C84       1.0  0.26025  0.37532  0.08262  1.0000
  H   H73       1.0  0.19757  0.46228  0.09263  1.0000
  H   H74       1.0  0.16636  0.29744  0.14660  1.0000
  C   C85       1.0  0.05616  0.13987  0.01625  1.0000
  H   H75       1.0  0.15142  0.32000  0.10142  1.0000
  C   C86       1.0  0.03756  0.15373  0.00458  1.0000
  H   H76       1.0  0.29305  0.35282  0.97498  1.0000
  H   H77       1.0  0.25460  0.33864  0.04674  1.0000
  C   C87       1.0  0.17567  0.38946  0.10205  1.0000
  C   C88       1.0  0.00313  0.05833  0.02764  1.0000
  C   C89       1.0  0.11460  0.32485  0.08388  1.0000
  C   C90       1.0  0.13514  0.30769  0.09345  1.0000
  C   C91       1.0  0.13458  0.27462  0.09274  1.0000
  C   C92       1.0  0.11334  0.25866  0.08254  1.0000
  C   C93       1.0  0.09266  0.27571  0.07282  1.0000
  C   C94       1.0  0.09355  0.30899  0.07358  1.0000
  P   P4        1.0  0.06514  0.25573  0.05938  1.0000
  C   C95       1.0  0.05924  0.21485  0.06505  1.0000
  H   H78       1.0  0.32996  0.42714  0.99624  1.0000
  H   H79       1.0  0.20965  0.31357  0.08976  1.0000
  C   C96       1.0  0.41535  0.08232  0.16482  1.0000
  H   H80       1.0  0.09090  0.38769  0.99932  1.0000
  C   C97       1.0  0.25325  0.38155  0.98224  1.0000
  H   H81       1.0  0.22013  0.30273  0.06182  1.0000
  C   C98       1.0  0.03048  0.20415  0.07149  1.0000
  C   C99       1.0  0.02688  0.17249  0.07594  1.0000
  C   C100      1.0  0.05177  0.15125  0.07387  1.0000
  C   C101      1.0  0.08019  0.16156  0.06720  1.0000
  C   C102      1.0  0.08377  0.19306  0.06264  1.0000
  H   H82       1.0  0.07927  0.13028  0.01350  1.0000
  H   H83       1.0  0.38628  0.41970  0.98987  1.0000
  H   H84       1.0  0.05389  0.34967  0.28248  1.0000
  C   C103      1.0  0.03524  0.47136  0.30216  1.0000
  H   H85       1.0  0.19357  0.48699  0.27554  1.0000
  C   C104      1.0  0.01838  0.47693  0.28813  1.0000
  H   H86       1.0  0.40129  0.11831  0.18144  1.0000
  H   H87       1.0  0.29362  0.47314  0.07708  1.0000
  C   C105      1.0  0.00734  0.16502  0.00817  1.0000
  H   H88       1.0  0.42919  0.04221  0.15091  1.0000
  H   H89       1.0  0.02973  0.47473  0.27684  1.0000
  H   H90       1.0  0.41504  0.09813  0.15488  1.0000
  C   C106      1.0  0.42328  0.05050  0.16261  1.0000
  C   C107      1.0  0.23002  0.48691  0.10878  1.0000
  C   C108      1.0  0.99562  0.16286  0.02354  1.0000
  C   C109      1.0  0.26999  0.47713  0.28793  1.0000
  P   P5        1.0  0.07603  0.45857  0.30171  1.0000
  C   C110      1.0  0.26957  0.35303  0.98000  1.0000
  C   C111      1.0  0.06893  0.47546  0.05443  1.0000
  C   C112      1.0  0.05278  0.47380  0.04000  1.0000
  C   C113      1.0  0.18583  0.48369  0.98555  1.0000
  H   H91       1.0  0.19569  0.48364  0.99734  1.0000
  H   H92       1.0  0.00327  0.02887  0.07053  1.0000
  C   C114      1.0  0.26464  0.47816  0.99252  1.0000
  H   H93       1.0  0.28683  0.43464  0.29935  1.0000
  C   C115      1.0  0.07449  0.41613  0.30365  1.0000
  C   C116      1.0  0.33554  0.47478  0.29961  1.0000
  H   H94       1.0  0.27746  0.48809  0.25594  1.0000
  H   H95       1.0  0.21212  0.49068  0.11760  1.0000
  H   H96       1.0  0.99786  0.45455  0.98791  1.0000
  H   H97       1.0  0.99579  0.22565  0.01425  1.0000
  C   C117      1.0  0.26293  0.48512  0.02083  1.0000
  C   C118      1.0  0.05103  0.01477  0.97422  1.0000
  C   C119      1.0  0.41600  0.04149  0.19043  1.0000
  C   C120      1.0  0.42339  0.02976  0.17539  1.0000
  H   H98       1.0  0.16582  0.07253  0.97393  1.0000
  C   C121      1.0  0.12676  0.49017  0.25670  1.0000
  H   H99       1.0  0.47949  0.02748  0.19139  1.0000
  H   H100      1.0  0.36796  0.99751  0.18381  1.0000
  C   C122      1.0  0.24632  0.99172  0.03170  1.0000
  H   H101      1.0  0.99271  0.17473  0.99890  1.0000
  H   H102      1.0  0.26339  0.48863  0.98102  1.0000
  C   C123      1.0  0.49089  0.00591  0.18768  1.0000
  C   C124      1.0  0.06990  0.35010  0.30663  1.0000
  Fe  Fe9       1.0  0.34721  0.35216  0.41151  1.0000
  S   S17       1.0  0.36987  0.37784  0.39130  1.0000
  S   S18       1.0  0.35115  0.29945  0.41843  1.0000
  Fe  Fe10      1.0  0.33487  0.41615  0.42976  1.0000
  S   S19       1.0  0.35577  0.44562  0.41037  1.0000
  S   S20       1.0  0.32032  0.42758  0.45530  1.0000
  Fe  Fe11      1.0  0.32909  0.41289  0.39328  1.0000
  S   S21       1.0  0.30369  0.42525  0.36964  1.0000
  Fe  Fe12      1.0  0.39450  0.40902  0.40944  1.0000
  S   S22       1.0  0.44616  0.42314  0.41426  1.0000
  S   S23       1.0  0.30554  0.38538  0.41289  1.0000
  S   S24       1.0  0.37453  0.38153  0.42935  1.0000
  Fe  Fe13      1.0  0.32433  0.03670  0.39245  1.0000
  S   S25       1.0  0.29102  0.06797  0.40607  1.0000
  C   C125      1.0  0.40022  0.41381  0.47524  1.0000
  Fe  Fe14      1.0  0.38257  0.06244  0.41155  1.0000
  S   S26       1.0  0.35256  0.09484  0.42629  1.0000
  S   S27       1.0  0.43426  0.06246  0.41974  1.0000
  Fe  Fe15      1.0  0.31886  0.05329  0.42769  1.0000
  S   S28       1.0  0.29569  0.04086  0.45107  1.0000
  Fe  Fe16      1.0  0.32813  0.10707  0.40366  1.0000
  S   S29       1.0  0.31605  0.15744  0.39540  1.0000
  S   S30       1.0  0.35017  0.02022  0.41439  1.0000
  S   S31       1.0  0.36001  0.07656  0.38868  1.0000
  C   C126      1.0  0.42922  0.31323  0.43478  1.0000
  H   H103      1.0  0.27049  0.16800  0.42331  1.0000
  S   S32       1.0  0.18974  0.45611  0.61888  1.0000
  H   H104      1.0  0.13902  0.44482  0.31451  1.0000
  S   S33       1.0  0.21131  0.03106  0.63174  1.0000
  H   H105      1.0  0.47189  0.22561  0.36239  1.0000
  H   H106      1.0  0.22217  0.03769  0.56840  1.0000
  C   C127      1.0  0.03385  0.23371  0.63792  1.0000
  C   C128      1.0  0.45217  0.42494  0.45583  1.0000
  C   C129      1.0  0.35441  0.45863  0.32543  1.0000
  H   H107      1.0  0.21086  0.23601  0.40092  1.0000
  H   H108      1.0  0.29261  0.21003  0.44099  1.0000
  H   H109      1.0  0.27483  0.26496  0.43866  1.0000
  H   H110      1.0  0.40002  0.06937  0.45729  1.0000
  H   H111      1.0  0.38783  0.28852  0.38817  1.0000
  C   C130      1.0  0.46866  0.05939  0.40806  1.0000
  S   S34       1.0  0.31289  0.99875  0.37316  1.0000
  H   H112      1.0  0.44445  0.05088  0.38596  1.0000
  C   C131      1.0  0.41376  0.24481  0.38824  1.0000
  C   C132      1.0  0.13834  0.23650  0.63187  1.0000
  C   C133      1.0  0.22117  0.00666  0.61497  1.0000
  C   C134      1.0  0.30787  0.39229  0.63607  1.0000
  H   H113      1.0  0.21247  0.35847  0.46675  1.0000
  C   C135      1.0  0.43781  0.39496  0.45608  1.0000
  C   C136      1.0  0.30835  0.01214  0.46490  1.0000
  C   C137      1.0  0.42770  0.20230  0.43545  1.0000
  C   C138      1.0  0.19081  0.39139  0.55220  1.0000
  C   C139      1.0  0.34191  0.26015  0.41153  1.0000
  C   C140      1.0  0.35151  0.23415  0.42060  1.0000
  C   C141      1.0  0.34473  0.20260  0.41568  1.0000
  C   C142      1.0  0.32755  0.19659  0.40174  1.0000
  C   C143      1.0  0.31832  0.22259  0.39260  1.0000
  C   C144      1.0  0.32572  0.25407  0.39735  1.0000
  H   H114      1.0  0.36423  0.23844  0.43155  1.0000
  H   H115      1.0  0.35213  0.18298  0.42285  1.0000
  H   H116      1.0  0.30523  0.21832  0.38175  1.0000
  H   H117      1.0  0.31885  0.27365  0.39007  1.0000
  C   C145      1.0  0.00674  0.30008  0.61115  1.0000
  C   C146      1.0  0.99393  0.46469  0.62329  1.0000
  H   H118      1.0  0.41331  0.16756  0.45239  1.0000
  H   H119      1.0  0.45901  0.38550  0.38582  1.0000
  H   H120      1.0  0.27758  0.48678  0.38042  1.0000
  H   H121      1.0  0.18138  0.25669  0.43540  1.0000
  H   H122      1.0  0.28872  0.32056  0.42685  1.0000
  C   C147      1.0  0.47684  0.32257  0.41978  1.0000
  C   C148      1.0  0.23924  0.34635  0.39874  1.0000
  C   C149      1.0  0.24391  0.10946  0.63188  1.0000
  C   C150      1.0  0.32931  0.46082  0.46791  1.0000
  H   H123      1.0  0.47365  0.00328  0.42567  1.0000
  C   C151      1.0  0.18699  0.40727  0.56657  1.0000
  C   C152      1.0  0.04510  0.22347  0.62325  1.0000
  C   C153      1.0  0.28048  0.45555  0.36032  1.0000
  C   C154      1.0  0.27121  0.45159  0.34439  1.0000
  H   H124      1.0  0.37941  0.40976  0.48234  1.0000
  H   H125      1.0  0.27840  0.43054  0.33806  1.0000
  H   H126      1.0  0.12283  0.25251  0.43472  1.0000
  H   H127      1.0  0.44562  0.05385  0.50194  1.0000
  C   C155      1.0  0.21598  0.15694  0.62471  1.0000
  S   S35       1.0  0.12590  0.39170  0.63131  1.0000
  H   H128      1.0  0.18258  0.36709  0.55085  1.0000
  H   H129      1.0  0.26916  0.37564  0.46823  1.0000
  H   H130      1.0  0.21468  0.02094  0.40379  1.0000
  C   C156      1.0  0.44506  0.29047  0.44357  1.0000
  H   H131      1.0  0.22918  0.36075  0.40802  1.0000
  C   C157      1.0  0.02762  0.29744  0.62406  1.0000
  C   C158      1.0  0.47669  0.28328  0.44029  1.0000
  C   C159      1.0  0.21646  0.43817  0.54146  1.0000
  C   C160      1.0  0.22538  0.11602  0.60496  1.0000
  C   C161      1.0  0.21277  0.14554  0.60924  1.0000
  P   P6        1.0  0.21811  0.09910  0.58560  1.0000
  C   C162      1.0  0.21432  0.13050  0.57148  1.0000
  C   C163      1.0  0.25097  0.07408  0.58016  1.0000
  C   C164      1.0  0.07968  0.36893  0.31947  1.0000
  H   H132      1.0  0.48331  0.01348  0.45726  1.0000
  H   H133      1.0  0.99840  0.32155  0.58866  1.0000
  H   H134      1.0  0.39072  0.99660  0.55894  1.0000
  C   C165      1.0  0.28222  0.08310  0.58436  1.0000
  C   C166      1.0  0.23997  0.13936  0.56200  1.0000
  C   C167      1.0  0.23660  0.16369  0.55111  1.0000
  C   C168      1.0  0.20770  0.17939  0.54965  1.0000
  C   C169      1.0  0.18208  0.17073  0.55904  1.0000
  C   C170      1.0  0.18532  0.14634  0.56989  1.0000
  C   C171      1.0  0.18112  0.07689  0.58557  1.0000
  C   C172      1.0  0.16606  0.06846  0.57128  1.0000
  C   C173      1.0  0.13716  0.05173  0.57121  1.0000
  C   C174      1.0  0.12292  0.04365  0.58540  1.0000
  C   C175      1.0  0.13760  0.05224  0.59965  1.0000
  C   C176      1.0  0.16666  0.06863  0.59975  1.0000
  H   H135      1.0  0.24958  0.07465  0.61362  1.0000
  H   H136      1.0  0.19990  0.15959  0.60085  1.0000
  C   C177      1.0  0.43716  0.99129  0.51968  1.0000
  H   H137      1.0  0.34620  0.99345  0.45093  1.0000
  C   C178      1.0  0.33369  0.99183  0.46192  1.0000
  C   C179      1.0  0.22774  0.99958  0.40626  1.0000
  H   H138      1.0  0.28679  0.10475  0.59102  1.0000
  H   H139      1.0  0.26255  0.12757  0.56290  1.0000
  H   H140      1.0  0.25645  0.17036  0.54380  1.0000
  H   H141      1.0  0.20516  0.19827  0.54123  1.0000
  H   H142      1.0  0.15969  0.18294  0.55795  1.0000
  H   H143      1.0  0.16524  0.13997  0.57713  1.0000
  H   H144      1.0  0.17684  0.07454  0.56020  1.0000
  H   H145      1.0  0.12591  0.04480  0.56016  1.0000
  H   H146      1.0  0.26737  0.00542  0.56045  1.0000
  H   H147      1.0  0.35346  0.46071  0.33816  1.0000
  H   H148      1.0  0.17789  0.07439  0.61093  1.0000
  H   H149      1.0  0.27149  0.00944  0.61988  1.0000
  C   C180      1.0  0.44517  0.32943  0.42296  1.0000
  H   H150      1.0  0.39258  0.00532  0.50884  1.0000
  C   C181      1.0  0.21842  0.32998  0.44576  1.0000
  C   C182      1.0  0.48138  0.39305  0.39109  1.0000
  C   C183      1.0  0.40660  0.27497  0.38272  1.0000
  C   C184      1.0  0.25495  0.29544  0.38813  1.0000
  C   C185      1.0  0.42799  0.15184  0.41384  1.0000
  C   C186      1.0  0.43544  0.18256  0.40879  1.0000
  H   H151      1.0  0.32472  0.43343  0.48898  1.0000
  H   H152      1.0  0.04447  0.23892  0.61320  1.0000
  H   H153      1.0  0.17359  0.47277  0.33406  1.0000
  C   C187      1.0  0.42321  0.28745  0.37006  1.0000
  C   C188      1.0  0.30245  0.03617  0.57142  1.0000
  C   C189      1.0  0.39332  0.12010  0.35567  1.0000
  C   C190      1.0  0.37720  0.14001  0.36602  1.0000
  C   C191      1.0  0.39419  0.16040  0.37619  1.0000
  C   C192      1.0  0.43858  0.22739  0.38159  1.0000
  H   H154      1.0  0.42827  0.13182  0.40573  1.0000
  H   H155      1.0  0.33178  0.07082  0.58362  1.0000
  C   C193      1.0  0.19842  0.43826  0.56852  1.0000
  C   C194      1.0  0.40527  0.00089  0.51973  1.0000
  H   H156      1.0  0.43279  0.27871  0.45301  1.0000
  C   C195      1.0  0.33203  0.48299  0.49483  1.0000
  H   H157      1.0  0.35144  0.13923  0.36644  1.0000
  H   H158      1.0  0.38129  0.17540  0.38426  1.0000
  C   C196      1.0  0.22902  0.35004  0.45803  1.0000
  H   H159      1.0  0.48500  0.13077  0.39384  1.0000
  C   C197      1.0  0.42749  0.16130  0.37596  1.0000
  C   C198      1.0  0.16805  0.27122  0.42731  1.0000
  C   C199      1.0  0.42041  0.14653  0.42956  1.0000
  C   C200      1.0  0.44359  0.14183  0.36522  1.0000
  C   C201      1.0  0.01476  0.31929  0.59848  1.0000
  C   C202      1.0  0.44097  0.44953  0.46549  1.0000
  Fe  Fe17      1.0  0.17270  0.41743  0.63629  1.0000
  H   H160      1.0  0.33936  0.46644  0.55465  1.0000
  C   C203      1.0  0.26094  0.35953  0.45897  1.0000
  C   C204      1.0  0.34118  0.43023  0.53661  1.0000
  C   C205      1.0  0.32428  0.41408  0.52470  1.0000
  C   C206      1.0  0.29293  0.42236  0.52120  1.0000
  C   C207      1.0  0.27870  0.44772  0.52922  1.0000
  C   C208      1.0  0.29567  0.46347  0.54133  1.0000
  P   P7        1.0  0.23761  0.45718  0.52573  1.0000
  C   C209      1.0  0.22468  0.44479  0.50625  1.0000
  H   H161      1.0  0.20570  0.17943  0.62808  1.0000
  H   H162      1.0  0.36400  0.01002  0.53374  1.0000
  C   C210      1.0  0.41467  0.44382  0.47512  1.0000
  H   H163      1.0  0.38894  0.42148  0.32572  1.0000
  H   H164      1.0  0.33094  0.47951  0.50739  1.0000
  C   C211      1.0  0.20578  0.40665  0.53973  1.0000
  C   C212      1.0  0.24503  0.44908  0.49347  1.0000
  C   C213      1.0  0.23521  0.44058  0.47823  1.0000
  C   C214      1.0  0.20452  0.42862  0.47556  1.0000
  C   C215      1.0  0.18363  0.42532  0.48813  1.0000
  C   C216      1.0  0.19356  0.43364  0.50342  1.0000
  H   H165      1.0  0.32211  0.02108  0.56827  1.0000
  C   C217      1.0  0.27155  0.02730  0.56701  1.0000
  C   C218      1.0  0.38880  0.00341  0.53386  1.0000
  C   C219      1.0  0.24119  0.31332  0.40025  1.0000
  C   C220      1.0  0.32669  0.45457  0.54506  1.0000
  H   H166      1.0  0.43319  0.34779  0.41644  1.0000
  H   H167      1.0  0.30239  0.45266  0.60142  1.0000
  H   H168      1.0  0.25592  0.43299  0.61652  1.0000
  H   H169      1.0  0.33537  0.39494  0.51827  1.0000
  H   H170      1.0  0.27993  0.40889  0.51229  1.0000
  C   C221      1.0  0.24122  0.25474  0.41965  1.0000
  H   H171      1.0  0.44265  0.23139  0.41640  1.0000
  H   H172      1.0  0.17335  0.99815  0.60672  1.0000
  H   H173      1.0  0.06934  0.14937  0.63304  1.0000
  H   H174      1.0  0.25727  0.27005  0.38900  1.0000
  H   H175      1.0  0.20950  0.39365  0.52887  1.0000
  H   H176      1.0  0.26839  0.45947  0.49525  1.0000
  H   H177      1.0  0.25136  0.44380  0.46848  1.0000
  H   H178      1.0  0.19680  0.42253  0.46369  1.0000
  C   C222      1.0  0.33526  0.47781  0.31610  1.0000
  C   C223      1.0  0.08175  0.40186  0.31805  1.0000
  H   H179      1.0  0.28481  0.48229  0.54813  1.0000
  C   C224      1.0  0.14595  0.20845  0.63984  1.0000
  C   C225      1.0  0.26686  0.31044  0.37481  1.0000
  C   C226      1.0  0.23982  0.31927  0.43435  1.0000
  H   H180      1.0  0.25141  0.01947  0.42674  1.0000
  H   H181      1.0  0.03705  0.38549  0.63768  1.0000
  C   C227      1.0  0.48158  0.41110  0.40500  1.0000
  C   C228      1.0  0.05936  0.17285  0.63435  1.0000
  H   H182      1.0  0.27808  0.29661  0.36565  1.0000
  H   H183      1.0  0.08861  0.41609  0.32824  1.0000
  C   C229      1.0  0.01441  0.46493  0.63633  1.0000
  H   H184      1.0  0.23002  0.18110  0.40324  1.0000
  C   C230      1.0  0.25379  0.45397  0.60944  1.0000
  S   S36       1.0  0.14079  0.30093  0.62717  1.0000
  C   C231      1.0  0.41983  0.17176  0.44031  1.0000
  H   H185      1.0  0.30708  0.35614  0.44843  1.0000
  H   H186      1.0  0.39955  0.23512  0.39757  1.0000
  C   C232      1.0  0.45411  0.23947  0.36837  1.0000
  P   P8        1.0  0.44857  0.18861  0.38890  1.0000
  C   C233      1.0  0.42651  0.12104  0.35525  1.0000
  C   C234      1.0  0.27187  0.32854  0.43555  1.0000
  C   C235      1.0  0.43601  0.20764  0.41983  1.0000
  C   C236      1.0  0.43993  0.01228  0.48698  1.0000
  H   H187      1.0  0.09155  0.28544  0.41638  1.0000
  C   C237      1.0  0.18388  0.29216  0.41727  1.0000
  C   C238      1.0  0.13031  0.46571  0.32049  1.0000
  C   C239      1.0  0.22855  0.23064  0.40981  1.0000
  C   C240      1.0  0.23904  0.19949  0.41117  1.0000
  C   C241      1.0  0.25092  0.36121  0.38535  1.0000
  H   H188      1.0  0.08779  0.34479  0.61113  1.0000
  H   H189      1.0  0.41684  0.99256  0.42116  1.0000
  C   C242      1.0  0.44660  0.26949  0.36272  1.0000
  C   C243      1.0  0.24585  0.04588  0.57151  1.0000
  H   H190      1.0  0.27247  0.02493  0.48163  1.0000
  C   C244      1.0  0.14843  0.26622  0.63786  1.0000
  H   H191      1.0  0.36535  0.42369  0.53946  1.0000
  C   C245      1.0  0.27435  0.21577  0.43246  1.0000
  H   H192      1.0  0.03852  0.45642  0.63524  1.0000
  C   C246      1.0  0.40381  0.99596  0.54804  1.0000
  H   H193      1.0  0.42315  0.47026  0.43613  1.0000
  C   C247      1.0  0.24089  0.09808  0.61643  1.0000
  C   C248      1.0  0.41183  0.38937  0.46578  1.0000
  H   H194      1.0  0.12503  0.23518  0.62094  1.0000
  C   C249      1.0  0.42301  0.06522  0.47999  1.0000
  C   C250      1.0  0.43716  0.04465  0.49069  1.0000
  C   C251      1.0  0.26428  0.24705  0.43100  1.0000
  H   H195      1.0  0.24594  0.01878  0.36954  1.0000
  C   C252      1.0  0.19818  0.99388  0.60459  1.0000
  H   H196      1.0  0.22333  0.47714  0.55812  1.0000
  H   H197      1.0  0.42720  0.22184  0.44378  1.0000
  C   C253      1.0  0.32865  0.45685  0.48434  1.0000
  H   H198      1.0  0.27483  0.35515  0.36332  1.0000
  H   H199      1.0  0.05019  0.35041  0.58868  1.0000
  C   C254      1.0  0.28237  0.34856  0.44780  1.0000
  H   H200      1.0  0.17570  0.39547  0.57633  1.0000
  H   H201      1.0  0.38002  0.10382  0.34806  1.0000
  H   H202      1.0  0.00231  0.45635  0.61200  1.0000
  C   C255      1.0  0.16598  0.31071  0.40691  1.0000
  H   H203      1.0  0.17739  0.32696  0.39898  1.0000
  C   C256      1.0  0.26497  0.34332  0.37345  1.0000
  C   C257      1.0  0.29215  0.00943  0.47922  1.0000
  H   H204      1.0  0.40472  0.31876  0.43732  1.0000
  C   C258      1.0  0.26182  0.19204  0.42253  1.0000
  H   H205      1.0  0.24574  0.47084  0.32439  1.0000
  H   H206      1.0  0.25002  0.38680  0.38436  1.0000
  H   H207      1.0  0.42065  0.09011  0.48295  1.0000
  C   C259      1.0  0.30781  0.06408  0.58010  1.0000
  C   C260      1.0  0.28016  0.46517  0.60077  1.0000
  H   H208      1.0  0.43896  0.10557  0.34721  1.0000
  C   C261      1.0  0.13280  0.30829  0.40664  1.0000
  H   H209      1.0  0.19356  0.32332  0.44516  1.0000
  C   C262      1.0  0.11725  0.28736  0.41665  1.0000
  C   C263      1.0  0.41127  0.05360  0.46558  1.0000
  C   C264      1.0  0.41349  0.02140  0.46192  1.0000
  C   C265      1.0  0.22468  0.46971  0.60879  1.0000
  C   C266      1.0  0.23143  0.13886  0.63602  1.0000
  H   H210      1.0  0.46920  0.14256  0.36446  1.0000
  C   C267      1.0  0.04387  0.33558  0.59849  1.0000
  C   C268      1.0  0.06495  0.33263  0.61116  1.0000
  H   H211      1.0  0.40005  0.36642  0.46557  1.0000
  C   C269      1.0  0.13488  0.26883  0.42699  1.0000
  C   C270      1.0  0.46727  0.05303  0.39188  1.0000
  H   H212      1.0  0.41500  0.12272  0.43338  1.0000
  P   P9        1.0  0.22677  0.29472  0.41788  1.0000
  H   H213      1.0  0.11913  0.32261  0.39860  1.0000
  H   H214      1.0  0.40375  0.01257  0.45086  1.0000
  H   H215      1.0  0.08537  0.35802  0.33060  1.0000
  C   C271      1.0  0.05685  0.31378  0.62392  1.0000
  H   H216      1.0  0.32113  0.38601  0.62566  1.0000
  H   H217      1.0  0.13866  0.18564  0.63501  1.0000
  H   H218      1.0  0.10066  0.03047  0.58539  1.0000
  H   H219      1.0  0.44622  0.37648  0.44829  1.0000
  C   C272      1.0  0.25268  0.47452  0.33655  1.0000
  C   C273      1.0  0.05784  0.19315  0.62151  1.0000
  H   H220      1.0  0.45872  0.27878  0.35257  1.0000
  H   H221      1.0  0.40473  0.46253  0.48227  1.0000
  H   H222      1.0  0.12682  0.04568  0.61069  1.0000
  H   H223      1.0  0.06689  0.18545  0.61024  1.0000
  H   H224      1.0  0.17676  0.43197  0.51293  1.0000
  H   H225      1.0  0.41743  0.31079  0.36577  1.0000
  C   C274      1.0  0.27083  0.48311  0.36822  1.0000
  P   P10       1.0  0.45934  0.48838  0.46482  1.0000
  H   H226      1.0  0.07364  0.31200  0.63358  1.0000
  H   H227      1.0  0.19596  0.45021  0.57978  1.0000
  C   C275      1.0  0.21352  0.45355  0.55612  1.0000
  C   C276      1.0  0.42764  0.00071  0.47255  1.0000
  C   C277      1.0  0.37422  0.43637  0.31842  1.0000
  C   C278      1.0  0.24972  0.99873  0.36178  1.0000
  H   H228      1.0  0.15956  0.41683  0.48600  1.0000
  C   C279      1.0  0.01921  0.47319  0.31653  1.0000
  C   C280      1.0  0.14996  0.48144  0.33151  1.0000
  C   C281      1.0  0.25334  0.99991  0.61200  1.0000
  H   H229      1.0  0.03141  0.46796  0.32745  1.0000
  C   C282      1.0  0.10004  0.47749  0.31692  1.0000
  H   H230      1.0  0.47138  0.42904  0.44770  1.0000
  H   H231      1.0  0.20144  0.99777  0.35274  1.0000
  C   C283      1.0  0.24856  0.99880  0.41914  1.0000
  H   H232      1.0  0.28790  0.34547  0.63884  1.0000
  H   H233      1.0  0.48888  0.26617  0.44746  1.0000
  H   H234      1.0  0.48912  0.33636  0.41101  1.0000
  H   H235      1.0  0.06815  0.32459  0.30778  1.0000
  C   C284      1.0  0.49074  0.18103  0.38936  1.0000
  H   H236      1.0  0.32404  0.44044  0.63605  1.0000
  H   H237      1.0  0.49110  0.06917  0.46535  1.0000
  S   S37       1.0  0.14118  0.09782  0.63863  1.0000
  Fe  Fe18      1.0  0.15073  0.34795  0.63965  1.0000
  Fe  Fe19      1.0  0.18255  0.38250  0.66767  1.0000
  H   H238      1.0  0.18359  0.41524  0.77323  1.0000
  S   S38       1.0  0.21480  0.36800  0.68837  1.0000
  Fe  Fe20      1.0  0.11399  0.39925  0.65676  1.0000
  S   S39       1.0  0.06520  0.41130  0.66720  1.0000
  H   H239      1.0  0.24724  0.04133  0.94374  1.0000
  C   C285      1.0  0.00668  0.05157  0.66489  1.0000
  S   S40       1.0  0.13694  0.35441  0.66478  1.0000
  S   S41       1.0  0.15882  0.42841  0.66157  1.0000
  S   S42       1.0  0.13573  0.03628  0.66203  1.0000
  Fe  Fe21      1.0  0.15975  0.12526  0.65966  1.0000
  S   S43       1.0  0.12208  0.10778  0.67599  1.0000
  C   C286      1.0  0.45132  0.30570  0.77022  1.0000
  Fe  Fe22      1.0  0.15622  0.06856  0.68136  1.0000
  S   S44       1.0  0.16754  0.05359  0.70675  1.0000
  Fe  Fe23      1.0  0.10458  0.07781  0.65546  1.0000
  H   H240      1.0  0.47452  0.28041  0.84777  1.0000
  S   S45       1.0  0.19454  0.08748  0.66602  1.0000
  Fe  Fe24      1.0  0.32824  0.13124  0.80527  1.0000
  S   S46       1.0  0.34856  0.11770  0.78196  1.0000
  S   S47       1.0  0.33870  0.17949  0.81642  1.0000
  Fe  Fe25      1.0  0.29834  0.06543  0.81053  1.0000
  S   S48       1.0  0.31750  0.04725  0.78723  1.0000
  S   S49       1.0  0.26024  0.04107  0.82610  1.0000
  Fe  Fe26      1.0  0.36374  0.07311  0.79388  1.0000
  S   S50       1.0  0.41312  0.05294  0.78779  1.0000
  Fe  Fe27      1.0  0.30131  0.09342  0.77682  1.0000
  S   S51       1.0  0.28045  0.10481  0.75228  1.0000
  S   S52       1.0  0.34553  0.08781  0.81776  1.0000
  S   S53       1.0  0.28007  0.11055  0.79956  1.0000
  Fe  Fe28      1.0  0.31309  0.41724  0.80430  1.0000
  S   S54       1.0  0.34024  0.44257  0.78512  1.0000
  S   S55       1.0  0.30180  0.44059  0.82854  1.0000
  Fe  Fe29      1.0  0.31370  0.35440  0.78544  1.0000
  S   S56       1.0  0.34011  0.37589  0.76545  1.0000
  S   S57       1.0  0.29828  0.30356  0.78034  1.0000
  Fe  Fe30      1.0  0.37166  0.39938  0.78392  1.0000
  S   S58       1.0  0.42485  0.39137  0.77869  1.0000
  Fe  Fe31      1.0  0.30691  0.41648  0.76805  1.0000
  S   S59       1.0  0.28256  0.43990  0.74691  1.0000
  S   S60       1.0  0.34651  0.37519  0.80387  1.0000
  S   S61       1.0  0.27832  0.39396  0.78727  1.0000
  C   C287      1.0  0.46432  0.40302  0.78465  1.0000
  C   C288      1.0  0.47058  0.42839  0.79504  1.0000
  H   H241      1.0  0.18689  0.24152  0.67067  1.0000
  H   H242      1.0  0.45103  0.44167  0.79981  1.0000
  C   C289      1.0  0.26825  0.45827  0.83816  1.0000
  C   C290      1.0  0.45348  0.06468  0.79231  1.0000
  H   H243      1.0  0.29171  0.17373  0.69271  1.0000
  C   C291      1.0  0.39675  0.30871  0.77875  1.0000
  H   H244      1.0  0.44244  0.10105  0.80923  1.0000
  C   C292      1.0  0.17321  0.23987  0.65990  1.0000
  C   C293      1.0  0.32803  0.21396  0.80625  1.0000
  C   C294      1.0  0.31028  0.21199  0.79230  1.0000
  C   C295      1.0  0.30120  0.23977  0.78464  1.0000
  C   C296      1.0  0.31053  0.26966  0.79056  1.0000
  C   C297      1.0  0.32857  0.27172  0.80444  1.0000
  C   C298      1.0  0.33716  0.24389  0.81231  1.0000
  H   H245      1.0  0.30291  0.18907  0.78761  1.0000
  H   H246      1.0  0.28629  0.23805  0.77425  1.0000
  H   H247      1.0  0.33534  0.29468  0.80925  1.0000
  H   H248      1.0  0.35072  0.24554  0.82317  1.0000
  C   C299      1.0  0.42209  0.17083  0.79241  1.0000
  H   H249      1.0  0.41087  0.30847  0.75453  1.0000
  C   C300      1.0  0.29174  0.43189  0.65535  1.0000
  C   C301      1.0  0.19856  0.06853  0.71948  1.0000
  C   C302      1.0  0.21846  0.09368  0.71519  1.0000
  C   C303      1.0  0.24282  0.10462  0.72552  1.0000
  C   C304      1.0  0.24825  0.09037  0.74016  1.0000
  C   C305      1.0  0.22819  0.06539  0.74454  1.0000
  C   C306      1.0  0.20352  0.05459  0.73427  1.0000
  H   H250      1.0  0.21493  0.10492  0.70397  1.0000
  H   H251      1.0  0.25754  0.12439  0.72213  1.0000
  H   H252      1.0  0.23207  0.05411  0.75571  1.0000
  H   H253      1.0  0.18840  0.03506  0.73773  1.0000
  C   C307      1.0  0.02557  0.40084  0.66112  1.0000
  H   H254      1.0  0.46849  0.30543  0.76084  1.0000
  C   C308      1.0  0.32152  0.40397  0.95781  1.0000
  C   C309      1.0  0.23366  0.38897  0.70435  1.0000
  C   C310      1.0  0.23151  0.42184  0.70641  1.0000
  C   C311      1.0  0.24677  0.43709  0.71939  1.0000
  C   C312      1.0  0.26438  0.41978  0.73047  1.0000
  C   C313      1.0  0.02688  0.12515  0.68577  1.0000
  C   C314      1.0  0.25166  0.37177  0.71530  1.0000
  H   H255      1.0  0.21797  0.43550  0.69806  1.0000
  H   H256      1.0  0.24479  0.46247  0.72090  1.0000
  H   H257      1.0  0.07726  0.31155  0.82645  1.0000
  C   C315      1.0  0.29809  0.08218  0.69658  1.0000
  C   C316      1.0  0.15000  0.46166  0.96586  1.0000
  C   C317      1.0  0.16402  0.21007  0.65375  1.0000
  H   H258      1.0  0.41533  0.30883  0.84803  1.0000
  C   C318      1.0  0.32169  0.02378  0.74453  1.0000
  H   H259      1.0  0.25367  0.34640  0.71382  1.0000
  C   C319      1.0  0.05101  0.44992  0.95103  1.0000
  C   C320      1.0  0.27214  0.01055  0.72321  1.0000
  H   H260      1.0  0.23290  0.14724  0.64809  1.0000
  H   H261      1.0  0.47311  0.02997  0.77647  1.0000
  C   C321      1.0  0.26989  0.00086  0.73883  1.0000
  C   C322      1.0  0.02052  0.31443  0.66651  1.0000
  C   C323      1.0  0.16538  0.26779  0.65205  1.0000
  H   H262      1.0  0.38224  0.34952  0.86044  1.0000
  H   H263      1.0  0.46899  0.15438  0.79750  1.0000
  C   C324      1.0  0.11323  0.99648  0.92120  1.0000
  H   H264      1.0  0.37606  0.40209  0.84805  1.0000
  C   C325      1.0  0.23081  0.48158  0.65524  1.0000
  C   C326      1.0  0.26706  0.38705  0.72819  1.0000
  H   H265      1.0  0.13235  0.44409  0.96232  1.0000
  H   H266      1.0  0.40361  0.41370  0.82313  1.0000
  H   H267      1.0  0.99725  0.32262  0.66317  1.0000
  C   C327      1.0  0.47861  0.04884  0.78482  1.0000
  H   H268      1.0  0.48840  0.13304  0.77293  1.0000
  C   C328      1.0  0.15767  0.03128  0.91487  1.0000
  C   C329      1.0  0.13886  0.04495  0.90305  1.0000
  P   P11       1.0  0.19709  0.04672  0.91947  1.0000
  C   C330      1.0  0.19468  0.07267  0.93654  1.0000
  H   H269      1.0  0.15872  0.99550  0.93276  1.0000
  H   H270      1.0  0.28483  0.99927  0.94998  1.0000
  H   H271      1.0  0.32605  0.15096  0.71343  1.0000
  C   C331      1.0  0.22344  0.42276  0.95403  1.0000
  H   H272      1.0  0.30217  0.00095  0.84552  1.0000
  H   H273      1.0  0.02696  0.22058  0.66218  1.0000
  C   C332      1.0  0.17747  0.06287  0.94973  1.0000
  C   C333      1.0  0.26778  0.99576  0.94047  1.0000
  C   C334      1.0  0.32414  0.03329  0.72890  1.0000
  C   C335      1.0  0.21360  0.11876  0.95155  1.0000
  C   C336      1.0  0.21323  0.10054  0.93767  1.0000
  C   C337      1.0  0.21234  0.06655  0.90227  1.0000
  C   C338      1.0  0.23243  0.05068  0.89174  1.0000
  C   C339      1.0  0.24294  0.06562  0.87814  1.0000
  C   C340      1.0  0.23345  0.09640  0.87484  1.0000
  C   C341      1.0  0.21337  0.11236  0.88517  1.0000
  C   C342      1.0  0.20274  0.09749  0.89879  1.0000
  C   C343      1.0  0.23915  0.46357  0.83051  1.0000
  H   H274      1.0  0.41363  0.25188  0.80873  1.0000
  C   C344      1.0  0.14460  0.00680  0.92382  1.0000
  C   C345      1.0  0.01318  0.06964  0.65158  1.0000
  P   P12       1.0  0.30292  0.03969  0.69787  1.0000
  C   C346      1.0  0.49030  0.38613  0.77861  1.0000
  C   C347      1.0  0.39456  0.35473  0.84965  1.0000
  C   C348      1.0  0.31297  0.13548  0.70536  1.0000
  C   C349      1.0  0.25251  0.47352  0.93877  1.0000
  H   H275      1.0  0.21300  0.39694  0.74980  1.0000
  H   H276      1.0  0.16464  0.04055  0.94968  1.0000
  C   C350      1.0  0.45195  0.21942  0.77589  1.0000
  H   H277      1.0  0.34562  0.04537  0.72532  1.0000
  H   H278      1.0  0.22820  0.14004  0.95242  1.0000
  H   H279      1.0  0.22836  0.10769  0.92812  1.0000
  C   C351      1.0  0.00114  0.47834  0.95023  1.0000
  H   H280      1.0  0.25826  0.05312  0.87003  1.0000
  H   H281      1.0  0.24153  0.10769  0.86420  1.0000
  H   H282      1.0  0.20585  0.13616  0.88251  1.0000
  H   H283      1.0  0.18662  0.10992  0.90647  1.0000
  C   C352      1.0  0.06680  0.28198  0.66223  1.0000
  C   C353      1.0  0.24204  0.02432  0.68668  1.0000
  H   H284      1.0  0.40456  0.23655  0.77157  1.0000
  C   C354      1.0  0.22495  0.35197  0.75983  1.0000
  C   C355      1.0  0.21056  0.38160  0.75986  1.0000
  C   C356      1.0  0.19391  0.39185  0.77306  1.0000
  C   C357      1.0  0.19148  0.37239  0.78619  1.0000
  C   C358      1.0  0.20535  0.34228  0.78612  1.0000
  C   C359      1.0  0.22255  0.33247  0.77293  1.0000
  P   P13       1.0  0.20370  0.31842  0.80357  1.0000
  C   C360      1.0  0.22952  0.33819  0.81778  1.0000
  C   C361      1.0  0.16359  0.31661  0.81073  1.0000
  C   C362      1.0  0.15808  0.30919  0.82651  1.0000
  C   C363      1.0  0.12703  0.30750  0.83216  1.0000
  H   H285      1.0  0.35315  0.47818  0.72411  1.0000
  H   H286      1.0  0.29527  0.48676  0.80348  1.0000
  C   C364      1.0  0.13762  0.32122  0.80055  1.0000
  C   C365      1.0  0.26208  0.33153  0.81833  1.0000
  C   C366      1.0  0.28212  0.34736  0.82911  1.0000
  C   C367      1.0  0.26995  0.37056  0.83915  1.0000
  C   C368      1.0  0.23777  0.37815  0.83832  1.0000
  C   C369      1.0  0.21762  0.36214  0.82764  1.0000
  C   C370      1.0  0.21397  0.27747  0.79995  1.0000
  C   C371      1.0  0.23139  0.26041  0.81113  1.0000
  C   C372      1.0  0.23856  0.22857  0.80837  1.0000
  C   C373      1.0  0.22789  0.21329  0.79460  1.0000
  C   C374      1.0  0.20965  0.22974  0.78366  1.0000
  C   C375      1.0  0.20238  0.26158  0.78641  1.0000
  H   H287      1.0  0.23847  0.34424  0.74976  1.0000
  H   H288      1.0  0.07887  0.33243  0.69329  1.0000
  C   C376      1.0  0.26667  0.46091  0.95221  1.0000
  H   H289      1.0  0.17927  0.38107  0.79650  1.0000
  H   H290      1.0  0.23462  0.31005  0.77275  1.0000
  H   H291      1.0  0.17780  0.30477  0.83445  1.0000
  C   C377      1.0  0.09485  0.01000  0.90936  1.0000
  C   C378      1.0  0.31452  0.44640  0.69218  1.0000
  H   H292      1.0  0.18399  0.03957  0.77089  1.0000
  H   H293      1.0  0.09352  0.04449  0.89099  1.0000
  H   H294      1.0  0.27209  0.31434  0.81034  1.0000
  H   H295      1.0  0.30726  0.34219  0.82943  1.0000
  H   H296      1.0  0.28566  0.38353  0.84717  1.0000
  H   H297      1.0  0.22871  0.39707  0.84569  1.0000
  H   H298      1.0  0.19295  0.36893  0.82693  1.0000
  H   H299      1.0  0.23957  0.27150  0.82199  1.0000
  H   H300      1.0  0.25301  0.21583  0.81676  1.0000
  H   H301      1.0  0.23407  0.18878  0.79238  1.0000
  H   H302      1.0  0.20129  0.21778  0.77303  1.0000
  H   H303      1.0  0.18782  0.27384  0.77795  1.0000
  C   C379      1.0  0.47050  0.19611  0.78308  1.0000
  S   S62       1.0  0.05270  0.08142  0.64621  1.0000
  H   H304      1.0  0.00584  0.41449  0.68345  1.0000
  C   C380      1.0  0.45334  0.23395  0.84894  1.0000
  C   C381      1.0  0.43343  0.21149  0.84152  1.0000
  C   C382      1.0  0.41933  0.21825  0.82704  1.0000
  C   C383      1.0  0.42519  0.24732  0.81987  1.0000
  C   C384      1.0  0.44538  0.26995  0.82717  1.0000
  C   C385      1.0  0.45928  0.26308  0.84181  1.0000
  H   H305      1.0  0.27089  0.25321  0.65251  1.0000
  C   C386      1.0  0.08895  0.04296  0.95796  1.0000
  C   C387      1.0  0.43961  0.30734  0.79812  1.0000
  C   C388      1.0  0.46170  0.30552  0.78590  1.0000
  C   C389      1.0  0.40708  0.30893  0.79441  1.0000
  C   C390      1.0  0.39114  0.38437  0.84273  1.0000
  C   C391      1.0  0.22000  0.00898  0.67674  1.0000
  P   P14       1.0  0.45237  0.30825  0.81846  1.0000
  C   C392      1.0  0.45522  0.17213  0.79155  1.0000
  C   C393      1.0  0.27217  0.40906  0.66235  1.0000
  C   C394      1.0  0.17819  0.08093  0.96362  1.0000
  H   H306      1.0  0.25249  0.00512  0.71536  1.0000
  C   C395      1.0  0.01817  0.38940  0.64598  1.0000
  C   C396      1.0  0.31509  0.10263  0.70686  1.0000
  C   C397      1.0  0.40668  0.39097  0.82872  1.0000
  C   C398      1.0  0.42517  0.36783  0.82148  1.0000
  C   C399      1.0  0.28498  0.99901  0.67282  1.0000
  H   H307      1.0  0.42858  0.18894  0.84702  1.0000
  H   H308      1.0  0.40341  0.20102  0.82146  1.0000
  H   H309      1.0  0.00539  0.42763  0.95290  1.0000
  C   C400      1.0  0.32837  0.44846  0.70718  1.0000
  H   H310      1.0  0.49099  0.21484  0.81327  1.0000
  H   H311      1.0  0.38970  0.31075  0.80365  1.0000
  H   H312      1.0  0.21497  0.99729  0.81385  1.0000
  H   H313      1.0  0.03948  0.10574  0.68027  1.0000
  H   H314      1.0  0.29248  0.00070  0.76166  1.0000
  C   C401      1.0  0.03574  0.29056  0.65787  1.0000
  H   H315      1.0  0.10395  0.04362  0.94771  1.0000
  C   C402      1.0  0.16841  0.99134  0.77440  1.0000
  H   H316      1.0  0.06389  0.42803  0.95233  1.0000
  H   H317      1.0  0.09327  0.47830  0.94785  1.0000
  H   H318      1.0  0.46400  0.22880  0.86025  1.0000
  C   C403      1.0  0.35358  0.39975  0.95430  1.0000
  C   C404      1.0  0.46125  0.08884  0.80318  1.0000
  H   H319      1.0  0.41046  0.15196  0.79882  1.0000
  H   H320      1.0  0.12294  0.30208  0.84440  1.0000
  C   C405      1.0  0.41888  0.30738  0.76665  1.0000
  H   H321      1.0  0.37819  0.19295  0.78593  1.0000
  C   C406      1.0  0.08200  0.29655  0.67514  1.0000
  C   C407      1.0  0.03590  0.32904  0.67938  1.0000
  H   H322      1.0  0.32694  0.42846  0.71504  1.0000
  H   H323      1.0  0.17326  0.29051  0.65678  1.0000
  H   H324      1.0  0.30995  0.99486  0.67094  1.0000
  C   C408      1.0  0.10770  0.03416  0.90026  1.0000
  H   H325      1.0  0.10621  0.29032  0.67814  1.0000
  C   C409      1.0  0.24617  0.01956  0.93690  1.0000
  C   C410      1.0  0.15745  0.16918  0.70496  1.0000
  C   C411      1.0  0.15962  0.14893  0.71777  1.0000
  C   C412      1.0  0.18064  0.15624  0.73016  1.0000
  C   C413      1.0  0.20019  0.18322  0.72951  1.0000
  C   C414      1.0  0.19953  0.20257  0.71618  1.0000
  C   C415      1.0  0.17698  0.19610  0.70427  1.0000
  P   P15       1.0  0.22541  0.23687  0.71473  1.0000
  C   C416      1.0  0.26047  0.23348  0.72698  1.0000
  C   C417      1.0  0.24072  0.24152  0.69513  1.0000
  C   C418      1.0  0.25295  0.27103  0.69049  1.0000
  C   C419      1.0  0.26377  0.27522  0.67517  1.0000
  C   C420      1.0  0.26321  0.24979  0.66449  1.0000
  C   C421      1.0  0.25230  0.22004  0.66921  1.0000
  C   C422      1.0  0.24131  0.21581  0.68450  1.0000
  C   C423      1.0  0.27454  0.26059  0.73397  1.0000
  C   C424      1.0  0.30215  0.25799  0.74312  1.0000
  C   C425      1.0  0.31584  0.22837  0.74541  1.0000
  C   C426      1.0  0.30221  0.20135  0.73833  1.0000
  C   C427      1.0  0.27505  0.20398  0.72885  1.0000
  C   C428      1.0  0.20189  0.27044  0.72055  1.0000
  C   C429      1.0  0.18848  0.29043  0.70924  1.0000
  C   C430      1.0  0.17067  0.31656  0.71392  1.0000
  C   C431      1.0  0.16510  0.32231  0.72984  1.0000
  C   C432      1.0  0.17709  0.30169  0.74112  1.0000
  C   C433      1.0  0.19564  0.27596  0.73652  1.0000
  H   H326      1.0  0.14114  0.16377  0.69534  1.0000
  H   H327      1.0  0.14535  0.12736  0.71801  1.0000
  H   H328      1.0  0.18242  0.14043  0.74007  1.0000
  H   H329      1.0  0.21612  0.18844  0.73930  1.0000
  H   H330      1.0  0.17497  0.21141  0.69420  1.0000
  H   H331      1.0  0.25342  0.29110  0.69858  1.0000
  H   H332      1.0  0.27206  0.29838  0.67155  1.0000
  H   H333      1.0  0.34741  0.07155  0.67662  1.0000
  H   H334      1.0  0.25128  0.20045  0.66086  1.0000
  H   H335      1.0  0.23254  0.19264  0.68780  1.0000
  H   H336      1.0  0.26434  0.28378  0.73235  1.0000
  H   H337      1.0  0.31261  0.27892  0.74874  1.0000
  H   H338      1.0  0.33666  0.22633  0.75293  1.0000
  H   H339      1.0  0.31242  0.17825  0.74036  1.0000
  H   H340      1.0  0.26525  0.18287  0.72318  1.0000
  H   H341      1.0  0.19184  0.28624  0.69679  1.0000
  H   H342      1.0  0.16154  0.33261  0.70513  1.0000
  H   H343      1.0  0.15156  0.34279  0.73342  1.0000
  H   H344      1.0  0.17235  0.30601  0.75343  1.0000
  H   H345      1.0  0.20520  0.26044  0.74539  1.0000
  C   C434      1.0  0.41879  0.21839  0.77699  1.0000
  C   C435      1.0  0.40387  0.19395  0.78514  1.0000
  C   C436      1.0  0.27470  0.01924  0.68496  1.0000
  C   C437      1.0  0.03537  0.21311  0.65076  1.0000
  C   C438      1.0  0.41350  0.33168  0.84254  1.0000
  C   C439      1.0  0.07029  0.01604  0.96083  1.0000
  H   H346      1.0  0.08663  0.32337  0.79837  1.0000
  H   H347      1.0  0.25749  0.41528  0.67229  1.0000
  H   H348      1.0  0.02610  0.04367  0.67223  1.0000
  C   C440      1.0  0.20385  0.99494  0.97135  1.0000
  C   C441      1.0  0.27637  0.12820  0.68347  1.0000
  H   H349      1.0  0.14806  0.06377  0.89587  1.0000
  H   H350      1.0  0.34077  0.02923  0.75284  1.0000
  H   H351      1.0  0.25687  0.36023  0.66235  1.0000
  C   C442      1.0  0.29353  0.14828  0.69372  1.0000
  C   C443      1.0  0.10130  0.31279  0.82205  1.0000
  C   C444      1.0  0.10659  0.31950  0.80624  1.0000
  C   C445      1.0  0.04116  0.14249  0.69807  1.0000
  H   H352      1.0  0.07135  0.99644  0.95261  1.0000
  H   H353      1.0  0.28097  0.37349  0.73642  1.0000
  S   S63       1.0  0.17783  0.17579  0.66327  1.0000
  H   H354      1.0  0.03537  0.17989  0.71521  1.0000
  H   H355      1.0  0.37161  0.31050  0.77603  1.0000
  C   C446      1.0  0.02456  0.16696  0.70541  1.0000
  C   C447      1.0  0.18447  0.01940  0.77864  1.0000
  H   H356      1.0  0.07079  0.00145  0.90715  1.0000
  H   H357      1.0  0.06488  0.13655  0.70207  1.0000
  H   H358      1.0  0.26093  0.13806  0.67456  1.0000
  H   H359      1.0  0.25480  0.09478  0.64075  1.0000
  H   H360      1.0  0.46280  0.23858  0.76953  1.0000
  H   H361      1.0  0.36033  0.39206  0.94261  1.0000
  H   H362      1.0  0.21403  0.04300  0.79621  1.0000
  H   H363      1.0  0.32991  0.09345  0.71613  1.0000
  C   C448      1.0  0.27160  0.37783  0.65667  1.0000
  H   H364      1.0  0.23616  0.45646  0.81832  1.0000
  C   C449      1.0  0.35858  0.05041  0.68102  1.0000
  C   C450      1.0  0.42912  0.33812  0.82839  1.0000
  C   C451      1.0  0.00049  0.40572  0.67170  1.0000
  H   H365      1.0  0.18724  0.42558  0.93601  1.0000
  H   H366      1.0  0.14123  0.32606  0.78823  1.0000
  H   H367      1.0  0.23990  0.02665  0.89373  1.0000
  H   H368      1.0  0.40125  0.05816  0.66776  1.0000
  C   C452      1.0  0.25335  0.01326  0.84161  1.0000
  H   H369      1.0  0.26603  0.08039  0.67638  1.0000
  C   C453      1.0  0.25208  0.43561  0.96006  1.0000
  S   S64       1.0  0.19812  0.37259  0.64267  1.0000
  C   C454      1.0  0.20968  0.43508  0.94041  1.0000
  C   C455      1.0  0.06662  0.32020  0.68367  1.0000
  C   C456      1.0  0.99397  0.17457  0.70018  1.0000
  C   C457      1.0  0.34308  0.47659  0.71232  1.0000
  C   C458      1.0  0.29921  0.02715  0.71810  1.0000
  Fe  Fe32      1.0  0.17302  0.05773  0.64620  1.0000
  H   H370      1.0  0.21135  0.40351  0.95980  1.0000
  H   H371      1.0  0.23358  0.04036  0.69566  1.0000
  C   C459      1.0  0.27898  0.09532  0.68472  1.0000
  H   H372      1.0  0.21266  0.47103  0.92270  1.0000
  H   H373      1.0  0.20271  0.02036  0.84122  1.0000
  C   C460      1.0  0.21402  0.47873  0.83853  1.0000
  C   C461      1.0  0.01782  0.44989  0.95155  1.0000
  H   H374      1.0  0.19485  0.01297  0.67827  1.0000
  H   H375      1.0  0.02446  0.34814  0.68570  1.0000
  C   C462      1.0  0.22192  0.00748  0.84659  1.0000
  H   H376      1.0  0.12098  0.99459  0.84875  1.0000
  H   H377      1.0  0.48693  0.30481  0.78839  1.0000
  H   H378      1.0  0.30369  0.39928  0.94876  1.0000
  C   C463      1.0  0.21717  0.48860  0.85441  1.0000
  H   H379      1.0  0.48590  0.36655  0.77055  1.0000
  H   H380      1.0  0.43591  0.37295  0.81031  1.0000
  H   H381      1.0  0.07992  0.26485  0.65536  1.0000
  C   C464      1.0  0.38907  0.04283  0.67591  1.0000
  C   C465      1.0  0.27123  0.46773  0.85409  1.0000
  H   H382      1.0  0.30259  0.42455  0.68881  1.0000
  C   C466      1.0  0.19613  0.10892  0.96452  1.0000
  C   C467      1.0  0.20122  0.02141  0.79289  1.0000
  C   C468      1.0  0.34267  0.03063  0.69158  1.0000
  H   H383      1.0  0.19197  0.48306  0.83232  1.0000
  H   H384      1.0  0.04970  0.16710  0.65891  1.0000
  C   C469      1.0  0.25433  0.48560  0.66692  1.0000
  H   H385      1.0  0.01959  0.47529  0.66104  1.0000
  H   H386      1.0  0.23594  0.46908  0.64437  1.0000
  C   C470      1.0  0.22406  0.46060  0.93285  1.0000
  C   C471      1.0  0.22368  0.01512  0.92468  1.0000
  C   C472      1.0  0.00369  0.47557  0.65092  1.0000
  C   C473      1.0  0.99627  0.13263  0.68058  1.0000
  P   P16       1.0  0.29414  0.47167  0.66346  1.0000
  H   H387      1.0  0.40177  0.40224  0.96310  1.0000
  H   H388      1.0  0.42737  0.00950  0.67724  1.0000
  H   H389      1.0  0.28876  0.47122  0.95660  1.0000
  C   C474      1.0  0.06766  0.47819  0.94860  1.0000
  C   C475      1.0  0.29453  0.00767  0.74950  1.0000
  H   H390      1.0  0.10374  0.08923  0.96641  1.0000
  C   C476      1.0  0.28917  0.36949  0.64346  1.0000
  C   C477      1.0  0.30937  0.42331  0.64203  1.0000
  H   H391      1.0  0.14989  0.48491  0.94325  1.0000
  C   C478      1.0  0.38793  0.99541  0.69160  1.0000
  C   C479      1.0  0.08873  0.06870  0.96845  1.0000
  C   C480      1.0  0.04821  0.18287  0.64897  1.0000
  C   C481      1.0  0.40377  0.01539  0.68123  1.0000
  C   C482      1.0  0.31529  0.47259  0.68214  1.0000
  C   C483      1.0  0.15980  0.48485  0.95503  1.0000
  C   C484      1.0  0.24589  0.48234  0.86217  1.0000
  C   C485      1.0  0.37692  0.40547  0.96583  1.0000
  C   C486      1.0  0.27787  0.99682  0.84904  1.0000
  C   C487      1.0  0.20178  0.99544  0.80291  1.0000
  H   H392      1.0  0.22825  0.00255  0.96995  1.0000
  H   H393      1.0  0.48895  0.36889  0.81791  1.0000
  H   H394      1.0  0.36133  0.48556  0.65795  1.0000
  H   H395      1.0  0.29337  0.46375  0.86027  1.0000
  C   C488      1.0  0.35742  0.00289  0.69671  1.0000
  H   H396      1.0  0.24858  0.48878  0.87444  1.0000
  C   C489      1.0  0.31257  0.41408  0.97291  1.0000
  P   P17       1.0  0.01730  0.27281  0.64050  1.0000
  Fe  Fe33      1.0  0.30648  0.90464  0.13811  1.0000
  S   S65       1.0  0.33544  0.92084  0.15946  1.0000
  S   S66       1.0  0.29920  0.93928  0.11728  1.0000
  Fe  Fe34      1.0  0.30037  0.83743  0.15164  1.0000
  S   S67       1.0  0.32820  0.84980  0.17351  1.0000
  S   S68       1.0  0.27602  0.78902  0.14958  1.0000
  Fe  Fe35      1.0  0.29949  0.89416  0.17399  1.0000
  S   S69       1.0  0.27789  0.91745  0.19592  1.0000
  Fe  Fe36      1.0  0.36242  0.87500  0.15740  1.0000
  S   S70       1.0  0.41492  0.86368  0.16357  1.0000
  S   S71       1.0  0.26930  0.88064  0.15286  1.0000
  S   S72       1.0  0.33567  0.85992  0.13531  1.0000
  Fe  Fe37      1.0  0.31091  0.54354  0.14434  1.0000
  S   S73       1.0  0.33821  0.52058  0.16426  1.0000
  S   S74       1.0  0.27054  0.51718  0.13031  1.0000
  Fe  Fe38      1.0  0.34075  0.60897  0.15248  1.0000
  S   S75       1.0  0.36917  0.58989  0.17267  1.0000
  S   S76       1.0  0.35302  0.66029  0.14678  1.0000
  Fe  Fe39      1.0  0.38106  0.54958  0.15647  1.0000
  S   S77       1.0  0.43126  0.52803  0.15403  1.0000
  Fe  Fe40      1.0  0.32445  0.56299  0.17911  1.0000
  S   S78       1.0  0.31334  0.56562  0.20568  1.0000
  S   S79       1.0  0.35445  0.56965  0.13569  1.0000
  S   S80       1.0  0.29540  0.58492  0.15977  1.0000
  Fe  Fe41      1.0  0.18512  0.87584  0.27879  1.0000
  C   C490      1.0  0.20284  0.84327  0.19167  1.0000
  S   S81       1.0  0.21583  0.85936  0.25802  1.0000
  C   C491      1.0  0.30355  0.53691  0.29520  1.0000
  C   C492      1.0  0.08494  0.82420  0.20115  1.0000
  C   C493      1.0  0.48119  0.72728  0.13969  1.0000
  C   C494      1.0  0.46453  0.64785  0.18452  1.0000
  S   S82       1.0  0.16265  0.92196  0.28642  1.0000
  S   S83       1.0  0.13911  0.84848  0.28140  1.0000
  H   H397      1.0  0.03758  0.86528  0.30610  1.0000
  H   H398      1.0  0.10443  0.64516  0.24399  1.0000
  Fe  Fe42      1.0  0.18490  0.55642  0.27649  1.0000
  H   H399      1.0  0.23037  0.76963  0.19914  1.0000
  S   S84       1.0  0.19688  0.53669  0.25192  1.0000
  H   H400      1.0  0.10313  0.49160  0.99523  1.0000
  C   C495      1.0  0.31524  0.56333  0.28706  1.0000
  S   S85       1.0  0.15959  0.52900  0.29571  1.0000
  S   S86       1.0  0.15199  0.59799  0.27832  1.0000
  H   H401      1.0  0.18648  0.95906  0.10175  1.0000
  C   C496      1.0  0.03072  0.56539  0.28126  1.0000
  H   H402      1.0  0.11679  0.96729  0.97650  1.0000
  H   H403      1.0  0.05033  0.56382  0.27320  1.0000
  H   H404      1.0  0.01191  0.55137  0.01828  1.0000
  C   C497      1.0  0.01873  0.76078  0.28006  1.0000
  C   C498      1.0  0.22211  0.81660  0.19075  1.0000
  C   C499      1.0  0.09336  0.85919  0.23665  1.0000
  C   C500      1.0  0.04253  0.92606  0.99687  1.0000
  H   H405      1.0  0.17460  0.96271  0.05068  1.0000
  H   H406      1.0  0.32036  0.61422  0.28686  1.0000
  P   P18       1.0  0.03634  0.70371  0.29376  1.0000
  C   C501      1.0  0.02667  0.89758  0.28761  1.0000
  S   S87       1.0  0.20295  0.86443  0.30330  1.0000
  H   H407      1.0  0.08889  0.91315  0.02907  1.0000
  C   C502      1.0  0.47442  0.98279  0.17863  1.0000
  H   H408      1.0  0.02518  0.91380  0.98942  1.0000
  H   H409      1.0  0.24235  0.81649  0.18294  1.0000
  C   C503      1.0  0.36410  0.92499  0.20035  1.0000
  H   H410      1.0  0.46576  0.58848  0.16144  1.0000
  H   H411      1.0  0.06311  0.64418  0.30454  1.0000
  C   C504      1.0  0.27975  0.55895  0.21800  1.0000
  C   C505      1.0  0.28083  0.57021  0.23370  1.0000
  C   C506      1.0  0.25551  0.56436  0.24413  1.0000
  C   C507      1.0  0.22878  0.54677  0.23906  1.0000
  C   C508      1.0  0.22766  0.53570  0.22336  1.0000
  C   C509      1.0  0.25276  0.54195  0.21287  1.0000
  H   H412      1.0  0.30161  0.58326  0.23786  1.0000
  H   H413      1.0  0.25698  0.57292  0.25616  1.0000
  C   C510      1.0  0.16991  0.81721  0.21109  1.0000
  H   H414      1.0  0.25153  0.53296  0.20090  1.0000
  C   C511      1.0  0.45445  0.87324  0.15748  1.0000
  H   H415      1.0  0.41258  0.95627  0.10806  1.0000
  C   C512      1.0  0.46081  0.89194  0.14439  1.0000
  C   C513      1.0  0.48945  0.79333  0.13800  1.0000
  C   C514      1.0  0.26077  0.90084  0.21314  1.0000
  C   C515      1.0  0.26091  0.86830  0.21600  1.0000
  C   C516      1.0  0.24705  0.85622  0.22977  1.0000
  C   C517      1.0  0.23318  0.87644  0.24099  1.0000
  C   C518      1.0  0.23302  0.90901  0.23815  1.0000
  C   C519      1.0  0.24675  0.92108  0.22432  1.0000
  H   H416      1.0  0.27148  0.85248  0.20754  1.0000
  H   H417      1.0  0.24673  0.83098  0.23169  1.0000
  H   H418      1.0  0.22244  0.92492  0.24662  1.0000
  H   H419      1.0  0.24650  0.94631  0.22228  1.0000
  C   C520      1.0  0.29766  0.75335  0.14973  1.0000
  C   C521      1.0  0.28132  0.72416  0.15056  1.0000
  C   C522      1.0  0.29795  0.69535  0.15037  1.0000
  C   C523      1.0  0.33104  0.69557  0.14908  1.0000
  C   C524      1.0  0.34730  0.72485  0.14842  1.0000
  C   C525      1.0  0.33076  0.75357  0.14888  1.0000
  H   H420      1.0  0.25568  0.72387  0.15120  1.0000
  H   H421      1.0  0.28517  0.67299  0.15071  1.0000
  H   H422      1.0  0.37279  0.72542  0.14720  1.0000
  H   H423      1.0  0.34356  0.77588  0.14836  1.0000
  H   H424      1.0  0.47869  0.63498  0.19294  1.0000
  H   H425      1.0  0.23230  0.90258  0.97975  1.0000
  C   C526      1.0  0.10369  0.80245  0.20931  1.0000
  H   H426      1.0  0.08836  0.84946  0.20300  1.0000
  C   C527      1.0  0.07162  0.79440  0.29177  1.0000
  H   H427      1.0  0.36710  0.96002  0.12626  1.0000
  C   C528      1.0  0.19592  0.50668  0.97465  1.0000
  Fe  Fe43      1.0  0.12919  0.57259  0.29851  1.0000
  C   C529      1.0  0.05757  0.78099  0.18747  1.0000
  C   C530      1.0  0.04133  0.54086  0.98762  1.0000
  C   C531      1.0  0.22535  0.96609  0.02951  1.0000
  C   C532      1.0  0.14109  0.97497  0.97492  1.0000
  H   H428      1.0  0.20640  0.96798  0.02084  1.0000
  C   C533      1.0  0.04990  0.95814  0.99443  1.0000
  C   C534      1.0  0.14224  0.75465  0.26697  1.0000
  C   C535      1.0  0.39418  0.91390  0.19646  1.0000
  C   C536      1.0  0.10461  0.51519  0.04411  1.0000
  H   H429      1.0  0.30814  0.50147  0.10203  1.0000
  H   H430      1.0  0.46012  0.78438  0.20983  1.0000
  H   H431      1.0  0.20844  0.86393  0.18472  1.0000
  C   C537      1.0  0.05817  0.51622  0.99471  1.0000
  C   C538      1.0  0.41546  0.93331  0.18837  1.0000
  C   C539      1.0  0.21116  0.96482  0.09962  1.0000
  H   H432      1.0  0.40069  0.88987  0.19928  1.0000
  C   C540      1.0  0.37614  0.97468  0.18769  1.0000
  C   C541      1.0  0.27422  0.96306  0.05192  1.0000
  H   H433      1.0  0.14179  0.90158  0.01656  1.0000
  C   C542      1.0  0.45939  0.67342  0.15919  1.0000
  C   C543      1.0  0.34493  0.50714  0.23675  1.0000
  C   C544      1.0  0.26734  0.95741  0.10635  1.0000
  C   C545      1.0  0.08974  0.51092  0.99025  1.0000
  H   H434      1.0  0.43815  0.92369  0.18514  1.0000
  C   C546      1.0  0.21863  0.98701  0.08790  1.0000
  H   H435      1.0  0.05068  0.88516  0.01117  1.0000
  H   H436      1.0  0.07366  0.73410  0.19291  1.0000
  C   C547      1.0  0.18932  0.79044  0.21004  1.0000
  C   C548      1.0  0.07664  0.75924  0.19531  1.0000
  H   H437      1.0  0.25622  0.91696  0.05716  1.0000
  C   C549      1.0  0.10673  0.51090  0.26467  1.0000
  C   C550      1.0  0.14798  0.87697  0.23441  1.0000
  H   H438      1.0  0.20725  0.52201  0.21927  1.0000
  H   H439      1.0  0.39514  0.63970  0.09053  1.0000
  C   C551      1.0  0.44892  0.67154  0.12490  1.0000
  H   H440      1.0  0.04736  0.83036  0.18411  1.0000
  H   H441      1.0  0.46125  0.75678  0.18400  1.0000
  H   H442      1.0  0.26041  0.50027  0.03113  1.0000
  C   C552      1.0  0.43245  0.65326  0.18748  1.0000
  C   C553      1.0  0.44817  0.68730  0.11046  1.0000
  C   C554      1.0  0.42883  0.67586  0.09810  1.0000
  C   C555      1.0  0.41016  0.64861  0.10006  1.0000
  C   C556      1.0  0.41070  0.63289  0.11440  1.0000
  C   C557      1.0  0.43002  0.64419  0.12676  1.0000
  H   H443      1.0  0.18407  0.76960  0.21683  1.0000
  H   H444      1.0  0.10248  0.96959  0.02481  1.0000
  C   C558      1.0  0.10464  0.53095  0.97957  1.0000
  H   H445      1.0  0.46747  0.96750  0.11788  1.0000
  C   C559      1.0  0.41382  0.66874  0.17637  1.0000
  C   C560      1.0  0.42725  0.67867  0.16228  1.0000
  C   C561      1.0  0.03679  0.57144  0.29725  1.0000
  C   C562      1.0  0.11120  0.77397  0.24505  1.0000
  C   C563      1.0  0.48308  0.57044  0.15898  1.0000
  C   C564      1.0  0.10977  0.91011  0.24761  1.0000
  C   C565      1.0  0.39114  0.96468  0.13054  1.0000
  C   C566      1.0  0.07837  0.92548  0.01930  1.0000
  S   S88       1.0  0.22147  0.57666  0.29318  1.0000
  H   H446      1.0  0.46277  0.70813  0.10861  1.0000
  H   H447      1.0  0.42843  0.68799  0.08697  1.0000
  H   H448      1.0  0.09594  0.52943  0.02046  1.0000
  H   H449      1.0  0.47826  0.93701  0.16718  1.0000
  C   C567      1.0  0.04957  0.80951  0.28218  1.0000
  C   C568      1.0  0.16653  0.78956  0.24804  1.0000
  H   H450      1.0  0.10341  0.68944  0.28959  1.0000
  H   H451      1.0  0.01634  0.67849  0.26266  1.0000
  H   H452      1.0  0.38867  0.67215  0.17837  1.0000
  H   H453      1.0  0.41234  0.68969  0.15356  1.0000
  C   C569      1.0  0.42782  0.83766  0.09750  1.0000
  C   C570      1.0  0.43264  0.83668  0.11377  1.0000
  C   C571      1.0  0.41028  0.82167  0.12323  1.0000
  C   C572      1.0  0.38326  0.80733  0.11644  1.0000
  C   C573      1.0  0.37844  0.80779  0.10010  1.0000
  C   C574      1.0  0.40065  0.82357  0.09068  1.0000
  P   P19       1.0  0.34220  0.79126  0.09175  1.0000
  C   C575      1.0  0.33485  0.75171  0.09878  1.0000
  C   C576      1.0  0.31130  0.81850  0.09719  1.0000
  C   C577      1.0  0.28902  0.81066  0.10873  1.0000
  C   C578      1.0  0.26602  0.83251  0.11325  1.0000
  C   C579      1.0  0.26542  0.86247  0.10651  1.0000
  C   C580      1.0  0.28787  0.87068  0.09525  1.0000
  C   C581      1.0  0.31101  0.84899  0.09077  1.0000
  C   C582      1.0  0.30488  0.73735  0.09639  1.0000
  C   C583      1.0  0.29892  0.70671  0.10180  1.0000
  C   C584      1.0  0.32302  0.68999  0.10930  1.0000
  C   C585      1.0  0.35315  0.70375  0.11125  1.0000
  C   C586      1.0  0.35920  0.73438  0.10594  1.0000
  C   C587      1.0  0.34576  0.78664  0.07072  1.0000
  C   C588      1.0  0.32355  0.79984  0.06033  1.0000
  C   C589      1.0  0.32676  0.79572  0.04408  1.0000
  C   C590      1.0  0.35186  0.77803  0.03810  1.0000
  C   C591      1.0  0.37374  0.76436  0.04838  1.0000
  C   C592      1.0  0.37065  0.76854  0.06462  1.0000
  H   H454      1.0  0.44491  0.84985  0.09023  1.0000
  H   H455      1.0  0.45340  0.84805  0.11907  1.0000
  H   H456      1.0  0.41345  0.82181  0.13589  1.0000
  H   H457      1.0  0.36578  0.79641  0.12397  1.0000
  H   H458      1.0  0.39691  0.82548  0.07813  1.0000
  H   H459      1.0  0.28991  0.78826  0.11476  1.0000
  H   H460      1.0  0.24942  0.82657  0.12246  1.0000
  H   H461      1.0  0.24831  0.87978  0.11041  1.0000
  H   H462      1.0  0.28804  0.89440  0.09051  1.0000
  H   H463      1.0  0.32902  0.85623  0.08251  1.0000
  H   H464      1.0  0.28596  0.75002  0.09059  1.0000
  H   H465      1.0  0.27551  0.69602  0.10038  1.0000
  H   H466      1.0  0.31831  0.66655  0.11389  1.0000
  H   H467      1.0  0.37152  0.69095  0.11740  1.0000
  H   H468      1.0  0.38278  0.74435  0.10761  1.0000
  H   H469      1.0  0.30369  0.81320  0.06467  1.0000
  H   H470      1.0  0.30976  0.80623  0.03611  1.0000
  H   H471      1.0  0.35430  0.77481  0.02551  1.0000
  H   H472      1.0  0.39307  0.75045  0.04374  1.0000
  H   H473      1.0  0.38768  0.75768  0.07247  1.0000
  H   H474      1.0  0.09211  0.80745  0.29631  1.0000
  C   C593      1.0  0.22861  0.93867  0.03857  1.0000
  Fe  Fe44      1.0  0.18725  0.61668  0.29623  1.0000
  S   S89       1.0  0.06706  0.90802  0.28303  1.0000
  C   C594      1.0  0.11350  0.75586  0.25865  1.0000
  S   S90       1.0  0.20863  0.66596  0.29422  1.0000
  C   C595      1.0  0.12429  0.85409  0.23122  1.0000
  H   H475      1.0  0.19072  0.77167  0.26843  1.0000
  H   H476      1.0  0.22865  0.93377  0.11785  1.0000
  C   C596      1.0  0.21538  0.79022  0.19994  1.0000
  H   H477      1.0  0.48826  0.49272  0.14886  1.0000
  C   C597      1.0  0.08827  0.51388  0.02969  1.0000
  C   C598      1.0  0.40676  0.96402  0.18402  1.0000
  C   C599      1.0  0.02303  0.79276  0.27638  1.0000
  H   H478      1.0  0.33138  0.96349  0.19859  1.0000
  P   P20       1.0  0.02900  0.97929  0.97924  1.0000
  H   H479      1.0  0.10429  0.93136  0.25431  1.0000
  H   H480      1.0  0.43036  0.63121  0.13768  1.0000
  C   C600      1.0  0.46670  0.78055  0.14799  1.0000
  H   H481      1.0  0.16167  0.86415  0.20197  1.0000
  C   C601      1.0  0.05749  0.68488  0.27794  1.0000
  C   C602      1.0  0.04167  0.67515  0.26406  1.0000
  C   C603      1.0  0.05856  0.66080  0.25186  1.0000
  C   C604      1.0  0.09136  0.65662  0.25334  1.0000
  C   C605      1.0  0.10733  0.66711  0.26695  1.0000
  C   C606      1.0  0.09055  0.68134  0.27917  1.0000
  H   H482      1.0  0.00718  0.92769  0.26975  1.0000
  H   H483      1.0  0.39615  0.61184  0.11599  1.0000
  H   H484      1.0  0.99494  0.55565  0.26335  1.0000
  H   H485      1.0  0.32647  0.56072  0.27577  1.0000
  H   H486      1.0  0.10407  0.53498  0.26063  1.0000
  C   C607      1.0  0.25322  0.93739  0.04983  1.0000
  C   C608      1.0  0.09108  0.50097  0.27818  1.0000
  H   H487      1.0  0.06235  0.89099  0.24909  1.0000
  C   C609      1.0  0.47260  0.53960  0.15506  1.0000
  H   H488      1.0  0.12916  0.52714  0.97645  1.0000
  H   H489      1.0  0.12591  0.97166  0.06558  1.0000
  C   C610      1.0  0.35514  0.95539  0.19599  1.0000
  C   C611      1.0  0.99915  0.56098  0.27567  1.0000
  C   C612      1.0  0.31186  0.59392  0.29331  1.0000
  C   C613      1.0  0.09980  0.76992  0.20611  1.0000
  H   H490      1.0  0.44125  0.90121  0.13758  1.0000
  C   C614      1.0  0.08603  0.95730  0.01689  1.0000
  H   H491      1.0  0.04617  0.65272  0.24130  1.0000
  C   C615      1.0  0.31338  0.49819  0.23923  1.0000
  H   H492      1.0  0.13271  0.66391  0.26818  1.0000
  C   C616      1.0  0.17664  0.84348  0.20166  1.0000
  P   P21       1.0  0.43341  0.98853  0.17267  1.0000
  C   C617      1.0  0.14072  0.90493  0.24251  1.0000
  H   H493      1.0  0.07502  0.84121  0.23506  1.0000
  H   H494      1.0  0.14384  0.74108  0.27766  1.0000
  C   C618      1.0  0.06748  0.76247  0.29545  1.0000
  C   C619      1.0  0.16868  0.77169  0.26173  1.0000
  C   C620      1.0  0.04065  0.74552  0.28988  1.0000
  Fe  Fe45      1.0  0.11761  0.89318  0.29097  1.0000
  H   H495      1.0  0.18696  0.80341  0.24441  1.0000
  H   H496      1.0  0.11481  0.75285  0.21189  1.0000
  C   C621      1.0  0.20014  0.70219  0.24150  1.0000
  C   C622      1.0  0.20270  0.67850  0.25273  1.0000
  C   C623      1.0  0.22686  0.65622  0.25167  1.0000
  C   C624      1.0  0.24907  0.65811  0.23960  1.0000
  C   C625      1.0  0.24767  0.68292  0.22877  1.0000
  C   C626      1.0  0.22240  0.70427  0.22947  1.0000
  P   P22       1.0  0.27606  0.68562  0.21310  1.0000
  C   C627      1.0  0.28685  0.72636  0.20944  1.0000
  C   C628      1.0  0.31276  0.66734  0.21896  1.0000
  C   C629      1.0  0.32570  0.67383  0.23397  1.0000
  C   C630      1.0  0.35389  0.65946  0.23877  1.0000
  C   C631      1.0  0.36948  0.63877  0.22857  1.0000
  C   C632      1.0  0.35718  0.63289  0.21349  1.0000
  C   C633      1.0  0.32911  0.64735  0.20860  1.0000
  C   C634      1.0  0.28509  0.74922  0.22155  1.0000
  C   C635      1.0  0.29454  0.78055  0.21892  1.0000
  C   C636      1.0  0.30609  0.78923  0.20425  1.0000
  C   C637      1.0  0.30864  0.76651  0.19226  1.0000
  C   C638      1.0  0.29952  0.73506  0.19488  1.0000
  C   C639      1.0  0.25739  0.66522  0.19663  1.0000
  C   C640      1.0  0.25440  0.63210  0.19687  1.0000
  C   C641      1.0  0.23917  0.61572  0.18451  1.0000
  C   C642      1.0  0.22650  0.63233  0.17186  1.0000
  C   C643      1.0  0.22849  0.66540  0.17174  1.0000
  C   C644      1.0  0.24360  0.68188  0.18416  1.0000
  H   H497      1.0  0.18094  0.71895  0.24215  1.0000
  H   H498      1.0  0.18601  0.67732  0.26230  1.0000
  H   H499      1.0  0.22837  0.63751  0.26027  1.0000
  H   H500      1.0  0.26721  0.64022  0.23878  1.0000
  H   H501      1.0  0.22008  0.72261  0.22078  1.0000
  H   H502      1.0  0.31377  0.68970  0.24202  1.0000
  H   H503      1.0  0.36344  0.66412  0.25046  1.0000
  H   H504      1.0  0.39093  0.62704  0.23236  1.0000
  H   H505      1.0  0.36879  0.61630  0.20568  1.0000
  H   H506      1.0  0.32003  0.64227  0.19686  1.0000
  H   H507      1.0  0.27682  0.74293  0.23312  1.0000
  H   H508      1.0  0.29312  0.79813  0.22828  1.0000
  H   H509      1.0  0.31338  0.81352  0.20224  1.0000
  H   H510      1.0  0.31786  0.77332  0.18093  1.0000
  H   H511      1.0  0.30253  0.71761  0.18557  1.0000
  H   H512      1.0  0.26401  0.61886  0.20661  1.0000
  H   H513      1.0  0.23766  0.59006  0.18468  1.0000
  H   H514      1.0  0.21524  0.61950  0.16214  1.0000
  H   H515      1.0  0.21851  0.67828  0.16196  1.0000
  H   H516      1.0  0.24433  0.70749  0.18394  1.0000
  H   H517      1.0  0.39005  0.51867  0.24760  1.0000
  H   H518      1.0  0.17225  0.87290  0.23106  1.0000
  C   C645      1.0  0.48316  0.76066  0.19059  1.0000
  H   H519      1.0  0.07657  0.51759  0.28460  1.0000
  C   C646      1.0  0.15612  0.89976  0.99252  1.0000
  C   C647      1.0  0.18156  0.89975  0.98211  1.0000
  C   C648      1.0  0.21270  0.90175  0.98789  1.0000
  C   C649      1.0  0.21848  0.90339  0.00410  1.0000
  C   C650      1.0  0.19307  0.90296  0.01467  1.0000
  C   C651      1.0  0.16181  0.90122  0.00876  1.0000
  P   P23       1.0  0.20115  0.90581  0.03557  1.0000
  C   C652      1.0  0.16498  0.91292  0.04623  1.0000
  C   C653      1.0  0.21699  0.86929  0.04308  1.0000
  C   C654      1.0  0.21882  0.86479  0.05941  1.0000
  C   C655      1.0  0.22943  0.83608  0.06544  1.0000
  C   C656      1.0  0.23787  0.81148  0.05523  1.0000
  C   C657      1.0  0.23610  0.81572  0.03897  1.0000
  C   C658      1.0  0.22571  0.84450  0.03289  1.0000
  C   C659      1.0  0.15826  0.94311  0.05226  1.0000
  C   C660      1.0  0.13056  0.94823  0.06079  1.0000
  C   C661      1.0  0.10946  0.92316  0.06350  1.0000
  C   C662      1.0  0.11605  0.89288  0.05763  1.0000
  C   C663      1.0  0.14365  0.88777  0.04897  1.0000
  H   H520      1.0  0.20066  0.78125  0.29957  1.0000
  C   C664      1.0  0.46224  0.74769  0.14868  1.0000
  H   H521      1.0  0.09277  0.74344  0.26298  1.0000
  C   C665      1.0  0.23516  0.95027  0.10879  1.0000
  C   C666      1.0  0.48250  0.77619  0.20518  1.0000
  C   C667      1.0  0.05682  0.90978  0.00922  1.0000
  C   C668      1.0  0.00022  0.50170  0.01473  1.0000
  H   H522      1.0  0.13198  0.89933  0.98794  1.0000
  C   C669      1.0  0.47799  0.65796  0.17044  1.0000
  H   H523      1.0  0.24275  0.90544  0.00840  1.0000
  H   H524      1.0  0.08551  0.75114  0.30248  1.0000
  H   H525      1.0  0.21178  0.88346  0.06750  1.0000
  H   H526      1.0  0.23075  0.83283  0.07806  1.0000
  H   H527      1.0  0.24560  0.78907  0.05992  1.0000
  H   H528      1.0  0.24239  0.79654  0.03105  1.0000
  H   H529      1.0  0.22403  0.84702  0.02027  1.0000
  H   H530      1.0  0.47699  0.98196  0.14565  1.0000
  C   C670      1.0  0.13791  0.79047  0.23948  1.0000
  H   H531      1.0  0.08818  0.92725  0.07027  1.0000
  H   H532      1.0  0.09979  0.87340  0.05985  1.0000
  H   H533      1.0  0.14850  0.86419  0.04452  1.0000
  C   C671      1.0  0.42735  0.97821  0.15214  1.0000
  H   H534      1.0  0.45239  0.79621  0.15517  1.0000
  P   P24       1.0  0.13433  0.81615  0.22280  1.0000
  H   H535      1.0  0.42185  0.64483  0.19821  1.0000
  C   C672      1.0  0.09497  0.49596  0.05646  1.0000
  H   H536      1.0  0.08840  0.77571  0.23915  1.0000
  C   C673      1.0  0.05622  0.56061  0.97677  1.0000
  H   H537      1.0  0.12491  0.53098  0.04568  1.0000
  H   H538      1.0  0.44411  0.73854  0.15633  1.0000
  H   H539      1.0  0.99872  0.97524  0.01048  1.0000
  H   H540      1.0  0.15936  0.92214  0.24523  1.0000
  H   H541      1.0  0.35310  0.51109  0.22486  1.0000
  C   C674      1.0  0.08608  0.88728  0.24465  1.0000
  H   H542      1.0  0.01678  0.54494  0.99028  1.0000
  C   C675      1.0  0.27482  0.97949  0.09458  1.0000
  H   H543      1.0  0.34730  0.90976  0.20632  1.0000
  C   C676      1.0  0.99516  0.69117  0.29434  1.0000
  P   P25       1.0  0.47573  0.68468  0.14047  1.0000
  H   H544      1.0  0.03974  0.77272  0.17905  1.0000
  P   P26       1.0  0.30824  0.49703  0.28749  1.0000
  C   C677      1.0  0.06181  0.81345  0.19035  1.0000
  H   H545      1.0  0.05315  0.83423  0.27922  1.0000
  C   C678      1.0  0.07188  0.97365  0.00452  1.0000
  C   C679      1.0  0.26127  0.49818  0.11172  1.0000
  H   H546      1.0  0.29278  0.96220  0.06083  1.0000
  C   C680      1.0  0.01882  0.87627  0.29948  1.0000
  H   H547      1.0  0.47591  0.84702  0.17633  1.0000
  H   H548      1.0  0.37621  0.97477  0.15404  1.0000
  H   H549      1.0  0.37072  0.51181  0.27472  1.0000
  C   C681      1.0  0.18951  0.70085  0.30046  1.0000
  H   H550      1.0  0.25888  0.52316  0.00434  1.0000
  S   S91       1.0  0.07620  0.57546  0.30535  1.0000
  C   C682      1.0  0.24313  0.49187  0.28160  1.0000
  C   C683      1.0  0.32273  0.49892  0.26752  1.0000
  C   C684      1.0  0.36561  0.51158  0.24957  1.0000
  C   C685      1.0  0.35460  0.50753  0.26489  1.0000
  H   H551      1.0  0.00426  0.64245  0.28740  1.0000
  C   C686      1.0  0.00163  0.91118  0.27897  1.0000
  H   H552      1.0  0.24505  0.51530  0.27660  1.0000
  Fe  Fe46      1.0  0.15552  0.84010  0.30612  1.0000
  H   H553      1.0  0.22573  0.73116  0.29078  1.0000
  C   C687      1.0  0.48039  0.86149  0.16617  1.0000
  C   C688      1.0  0.26209  0.49794  0.00577  1.0000
  C   C689      1.0  0.39640  0.97271  0.14636  1.0000
  C   C690      1.0  0.99347  0.53329  0.01869  1.0000
  C   C691      1.0  0.41675  0.96263  0.12029  1.0000
  H   H554      1.0  0.29946  0.98553  0.09255  1.0000
  H   H555      1.0  0.10785  0.49668  0.06756  1.0000
  C   C692      1.0  0.30221  0.49425  0.25451  1.0000
  H   H556      1.0  0.00580  0.80468  0.26904  1.0000
  H   H557      1.0  0.99840  0.74801  0.27515  1.0000
  C   C693      1.0  0.28401  0.49312  0.10007  1.0000
  C   C694      1.0  0.45293  0.97691  0.14168  1.0000
  H   H558      1.0  0.29726  0.49524  0.22927  1.0000
  C   C695      1.0  0.20363  0.73029  0.29715  1.0000
  C   C696      1.0  0.44760  0.96896  0.12583  1.0000
  H   H559      1.0  0.21367  0.52417  0.97816  1.0000
  C   C697      1.0  0.18949  0.75868  0.30211  1.0000
  H   H560      1.0  0.13937  0.49814  0.24639  1.0000
  C   C698      1.0  0.49033  0.95513  0.17415  1.0000
  C   C699      1.0  0.06247  0.49277  0.02746  1.0000
  C   C700      1.0  0.27068  0.99027  0.04293  1.0000
  S   S92       1.0  0.13216  0.88368  0.31591  1.0000
  H   H561      1.0  0.40233  0.55225  0.50442  1.0000
  S   S93       1.0  0.19540  0.94668  0.33002  1.0000
  C   C701      1.0  0.25583  0.51864  0.51829  1.0000
  C   C702      1.0  0.04746  0.79281  0.34764  1.0000
  S   S94       1.0  0.21958  0.53219  0.33517  1.0000
  Fe  Fe47      1.0  0.39440  0.57218  0.55225  1.0000
  S   S95       1.0  0.37094  0.60172  0.53390  1.0000
  S   S96       1.0  0.44622  0.58584  0.55667  1.0000
  Fe  Fe48      1.0  0.32997  0.54323  0.56291  1.0000
  S   S97       1.0  0.30261  0.57252  0.54533  1.0000
  C   C703      1.0  0.45445  0.81927  0.55955  1.0000
  Fe  Fe49      1.0  0.34107  0.55822  0.52811  1.0000
  S   S98       1.0  0.33534  0.54817  0.50149  1.0000
  Fe  Fe50      1.0  0.33517  0.61401  0.55223  1.0000
  S   S99       1.0  0.32832  0.66577  0.56066  1.0000
  S   S100      1.0  0.36738  0.52775  0.54529  1.0000
  S   S101      1.0  0.35966  0.58538  0.57095  1.0000
  Fe  Fe51      1.0  0.31465  0.85834  0.54346  1.0000
  S   S102      1.0  0.32192  0.88167  0.56735  1.0000
  S   S103      1.0  0.30627  0.80666  0.53487  1.0000
  Fe  Fe52      1.0  0.32485  0.92233  0.52596  1.0000
  S   S104      1.0  0.33314  0.94981  0.54864  1.0000
  S   S105      1.0  0.33724  0.93571  0.50058  1.0000
  Fe  Fe53      1.0  0.36263  0.90824  0.55609  1.0000
  S   S106      1.0  0.41149  0.91347  0.56771  1.0000
  Fe  Fe54      1.0  0.29170  0.92195  0.55847  1.0000
  S   S107      1.0  0.24897  0.94436  0.57153  1.0000
  S   S108      1.0  0.35703  0.88280  0.53314  1.0000
  S   S109      1.0  0.28168  0.89669  0.53504  1.0000
  C   C704      1.0  0.43526  0.92665  0.44177  1.0000
  H   H562      1.0  0.17027  0.67922  0.37054  1.0000
  H   H563      1.0  0.47715  0.82291  0.56547  1.0000
  C   C705      1.0  0.22417  0.97299  0.39643  1.0000
  P   P27       1.0  0.28568  0.90980  0.41636  1.0000
  H   H564      1.0  0.13275  0.75804  0.34541  1.0000
  H   H565      1.0  0.26132  0.84370  0.36937  1.0000
  C   C706      1.0  0.25704  0.90563  0.46213  1.0000
  H   H566      1.0  0.23532  0.91262  0.43952  1.0000
  H   H567      1.0  0.33877  0.86598  0.41417  1.0000
  C   C707      1.0  0.28400  0.95896  0.35088  1.0000
  C   C708      1.0  0.42702  0.52379  0.48737  1.0000
  C   C709      1.0  0.44626  0.90299  0.54063  1.0000
  C   C710      1.0  0.44677  0.90680  0.55699  1.0000
  C   C711      1.0  0.44532  0.68970  0.51478  1.0000
  H   H568      1.0  0.42398  0.90405  0.53425  1.0000
  C   C712      1.0  0.45847  0.72473  0.56114  1.0000
  H   H569      1.0  0.28253  0.97179  0.43204  1.0000
  C   C713      1.0  0.31425  0.90002  0.44596  1.0000
  C   C714      1.0  0.42667  0.82979  0.56666  1.0000
  H   H570      1.0  0.41004  0.92187  0.39118  1.0000
  C   C715      1.0  0.07869  0.65217  0.32833  1.0000
  C   C716      1.0  0.47701  0.69728  0.56118  1.0000
  H   H571      1.0  0.33949  0.54113  0.46792  1.0000
  C   C717      1.0  0.31426  0.76786  0.54213  1.0000
  C   C718      1.0  0.30959  0.74141  0.53203  1.0000
  C   C719      1.0  0.31451  0.71016  0.53730  1.0000
  C   C720      1.0  0.32368  0.70478  0.55290  1.0000
  C   C721      1.0  0.32877  0.73126  0.56294  1.0000
  C   C722      1.0  0.32442  0.76254  0.55759  1.0000
  H   H572      1.0  0.30161  0.74510  0.52008  1.0000
  H   H573      1.0  0.31036  0.69021  0.52941  1.0000
  H   H574      1.0  0.33569  0.72756  0.57505  1.0000
  H   H575      1.0  0.32802  0.78245  0.56556  1.0000
  C   C723      1.0  0.33525  0.51370  0.48902  1.0000
  C   C724      1.0  0.06894  0.70421  0.33936  1.0000
  H   H576      1.0  0.23869  0.92578  0.39137  1.0000
  C   C725      1.0  0.16097  0.69993  0.30871  1.0000
  C   C726      1.0  0.29703  0.51170  0.63738  1.0000
  C   C727      1.0  0.42299  0.74149  0.52006  1.0000
  C   C728      1.0  0.25232  0.50603  0.36036  1.0000
  C   C729      1.0  0.16117  0.75780  0.31050  1.0000
  H   H577      1.0  0.24515  0.52710  0.36669  1.0000
  H   H578      1.0  0.45467  0.51835  0.54956  1.0000
  H   H579      1.0  0.08749  0.62825  0.32952  1.0000
  H   H580      1.0  0.36211  0.95350  0.47067  1.0000
  H   H581      1.0  0.47089  0.60775  0.59445  1.0000
  C   C730      1.0  0.47384  0.92871  0.48653  1.0000
  H   H582      1.0  0.06776  0.51631  0.32104  1.0000
  H   H583      1.0  0.42777  0.84184  0.57800  1.0000
  H   H584      1.0  0.33486  0.49493  0.44957  1.0000
  H   H585      1.0  0.37282  0.96698  0.38995  1.0000
  C   C731      1.0  0.26613  0.97160  0.42211  1.0000
  H   H586      1.0  0.28447  0.89014  0.38337  1.0000
  H   H587      1.0  0.07546  0.81642  0.38740  1.0000
  H   H588      1.0  0.48508  0.78300  0.46843  1.0000
  H   H589      1.0  0.28803  0.98466  0.50129  1.0000
  C   C732      1.0  0.25892  0.84584  0.38201  1.0000
  C   C733      1.0  0.20720  0.97505  0.59150  1.0000
  C   C734      1.0  0.25883  0.94717  0.34116  1.0000
  H   H590      1.0  0.06593  0.83657  0.41420  1.0000
  H   H591      1.0  0.31984  0.49426  0.32197  1.0000
  C   C735      1.0  0.24162  0.94569  0.39936  1.0000
  C   C736      1.0  0.45005  0.54249  0.51204  1.0000
  C   C737      1.0  0.34612  0.52926  0.62553  1.0000
  H   H592      1.0  0.47679  0.90913  0.57767  1.0000
  H   H593      1.0  0.48159  0.91503  0.45025  1.0000
  C   C738      1.0  0.14696  0.72834  0.31378  1.0000
  H   H594      1.0  0.45171  0.55664  0.46043  1.0000
  H   H595      1.0  0.42421  0.90563  0.44657  1.0000
  H   H596      1.0  0.15533  0.52186  0.34707  1.0000
  C   C739      1.0  0.45725  0.78419  0.48956  1.0000
  C   C740      1.0  0.42695  0.72370  0.56622  1.0000
  C   C741      1.0  0.41358  0.69518  0.57125  1.0000
  C   C742      1.0  0.43191  0.66784  0.57152  1.0000
  H   H597      1.0  0.27655  0.52232  0.31543  1.0000
  C   C743      1.0  0.08082  0.67362  0.34094  1.0000
  H   H598      1.0  0.20834  0.97378  0.38631  1.0000
  C   C744      1.0  0.27978  0.98488  0.36127  1.0000
  C   C745      1.0  0.09019  0.50570  0.32417  1.0000
  C   C746      1.0  0.29699  0.59843  0.30776  1.0000
  H   H599      1.0  0.41259  0.74485  0.56594  1.0000
  H   H600      1.0  0.38887  0.69412  0.57475  1.0000
  H   H601      1.0  0.42131  0.64558  0.57516  1.0000
  C   C747      1.0  0.27201  0.87214  0.39000  1.0000
  H   H602      1.0  0.23273  0.80202  0.38404  1.0000
  H   H603      1.0  0.44776  0.55554  0.52303  1.0000
  H   H604      1.0  0.18903  0.96546  0.58364  1.0000
  C   C748      1.0  0.46357  0.66894  0.56673  1.0000
  C   C749      1.0  0.45337  0.79810  0.50449  1.0000
  C   C750      1.0  0.40881  0.54662  0.42664  1.0000
  S   S110      1.0  0.16311  0.59409  0.31666  1.0000
  C   C751      1.0  0.42372  0.49583  0.43720  1.0000
  C   C752      1.0  0.25732  0.90792  0.44574  1.0000
  H   H605      1.0  0.47730  0.50655  0.59151  1.0000
  C   C753      1.0  0.23933  0.96818  0.58854  1.0000
  C   C754      1.0  0.44660  0.72263  0.51331  1.0000
  H   H606      1.0  0.46319  0.67516  0.50928  1.0000
  Fe  Fe55      1.0  0.19508  0.55200  0.31264  1.0000
  H   H607      1.0  0.17515  0.71254  0.39471  1.0000
  C   C755      1.0  0.23294  0.49957  0.52561  1.0000
  H   H608      1.0  0.28517  0.89939  0.48317  1.0000
  C   C756      1.0  0.23960  0.82531  0.40660  1.0000
  H   H609      1.0  0.43376  0.85905  0.48016  1.0000
  C   C757      1.0  0.46792  0.93218  0.44392  1.0000
  H   H610      1.0  0.42871  0.97581  0.46947  1.0000
  C   C758      1.0  0.25239  0.85177  0.41463  1.0000
  C   C759      1.0  0.28524  0.90037  0.47042  1.0000
  H   H611      1.0  0.07037  0.72067  0.34919  1.0000
  C   C760      1.0  0.32616  0.96624  0.48741  1.0000
  C   C761      1.0  0.33690  0.51756  0.47260  1.0000
  C   C762      1.0  0.22868  0.96088  0.34174  1.0000
  H   H612      1.0  0.22722  0.80703  0.41304  1.0000
  H   H613      1.0  0.31951  0.96224  0.40110  1.0000
  H   H614      1.0  0.40272  0.94320  0.50369  1.0000
  H   H615      1.0  0.24686  0.52905  0.58359  1.0000
  H   H616      1.0  0.39153  0.94413  0.43183  1.0000
  H   H617      1.0  0.02867  0.77509  0.34796  1.0000
  H   H618      1.0  0.47401  0.89601  0.51978  1.0000
  H   H619      1.0  0.33683  0.89887  0.44012  1.0000
  C   C763      1.0  0.43843  0.88319  0.48408  1.0000
  H   H620      1.0  0.42019  0.64996  0.52469  1.0000
  H   H621      1.0  0.24972  0.85347  0.42724  1.0000
  C   C764      1.0  0.34631  0.88833  0.40924  1.0000
  C   C765      1.0  0.05521  0.71350  0.32511  1.0000
  C   C766      1.0  0.31299  0.52795  0.62556  1.0000
  H   H622      1.0  0.33569  0.89440  0.46894  1.0000
  C   C767      1.0  0.39742  0.82535  0.55901  1.0000
  C   C768      1.0  0.42112  0.93078  0.49746  1.0000
  H   H623      1.0  0.01482  0.57903  0.31975  1.0000
  H   H624      1.0  0.27249  0.57586  0.32679  1.0000
  C   C769      1.0  0.42388  0.80185  0.53654  1.0000
  C   C770      1.0  0.39598  0.81130  0.54405  1.0000
  P   P28       1.0  0.42217  0.78376  0.51717  1.0000
  H   H625      1.0  0.30710  0.94813  0.35019  1.0000
  C   C771      1.0  0.16295  0.70375  0.37039  1.0000
  H   H626      1.0  0.44566  0.55544  0.58928  1.0000
  C   C772      1.0  0.28591  0.90498  0.43749  1.0000
  C   C773      1.0  0.26871  0.87541  0.40637  1.0000
  H   H627      1.0  0.14925  0.70221  0.34592  1.0000
  C   C774      1.0  0.39914  0.72705  0.52901  1.0000
  C   C775      1.0  0.26270  0.94473  0.41228  1.0000
  C   C776      1.0  0.45064  0.94530  0.49490  1.0000
  C   C777      1.0  0.38561  0.79431  0.50736  1.0000
  C   C778      1.0  0.37789  0.82636  0.50605  1.0000
  C   C779      1.0  0.34909  0.83518  0.49910  1.0000
  C   C780      1.0  0.32805  0.81200  0.49321  1.0000
  C   C781      1.0  0.33598  0.78002  0.49405  1.0000
  C   C782      1.0  0.36470  0.77114  0.50105  1.0000
  H   H628      1.0  0.37584  0.83338  0.56455  1.0000
  H   H629      1.0  0.06669  0.86173  0.32955  1.0000
  C   C783      1.0  0.45296  0.80478  0.54468  1.0000
  C   C784      1.0  0.48488  0.58650  0.59555  1.0000
  H   H630      1.0  0.37306  0.80815  0.53836  1.0000
  C   C785      1.0  0.24278  0.82240  0.39030  1.0000
  C   C786      1.0  0.43102  0.97555  0.42750  1.0000
  C   C787      1.0  0.06496  0.66135  0.31410  1.0000
  H   H631      1.0  0.23507  0.90861  0.46848  1.0000
  H   H632      1.0  0.38096  0.74117  0.53457  1.0000
  C   C788      1.0  0.47055  0.55693  0.59270  1.0000
  C   C789      1.0  0.33541  0.94240  0.40199  1.0000
  H   H633      1.0  0.39367  0.84440  0.51100  1.0000
  H   H634      1.0  0.34239  0.85990  0.49888  1.0000
  H   H635      1.0  0.30521  0.81880  0.48843  1.0000
  H   H636      1.0  0.31934  0.76204  0.48980  1.0000
  H   H637      1.0  0.36995  0.74620  0.50177  1.0000
  C   C790      1.0  0.19286  0.88219  0.35663  1.0000
  C   C791      1.0  0.21349  0.86789  0.34602  1.0000
  C   C792      1.0  0.21081  0.83545  0.34278  1.0000
  C   C793      1.0  0.18739  0.81728  0.35007  1.0000
  C   C794      1.0  0.16645  0.83145  0.36073  1.0000
  C   C795      1.0  0.16925  0.86415  0.36386  1.0000
  P   P29       1.0  0.13406  0.80887  0.36903  1.0000
  C   C796      1.0  0.09895  0.81284  0.35682  1.0000
  C   C797      1.0  0.14475  0.76755  0.36982  1.0000
  C   C798      1.0  0.14171  0.74833  0.35628  1.0000
  H   H638      1.0  0.11096  0.85552  0.43101  1.0000
  H   H639      1.0  0.37980  0.68306  0.53757  1.0000
  C   C799      1.0  0.16579  0.72260  0.38399  1.0000
  C   C800      1.0  0.15684  0.75443  0.38371  1.0000
  C   C801      1.0  0.07446  0.78997  0.35726  1.0000
  C   C802      1.0  0.24906  0.50813  0.59071  1.0000
  C   C803      1.0  0.04471  0.81856  0.33756  1.0000
  C   C804      1.0  0.06873  0.84165  0.33728  1.0000
  C   C805      1.0  0.09569  0.83885  0.34686  1.0000
  C   C806      1.0  0.12653  0.82355  0.38868  1.0000
  C   C807      1.0  0.15189  0.83421  0.39832  1.0000
  C   C808      1.0  0.14630  0.84569  0.41352  1.0000
  C   C809      1.0  0.11533  0.84650  0.41925  1.0000
  C   C810      1.0  0.08996  0.83583  0.40977  1.0000
  C   C811      1.0  0.09548  0.82439  0.39454  1.0000
  H   H640      1.0  0.19440  0.90757  0.35872  1.0000
  H   H641      1.0  0.23082  0.88220  0.33992  1.0000
  H   H642      1.0  0.22607  0.82460  0.33411  1.0000
  H   H643      1.0  0.18507  0.79251  0.34683  1.0000
  H   H644      1.0  0.15257  0.87601  0.37147  1.0000
  C   C812      1.0  0.37685  0.89122  0.40302  1.0000
  C   C813      1.0  0.42110  0.67546  0.52341  1.0000
  H   H645      1.0  0.15952  0.76860  0.39433  1.0000
  H   H646      1.0  0.07626  0.77001  0.36506  1.0000
  C   C814      1.0  0.20111  0.54629  0.53042  1.0000
  C   C815      1.0  0.47778  0.52980  0.55041  1.0000
  C   C816      1.0  0.47299  0.82392  0.50896  1.0000
  H   H647      1.0  0.11403  0.85692  0.34630  1.0000
  H   H648      1.0  0.17596  0.83386  0.39402  1.0000
  H   H649      1.0  0.16596  0.85416  0.42082  1.0000
  C   C817      1.0  0.31379  0.89747  0.46234  1.0000
  H   H650      1.0  0.26294  0.92775  0.33306  1.0000
  C   C818      1.0  0.40875  0.51358  0.42558  1.0000
  H   H651      1.0  0.38913  0.51506  0.63722  1.0000
  C   C819      1.0  0.39825  0.69415  0.53065  1.0000
  C   C820      1.0  0.48008  0.56214  0.55404  1.0000
  C   C821      1.0  0.10995  0.52146  0.33510  1.0000
  H   H652      1.0  0.39716  0.50161  0.41570  1.0000
  H   H653      1.0  0.09142  0.66640  0.35197  1.0000
  H   H654      1.0  0.42422  0.58762  0.44010  1.0000
  C   C822      1.0  0.42438  0.54064  0.50154  1.0000
  C   C823      1.0  0.46344  0.98147  0.42997  1.0000
  H   H655      1.0  0.46598  0.73306  0.50691  1.0000
  H   H656      1.0  0.39176  0.88954  0.49386  1.0000
  H   H657      1.0  0.26913  0.56578  0.51135  1.0000
  C   C824      1.0  0.48185  0.79430  0.47981  1.0000
  S   S111      1.0  0.31244  0.50510  0.58048  1.0000
  C   C825      1.0  0.38659  0.91965  0.39621  1.0000
  C   C826      1.0  0.41683  0.94829  0.43351  1.0000
  C   C827      1.0  0.32553  0.91412  0.40897  1.0000
  C   C828      1.0  0.43962  0.54434  0.45081  1.0000
  H   H658      1.0  0.18000  0.55708  0.53518  1.0000
  C   C829      1.0  0.36579  0.94514  0.39563  1.0000
  C   C830      1.0  0.15096  0.71665  0.35654  1.0000
  C   C831      1.0  0.43538  0.98627  0.54811  1.0000
  H   H659      1.0  0.39279  0.87128  0.40323  1.0000
  C   C832      1.0  0.34258  0.96914  0.47314  1.0000
  C   C833      1.0  0.24304  0.50207  0.34445  1.0000
  C   C834      1.0  0.43923  0.51107  0.44994  1.0000
  C   C835      1.0  0.45552  0.50860  0.48357  1.0000
  C   C836      1.0  0.41493  0.90003  0.49194  1.0000
  C   C837      1.0  0.28761  0.54188  0.30941  1.0000
  C   C838      1.0  0.22415  0.56515  0.52325  1.0000
  H   H660      1.0  0.10251  0.54371  0.34029  1.0000
  C   C839      1.0  0.47615  0.90606  0.56502  1.0000
  H   H661      1.0  0.12505  0.72744  0.32026  1.0000
  S   S112      1.0  0.14343  0.79292  0.31742  1.0000
  H   H662      1.0  0.27713  0.50843  0.51344  1.0000
  C   C840      1.0  0.25127  0.55124  0.51700  1.0000
  H   H663      1.0  0.02400  0.82073  0.32997  1.0000
  C   C841      1.0  0.20522  0.51352  0.53139  1.0000
  H   H664      1.0  0.44140  0.76526  0.48555  1.0000
  C   C842      1.0  0.47475  0.89853  0.53244  1.0000
  H   H665      1.0  0.40674  0.52265  0.47940  1.0000
  C   C843      1.0  0.30099  0.98667  0.49043  1.0000
  C   C844      1.0  0.42424  0.56201  0.43927  1.0000
  H   H666      1.0  0.22107  0.59054  0.52253  1.0000
  H   H667      1.0  0.28717  0.97600  0.59697  1.0000
  H   H668      1.0  0.39691  0.56021  0.41767  1.0000
  H   H669      1.0  0.18668  0.49921  0.53656  1.0000
  H   H670      1.0  0.47442  0.65095  0.53780  1.0000
  C   C845      1.0  0.48099  0.50998  0.49437  1.0000
  C   C846      1.0  0.46793  0.89757  0.48140  1.0000
  C   C847      1.0  0.13974  0.50926  0.33884  1.0000
  H   H671      1.0  0.46803  0.74689  0.55707  1.0000
  H   H672      1.0  0.29384  0.62215  0.31248  1.0000
  C   C848      1.0  0.28502  0.57238  0.31584  1.0000
  H   H673      1.0  0.20055  0.50962  0.59882  1.0000
  H   H674      1.0  0.35828  0.54137  0.61612  1.0000
  C   C849      1.0  0.05376  0.69229  0.31228  1.0000
  H   H675      1.0  0.47455  0.79640  0.53939  1.0000
  H   H676      1.0  0.29962  0.53884  0.61612  1.0000
  H   H677      1.0  0.46940  0.83671  0.51986  1.0000
  H   H678      1.0  0.47723  0.64736  0.56692  1.0000
  C   C850      1.0  0.47838  0.52722  0.50844  1.0000
  H   H679      1.0  0.04583  0.73715  0.32411  1.0000
  C   C851      1.0  0.48236  0.95970  0.43804  1.0000
  H   H680      1.0  0.48424  0.60598  0.52023  1.0000
  C   C852      1.0  0.26237  0.98083  0.59897  1.0000
  H   H681      1.0  0.14993  0.67735  0.31134  1.0000
  Fe  Fe56      1.0  0.17863  0.90931  0.31119  1.0000
  H   H682      1.0  0.47605  0.97536  0.53450  1.0000
  C   C853      1.0  0.36341  0.51439  0.63738  1.0000
  H   H683      1.0  0.44655  0.97928  0.55906  1.0000
  P   P30       1.0  0.45734  0.98585  0.50117  1.0000
  C   C854      1.0  0.45204  0.98395  0.53402  1.0000
  C   C855      1.0  0.27807  0.49224  0.59124  1.0000
  C   C856      1.0  0.33435  0.49133  0.46213  1.0000
  C   C857      1.0  0.22276  0.49704  0.59944  1.0000
  C   C858      1.0  0.22445  0.98672  0.35218  1.0000
  H   H684      1.0  0.48629  0.88464  0.47535  1.0000
  C   C859      1.0  0.48845  0.52941  0.59386  1.0000
  C   C860      1.0  0.01064  0.57413  0.30738  1.0000
  H   H685      1.0  0.27143  0.51043  0.63672  1.0000
  Fe  Fe57      1.0  0.17457  0.54957  0.92205  1.0000
  S   S113      1.0  0.14496  0.51543  0.90745  1.0000
  S   S114      1.0  0.19695  0.53658  0.94587  1.0000
  Fe  Fe58      1.0  0.16283  0.60572  0.89943  1.0000
  S   S115      1.0  0.13244  0.57420  0.88359  1.0000
  S   S116      1.0  0.16443  0.65719  0.89043  1.0000
  Fe  Fe59      1.0  0.11046  0.55586  0.90562  1.0000
  S   S117      1.0  0.05933  0.55580  0.91417  1.0000
  Fe  Fe60      1.0  0.17012  0.53651  0.88641  1.0000
  S   S118      1.0  0.18454  0.50839  0.86383  1.0000
  S   S119      1.0  0.13899  0.58892  0.92131  1.0000
  S   S120      1.0  0.20175  0.56905  0.90117  1.0000
  Fe  Fe61      1.0  0.16996  0.85055  0.90869  1.0000
  S   S121      1.0  0.16458  0.86984  0.88425  1.0000
  S   S122      1.0  0.18009  0.79987  0.91712  1.0000
  Fe  Fe62      1.0  0.15365  0.91580  0.92425  1.0000
  S   S123      1.0  0.14579  0.93886  0.90063  1.0000
  S   S124      1.0  0.13909  0.93695  0.94825  1.0000
  Fe  Fe63      1.0  0.12071  0.89338  0.89364  1.0000
  S   S125      1.0  0.07438  0.88611  0.88020  1.0000
  Fe  Fe64      1.0  0.19040  0.91415  0.89296  1.0000
  S   S126      1.0  0.23227  0.93759  0.87968  1.0000
  S   S127      1.0  0.12495  0.87223  0.91747  1.0000
  S   S128      1.0  0.19939  0.89289  0.91709  1.0000
  H   H686      1.0  0.32639  0.52309  0.89077  1.0000
  H   H687      1.0  0.07030  0.90696  0.93837  1.0000
  C   C861      1.0  0.23039  0.98908  0.66466  1.0000
  C   C862      1.0  0.03478  0.69301  0.87820  1.0000
  H   H688      1.0  0.01401  0.77668  0.89195  1.0000
  C   C863      1.0  0.07634  0.65409  0.88064  1.0000
  C   C864      1.0  0.03866  0.92767  0.89774  1.0000
  C   C865      1.0  0.03872  0.90053  0.88816  1.0000
  C   C866      1.0  0.00971  0.88552  0.88414  1.0000
  H   H689      1.0  0.06087  0.93941  0.90086  1.0000
  H   H690      1.0  0.01723  0.89371  0.92693  1.0000
  C   C867      1.0  0.06650  0.68426  0.87631  1.0000
  H   H691      1.0  0.08366  0.70093  0.87165  1.0000
  C   C868      1.0  0.01813  0.50661  0.94771  1.0000
  C   C869      1.0  0.18303  0.50743  0.95930  1.0000
  C   C870      1.0  0.23946  0.96798  0.86547  1.0000
  H   H692      1.0  0.01675  0.83869  0.91356  1.0000
  H   H693      1.0  0.15656  0.94380  0.78083  1.0000
  H   H694      1.0  0.16931  0.51846  0.67316  1.0000
  H   H695      1.0  0.04308  0.57942  0.97123  1.0000
  H   H696      1.0  0.29022  0.96189  0.86637  1.0000
  H   H697      1.0  0.25621  0.50004  0.78273  1.0000
  H   H698      1.0  0.35515  0.52467  0.70653  1.0000
  H   H699      1.0  0.30486  0.94603  0.80990  1.0000
  C   C871      1.0  0.16663  0.69661  0.89844  1.0000
  C   C872      1.0  0.17311  0.70302  0.91435  1.0000
  C   C873      1.0  0.17657  0.73469  0.91984  1.0000
  C   C874      1.0  0.17324  0.76048  0.90960  1.0000
  C   C875      1.0  0.16577  0.75407  0.89379  1.0000
  C   C876      1.0  0.16262  0.72241  0.88827  1.0000
  H   H700      1.0  0.17631  0.68359  0.92236  1.0000
  H   H701      1.0  0.18239  0.73921  0.93208  1.0000
  H   H702      1.0  0.16349  0.77345  0.88570  1.0000
  H   H703      1.0  0.15766  0.71787  0.87594  1.0000
  H   H704      1.0  0.02742  0.78861  0.86451  1.0000
  C   C877      1.0  0.02325  0.55585  0.90334  1.0000
  C   C878      1.0  0.02196  0.55018  0.88711  1.0000
  C   C879      1.0  0.00912  0.79220  0.92351  1.0000
  H   H705      1.0  0.04366  0.54608  0.88073  1.0000
  H   H706      1.0  0.20990  0.52386  0.69446  1.0000
  H   H707      1.0  0.22247  0.54754  0.78588  1.0000
  C   C880      1.0  0.25396  0.94026  0.81067  1.0000
  C   C881      1.0  0.08390  0.84558  0.95446  1.0000
  H   H708      1.0  0.11672  0.77390  0.93106  1.0000
  C   C882      1.0  0.13665  0.86215  0.79002  1.0000
  C   C883      1.0  0.16022  0.84332  0.78340  1.0000
  C   C884      1.0  0.19222  0.85178  0.78542  1.0000
  C   C885      1.0  0.20073  0.87898  0.79413  1.0000
  C   C886      1.0  0.17720  0.89777  0.80100  1.0000
  C   C887      1.0  0.14506  0.88937  0.79873  1.0000
  P   P31       1.0  0.18783  0.93357  0.81176  1.0000
  C   C888      1.0  0.16081  0.93815  0.82802  1.0000
  C   C889      1.0  0.22785  0.92969  0.81945  1.0000
  C   C890      1.0  0.23340  0.91512  0.83396  1.0000
  C   C891      1.0  0.26442  0.91133  0.83960  1.0000
  C   C892      1.0  0.29016  0.92243  0.83093  1.0000
  C   C893      1.0  0.28492  0.93692  0.81649  1.0000
  H   H709      1.0  0.15150  0.62667  0.85761  1.0000
  C   C894      1.0  0.15063  0.91143  0.83637  1.0000
  C   C895      1.0  0.12991  0.91471  0.84901  1.0000
  C   C896      1.0  0.27096  0.97464  0.86093  1.0000
  H   H710      1.0  0.35787  0.53022  0.86653  1.0000
  H   H711      1.0  0.26307  0.49391  0.93313  1.0000
  C   C897      1.0  0.00970  0.94023  0.90288  1.0000
  H   H712      1.0  0.20664  0.98265  0.90643  1.0000
  H   H713      1.0  0.26834  0.90094  0.85104  1.0000
  C   C898      1.0  0.24553  0.96311  0.91948  1.0000
  H   H714      1.0  0.12650  0.90391  0.80365  1.0000
  H   H715      1.0  0.28455  0.94925  0.93429  1.0000
  H   H716      1.0  0.11182  0.85571  0.78838  1.0000
  H   H717      1.0  0.15368  0.82225  0.77664  1.0000
  H   H718      1.0  0.21050  0.83727  0.78021  1.0000
  H   H719      1.0  0.22564  0.88522  0.79545  1.0000
  C   C899      1.0  0.02463  0.95230  0.96256  1.0000
  H   H720      1.0  0.21403  0.90711  0.84118  1.0000
  C   C900      1.0  0.01926  0.90960  0.93700  1.0000
  H   H721      1.0  0.31409  0.92040  0.83559  1.0000
  C   C901      1.0  0.24649  0.50084  0.68115  1.0000
  H   H722      1.0  0.15597  0.57130  0.84762  1.0000
  H   H723      1.0  0.15897  0.88803  0.83326  1.0000
  C   C902      1.0  0.26754  0.96758  0.93171  1.0000
  C   C903      1.0  0.28079  0.50765  0.80479  1.0000
  H   H724      1.0  0.06420  0.52807  0.94441  1.0000
  H   H725      1.0  0.21329  0.97804  0.65661  1.0000
  C   C904      1.0  0.01256  0.67138  0.88428  1.0000
  H   H726      1.0  0.20336  0.96527  0.95034  1.0000
  C   C905      1.0  0.18975  0.97386  0.96019  1.0000
  H   H727      1.0  0.27078  0.96922  0.65306  1.0000
  H   H728      1.0  0.00662  0.62470  0.89430  1.0000
  H   H729      1.0  0.15168  0.80385  0.94930  1.0000
  H   H730      1.0  0.19071  0.98054  0.86175  1.0000
  H   H731      1.0  0.00964  0.86456  0.87669  1.0000
  C   C906      1.0  0.28391  0.52665  0.81833  1.0000
  C   C907      1.0  0.26496  0.55352  0.82027  1.0000
  C   C908      1.0  0.24293  0.56104  0.80838  1.0000
  P   P32       1.0  0.27056  0.58019  0.83695  1.0000
  C   C909      1.0  0.28750  0.56056  0.85380  1.0000
  C   C910      1.0  0.29778  0.61175  0.83185  1.0000
  C   C911      1.0  0.30409  0.61859  0.81606  1.0000
  C   C912      1.0  0.32554  0.64284  0.81231  1.0000
  C   C913      1.0  0.34080  0.66044  0.82427  1.0000
  C   C914      1.0  0.33465  0.65379  0.84000  1.0000
  C   C915      1.0  0.31328  0.62951  0.84379  1.0000
  C   C916      1.0  0.26991  0.55649  0.86760  1.0000
  C   C917      1.0  0.28407  0.54338  0.88092  1.0000
  C   C918      1.0  0.31568  0.53373  0.88052  1.0000
  C   C919      1.0  0.33337  0.53772  0.86687  1.0000
  C   C920      1.0  0.31948  0.55142  0.85363  1.0000
  C   C921      1.0  0.23250  0.59599  0.84242  1.0000
  C   C922      1.0  0.22979  0.62727  0.84804  1.0000
  H   H732      1.0  0.07497  0.94261  0.96142  1.0000
  H   H733      1.0  0.24609  0.94163  0.91242  1.0000
  H   H734      1.0  0.19866  0.66210  0.85819  1.0000
  C   C923      1.0  0.20554  0.57608  0.84213  1.0000
  H   H735      1.0  0.25019  0.64301  0.84873  1.0000
  C   C924      1.0  0.19302  0.50940  0.67146  1.0000
  H   H736      1.0  0.22835  0.58190  0.80947  1.0000
  H   H737      1.0  0.29267  0.60523  0.80660  1.0000
  H   H738      1.0  0.33039  0.64793  0.80011  1.0000
  H   H739      1.0  0.35742  0.67922  0.82135  1.0000
  H   H740      1.0  0.34644  0.66744  0.84929  1.0000
  H   H741      1.0  0.30874  0.62468  0.85606  1.0000
  H   H742      1.0  0.24519  0.56314  0.86820  1.0000
  H   H743      1.0  0.27021  0.54017  0.89146  1.0000
  C   C925      1.0  0.31414  0.49672  0.64941  1.0000
  C   C926      1.0  0.05473  0.63291  0.88725  1.0000
  H   H744      1.0  0.33370  0.55491  0.84324  1.0000
  C   C927      1.0  0.20055  0.63831  0.85335  1.0000
  C   C928      1.0  0.02304  0.64153  0.88915  1.0000
  H   H745      1.0  0.00590  0.52873  0.94601  1.0000
  H   H746      1.0  0.03950  0.74147  0.94880  1.0000
  H   H747      1.0  0.20726  0.55155  0.83835  1.0000
  C   C929      1.0  0.11918  0.94463  0.85345  1.0000
  H   H748      1.0  0.10325  0.94698  0.86334  1.0000
  H   H749      1.0  0.10345  0.97734  0.92808  1.0000
  C   C930      1.0  0.05923  0.69593  0.94348  1.0000
  H   H750      1.0  0.99566  0.56572  0.92400  1.0000
  H   H751      1.0  0.06260  0.60977  0.89095  1.0000
  C   C931      1.0  0.17636  0.58722  0.84740  1.0000
  C   C932      1.0  0.17387  0.61830  0.85304  1.0000
  H   H752      1.0  0.12226  0.89405  0.85547  1.0000
  C   C933      1.0  0.34754  0.49796  0.64920  1.0000
  H   H753      1.0  0.30081  0.51976  0.82725  1.0000
  C   C934      1.0  0.07561  0.67757  0.93252  1.0000
  H   H754      1.0  0.26370  0.50372  0.69060  1.0000
  C   C935      1.0  0.08392  0.69042  0.91809  1.0000
  C   C936      1.0  0.07517  0.72131  0.91438  1.0000
  C   C937      1.0  0.05809  0.73977  0.92519  1.0000
  C   C938      1.0  0.05090  0.72706  0.93993  1.0000
  P   P33       1.0  0.05032  0.78105  0.92140  1.0000
  C   C939      1.0  0.07556  0.80322  0.93510  1.0000
  C   C940      1.0  0.06064  0.78944  0.90129  1.0000
  C   C941      1.0  0.03779  0.78488  0.88927  1.0000
  C   C942      1.0  0.04533  0.79130  0.87366  1.0000
  C   C943      1.0  0.07586  0.80182  0.86990  1.0000
  C   C944      1.0  0.09889  0.80568  0.88172  1.0000
  C   C945      1.0  0.09139  0.79961  0.89737  1.0000
  C   C946      1.0  0.10712  0.79381  0.93754  1.0000
  C   C947      1.0  0.18585  0.96714  0.79877  1.0000
  C   C948      1.0  0.99968  0.82243  0.91866  1.0000
  C   C949      1.0  0.22330  0.98650  0.91610  1.0000
  C   C950      1.0  0.06397  0.82906  0.94383  1.0000
  C   C951      1.0  0.15818  0.96380  0.96187  1.0000
  C   C952      1.0  0.14981  0.96817  0.83253  1.0000
  C   C953      1.0  0.12703  0.81063  0.94802  1.0000
  C   C954      1.0  0.04909  0.91705  0.94345  1.0000
  H   H755      1.0  0.08260  0.65361  0.93530  1.0000
  H   H756      1.0  0.25053  0.95136  0.79940  1.0000
  H   H757      1.0  0.00632  0.68451  0.91636  1.0000
  C   C955      1.0  0.11552  0.83664  0.95640  1.0000
  H   H758      1.0  0.09798  0.67665  0.90992  1.0000
  H   H759      1.0  0.08281  0.73084  0.90327  1.0000
  H   H760      1.0  0.24865  0.98869  0.74272  1.0000
  H   H761      1.0  0.05370  0.68626  0.95487  1.0000
  H   H762      1.0  0.10089  0.64729  0.87918  1.0000
  H   H763      1.0  0.08161  0.80748  0.85787  1.0000
  H   H764      1.0  0.12249  0.81399  0.87881  1.0000
  H   H765      1.0  0.10970  0.80304  0.90624  1.0000
  H   H766      1.0  0.99220  0.74728  0.93254  1.0000
  C   C956      1.0  0.05169  0.93771  0.95638  1.0000
  C   C957      1.0  0.21588  0.51246  0.68342  1.0000
  H   H767      1.0  0.03970  0.83666  0.94255  1.0000
  C   C958      1.0  0.21499  0.98497  0.85833  1.0000
  H   H768      1.0  0.02802  0.71665  0.87501  1.0000
  C   C959      1.0  0.23966  0.54177  0.79494  1.0000
  H   H769      1.0  0.00978  0.96152  0.91010  1.0000
  H   H770      1.0  0.09957  0.57096  0.96439  1.0000
  C   C960      1.0  0.05122  0.50639  0.94679  1.0000
  H   H771      1.0  0.33011  0.52170  0.68016  1.0000
  C   C961      1.0  0.99464  0.94436  0.95609  1.0000
  H   H772      1.0  0.39923  0.97403  0.69565  1.0000
  H   H773      1.0  0.07502  0.86566  0.96105  1.0000
  C   C962      1.0  0.99489  0.56111  0.91147  1.0000
  H   H774      1.0  0.13122  0.85007  0.96423  1.0000
  C   C963      1.0  0.12909  0.97135  0.84520  1.0000
  H   H775      1.0  0.17716  0.89887  0.96953  1.0000
  C   C964      1.0  0.26286  0.98419  0.66266  1.0000
  C   C965      1.0  0.16905  0.96527  0.78441  1.0000
  C   C966      1.0  0.20060  0.49422  0.65734  1.0000
  H   H776      1.0  0.15741  0.98921  0.82644  1.0000
  H   H777      1.0  0.34528  0.98693  0.70458  1.0000
  C   C967      1.0  0.34410  0.50273  0.70243  1.0000
  C   C968      1.0  0.08798  0.55584  0.97287  1.0000
  C   C969      1.0  0.25864  0.51508  0.79313  1.0000
  C   C970      1.0  0.33012  0.50084  0.68744  1.0000
  H   H778      1.0  0.18282  0.49167  0.64807  1.0000
  H   H779      1.0  0.15555  0.98981  0.76330  1.0000
  C   C971      1.0  0.99238  0.54903  0.87919  1.0000
  Fe  Fe65      1.0  0.83705  0.34823  0.03723  1.0000
  S   S129      1.0  0.86802  0.37050  0.05629  1.0000
  S   S130      1.0  0.82270  0.29581  0.03209  1.0000
  Fe  Fe66      1.0  0.82942  0.41354  0.02037  1.0000
  S   S131      1.0  0.86006  0.43942  0.03837  1.0000
  S   S132      1.0  0.80244  0.43676  0.99993  1.0000
  Fe  Fe67      1.0  0.89219  0.39687  0.03670  1.0000
  S   S133      1.0  0.94371  0.39780  0.02838  1.0000
  Fe  Fe68      1.0  0.83301  0.41165  0.05668  1.0000
  S   S134      1.0  0.81466  0.43159  0.08071  1.0000
  S   S135      1.0  0.86269  0.37287  0.01767  1.0000
  S   S136      1.0  0.80093  0.38738  0.03860  1.0000
  Fe  Fe69      1.0  0.84342  0.09954  0.04691  1.0000
  S   S137      1.0  0.85425  0.06535  0.06655  1.0000
  S   S138      1.0  0.84680  0.15257  0.05437  1.0000
  Fe  Fe70      1.0  0.84418  0.04502  0.02191  1.0000
  S   S139      1.0  0.85607  0.00831  0.03988  1.0000
  S   S140      1.0  0.84372  0.03820  0.99491  1.0000
  Fe  Fe71      1.0  0.81904  0.03121  0.05532  1.0000
  C   C972      1.0  0.98057  0.39574  0.03862  1.0000
  Fe  Fe72      1.0  0.89008  0.04469  0.05010  1.0000
  S   S141      1.0  0.93834  0.03334  0.06055  1.0000
  S   S142      1.0  0.80510  0.06679  0.03657  1.0000
  S   S143      1.0  0.88124  0.07989  0.03123  1.0000
  C   C973      1.0  0.82358  0.46225  0.20684  1.0000
  C   C974      1.0  0.64946  0.06322  0.03049  1.0000
  H   H780      1.0  0.91729  0.42769  0.99907  1.0000
  H   H781      1.0  0.79404  0.31449  0.06869  1.0000
  H   H782      1.0  0.78764  0.46875  0.03673  1.0000
  H   H783      1.0  0.92811  0.08241  0.99316  1.0000
  H   H784      1.0  0.60732  0.06914  0.01626  1.0000
  H   H785      1.0  0.98632  0.28199  0.00948  1.0000
  C   C975      1.0  0.97410  0.04223  0.05078  1.0000
  H   H786      1.0  0.79313  0.43967  0.11273  1.0000
  C   C976      1.0  0.97416  0.05322  0.03535  1.0000
  C   C977      1.0  0.62802  0.11515  0.04798  1.0000
  H   H787      1.0  0.95191  0.05704  0.02924  1.0000
  C   C978      1.0  0.78893  0.46051  0.08981  1.0000
  H   H788      1.0  0.94501  0.44044  0.19810  1.0000
  H   H789      1.0  0.61957  0.13508  0.05485  1.0000
  H   H790      1.0  0.87334  0.10004  0.98751  1.0000
  C   C979      1.0  0.71067  0.47197  0.02438  1.0000
  C   C980      1.0  0.83057  0.25621  0.03842  1.0000
  C   C981      1.0  0.82016  0.23042  0.02889  1.0000
  C   C982      1.0  0.82528  0.19868  0.03339  1.0000
  C   C983      1.0  0.84060  0.19212  0.04765  1.0000
  C   C984      1.0  0.85111  0.21789  0.05717  1.0000
  C   C985      1.0  0.84635  0.24964  0.05257  1.0000
  H   H791      1.0  0.80794  0.23504  0.01793  1.0000
  H   H792      1.0  0.81699  0.17930  0.02592  1.0000
  H   H793      1.0  0.86303  0.21324  0.06821  1.0000
  H   H794      1.0  0.85452  0.26900  0.06008  1.0000
  C   C986      1.0  0.82226  0.46572  0.23968  1.0000
  H   H795      1.0  0.89451  0.27426  0.03059  1.0000
  H   H796      1.0  0.85372  0.14968  0.99969  1.0000
  C   C987      1.0  0.90748  0.47433  0.20061  1.0000
  H   H797      1.0  0.96194  0.40142  0.06193  1.0000
  C   C988      1.0  0.98757  0.30309  0.07564  1.0000
  C   C989      1.0  0.74259  0.04575  0.00557  1.0000
  H   H798      1.0  0.68174  0.38535  0.02838  1.0000
  C   C990      1.0  0.96975  0.00811  0.97686  1.0000
  H   H799      1.0  0.74418  0.05963  0.99499  1.0000
  H   H800      1.0  0.86565  0.45741  0.98947  1.0000
  H   H801      1.0  0.71781  0.22558  0.29818  1.0000
  H   H802      1.0  0.82175  0.46719  0.25241  1.0000
  C   C991      1.0  0.98311  0.39831  0.05500  1.0000
  C   C992      1.0  0.83989  0.00384  0.98245  1.0000
  H   H803      1.0  0.82402  0.46032  0.19413  1.0000
  H   H804      1.0  0.71273  0.07897  0.01744  1.0000
  C   C993      1.0  0.69344  0.18189  0.29208  1.0000
  H   H805      1.0  0.92833  0.46846  0.02360  1.0000
  C   C994      1.0  0.66287  0.39132  0.05181  1.0000
  C   C995      1.0  0.74461  0.99468  0.11149  1.0000
  H   H806      1.0  0.93559  0.30652  0.01752  1.0000
  H   H807      1.0  0.63248  0.36162  0.01722  1.0000
  C   C996      1.0  0.62113  0.07802  0.02624  1.0000
  H   H808      1.0  0.70002  0.18268  0.27980  1.0000
  C   C997      1.0  0.72779  0.37730  0.06344  1.0000
  C   C998      1.0  0.75088  0.38095  0.07539  1.0000
  H   H809      1.0  0.88951  0.45610  0.20205  1.0000
  H   H810      1.0  0.79273  0.36193  0.08632  1.0000
  C   C999      1.0  0.67703  0.00941  0.08930  1.0000
  H   H811      1.0  0.77416  0.02695  0.09825  1.0000
  C   C1000     1.0  0.68742  0.03245  0.07880  1.0000
  C   C1001     1.0  0.84818  0.46610  0.98126  1.0000
  C   C1002     1.0  0.68253  0.42898  0.10641  1.0000
  C   C1003     1.0  0.95304  0.99622  0.00799  1.0000
  C   C1004     1.0  0.77518  0.33159  0.06750  1.0000
  H   H812      1.0  0.53545  0.01966  0.19868  1.0000
  H   H813      1.0  0.90334  0.21769  0.03554  1.0000
  C   C1005     1.0  0.72866  0.35031  0.05359  1.0000
  C   C1006     1.0  0.92002  0.10473  0.99796  1.0000
  H   H814      1.0  0.67359  0.47453  0.11722  1.0000
  H   H815      1.0  0.69336  0.05590  0.08330  1.0000
  H   H816      1.0  0.75154  0.40197  0.08283  1.0000
  C   C1007     1.0  0.93899  0.46532  0.19833  1.0000
  P   P34       1.0  0.69917  0.40827  0.06002  1.0000
  H   H817      1.0  0.95539  0.33310  0.06291  1.0000
  C   C1008     1.0  0.67863  0.47800  0.09217  1.0000
  C   C1009     1.0  0.66134  0.38208  0.03589  1.0000
  H   H818      1.0  0.88842  0.18185  0.01691  1.0000
  H   H819      1.0  0.98172  0.45341  0.01551  1.0000
  H   H820      1.0  0.96329  0.11379  0.01066  1.0000
  H   H821      1.0  0.71186  0.34700  0.04403  1.0000
  C   C1010     1.0  0.61047  0.10404  0.03495  1.0000
  H   H822      1.0  0.58845  0.11541  0.03168  1.0000
  C   C1011     1.0  0.71605  0.43637  0.04649  1.0000
  H   H823      1.0  0.98709  0.48132  0.19458  1.0000
  H   H824      1.0  0.97646  0.30747  0.08688  1.0000
  C   C1012     1.0  0.97111  0.48885  0.30298  1.0000
  C   C1013     1.0  0.93167  0.01129  0.99799  1.0000
  C   C1014     1.0  0.77489  0.48531  0.08152  1.0000
  H   H825      1.0  0.66747  0.13781  0.28956  1.0000
  C   C1015     1.0  0.92436  0.42428  0.98694  1.0000
  C   C1016     1.0  0.76258  0.00397  0.09830  1.0000
  H   H826      1.0  0.93386  0.47334  0.98353  1.0000
  C   C1017     1.0  0.94001  0.01726  0.98244  1.0000
  H   H827      1.0  0.67584  0.01481  0.10178  1.0000
  H   H828      1.0  0.58744  0.00297  0.26116  1.0000
  C   C1018     1.0  0.99049  0.31274  0.04774  1.0000
  C   C1019     1.0  0.67508  0.15664  0.29758  1.0000
  H   H829      1.0  0.94022  0.11390  0.04221  1.0000
  C   C1020     1.0  0.80766  0.43886  0.21531  1.0000
  C   C1021     1.0  0.60833  0.37296  0.05490  1.0000
  C   C1022     1.0  0.65635  0.10040  0.05225  1.0000
  H   H830      1.0  0.67152  0.44748  0.03486  1.0000
  C   C1023     1.0  0.60695  0.36408  0.03902  1.0000
  C   C1024     1.0  0.67758  0.46164  0.10631  1.0000
  C   C1025     1.0  0.74342  0.47788  0.02479  1.0000
  H   H831      1.0  0.79571  0.41945  0.20913  1.0000
  C   C1026     1.0  0.72323  0.03888  0.03217  1.0000
  H   H832      1.0  0.83995  0.00196  0.10099  1.0000
  H   H833      1.0  0.77406  0.00978  0.99699  1.0000
  C   C1027     1.0  0.78259  0.45854  0.10606  1.0000
  C   C1028     1.0  0.68132  0.99471  0.05725  1.0000
  H   H834      1.0  0.93353  0.19679  0.08386  1.0000
  C   C1029     1.0  0.98650  0.48579  0.28859  1.0000
  C   C1030     1.0  0.97567  0.31755  0.06216  1.0000
  H   H835      1.0  0.94951  0.21177  0.05718  1.0000
  H   H836      1.0  0.74243  0.01089  0.12136  1.0000
  H   H837      1.0  0.66941  0.10893  0.06254  1.0000
  H   H838      1.0  0.98186  0.32498  0.03745  1.0000
  C   C1031     1.0  0.68525  0.46194  0.07814  1.0000
  C   C1032     1.0  0.63346  0.36860  0.02952  1.0000
  C   C1033     1.0  0.66752  0.07468  0.04336  1.0000
  H   H839      1.0  0.92116  0.14059  0.08987  1.0000
  C   C1034     1.0  0.69048  0.02503  0.06274  1.0000
  C   C1035     1.0  0.75954  0.01762  0.00670  1.0000
  C   C1036     1.0  0.77439  0.35819  0.07741  1.0000
  H   H840      1.0  0.91565  0.37405  0.98726  1.0000
  C   C1037     1.0  0.69694  0.45150  0.03527  1.0000
  C   C1038     1.0  0.93408  0.45019  0.97803  1.0000
  C   C1039     1.0  0.69061  0.42917  0.07814  1.0000
  C   C1040     1.0  0.68878  0.41272  0.09237  1.0000
  H   H841      1.0  0.76847  0.46737  0.97502  1.0000
  H   H842      1.0  0.82265  0.02418  0.12661  1.0000
  P   P35       1.0  0.70345  0.05502  0.04916  1.0000
  C   C1041     1.0  0.73157  0.08271  0.05802  1.0000
  C   C1042     1.0  0.73507  0.11338  0.05200  1.0000
  C   C1043     1.0  0.75787  0.13432  0.05846  1.0000
  C   C1044     1.0  0.77736  0.12472  0.07087  1.0000
  C   C1045     1.0  0.77452  0.09402  0.07664  1.0000
  C   C1046     1.0  0.75193  0.07303  0.07014  1.0000
  C   C1047     1.0  0.74859  0.44368  0.04726  1.0000
  H   H843      1.0  0.63670  0.39306  0.07363  1.0000
  H   H844      1.0  0.68197  0.41642  0.11743  1.0000
  C   C1048     1.0  0.81594  0.45993  0.98385  1.0000
  H   H845      1.0  0.58780  0.36944  0.06228  1.0000
  H   H846      1.0  0.79447  0.42257  0.23827  1.0000
  C   C1049     1.0  0.72470  0.05651  0.01829  1.0000
  H   H847      1.0  0.76359  0.43345  0.05622  1.0000
  C   C1050     1.0  0.74080  0.01094  0.03328  1.0000
  H   H848      1.0  0.72068  0.12092  0.04216  1.0000
  H   H849      1.0  0.76111  0.15777  0.05365  1.0000
  H   H850      1.0  0.79533  0.14080  0.07571  1.0000
  H   H851      1.0  0.79042  0.08619  0.08587  1.0000
  H   H852      1.0  0.75080  0.04904  0.07434  1.0000
  H   H853      1.0  0.69256  0.38741  0.09264  1.0000
  C   C1051     1.0  0.76227  0.46406  0.03636  1.0000
  C   C1052     1.0  0.80693  0.44063  0.23172  1.0000
  H   H854      1.0  0.75360  0.30741  0.04766  1.0000
  C   C1053     1.0  0.88912  0.11466  0.99479  1.0000
  C   C1054     1.0  0.87808  0.14262  0.00164  1.0000
  C   C1055     1.0  0.89806  0.16094  0.01146  1.0000
  C   C1056     1.0  0.92948  0.15161  0.01444  1.0000
  C   C1057     1.0  0.93999  0.12284  0.00788  1.0000
  P   P36       1.0  0.95525  0.17453  0.02765  1.0000
  H   H855      1.0  0.65713  0.04273  0.02380  1.0000
  C   C1058     1.0  0.94967  0.21665  0.02463  1.0000
  C   C1059     1.0  0.97328  0.23545  0.01761  1.0000
  C   C1060     1.0  0.96812  0.26766  0.01495  1.0000
  C   C1061     1.0  0.93963  0.28154  0.01950  1.0000
  C   C1062     1.0  0.91646  0.26334  0.02689  1.0000
  C   C1063     1.0  0.92148  0.23115  0.02953  1.0000
  C   C1064     1.0  0.75227  0.32761  0.05563  1.0000
  H   H856      1.0  0.77963  0.48783  0.06914  1.0000
  H   H857      1.0  0.68666  0.47535  0.06742  1.0000
  C   C1065     1.0  0.63620  0.38642  0.06131  1.0000
  H   H858      1.0  0.58535  0.35365  0.03408  1.0000
  C   C1066     1.0  0.94509  0.16407  0.04751  1.0000
  C   C1067     1.0  0.93880  0.13229  0.05114  1.0000
  C   C1068     1.0  0.93048  0.12391  0.06640  1.0000
  C   C1069     1.0  0.92840  0.14715  0.07816  1.0000
  C   C1070     1.0  0.93534  0.17877  0.07475  1.0000
  C   C1071     1.0  0.94402  0.18720  0.05952  1.0000
  H   H859      1.0  0.92514  0.09936  0.06903  1.0000
  H   H860      1.0  0.90867  0.01844  0.00233  1.0000
  C   C1072     1.0  0.97665  0.47833  0.01696  1.0000
  C   C1073     1.0  0.92337  0.39394  0.98025  1.0000
  C   C1074     1.0  0.52279  0.00160  0.19187  1.0000
  H   H861      1.0  0.94676  0.99220  0.02015  1.0000
  C   C1075     1.0  0.76274  0.48067  0.11383  1.0000
  C   C1076     1.0  0.75870  0.00025  0.02055  1.0000
  H   H862      1.0  0.75825  0.47845  0.12626  1.0000
  S   S144      1.0  0.78709  0.99421  0.06794  1.0000
  H   H863      1.0  0.75764  0.47918  0.25398  1.0000
  H   H864      1.0  0.69605  0.48308  0.01553  1.0000
  C   C1077     1.0  0.94626  0.48674  0.02183  1.0000
  H   H865      1.0  0.92322  0.02885  0.97473  1.0000
  H   H866      1.0  0.74146  0.99778  0.04409  1.0000
  H   H867      1.0  0.77164  0.48547  0.28240  1.0000
  H   H868      1.0  0.64009  0.99819  0.27397  1.0000
  C   C1078     1.0  0.70346  0.20605  0.30243  1.0000
  C   C1079     1.0  0.82561  0.99886  0.12521  1.0000
  C   C1080     1.0  0.99092  0.99185  0.98667  1.0000
  C   C1081     1.0  0.83852  0.48794  0.21472  1.0000
  C   C1082     1.0  0.83803  0.48924  0.23124  1.0000
  C   C1083     1.0  0.96269  0.48835  0.19634  1.0000
  Fe  Fe73      1.0  0.69083  0.42185  0.39133  1.0000
  S   S145      1.0  0.70484  0.39616  0.41366  1.0000
  S   S146      1.0  0.72443  0.46038  0.38107  1.0000
  Fe  Fe74      1.0  0.62323  0.39328  0.39246  1.0000
  S   S147      1.0  0.63297  0.36621  0.41441  1.0000
  S   S148      1.0  0.57517  0.38791  0.38017  1.0000
  Fe  Fe75      1.0  0.65749  0.41093  0.42324  1.0000
  S   S149      1.0  0.64156  0.42610  0.44794  1.0000
  Fe  Fe76      1.0  0.67900  0.35307  0.40324  1.0000
  S   S150      1.0  0.70031  0.30301  0.40519  1.0000
  S   S151      1.0  0.64459  0.43882  0.40176  1.0000
  S   S152      1.0  0.66819  0.37778  0.38039  1.0000
  Fe  Fe77      1.0  0.68104  0.04234  0.38801  1.0000
  S   S153      1.0  0.69155  0.07152  0.41036  1.0000
  H   H869      1.0  0.70125  0.45948  0.51727  1.0000
  Fe  Fe78      1.0  0.60909  0.05101  0.39199  1.0000
  S   S154      1.0  0.61535  0.07932  0.41412  1.0000
  S   S155      1.0  0.56054  0.04490  0.38017  1.0000
  Fe  Fe79      1.0  0.65430  0.10592  0.40188  1.0000
  S   S156      1.0  0.64491  0.15999  0.40246  1.0000
  Fe  Fe80      1.0  0.65145  0.04291  0.42111  1.0000
  S   S157      1.0  0.64553  0.02946  0.44715  1.0000
  S   S158      1.0  0.64643  0.07855  0.37915  1.0000
  S   S159      1.0  0.64277  0.01252  0.39935  1.0000
  H   H870      1.0  0.98076  0.37658  0.62943  1.0000
  C   C1084     1.0  0.83927  0.45404  0.60686  1.0000
  C   C1085     1.0  0.49249  0.29859  0.42802  1.0000
  C   C1086     1.0  0.75507  0.46367  0.33507  1.0000
  S   S160      1.0  0.77127  0.40504  0.61747  1.0000
  C   C1087     1.0  0.66667  0.15558  0.31343  1.0000
  H   H871      1.0  0.72175  0.26930  0.37015  1.0000
  C   C1088     1.0  0.49560  0.04888  0.38341  1.0000
  H   H872      1.0  0.75110  0.42921  0.46947  1.0000
  H   H873      1.0  0.87503  0.13642  0.63425  1.0000
  H   H874      1.0  0.51474  0.17475  0.42760  1.0000
  C   C1089     1.0  0.58973  0.43272  0.52108  1.0000
  H   H875      1.0  0.73236  0.03213  0.60391  1.0000
  C   C1090     1.0  0.59823  0.41864  0.50681  1.0000
  C   C1091     1.0  0.52540  0.05096  0.39104  1.0000
  H   H876      1.0  0.86600  0.41133  0.60988  1.0000
  C   C1092     1.0  0.52662  0.05762  0.40716  1.0000
  C   C1093     1.0  0.52913  0.29905  0.37620  1.0000
  H   H877      1.0  0.54925  0.05899  0.41324  1.0000
  C   C1094     1.0  0.70505  0.08946  0.56790  1.0000
  C   C1095     1.0  0.56441  0.13641  0.34839  1.0000
  H   H878      1.0  0.49669  0.28648  0.39441  1.0000
  H   H879      1.0  0.79162  0.01285  0.57037  1.0000
  C   C1096     1.0  0.56456  0.47583  0.45127  1.0000
  C   C1097     1.0  0.54746  0.02411  0.49874  1.0000
  C   C1098     1.0  0.66448  0.08454  0.48286  1.0000
  H   H880      1.0  0.93611  0.07917  0.63873  1.0000
  C   C1099     1.0  0.51052  0.05635  0.46011  1.0000
  C   C1100     1.0  0.68421  0.26346  0.40477  1.0000
  C   C1101     1.0  0.65207  0.25689  0.40167  1.0000
  C   C1102     1.0  0.64066  0.22525  0.40101  1.0000
  C   C1103     1.0  0.66102  0.19953  0.40360  1.0000
  C   C1104     1.0  0.69318  0.20607  0.40676  1.0000
  C   C1105     1.0  0.70464  0.23774  0.40727  1.0000
  H   H881      1.0  0.63618  0.27621  0.39949  1.0000
  H   H882      1.0  0.61587  0.22068  0.39839  1.0000
  H   H883      1.0  0.70929  0.18677  0.40880  1.0000
  H   H884      1.0  0.72959  0.24238  0.40962  1.0000
  C   C1106     1.0  0.53951  0.39597  0.39026  1.0000
  C   C1107     1.0  0.51027  0.38567  0.38372  1.0000
  C   C1108     1.0  0.53969  0.41328  0.40439  1.0000
  C   C1109     1.0  0.88688  0.45056  0.62291  1.0000
  H   H885      1.0  0.56203  0.42143  0.40950  1.0000
  C   C1110     1.0  0.73845  0.43511  0.59355  1.0000
  H   H886      1.0  0.73654  0.41168  0.58831  1.0000
  C   C1111     1.0  0.51086  0.42085  0.41169  1.0000
  C   C1112     1.0  0.65879  0.45218  0.46233  1.0000
  C   C1113     1.0  0.55079  0.45635  0.46252  1.0000
  C   C1114     1.0  0.57768  0.24268  0.42891  1.0000
  C   C1115     1.0  0.76178  0.00058  0.34909  1.0000
  C   C1116     1.0  0.73250  0.99707  0.35683  1.0000
  H   H887      1.0  0.71324  0.45758  0.57436  1.0000
  H   H888      1.0  0.80940  0.12894  0.59840  1.0000
  C   C1117     1.0  0.92395  0.14376  0.62796  1.0000
  H   H889      1.0  0.63267  0.99203  0.32966  1.0000
  C   C1118     1.0  0.81697  0.10504  0.59566  1.0000
  C   C1119     1.0  0.51299  0.20584  0.38790  1.0000
  C   C1120     1.0  0.71468  0.29935  0.52278  1.0000
  H   H890      1.0  0.65151  0.30199  0.54735  1.0000
  H   H891      1.0  0.50542  0.22993  0.38655  1.0000
  C   C1121     1.0  0.64831  0.99412  0.45843  1.0000
  C   C1122     1.0  0.72490  0.41291  0.48949  1.0000
  C   C1123     1.0  0.51451  0.01978  0.49734  1.0000
  H   H892      1.0  0.72799  0.13104  0.49330  1.0000
  C   C1124     1.0  0.73395  0.41208  0.47372  1.0000
  C   C1125     1.0  0.85680  0.06910  0.58580  1.0000
  H   H893      1.0  0.77969  0.07004  0.55669  1.0000
  H   H894      1.0  0.72384  0.43344  0.34864  1.0000
  C   C1126     1.0  0.75620  0.46957  0.61478  1.0000
  C   C1127     1.0  0.84638  0.09999  0.58864  1.0000
  H   H895      1.0  0.60481  0.44489  0.54463  1.0000
  H   H896      1.0  0.54096  0.12569  0.34920  1.0000
  H   H897      1.0  0.70337  0.22396  0.32609  1.0000
  C   C1128     1.0  0.55988  0.02362  0.44567  1.0000
  C   C1129     1.0  0.73946  0.45396  0.34893  1.0000
  C   C1130     1.0  0.52277  0.22526  0.42678  1.0000
  H   H898      1.0  0.97535  0.48469  0.32808  1.0000
  C   C1131     1.0  0.56837  0.30839  0.45111  1.0000
  C   C1132     1.0  0.80814  0.04837  0.59685  1.0000
  H   H899      1.0  0.54320  0.09606  0.46130  1.0000
  H   H900      1.0  0.77713  0.02050  0.35216  1.0000
  H   H901      1.0  0.62496  0.08542  0.52294  1.0000
  C   C1133     1.0  0.58712  0.21117  0.43032  1.0000
  H   H902      1.0  0.75120  0.09643  0.57851  1.0000
  S   S161      1.0  0.72204  0.02552  0.37183  1.0000
  H   H903      1.0  0.77010  0.41136  0.55792  1.0000
  C   C1134     1.0  0.50605  0.02475  0.45535  1.0000
  H   H904      1.0  0.57928  0.01147  0.44004  1.0000
  C   C1135     1.0  0.86467  0.99331  0.60730  1.0000
  C   C1136     1.0  0.89339  0.00593  0.61334  1.0000
  C   C1137     1.0  0.88348  0.00026  0.57368  1.0000
  C   C1138     1.0  0.68821  0.10778  0.48172  1.0000
  C   C1139     1.0  0.67272  0.27946  0.36538  1.0000
  H   H905      1.0  0.72628  0.39019  0.45094  1.0000
  C   C1140     1.0  0.70547  0.01093  0.31539  1.0000
  C   C1141     1.0  0.53422  0.14429  0.39293  1.0000
  H   H906      1.0  0.99192  0.09312  0.63183  1.0000
  C   C1142     1.0  0.55614  0.16903  0.39105  1.0000
  H   H907      1.0  0.55449  0.16003  0.32663  1.0000
  H   H908      1.0  0.94724  0.47503  0.61458  1.0000
  C   C1143     1.0  0.52088  0.29345  0.39182  1.0000
  C   C1144     1.0  0.70377  0.06257  0.54245  1.0000
  H   H909      1.0  0.58137  0.16441  0.39172  1.0000
  C   C1145     1.0  0.57212  0.15564  0.33569  1.0000
  H   H910      1.0  0.74967  0.04838  0.53371  1.0000
  C   C1146     1.0  0.77547  0.49047  0.33500  1.0000
  C   C1147     1.0  0.73653  0.40222  0.53897  1.0000
  H   H911      1.0  0.86149  0.12007  0.58589  1.0000
  H   H912      1.0  0.64970  0.35656  0.53756  1.0000
  C   C1148     1.0  0.70209  0.39129  0.49501  1.0000
  C   C1149     1.0  0.55573  0.31791  0.43660  1.0000
  C   C1150     1.0  0.55812  0.34985  0.43237  1.0000
  C   C1151     1.0  0.72000  0.39009  0.46327  1.0000
  H   H913      1.0  0.68640  0.35166  0.46043  1.0000
  H   H914      1.0  0.67133  0.35166  0.48844  1.0000
  C   C1152     1.0  0.56445  0.05507  0.45064  1.0000
  H   H915      1.0  0.90839  0.02080  0.60619  1.0000
  C   C1153     1.0  0.58720  0.06037  0.53431  1.0000
  H   H916      1.0  0.49441  0.04371  0.37092  1.0000
  H   H917      1.0  0.69620  0.01368  0.49539  1.0000
  H   H918      1.0  0.67434  0.30309  0.37054  1.0000
  C   C1154     1.0  0.83644  0.48593  0.61117  1.0000
  C   C1155     1.0  0.60268  0.16882  0.33456  1.0000
  H   H919      1.0  0.56258  0.21905  0.38742  1.0000
  C   C1156     1.0  0.51908  0.46051  0.46678  1.0000
  C   C1157     1.0  0.69515  0.20504  0.31830  1.0000
  C   C1158     1.0  0.57415  0.37170  0.44217  1.0000
  H   H920      1.0  0.69756  0.01661  0.58116  1.0000
  C   C1159     1.0  0.64379  0.26785  0.35936  1.0000
  H   H921      1.0  0.57671  0.39617  0.43859  1.0000
  C   C1160     1.0  0.66877  0.30983  0.53883  1.0000
  H   H922      1.0  0.73689  0.37690  0.54067  1.0000
  C   C1161     1.0  0.63179  0.01338  0.54018  1.0000
  C   C1162     1.0  0.67902  0.01167  0.32515  1.0000
  C   C1163     1.0  0.75417  0.43900  0.60821  1.0000
  H   H923      1.0  0.90582  0.43637  0.62764  1.0000
  P   P37       1.0  0.69018  0.39147  0.51541  1.0000
  C   C1164     1.0  0.53975  0.07151  0.45777  1.0000
  C   C1165     1.0  0.71757  0.13469  0.37884  1.0000
  C   C1166     1.0  0.73014  0.10849  0.37104  1.0000
  C   C1167     1.0  0.72378  0.10360  0.35503  1.0000
  C   C1168     1.0  0.70498  0.12503  0.34678  1.0000
  C   C1169     1.0  0.69260  0.15174  0.35450  1.0000
  C   C1170     1.0  0.69881  0.15611  0.37062  1.0000
  P   P38       1.0  0.66585  0.17812  0.34442  1.0000
  C   C1171     1.0  0.67658  0.17983  0.32392  1.0000
  C   C1172     1.0  0.62573  0.16290  0.34620  1.0000
  C   C1173     1.0  0.74408  0.47080  0.36310  1.0000
  C   C1174     1.0  0.89869  0.14271  0.63845  1.0000
  H   H924      1.0  0.55887  0.04457  0.49358  1.0000
  C   C1175     1.0  0.54365  0.29741  0.40390  1.0000
  C   C1176     1.0  0.61733  0.14468  0.35921  1.0000
  C   C1177     1.0  0.86440  0.43633  0.61279  1.0000
  C   C1178     1.0  0.68853  0.46670  0.46050  1.0000
  H   H925      1.0  0.70193  0.46229  0.44994  1.0000
  H   H926      1.0  0.60757  0.47812  0.56929  1.0000
  H   H927      1.0  0.98423  0.28741  0.61084  1.0000
  C   C1179     1.0  0.66844  0.21762  0.35288  1.0000
  C   C1180     1.0  0.69217  0.28911  0.53361  1.0000
  C   C1181     1.0  0.58774  0.36186  0.45631  1.0000
  H   H928      1.0  0.62372  0.01471  0.47802  1.0000
  C   C1182     1.0  0.69955  0.26035  0.36513  1.0000
  C   C1183     1.0  0.64157  0.23702  0.35319  1.0000
  H   H929      1.0  0.72172  0.13807  0.39134  1.0000
  H   H930      1.0  0.74421  0.09152  0.37746  1.0000
  H   H931      1.0  0.73290  0.08270  0.34917  1.0000
  H   H932      1.0  0.69993  0.12033  0.33450  1.0000
  H   H933      1.0  0.68857  0.17575  0.37694  1.0000
  H   H934      1.0  0.73299  0.28338  0.51881  1.0000
  H   H935      1.0  0.59291  0.30867  0.40918  1.0000
  C   C1184     1.0  0.66779  0.34081  0.53322  1.0000
  P   P39       1.0  0.68175  0.04590  0.52590  1.0000
  H   H936      1.0  0.63419  0.14092  0.36865  1.0000
  C   C1185     1.0  0.57837  0.03336  0.54261  1.0000
  C   C1186     1.0  0.54554  0.19979  0.38856  1.0000
  H   H937      1.0  0.65263  0.13572  0.31753  1.0000
  C   C1187     1.0  0.88436  0.48259  0.62724  1.0000
  H   H938      1.0  0.60701  0.31907  0.38175  1.0000
  H   H939      1.0  0.57199  0.16230  0.43067  1.0000
  H   H940      1.0  0.81099  0.21453  0.62063  1.0000
  H   H941      1.0  0.61889  0.22849  0.34868  1.0000
  H   H942      1.0  0.56647  0.44311  0.52248  1.0000
  C   C1188     1.0  0.71694  0.41566  0.52741  1.0000
  H   H943      1.0  0.56634  0.31381  0.36058  1.0000
  H   H944      1.0  0.51124  0.43485  0.42244  1.0000
  C   C1189     1.0  0.79793  0.07922  0.59981  1.0000
  H   H945      1.0  0.69302  0.26519  0.53806  1.0000
  C   C1190     1.0  0.54533  0.25002  0.42738  1.0000
  H   H946      1.0  0.62307  0.28272  0.35957  1.0000
  S   S162      1.0  0.83548  0.06188  0.63365  1.0000
  H   H947      1.0  0.72432  0.09910  0.51729  1.0000
  H   H948      1.0  0.76958  0.46967  0.55481  1.0000
  H   H949      1.0  0.79377  0.02860  0.60077  1.0000
  C   C1191     1.0  0.57493  0.30571  0.40008  1.0000
  C   C1192     1.0  0.83750  0.04305  0.58970  1.0000
  C   C1193     1.0  0.72790  0.00736  0.60127  1.0000
  H   H950      1.0  0.56582  0.28413  0.45490  1.0000
  C   C1194     1.0  0.73809  0.08695  0.56846  1.0000
  C   C1195     1.0  0.75408  0.07217  0.55613  1.0000
  H   H951      1.0  0.72612  0.02558  0.31822  1.0000
  C   C1196     1.0  0.71671  0.44868  0.52587  1.0000
  C   C1197     1.0  0.58705  0.13092  0.36012  1.0000
  S   S163      1.0  0.83673  0.35379  0.63758  1.0000
  C   C1198     1.0  0.50163  0.15025  0.39220  1.0000
  C   C1199     1.0  0.68360  0.07142  0.50903  1.0000
  H   H952      1.0  0.60088  0.37875  0.46365  1.0000
  H   H953      1.0  0.64388  0.04837  0.49715  1.0000
  H   H954      1.0  0.91984  0.13814  0.61564  1.0000
  C   C1200     1.0  0.93158  0.99443  0.55127  1.0000
  H   H955      1.0  0.59575  0.26118  0.42866  1.0000
  C   C1201     1.0  0.64079  0.04011  0.53158  1.0000
  C   C1202     1.0  0.62864  0.40615  0.50496  1.0000
  H   H956      1.0  0.67918  0.02695  0.33551  1.0000
  C   C1203     1.0  0.64179  0.42135  0.53182  1.0000
  C   C1204     1.0  0.58315  0.31104  0.38448  1.0000
  C   C1205     1.0  0.72522  0.46118  0.58556  1.0000
  H   H957      1.0  0.54794  0.35781  0.42138  1.0000
  C   C1206     1.0  0.69756  0.22967  0.35877  1.0000
  S   S164      1.0  0.80930  0.15039  0.63155  1.0000
  H   H958      1.0  0.56465  0.43770  0.46774  1.0000
  H   H959      1.0  0.60835  0.18351  0.32461  1.0000
  H   H960      1.0  0.95021  0.99223  0.54264  1.0000
  H   H961      1.0  0.56995  0.07871  0.53219  1.0000
  C   C1207     1.0  0.63806  0.47993  0.58976  1.0000
  H   H962      1.0  0.59507  0.32274  0.47185  1.0000
  C   C1208     1.0  0.61835  0.06391  0.52894  1.0000
  C   C1209     1.0  0.64173  0.45837  0.47613  1.0000
  C   C1210     1.0  0.65293  0.99180  0.32190  1.0000
  H   H963      1.0  0.85956  0.02853  0.55625  1.0000
  H   H964      1.0  0.66231  0.07936  0.55485  1.0000
  H   H965      1.0  0.71874  0.21538  0.35855  1.0000
  H   H966      1.0  0.66555  0.48868  0.61086  1.0000
  C   C1211     1.0  0.70946  0.11314  0.49426  1.0000
  C   C1212     1.0  0.73603  0.46802  0.53552  1.0000
  C   C1213     1.0  0.71382  0.33032  0.51716  1.0000
  C   C1214     1.0  0.69026  0.35122  0.52229  1.0000
  C   C1215     1.0  0.68877  0.36873  0.48447  1.0000
  C   C1216     1.0  0.56020  0.30807  0.37255  1.0000
  H   H967      1.0  0.73565  0.43069  0.49717  1.0000
  H   H968      1.0  0.49803  0.23009  0.42465  1.0000
  H   H969      1.0  0.55430  0.03057  0.54683  1.0000
  C   C1217     1.0  0.95446  0.15182  0.63341  1.0000
  H   H970      1.0  0.90234  0.02385  0.53669  1.0000
  H   H971      1.0  0.75122  0.45030  0.32427  1.0000
  H   H972      1.0  0.58715  0.06673  0.44873  1.0000
  P   P40       1.0  0.53366  0.29049  0.42412  1.0000
  H   H973      1.0  0.63479  0.39602  0.49370  1.0000
  H   H974      1.0  0.64849  0.07983  0.47298  1.0000
  H   H975      1.0  0.61218  0.20557  0.43116  1.0000
  C   C1218     1.0  0.68791  0.07738  0.55494  1.0000
  H   H976      1.0  0.97416  0.15248  0.62532  1.0000
  H   H977      1.0  0.73173  0.33806  0.50894  1.0000
  C   C1219     1.0  0.69744  0.36840  0.46864  1.0000
  C   C1220     1.0  0.61142  0.43381  0.53360  1.0000
  C   C1221     1.0  0.65086  0.40782  0.51740  1.0000
  C   C1222     1.0  0.66201  0.06665  0.49651  1.0000
  C   C1223     1.0  0.56444  0.18674  0.43004  1.0000
  H   H978      1.0  0.69268  0.10052  0.57760  1.0000
  C   C1224     1.0  0.58467  0.33027  0.46084  1.0000
  H   H979      1.0  0.76807  0.47314  0.62602  1.0000
  H   H980      1.0  0.58121  0.11582  0.36994  1.0000
  C   C1225     1.0  0.70728  0.09496  0.50786  1.0000
  C   C1226     1.0  0.70327  0.99882  0.50502  1.0000
  H   H981      1.0  0.65828  0.42268  0.54169  1.0000
  H   H982      1.0  0.69035  0.12132  0.47103  1.0000
  H   H983      1.0  0.58143  0.41790  0.49709  1.0000
  C   C1227     1.0  0.73701  0.05999  0.54315  1.0000
  S   S165      1.0  0.76756  0.99384  0.62741  1.0000
  C   C1228     1.0  0.53224  0.19379  0.42831  1.0000
  H   H984      1.0  0.50092  0.03728  0.49118  1.0000
  H   H985      1.0  0.50998  0.37235  0.37278  1.0000
  H   H986      1.0  0.51132  0.29725  0.36697  1.0000
  C   C1229     1.0  0.81183  0.21543  0.63334  1.0000
  H   H987      1.0  0.77585  0.08307  0.60597  1.0000
  H   H988      1.0  0.61860  0.44763  0.47756  1.0000
  C   C1230     1.0  0.49965  0.99292  0.50366  1.0000
  C   C1231     1.0  0.60072  0.00996  0.54559  1.0000
  C   C1232     1.0  0.75552  0.42168  0.54878  1.0000
  C   C1233     1.0  0.90465  0.01231  0.54794  1.0000
  C   C1234     1.0  0.50072  0.48402  0.45964  1.0000
  C   C1235     1.0  0.70113  0.48683  0.47247  1.0000
  H   H989      1.0  0.50366  0.48738  0.54471  1.0000
  H   H990      1.0  0.64118  0.48224  0.49881  1.0000
  H   H991      1.0  0.59124  0.00517  0.50784  1.0000
  H   H992      1.0  0.88026  0.06568  0.58104  1.0000
  C   C1236     1.0  0.90263  0.00002  0.62885  1.0000
  C   C1237     1.0  0.69911  0.00820  0.52078  1.0000
  C   C1238     1.0  0.56573  0.00190  0.50670  1.0000
  C   C1239     1.0  0.98739  0.48236  0.31695  1.0000
  C   C1240     1.0  0.53052  0.00830  0.44785  1.0000
  C   C1241     1.0  0.75529  0.45456  0.54704  1.0000
  C   C1242     1.0  0.88055  0.01504  0.55906  1.0000
  C   C1243     1.0  0.96261  0.47495  0.62485  1.0000
  C   C1244     1.0  0.63621  0.99417  0.47381  1.0000
  H   H993      1.0  0.65343  0.46126  0.58562  1.0000
  H   H994      1.0  0.70602  0.99461  0.54497  1.0000
  H   H995      1.0  0.81193  0.26674  0.63459  1.0000
  C   C1245     1.0  0.70793  0.99841  0.58834  1.0000
  H   H996      1.0  0.50869  0.44504  0.47544  1.0000
  H   H997      1.0  0.64970  0.48432  0.42962  1.0000
  H   H998      1.0  0.49971  0.06719  0.42801  1.0000
  H   H999      1.0  0.82148  0.44280  0.59926  1.0000
  H   H1000     1.0  0.54255  0.12046  0.39500  1.0000
  H   H1001     1.0  0.58906  0.47233  0.44788  1.0000
  H   H1002     1.0  0.64872  0.99523  0.54298  1.0000
  P   P41       1.0  0.85179  0.00311  0.58769  1.0000
  C   C1246     1.0  0.65443  0.47814  0.48816  1.0000
  C   C1247     1.0  0.61229  0.48945  0.58057  1.0000
  C   C1248     1.0  0.49844  0.06208  0.41556  1.0000
  H   H1003     1.0  0.92465  0.01000  0.63356  1.0000
  C   C1249     1.0  0.95138  0.48479  0.63959  1.0000
  Fe  Fe81      1.0  0.79992  0.39235  0.64003  1.0000
  C   C1250     1.0  0.98014  0.15835  0.68725  1.0000
  C   C1251     1.0  0.57087  0.17134  0.81880  1.0000
  Fe  Fe82      1.0  0.79470  0.06858  0.67486  1.0000
  C   C1252     1.0  0.94298  0.47419  0.93099  1.0000
  S   S166      1.0  0.78252  0.08073  0.70063  1.0000
  H   H1004     1.0  0.58045  0.06600  0.70479  1.0000
  H   H1005     1.0  0.70199  0.04505  0.86882  1.0000
  C   C1253     1.0  0.79242  0.05705  0.78015  1.0000
  S   S167      1.0  0.83662  0.09878  0.66781  1.0000
  S   S168      1.0  0.83283  0.42356  0.65479  1.0000
  Fe  Fe83      1.0  0.81692  0.33315  0.65964  1.0000
  S   S169      1.0  0.85062  0.36092  0.67535  1.0000
  H   H1006     1.0  0.73799  0.15801  0.77037  1.0000
  Fe  Fe84      1.0  0.81217  0.39759  0.67579  1.0000
  S   S170      1.0  0.79997  0.41996  0.69982  1.0000
  H   H1007     1.0  0.73685  0.30427  0.68886  1.0000
  C   C1254     1.0  0.85620  0.44406  0.87198  1.0000
  S   S171      1.0  0.77753  0.36874  0.66112  1.0000
  Fe  Fe85      1.0  0.64742  0.34395  0.79691  1.0000
  S   S172      1.0  0.62326  0.36892  0.77707  1.0000
  S   S173      1.0  0.62743  0.29406  0.80007  1.0000
  Fe  Fe86      1.0  0.68486  0.40446  0.80724  1.0000
  S   S174      1.0  0.66245  0.43297  0.78777  1.0000
  S   S175      1.0  0.72513  0.41999  0.82468  1.0000
  Fe  Fe87      1.0  0.61591  0.40863  0.79418  1.0000
  S   S176      1.0  0.56788  0.43318  0.79789  1.0000
  Fe  Fe88      1.0  0.67144  0.39045  0.77203  1.0000
  S   S177      1.0  0.68461  0.38658  0.74585  1.0000
  S   S178      1.0  0.63799  0.38290  0.81455  1.0000
  S   S179      1.0  0.69596  0.36280  0.79097  1.0000
  Fe  Fe89      1.0  0.67524  0.11770  0.79818  1.0000
  S   S180      1.0  0.63781  0.10858  0.77957  1.0000
  S   S181      1.0  0.70270  0.16429  0.80109  1.0000
  Fe  Fe90      1.0  0.67360  0.04914  0.81025  1.0000
  S   S182      1.0  0.63549  0.03527  0.79220  1.0000
  H   H1008     1.0  0.75875  0.01698  0.82444  1.0000
  Fe  Fe91      1.0  0.66467  0.06368  0.77486  1.0000
  S   S183      1.0  0.67209  0.04699  0.74933  1.0000
  Fe  Fe92      1.0  0.61119  0.08128  0.79803  1.0000
  S   S184      1.0  0.55879  0.09309  0.80349  1.0000
  S   S185      1.0  0.70380  0.07430  0.79242  1.0000
  S   S186      1.0  0.64747  0.09367  0.81710  1.0000
  C   C1255     1.0  0.64912  0.25846  0.79958  1.0000
  C   C1256     1.0  0.68230  0.25826  0.80056  1.0000
  C   C1257     1.0  0.69845  0.22925  0.80105  1.0000
  C   C1258     1.0  0.68165  0.20029  0.80021  1.0000
  C   C1259     1.0  0.64853  0.20051  0.79879  1.0000
  C   C1260     1.0  0.63235  0.22948  0.79862  1.0000
  H   H1009     1.0  0.69540  0.28044  0.80137  1.0000
  H   H1010     1.0  0.72399  0.22927  0.80239  1.0000
  H   H1011     1.0  0.63535  0.17836  0.79818  1.0000
  H   H1012     1.0  0.60669  0.22944  0.79791  1.0000
  C   C1261     1.0  0.76867  0.40886  0.71278  1.0000
  C   C1262     1.0  0.76800  0.42218  0.72806  1.0000
  C   C1263     1.0  0.74324  0.41475  0.73856  1.0000
  C   C1264     1.0  0.71831  0.39446  0.73381  1.0000
  C   C1265     1.0  0.71898  0.38118  0.71854  1.0000
  C   C1266     1.0  0.74411  0.38798  0.70817  1.0000
  H   H1013     1.0  0.78671  0.43846  0.73179  1.0000
  H   H1014     1.0  0.74303  0.42540  0.75017  1.0000
  H   H1015     1.0  0.69972  0.36573  0.71462  1.0000
  H   H1016     1.0  0.74408  0.37766  0.69646  1.0000
  C   C1267     1.0  0.75155  0.07067  0.71392  1.0000
  C   C1268     1.0  0.72599  0.05078  0.70965  1.0000
  C   C1269     1.0  0.70209  0.04370  0.72066  1.0000
  C   C1270     1.0  0.70328  0.05644  0.73605  1.0000
  C   C1271     1.0  0.72876  0.07648  0.74030  1.0000
  C   C1272     1.0  0.75270  0.08349  0.72930  1.0000
  H   H1017     1.0  0.72463  0.04078  0.69788  1.0000
  H   H1018     1.0  0.52846  0.27655  0.74046  1.0000
  H   H1019     1.0  0.71974  0.32014  0.90769  1.0000
  H   H1020     1.0  0.77225  0.09900  0.73271  1.0000
  C   C1273     1.0  0.80618  0.40551  0.92450  1.0000
  C   C1274     1.0  0.81273  0.24637  0.65764  1.0000
  C   C1275     1.0  0.81324  0.21800  0.66610  1.0000
  C   C1276     1.0  0.81288  0.18848  0.65825  1.0000
  H   H1021     1.0  0.81366  0.21888  0.67881  1.0000
  H   H1022     1.0  0.81283  0.16685  0.66491  1.0000
  H   H1023     1.0  0.74066  0.44097  0.88545  1.0000
  C   C1277     1.0  0.52827  0.42039  0.79282  1.0000
  C   C1278     1.0  0.52198  0.39452  0.78275  1.0000
  H   H1024     1.0  0.51337  0.20755  0.83991  1.0000
  H   H1025     1.0  0.54153  0.38131  0.77793  1.0000
  H   H1026     1.0  0.69114  0.23394  0.71136  1.0000
  C   C1279     1.0  0.51857  0.08115  0.79893  1.0000
  C   C1280     1.0  0.51083  0.05695  0.78808  1.0000
  H   H1027     1.0  0.64970  0.16283  0.74532  1.0000
  H   H1028     1.0  0.52966  0.04442  0.78221  1.0000
  H   H1029     1.0  0.60853  0.28648  0.72388  1.0000
  S   S187      1.0  0.90948  0.04205  0.66479  1.0000
  C   C1281     1.0  0.79460  0.08252  0.76976  1.0000
  C   C1282     1.0  0.53785  0.35649  0.81944  1.0000
  C   C1283     1.0  0.96854  0.39961  0.66723  1.0000
  H   H1030     1.0  0.94975  0.40330  0.67559  1.0000
  C   C1284     1.0  0.69342  0.16711  0.69557  1.0000
  C   C1285     1.0  0.52738  0.23441  0.77445  1.0000
  H   H1031     1.0  0.75656  0.36015  0.91902  1.0000
  C   C1286     1.0  0.74202  0.28517  0.69687  1.0000
  H   H1032     1.0  0.79576  0.45456  0.81193  1.0000
  C   C1287     1.0  0.72530  0.15952  0.75927  1.0000
  C   C1288     1.0  0.78368  0.00887  0.92799  1.0000
  H   H1033     1.0  0.97602  0.01316  0.96483  1.0000
  H   H1034     1.0  0.54789  0.25145  0.79652  1.0000
  H   H1035     1.0  0.82840  0.01754  0.87315  1.0000
  H   H1036     1.0  0.55524  0.31593  0.75828  1.0000
  H   H1037     1.0  0.57125  0.16555  0.79384  1.0000
  C   C1289     1.0  0.54759  0.29311  0.76270  1.0000
  C   C1290     1.0  0.52352  0.11208  0.75835  1.0000
  C   C1291     1.0  0.76479  0.45316  0.79161  1.0000
  H   H1038     1.0  0.98528  0.11823  0.67136  1.0000
  H   H1039     1.0  0.70970  0.20749  0.66198  1.0000
  C   C1292     1.0  0.65156  0.26317  0.71709  1.0000
  C   C1293     1.0  0.77253  0.07879  0.85886  1.0000
  C   C1294     1.0  0.74068  0.06927  0.85766  1.0000
  C   C1295     1.0  0.72665  0.05261  0.86990  1.0000
  C   C1296     1.0  0.74453  0.04498  0.88325  1.0000
  C   C1297     1.0  0.77686  0.05351  0.88432  1.0000
  C   C1298     1.0  0.79048  0.07128  0.87222  1.0000
  P   P42       1.0  0.79995  0.04458  0.90170  1.0000
  C   C1299     1.0  0.79898  0.07953  0.91409  1.0000
  C   C1300     1.0  0.68561  0.46870  0.73560  1.0000
  H   H1040     1.0  0.50674  0.45711  0.80680  1.0000
  C   C1301     1.0  0.77960  0.46783  0.80461  1.0000
  C   C1302     1.0  0.61692  0.13730  0.69890  1.0000
  C   C1303     1.0  0.50528  0.34949  0.81894  1.0000
  C   C1304     1.0  0.51688  0.29355  0.82022  1.0000
  C   C1305     1.0  0.82436  0.10143  0.91428  1.0000
  C   C1306     1.0  0.82325  0.12857  0.92386  1.0000
  C   C1307     1.0  0.79663  0.13425  0.93312  1.0000
  C   C1308     1.0  0.77092  0.11298  0.93266  1.0000
  C   C1309     1.0  0.77195  0.08584  0.92308  1.0000
  C   C1310     1.0  0.83995  0.03326  0.89693  1.0000
  C   C1311     1.0  0.84680  0.02033  0.88207  1.0000
  C   C1312     1.0  0.78167  0.47397  0.91652  1.0000
  H   H1041     1.0  0.97079  0.28219  0.68273  1.0000
  H   H1042     1.0  0.50939  0.26903  0.82016  1.0000
  C   C1313     1.0  0.86378  0.03405  0.90863  1.0000
  H   H1043     1.0  0.78328  0.09184  0.84939  1.0000
  H   H1044     1.0  0.72682  0.07444  0.84719  1.0000
  C   C1314     1.0  0.84681  0.00648  0.96633  1.0000
  C   C1315     1.0  0.68516  0.48142  0.75084  1.0000
  H   H1045     1.0  0.81506  0.07902  0.87304  1.0000
  H   H1046     1.0  0.79320  0.02811  0.93521  1.0000
  H   H1047     1.0  0.66916  0.47102  0.75925  1.0000
  H   H1048     1.0  0.73308  0.03220  0.89261  1.0000
  P   P43       1.0  0.95828  0.47864  0.95081  1.0000
  H   H1049     1.0  0.94885  0.41135  0.94354  1.0000
  H   H1050     1.0  0.84494  0.09768  0.90699  1.0000
  H   H1051     1.0  0.84303  0.14524  0.92410  1.0000
  H   H1052     1.0  0.79584  0.15523  0.94058  1.0000
  H   H1053     1.0  0.75015  0.11753  0.93972  1.0000
  H   H1054     1.0  0.75172  0.06972  0.92270  1.0000
  C   C1316     1.0  0.94204  0.41527  0.95565  1.0000
  H   H1055     1.0  0.69302  0.47982  0.83321  1.0000
  H   H1056     1.0  0.85541  0.02886  0.96191  1.0000
  C   C1317     1.0  0.75985  0.38143  0.88051  1.0000
  H   H1057     1.0  0.85853  0.04213  0.92045  1.0000
  C   C1318     1.0  0.82027  0.21360  0.75820  1.0000
  C   C1319     1.0  0.80961  0.20300  0.77275  1.0000
  C   C1320     1.0  0.78110  0.21424  0.77881  1.0000
  C   C1321     1.0  0.76310  0.23583  0.77028  1.0000
  C   C1322     1.0  0.77285  0.24545  0.75532  1.0000
  C   C1323     1.0  0.80217  0.23507  0.74960  1.0000
  P   P44       1.0  0.75012  0.27402  0.74442  1.0000
  C   C1324     1.0  0.70875  0.27331  0.74979  1.0000
  C   C1325     1.0  0.76777  0.31213  0.74925  1.0000
  C   C1326     1.0  0.76054  0.32716  0.76358  1.0000
  C   C1327     1.0  0.77414  0.35665  0.76747  1.0000
  C   C1328     1.0  0.79533  0.37114  0.75718  1.0000
  C   C1329     1.0  0.80303  0.35610  0.74302  1.0000
  C   C1330     1.0  0.78955  0.32656  0.73911  1.0000
  C   C1331     1.0  0.69365  0.24489  0.75394  1.0000
  C   C1332     1.0  0.66214  0.24487  0.75900  1.0000
  C   C1333     1.0  0.64520  0.27312  0.75943  1.0000
  C   C1334     1.0  0.65956  0.30118  0.75441  1.0000
  C   C1335     1.0  0.69117  0.30126  0.74957  1.0000
  C   C1336     1.0  0.75025  0.26648  0.72349  1.0000
  C   C1337     1.0  0.74184  0.29066  0.71311  1.0000
  C   C1338     1.0  0.75742  0.23088  0.70114  1.0000
  C   C1339     1.0  0.75752  0.23639  0.71739  1.0000
  H   H1058     1.0  0.84279  0.20556  0.75368  1.0000
  H   H1059     1.0  0.82373  0.18657  0.77948  1.0000
  H   H1060     1.0  0.77297  0.20650  0.79022  1.0000
  H   H1061     1.0  0.74170  0.24512  0.77546  1.0000
  H   H1062     1.0  0.81114  0.24375  0.73855  1.0000
  H   H1063     1.0  0.74407  0.31631  0.77166  1.0000
  H   H1064     1.0  0.76786  0.36844  0.77837  1.0000
  H   H1065     1.0  0.80533  0.39431  0.76002  1.0000
  H   H1066     1.0  0.81892  0.36768  0.73488  1.0000
  H   H1067     1.0  0.79602  0.31533  0.72811  1.0000
  H   H1068     1.0  0.70648  0.22296  0.75365  1.0000
  H   H1069     1.0  0.65109  0.22314  0.76297  1.0000
  H   H1070     1.0  0.62113  0.27337  0.76382  1.0000
  H   H1071     1.0  0.64646  0.32308  0.75447  1.0000
  H   H1072     1.0  0.70199  0.32322  0.74583  1.0000
  H   H1073     1.0  0.73573  0.31396  0.71755  1.0000
  H   H1074     1.0  0.76354  0.20779  0.69642  1.0000
  H   H1075     1.0  0.76330  0.21720  0.72512  1.0000
  C   C1340     1.0  0.51092  0.13692  0.76725  1.0000
  C   C1341     1.0  0.89437  0.16029  0.70367  1.0000
  C   C1342     1.0  0.87177  0.14249  0.71182  1.0000
  C   C1343     1.0  0.86854  0.10994  0.70893  1.0000
  C   C1344     1.0  0.88844  0.09503  0.69816  1.0000
  C   C1345     1.0  0.91068  0.11282  0.68983  1.0000
  C   C1346     1.0  0.61704  0.20657  0.72010  1.0000
  H   H1076     1.0  0.85640  0.15396  0.72021  1.0000
  H   H1077     1.0  0.85032  0.09630  0.71482  1.0000
  H   H1078     1.0  0.79857  0.07858  0.75737  1.0000
  C   C1347     1.0  0.95792  0.23259  0.68180  1.0000
  H   H1079     1.0  0.79199  0.13301  0.76715  1.0000
  H   H1080     1.0  0.98116  0.19311  0.70621  1.0000
  Fe  Fe93      1.0  0.85809  0.05490  0.65747  1.0000
  C   C1348     1.0  0.90095  0.01057  0.89045  1.0000
  C   C1349     1.0  0.93451  0.15735  0.66001  1.0000
  C   C1350     1.0  0.91327  0.14567  0.69222  1.0000
  C   C1351     1.0  0.97494  0.04353  0.66871  1.0000
  H   H1081     1.0  0.68247  0.02826  0.71719  1.0000
  C   C1352     1.0  0.83239  0.02622  0.72930  1.0000
  C   C1353     1.0  0.94908  0.05348  0.65940  1.0000
  C   C1354     1.0  0.67537  0.16220  0.74507  1.0000
  H   H1082     1.0  0.89667  0.18538  0.70620  1.0000
  H   H1083     1.0  0.61534  0.15769  0.69134  1.0000
  H   H1084     1.0  0.87094  0.26154  0.67940  1.0000
  H   H1085     1.0  0.88293  0.36877  0.87549  1.0000
  C   C1355     1.0  0.95556  0.07156  0.64611  1.0000
  H   H1086     1.0  0.88191  0.99809  0.86756  1.0000
  H   H1087     1.0  0.70837  0.46939  0.71306  1.0000
  C   C1356     1.0  0.69146  0.19056  0.68402  1.0000
  C   C1357     1.0  0.64292  0.10878  0.71986  1.0000
  C   C1358     1.0  0.74794  0.45772  0.89452  1.0000
  C   C1359     1.0  0.69219  0.15999  0.75921  1.0000
  C   C1360     1.0  0.59713  0.08556  0.70640  1.0000
  C   C1361     1.0  0.81241  0.24503  0.64121  1.0000
  C   C1362     1.0  0.92013  0.27544  0.68146  1.0000
  H   H1088     1.0  0.98344  0.16496  0.65332  1.0000
  H   H1089     1.0  0.80102  0.46983  0.92471  1.0000
  C   C1363     1.0  0.90443  0.46105  0.66763  1.0000
  H   H1090     1.0  0.77791  0.40393  0.96202  1.0000
  C   C1364     1.0  0.70721  0.48025  0.72467  1.0000
  H   H1091     1.0  0.49903  0.11547  0.81497  1.0000
  C   C1365     1.0  0.61967  0.26394  0.72145  1.0000
  C   C1366     1.0  0.60247  0.23565  0.72305  1.0000
  C   C1367     1.0  0.95973  0.15856  0.64937  1.0000
  H   H1092     1.0  0.90692  0.47407  0.88875  1.0000
  C   C1368     1.0  0.82705  0.39984  0.95585  1.0000
  C   C1369     1.0  0.91078  0.46639  0.92850  1.0000
  C   C1370     1.0  0.89786  0.46596  0.91329  1.0000
  H   H1093     1.0  0.66509  0.28509  0.71620  1.0000
  C   C1371     1.0  0.97239  0.48576  0.65254  1.0000
  C   C1372     1.0  0.73884  0.35865  0.87417  1.0000
  H   H1094     1.0  0.85340  0.03678  0.72420  1.0000
  C   C1373     1.0  0.76554  0.45403  0.84477  1.0000
  H   H1095     1.0  0.71494  0.12245  0.70162  1.0000
  C   C1374     1.0  0.87491  0.41742  0.86943  1.0000
  C   C1375     1.0  0.83873  0.40275  0.92807  1.0000
  C   C1376     1.0  0.94349  0.44588  0.96234  1.0000
  H   H1096     1.0  0.89760  0.42995  0.68723  1.0000
  C   C1377     1.0  0.85009  0.01364  0.79239  1.0000
  P   P45       1.0  0.79255  0.41331  0.90465  1.0000
  H   H1097     1.0  0.67489  0.20981  0.68506  1.0000
  H   H1098     1.0  0.85640  0.40383  0.91898  1.0000
  H   H1099     1.0  0.57794  0.23624  0.72674  1.0000
  H   H1100     1.0  0.51059  0.08976  0.75733  1.0000
  C   C1378     1.0  0.71093  0.18920  0.67079  1.0000
  C   C1379     1.0  0.84903  0.39990  0.94367  1.0000
  C   C1380     1.0  0.77792  0.99896  0.74227  1.0000
  H   H1101     1.0  0.91230  0.02264  0.91451  1.0000
  H   H1102     1.0  0.51082  0.22464  0.75070  1.0000
  C   C1381     1.0  0.78434  0.40606  0.93689  1.0000
  C   C1382     1.0  0.91707  0.47295  0.90047  1.0000
  C   C1383     1.0  0.55291  0.28590  0.77847  1.0000
  C   C1384     1.0  0.73205  0.16420  0.66885  1.0000
  H   H1103     1.0  0.66161  0.10645  0.72858  1.0000
  C   C1385     1.0  0.71385  0.14149  0.69321  1.0000
  C   C1386     1.0  0.52793  0.16557  0.76919  1.0000
  C   C1387     1.0  0.89519  0.25340  0.68030  1.0000
  H   H1104     1.0  0.76952  0.42855  0.78890  1.0000
  P   P46       1.0  0.51352  0.19682  0.78193  1.0000
  C   C1388     1.0  0.74276  0.46973  0.78258  1.0000
  H   H1105     1.0  0.76739  0.16119  0.74510  1.0000
  H   H1106     1.0  0.56673  0.28187  0.82126  1.0000
  C   C1389     1.0  0.82536  0.41531  0.89122  1.0000
  H   H1107     1.0  0.57678  0.11338  0.68789  1.0000
  C   C1390     1.0  0.55323  0.11549  0.75139  1.0000
  C   C1391     1.0  0.57028  0.14392  0.75317  1.0000
  C   C1392     1.0  0.55775  0.16888  0.76203  1.0000
  C   C1393     1.0  0.98611  0.38436  0.64134  1.0000
  C   C1394     1.0  0.76633  0.38262  0.89676  1.0000
  H   H1108     1.0  0.74951  0.12078  0.67849  1.0000
  C   C1395     1.0  0.89424  0.02300  0.90534  1.0000
  H   H1109     1.0  0.97041  0.02940  0.67898  1.0000
  C   C1396     1.0  0.55987  0.33211  0.82035  1.0000
  C   C1397     1.0  0.84378  0.38838  0.88837  1.0000
  H   H1110     1.0  0.56335  0.09581  0.74493  1.0000
  H   H1111     1.0  0.59363  0.14614  0.74808  1.0000
  H   H1112     1.0  0.57186  0.19028  0.76380  1.0000
  C   C1398     1.0  0.64074  0.13590  0.71054  1.0000
  S   S188      1.0  0.81713  0.02395  0.66549  1.0000
  C   C1399     1.0  0.74985  0.25532  0.69089  1.0000
  C   C1400     1.0  0.81176  0.18707  0.64182  1.0000
  C   C1401     1.0  0.73579  0.45358  0.83694  1.0000
  S   S189      1.0  0.76770  0.07725  0.65215  1.0000
  H   H1113     1.0  0.89525  0.46228  0.93837  1.0000
  C   C1402     1.0  0.73098  0.33729  0.90012  1.0000
  Fe  Fe94      1.0  0.86868  0.38380  0.65345  1.0000
  H   H1114     1.0  0.87412  0.39855  0.94640  1.0000
  P   P47       1.0  0.94065  0.16819  0.68044  1.0000
  H   H1115     1.0  0.70798  0.31903  0.87903  1.0000
  H   H1116     1.0  0.86079  0.46567  0.86556  1.0000
  C   C1403     1.0  0.90384  0.14978  0.65439  1.0000
  C   C1404     1.0  0.71601  0.47973  0.83898  1.0000
  C   C1405     1.0  0.79054  0.11357  0.77525  1.0000
  H   H1117     1.0  0.84621  0.03814  0.75303  1.0000
  H   H1118     1.0  0.77900  0.14328  0.79520  1.0000
  H   H1119     1.0  0.73086  0.45761  0.77287  1.0000
  C   C1406     1.0  0.75185  0.36021  0.90652  1.0000
  C   C1407     1.0  0.87721  0.00916  0.87885  1.0000
  H   H1120     1.0  0.75933  0.40990  0.93456  1.0000
  C   C1408     1.0  0.55845  0.17543  0.80367  1.0000
  H   H1121     1.0  0.88593  0.06980  0.69579  1.0000
  C   C1409     1.0  0.52958  0.19116  0.80147  1.0000
  H   H1122     1.0  0.59274  0.15836  0.82038  1.0000
  S   S190      1.0  0.81128  0.28257  0.66827  1.0000
  H   H1123     1.0  0.89410  0.41837  0.86105  1.0000
  C   C1410     1.0  0.93290  0.21024  0.68115  1.0000
  C   C1411     1.0  0.75461  0.00266  0.83463  1.0000
  H   H1124     1.0  0.88380  0.14956  0.66225  1.0000
  C   C1412     1.0  0.86866  0.38954  0.87760  1.0000
  C   C1413     1.0  0.78358  0.11939  0.79105  1.0000
  C   C1414     1.0  0.69155  0.16370  0.73077  1.0000
  C   C1415     1.0  0.83151  0.44299  0.88282  1.0000
  C   C1416     1.0  0.66624  0.23415  0.71430  1.0000
  H   H1125     1.0  0.88267  0.48823  0.96617  1.0000
  P   P48       1.0  0.66883  0.16828  0.71287  1.0000
  C   C1417     1.0  0.96099  0.38958  0.65187  1.0000
  H   H1126     1.0  0.72996  0.08661  0.75204  1.0000
  C   C1418     1.0  0.73030  0.00445  0.77347  1.0000
  H   H1127     1.0  0.73812  0.16487  0.72009  1.0000
  H   H1128     1.0  0.58510  0.33751  0.82052  1.0000
  C   C1419     1.0  0.64895  0.20565  0.71543  1.0000
  C   C1420     1.0  0.95148  0.26504  0.68215  1.0000
  C   C1421     1.0  0.74169  0.16139  0.74510  1.0000
  H   H1129     1.0  0.92416  0.00073  0.88815  1.0000
  H   H1130     1.0  0.81699  0.46368  0.88446  1.0000
  C   C1422     1.0  0.96221  0.48085  0.91801  1.0000
  C   C1423     1.0  0.51340  0.20282  0.81465  1.0000
  H   H1131     1.0  0.62314  0.06290  0.72506  1.0000
  H   H1132     1.0  0.80430  0.99209  0.83836  1.0000
  C   C1424     1.0  0.54303  0.25662  0.78433  1.0000
  C   C1425     1.0  0.55470  0.18301  0.83184  1.0000
  C   C1426     1.0  0.54941  0.30067  0.82078  1.0000
  H   H1133     1.0  0.56427  0.17941  0.84354  1.0000
  C   C1427     1.0  0.53257  0.27091  0.75270  1.0000
  S   S191      1.0  0.68955  0.01525  0.83016  1.0000
  H   H1134     1.0  0.75068  0.25137  0.67828  1.0000
  H   H1135     1.0  0.92536  0.10102  0.68123  1.0000
  C   C1428     1.0  0.52261  0.24161  0.75853  1.0000
  C   C1429     1.0  0.90150  0.22097  0.67991  1.0000
  H   H1136     1.0  0.77523  0.09857  0.81363  1.0000
  H   H1137     1.0  0.78124  0.43416  0.84328  1.0000
  H   H1138     1.0  0.91510  0.30059  0.68144  1.0000
  H   H1139     1.0  0.73357  0.35836  0.86164  1.0000
  C   C1430     1.0  0.72490  0.16343  0.73087  1.0000
  C   C1431     1.0  0.79473  0.40289  0.95246  1.0000
  C   C1432     1.0  0.89048  0.45177  0.68171  1.0000
  C   C1433     1.0  0.78146  0.09418  0.80147  1.0000
  H   H1140     1.0  0.83882  0.36653  0.89447  1.0000
  H   H1141     1.0  0.54611  0.38088  0.81891  1.0000
  H   H1142     1.0  0.56486  0.30304  0.78617  1.0000
  C   C1434     1.0  0.52599  0.19879  0.82977  1.0000
  C   C1435     1.0  0.85773  0.48353  0.96801  1.0000
  H   H1143     1.0  0.88182  0.20433  0.67853  1.0000
  H   H1144     1.0  0.67952  0.15915  0.77018  1.0000
  H   H1145     1.0  0.79869  0.48043  0.85977  1.0000
  H   H1146     1.0  0.77066  0.39845  0.87268  1.0000
  C   C1436     1.0  0.86637  0.46990  0.68831  1.0000
  C   C1437     1.0  0.82815  0.02701  0.74559  1.0000
  C   C1438     1.0  0.62109  0.08382  0.71784  1.0000
  H   H1147     1.0  0.66998  0.44896  0.73243  1.0000
  C   C1439     1.0  0.80304  0.48935  0.95990  1.0000
  C   C1440     1.0  0.72438  0.33659  0.88397  1.0000
  H   H1148     1.0  0.93109  0.36587  0.95938  1.0000
  C   C1441     1.0  0.78220  0.99837  0.72599  1.0000
  C   C1442     1.0  0.59509  0.11226  0.69691  1.0000
  H   H1149     1.0  0.92202  0.44602  0.66230  1.0000
  H   H1150     1.0  0.87264  0.46164  0.91156  1.0000
  C   C1443     1.0  0.78384  0.01045  0.91151  1.0000
  H   H1151     1.0  0.83505  0.39835  0.96799  1.0000
  H   H1152     1.0  0.85502  0.46225  0.69902  1.0000
  C   C1444     1.0  0.73337  0.14033  0.68003  1.0000
  C   C1445     1.0  0.77550  0.48019  0.85427  1.0000
  C   C1446     1.0  0.94927  0.47996  0.90281  1.0000
  H   H1153     1.0  0.60350  0.18494  0.72174  1.0000
  C   C1447     1.0  0.77224  0.45079  0.90536  1.0000
  H   H1154     1.0  0.74717  0.16312  0.65860  1.0000
  H   H1155     1.0  0.84621  0.03813  0.79562  1.0000
  Fe  Fe95      1.0  0.81152  0.10404  0.64477  1.0000
  H   H1156     1.0  0.98691  0.48780  0.91950  1.0000
  C   C1448     1.0  0.73316  0.48718  0.89500  1.0000
  S   S192      1.0  0.92090  0.38374  0.64505  1.0000
  H   H1157     1.0  0.96393  0.48612  0.89288  1.0000
  C   C1449     1.0  0.78589  0.06316  0.79605  1.0000
  C   C1450     1.0  0.93209  0.38942  0.96458  1.0000
  C   C1451     1.0  0.70236  0.99106  0.77927  1.0000
  C   C1452     1.0  0.72341  0.99812  0.83979  1.0000
  H   H1158     1.0  0.98240  0.22521  0.68177  1.0000
  C   C1453     1.0  0.50229  0.43711  0.79898  1.0000
  C   C1454     1.0  0.89483  0.48887  0.66021  1.0000
  C   C1455     1.0  0.49347  0.09691  0.80646  1.0000
  Fe  Fe96      1.0  0.79252  0.03434  0.64210  1.0000
  C   C1456     1.0  0.98732  0.07938  0.64221  1.0000
  C   C1457     1.0  0.80928  0.01218  0.71950  1.0000
  H   H1159     1.0  0.81211  0.01238  0.70683  1.0000
  H   H1160     1.0  0.72874  0.02109  0.76392  1.0000
  C   C1458     1.0  0.80052  0.01403  0.75220  1.0000
  C   C1459     1.0  0.49444  0.31790  0.81949  1.0000
  H   H1161     1.0  0.78340  0.04381  0.80417  1.0000
  P   P49       1.0  0.79541  0.01653  0.77330  1.0000
  H   H1162     1.0  0.89148  0.01035  0.80740  1.0000
  C   C1460     1.0  0.87595  0.99799  0.79907  1.0000
  H   H1163     1.0  0.67974  0.99660  0.77383  1.0000
  C   C1461     1.0  0.75984  0.99693  0.78011  1.0000
  C   C1462     1.0  0.82965  0.99756  0.78174  1.0000
  C   C1463     1.0  0.79348  0.47186  0.97313  1.0000
  C   C1464     1.0  0.92279  0.29596  0.64130  1.0000
  C   C1465     1.0  0.95864  0.24078  0.64161  1.0000
  C   C1466     1.0  0.97430  0.27034  0.64159  1.0000
  H   H1164     1.0  0.96723  0.32102  0.64042  1.0000
  C   C1467     1.0  0.90749  0.26647  0.64158  1.0000
  H   H1165     1.0  0.91343  0.21601  0.64171  1.0000
  H   H1166     1.0  0.97195  0.21918  0.64138  1.0000
  H   H1167     1.0  0.88173  0.26505  0.64177  1.0000
  C   C1468     1.0  0.92541  0.23886  0.64163  1.0000
  C   C1469     1.0  0.95599  0.29793  0.64117  1.0000
  H   H1168     1.0  0.90883  0.31737  0.64107  1.0000
  Fe  Fe97      1.0  0.63584  0.56101  0.15597  1.0000
  S   S193      1.0  0.66240  0.59026  0.13815  1.0000
  S   S194      1.0  0.58080  0.56560  0.15728  1.0000
  Fe  Fe98      1.0  0.69922  0.54740  0.17395  1.0000
  S   S195      1.0  0.72856  0.57621  0.15732  1.0000
  S   S196      1.0  0.72357  0.52340  0.19477  1.0000
  Fe  Fe99      1.0  0.68920  0.61193  0.15875  1.0000
  S   S197      1.0  0.69639  0.66317  0.16752  1.0000
  Fe  Fe100     1.0  0.69987  0.55148  0.13804  1.0000
  S   S198      1.0  0.72295  0.53438  0.11458  1.0000
  S   S199      1.0  0.66181  0.58402  0.17653  1.0000
  S   S200      1.0  0.67154  0.52095  0.15471  1.0000
  Fe  Fe101     1.0  0.66506  0.84184  0.14422  1.0000
  S   S201      1.0  0.63100  0.84946  0.16399  1.0000
  S   S202      1.0  0.67475  0.79407  0.13258  1.0000
  Fe  Fe102     1.0  0.67913  0.91302  0.14036  1.0000
  S   S203      1.0  0.64556  0.92516  0.16023  1.0000
  S   S204      1.0  0.70575  0.95521  0.12885  1.0000
  Fe  Fe103     1.0  0.66792  0.88460  0.17328  1.0000
  S   S205      1.0  0.67876  0.88376  0.19987  1.0000
  Fe  Fe104     1.0  0.61102  0.88905  0.14962  1.0000
  S   S206      1.0  0.55810  0.89883  0.14353  1.0000
  S   S207      1.0  0.70309  0.87440  0.15429  1.0000
  S   S208      1.0  0.64335  0.87955  0.12905  1.0000
  C   C1470     1.0  0.75510  0.50745  0.08928  1.0000
  H   H1169     1.0  0.77534  0.97022  0.23722  1.0000
  Fe  Fe105     1.0  0.81620  0.89005  0.26638  1.0000
  H   H1170     1.0  0.82048  0.88876  0.18178  1.0000
  S   S209      1.0  0.80746  0.90202  0.24036  1.0000
  C   C1471     1.0  0.79119  0.85542  0.14927  1.0000
  C   C1472     1.0  0.98256  0.98654  0.00239  1.0000
  H   H1171     1.0  0.56332  0.97097  0.19014  1.0000
  S   S210      1.0  0.84859  0.84924  0.27142  1.0000
  Fe  Fe106     1.0  0.81629  0.58039  0.27464  1.0000
  S   S211      1.0  0.78919  0.78418  0.28662  1.0000
  S   S212      1.0  0.78561  0.59678  0.25395  1.0000
  Fe  Fe107     1.0  0.88345  0.56401  0.28791  1.0000
  S   S213      1.0  0.93379  0.55488  0.27824  1.0000
  H   H1172     1.0  0.73665  0.86875  0.11295  1.0000
  C   C1473     1.0  0.71955  0.61004  0.27949  1.0000
  S   S214      1.0  0.83989  0.53455  0.28076  1.0000
  S   S215      1.0  0.86072  0.60897  0.27982  1.0000
  C   C1474     1.0  0.85832  0.55523  0.21483  1.0000
  H   H1173     1.0  0.50256  0.65282  0.16817  1.0000
  C   C1475     1.0  0.73275  0.94413  0.09914  1.0000
  H   H1174     1.0  0.55625  0.55449  0.27199  1.0000
  C   C1476     1.0  0.51071  0.78140  0.21369  1.0000
  H   H1175     1.0  0.66176  0.96101  0.09209  1.0000
  C   C1477     1.0  0.71522  0.88770  0.21072  1.0000
  C   C1478     1.0  0.74418  0.89488  0.20356  1.0000
  C   C1479     1.0  0.77214  0.89889  0.21277  1.0000
  C   C1480     1.0  0.77179  0.89506  0.22920  1.0000
  C   C1481     1.0  0.74300  0.88705  0.23629  1.0000
  C   C1482     1.0  0.71490  0.88369  0.22714  1.0000
  H   H1176     1.0  0.74497  0.89775  0.19097  1.0000
  H   H1177     1.0  0.79421  0.90517  0.20716  1.0000
  H   H1178     1.0  0.74235  0.88417  0.24889  1.0000
  H   H1179     1.0  0.69273  0.87806  0.23282  1.0000
  C   C1483     1.0  0.74102  0.54425  0.21107  1.0000
  C   C1484     1.0  0.73453  0.57614  0.21412  1.0000
  C   C1485     1.0  0.74814  0.59167  0.22739  1.0000
  C   C1486     1.0  0.76872  0.57571  0.23764  1.0000
  C   C1487     1.0  0.77543  0.54394  0.23454  1.0000
  C   C1488     1.0  0.76142  0.52821  0.22141  1.0000
  H   H1180     1.0  0.71855  0.58863  0.20639  1.0000
  H   H1181     1.0  0.74248  0.61615  0.22979  1.0000
  H   H1182     1.0  0.79108  0.53148  0.24240  1.0000
  C   C1489     1.0  0.59908  0.52837  0.27621  1.0000
  C   C1490     1.0  0.68840  0.69898  0.15760  1.0000
  C   C1491     1.0  0.68520  0.70010  0.14125  1.0000
  C   C1492     1.0  0.68105  0.72941  0.13379  1.0000
  C   C1493     1.0  0.67938  0.75778  0.14259  1.0000
  C   C1494     1.0  0.68150  0.75654  0.15897  1.0000
  C   C1495     1.0  0.68633  0.72734  0.16642  1.0000
  H   H1183     1.0  0.68684  0.67852  0.13431  1.0000
  H   H1184     1.0  0.67934  0.73012  0.12109  1.0000
  H   H1185     1.0  0.67995  0.77815  0.16588  1.0000
  H   H1186     1.0  0.68843  0.72679  0.17908  1.0000
  H   H1187     1.0  0.74086  0.81514  0.12428  1.0000
  H   H1188     1.0  0.72113  0.92116  0.09922  1.0000
  H   H1189     1.0  0.70595  0.83257  0.27119  1.0000
  H   H1190     1.0  0.75432  0.49302  0.01612  1.0000
  C   C1496     1.0  0.75229  0.86491  0.12293  1.0000
  H   H1191     1.0  0.49273  0.62300  0.12656  1.0000
  H   H1192     1.0  0.53769  0.63263  0.19025  1.0000
  C   C1497     1.0  0.84005  0.52321  0.18467  1.0000
  C   C1498     1.0  0.51607  0.57786  0.15974  1.0000
  C   C1499     1.0  0.53923  0.55486  0.15644  1.0000
  C   C1500     1.0  0.52870  0.52414  0.15251  1.0000
  H   H1193     1.0  0.52381  0.60165  0.16275  1.0000
  H   H1194     1.0  0.54594  0.50605  0.14996  1.0000
  C   C1501     1.0  0.51213  0.86859  0.16200  1.0000
  C   C1502     1.0  0.51854  0.88755  0.14899  1.0000
  C   C1503     1.0  0.81039  0.53028  0.15516  1.0000
  H   H1195     1.0  0.53163  0.85986  0.16903  1.0000
  H   H1196     1.0  0.53457  0.92987  0.17447  1.0000
  C   C1504     1.0  0.96939  0.90384  0.28216  1.0000
  H   H1197     1.0  0.85579  0.63273  0.23997  1.0000
  C   C1505     1.0  0.49257  0.89895  0.14019  1.0000
  C   C1506     1.0  0.66902  0.97900  0.08382  1.0000
  H   H1198     1.0  0.77276  0.97903  0.02165  1.0000
  H   H1199     1.0  0.72537  0.59353  0.27015  1.0000
  C   C1507     1.0  0.56651  0.79053  0.16257  1.0000
  C   C1508     1.0  0.58070  0.55571  0.27611  1.0000
  C   C1509     1.0  0.93158  0.67088  0.29669  1.0000
  C   C1510     1.0  0.51421  0.63487  0.13069  1.0000
  C   C1511     1.0  0.87931  0.58836  0.23624  1.0000
  C   C1512     1.0  0.51328  0.66499  0.13790  1.0000
  S   S216      1.0  0.92127  0.87322  0.29927  1.0000
  Fe  Fe108     1.0  0.82203  0.54318  0.30564  1.0000
  H   H1200     1.0  0.51230  0.73886  0.17301  1.0000
  C   C1513     1.0  0.97186  0.71202  0.29986  1.0000
  H   H1201     1.0  0.55739  0.95478  0.25250  1.0000
  C   C1514     1.0  0.64416  0.55885  0.28664  1.0000
  C   C1515     1.0  0.72938  0.96478  0.11203  1.0000
  C   C1516     1.0  0.69301  0.88096  0.27600  1.0000
  C   C1517     1.0  0.84331  0.53416  0.15670  1.0000
  C   C1518     1.0  0.76553  0.98355  0.08529  1.0000
  H   H1202     1.0  0.68235  0.98869  0.04487  1.0000
  C   C1519     1.0  0.94014  0.70196  0.30085  1.0000
  H   H1203     1.0  0.63221  0.89633  0.26972  1.0000
  H   H1204     1.0  0.97324  0.53828  0.19495  1.0000
  H   H1205     1.0  0.51801  0.72531  0.12208  1.0000
  H   H1206     1.0  0.69252  0.88713  0.26368  1.0000
  H   H1207     1.0  0.89737  0.54260  0.23031  1.0000
  H   H1208     1.0  0.73554  0.68627  0.29080  1.0000
  S   S217      1.0  0.83844  0.92180  0.28549  1.0000
  H   H1209     1.0  0.95690  0.56390  0.99121  1.0000
  H   H1210     1.0  0.59326  0.62030  0.13420  1.0000
  H   H1211     1.0  0.86835  0.87195  0.19619  1.0000
  H   H1212     1.0  0.74042  0.52036  0.29934  1.0000
  C   C1520     1.0  0.85687  0.61143  0.23279  1.0000
  C   C1521     1.0  0.62290  0.91978  0.26799  1.0000
  C   C1522     1.0  0.74528  0.80136  0.21207  1.0000
  C   C1523     1.0  0.74195  0.80485  0.19582  1.0000
  C   C1524     1.0  0.74472  0.77849  0.18585  1.0000
  C   C1525     1.0  0.75118  0.74869  0.19207  1.0000
  C   C1526     1.0  0.75525  0.74511  0.20837  1.0000
  C   C1527     1.0  0.75123  0.77151  0.21835  1.0000
  P   P50       1.0  0.76193  0.70639  0.21653  1.0000
  C   C1528     1.0  0.72355  0.69196  0.22278  1.0000
  C   C1529     1.0  0.77861  0.68038  0.20180  1.0000
  C   C1530     1.0  0.76491  0.65057  0.19829  1.0000
  C   C1531     1.0  0.77862  0.63052  0.18714  1.0000
  C   C1532     1.0  0.80620  0.63994  0.17942  1.0000
  C   C1533     1.0  0.82024  0.66941  0.18296  1.0000
  C   C1534     1.0  0.80658  0.68951  0.19415  1.0000
  C   C1535     1.0  0.71679  0.68777  0.23877  1.0000
  C   C1536     1.0  0.68757  0.67476  0.24324  1.0000
  C   C1537     1.0  0.66472  0.66639  0.23182  1.0000
  C   C1538     1.0  0.67083  0.67168  0.21595  1.0000
  C   C1539     1.0  0.69993  0.68482  0.21147  1.0000
  C   C1540     1.0  0.79092  0.70697  0.23240  1.0000
  C   C1541     1.0  0.81050  0.73361  0.23547  1.0000
  C   C1542     1.0  0.83225  0.73359  0.24803  1.0000
  C   C1543     1.0  0.83532  0.70671  0.25730  1.0000
  C   C1544     1.0  0.81671  0.67979  0.25401  1.0000
  C   C1545     1.0  0.79492  0.67975  0.24149  1.0000
  H   H1213     1.0  0.74294  0.82181  0.21980  1.0000
  H   H1214     1.0  0.73674  0.82791  0.19100  1.0000
  H   H1215     1.0  0.74146  0.78106  0.17327  1.0000
  H   H1216     1.0  0.75246  0.72845  0.18413  1.0000
  H   H1217     1.0  0.75285  0.76912  0.23101  1.0000
  H   H1218     1.0  0.74367  0.64252  0.20406  1.0000
  H   H1219     1.0  0.76762  0.60770  0.18442  1.0000
  H   H1220     1.0  0.81652  0.62444  0.17065  1.0000
  H   H1221     1.0  0.84161  0.67673  0.17696  1.0000
  H   H1222     1.0  0.81773  0.71224  0.19682  1.0000
  H   H1223     1.0  0.73400  0.69426  0.24782  1.0000
  H   H1224     1.0  0.68285  0.67077  0.25556  1.0000
  H   H1225     1.0  0.64235  0.65572  0.23524  1.0000
  H   H1226     1.0  0.65332  0.66511  0.20702  1.0000
  H   H1227     1.0  0.70446  0.68839  0.19911  1.0000
  H   H1228     1.0  0.80918  0.75448  0.22829  1.0000
  H   H1229     1.0  0.84647  0.75459  0.25074  1.0000
  H   H1230     1.0  0.85179  0.70690  0.26721  1.0000
  H   H1231     1.0  0.81895  0.65896  0.26125  1.0000
  H   H1232     1.0  0.78090  0.65855  0.23903  1.0000
  C   C1546     1.0  0.78926  0.88582  0.14280  1.0000
  C   C1547     1.0  0.76927  0.89038  0.12970  1.0000
  P   P51       1.0  0.81101  0.91916  0.15143  1.0000
  C   C1548     1.0  0.84620  0.90535  0.16147  1.0000
  C   C1549     1.0  0.82165  0.94572  0.13576  1.0000
  C   C1550     1.0  0.81865  0.97865  0.13766  1.0000
  H   H1233     1.0  0.82339  0.97207  0.00024  1.0000
  C   C1551     1.0  0.83190  0.93342  0.12126  1.0000
  C   C1552     1.0  0.87640  0.90888  0.15481  1.0000
  C   C1553     1.0  0.90348  0.89906  0.16302  1.0000
  C   C1554     1.0  0.90061  0.88574  0.17791  1.0000
  C   C1555     1.0  0.87063  0.88203  0.18458  1.0000
  C   C1556     1.0  0.84354  0.89168  0.17639  1.0000
  C   C1557     1.0  0.78642  0.93966  0.16548  1.0000
  C   C1558     1.0  0.79998  0.95495  0.17876  1.0000
  C   C1559     1.0  0.78064  0.97016  0.18973  1.0000
  C   C1560     1.0  0.74776  0.97085  0.18733  1.0000
  H   H1234     1.0  0.63522  0.60882  0.29045  1.0000
  C   C1561     1.0  0.75354  0.94108  0.16304  1.0000
  H   H1235     1.0  0.76647  0.91373  0.12480  1.0000
  H   H1236     1.0  0.81041  0.98879  0.14860  1.0000
  H   H1237     1.0  0.74823  0.94200  0.28343  1.0000
  H   H1238     1.0  0.83413  0.90810  0.11946  1.0000
  H   H1239     1.0  0.87926  0.91943  0.14339  1.0000
  H   H1240     1.0  0.92674  0.90204  0.15787  1.0000
  C   C1562     1.0  0.70118  0.96356  0.25253  1.0000
  H   H1241     1.0  0.82542  0.95505  0.18074  1.0000
  H   H1242     1.0  0.79114  0.98117  0.20016  1.0000
  C   C1563     1.0  0.62707  0.97694  0.27039  1.0000
  H   H1243     1.0  0.70882  0.95726  0.17189  1.0000
  H   H1244     1.0  0.74275  0.93025  0.15272  1.0000
  H   H1245     1.0  0.67548  0.50347  0.09222  1.0000
  C   C1564     1.0  0.67967  0.97048  0.29891  1.0000
  C   C1565     1.0  0.59749  0.74636  0.15315  1.0000
  C   C1566     1.0  0.92340  0.52952  0.19880  1.0000
  C   C1567     1.0  0.70804  0.53455  0.28083  1.0000
  H   H1246     1.0  0.57962  0.60577  0.28122  1.0000
  H   H1247     1.0  0.58890  0.50597  0.27217  1.0000
  C   C1568     1.0  0.54304  0.61909  0.12922  1.0000
  C   C1569     1.0  0.96156  0.88284  0.29418  1.0000
  C   C1570     1.0  0.83367  0.75272  0.30472  1.0000
  P   P52       1.0  0.85880  0.51843  0.20375  1.0000
  H   H1248     1.0  0.67665  0.96538  0.24880  1.0000
  C   C1571     1.0  0.74876  0.50550  0.10553  1.0000
  C   C1572     1.0  0.59389  0.58459  0.28129  1.0000
  H   H1249     1.0  0.71271  0.50909  0.24270  1.0000
  H   H1250     1.0  0.89562  0.59180  0.24610  1.0000
  H   H1251     1.0  0.59102  0.80270  0.12511  1.0000
  H   H1252     1.0  0.70899  0.81806  0.29925  1.0000
  H   H1253     1.0  0.49296  0.81880  0.13751  1.0000
  H   H1254     1.0  0.94665  0.49666  0.30327  1.0000
  H   H1255     1.0  0.61439  0.75005  0.12941  1.0000
  H   H1256     1.0  0.77529  0.80665  0.14759  1.0000
  C   C1573     1.0  0.54162  0.67876  0.14384  1.0000
  H   H1257     1.0  0.80039  0.66956  0.29248  1.0000
  H   H1258     1.0  0.75251  0.93741  0.07597  1.0000
  Fe  Fe109     1.0  0.86859  0.87905  0.29146  1.0000
  C   C1574     1.0  0.58720  0.79068  0.13613  1.0000
  C   C1575     1.0  0.83567  0.57844  0.21153  1.0000
  C   C1576     1.0  0.70214  0.84181  0.29604  1.0000
  H   H1259     1.0  0.74463  0.52638  0.08262  1.0000
  C   C1577     1.0  0.75162  0.49797  0.27743  1.0000
  P   P53       1.0  0.68517  0.56061  0.29318  1.0000
  C   C1578     1.0  0.82350  0.94896  0.97732  1.0000
  H   H1260     1.0  0.81406  0.92683  0.98166  1.0000
  S   S218      1.0  0.79638  0.58777  0.29888  1.0000
  C   C1579     1.0  0.97303  0.56302  0.28587  1.0000
  H   H1261     1.0  0.49709  0.91371  0.13014  1.0000
  H   H1262     1.0  0.81788  0.57469  0.20239  1.0000
  C   C1580     1.0  0.60041  0.76099  0.13859  1.0000
  H   H1263     1.0  0.79883  0.53266  0.14376  1.0000
  H   H1264     1.0  0.76630  0.50345  0.21930  1.0000
  H   H1265     1.0  0.97411  0.51253  0.98004  1.0000
  H   H1266     1.0  0.95062  0.91471  0.27542  1.0000
  C   C1581     1.0  0.80969  0.69265  0.29594  1.0000
  H   H1267     1.0  0.59230  0.67314  0.14688  1.0000
  C   C1582     1.0  0.83857  0.95370  0.10882  1.0000
  C   C1583     1.0  0.77399  0.83001  0.14252  1.0000
  C   C1584     1.0  0.53849  0.97419  0.18711  1.0000
  C   C1585     1.0  0.69390  0.62270  0.30411  1.0000
  H   H1268     1.0  0.73269  0.98231  0.19587  1.0000
  H   H1269     1.0  0.85731  0.53961  0.14645  1.0000
  P   P54       1.0  0.67904  0.94419  0.28190  1.0000
  H   H1270     1.0  0.91579  0.52476  0.02894  1.0000
  H   H1271     1.0  0.91771  0.55448  0.19879  1.0000
  P   P55       1.0  0.57761  0.74323  0.18451  1.0000
  C   C1586     1.0  0.58017  0.70058  0.18363  1.0000
  C   C1587     1.0  0.58034  0.76089  0.16528  1.0000
  C   C1588     1.0  0.95488  0.52043  0.19655  1.0000
  C   C1589     1.0  0.60933  0.68670  0.18004  1.0000
  C   C1590     1.0  0.61217  0.65386  0.17953  1.0000
  C   C1591     1.0  0.58634  0.63445  0.18319  1.0000
  C   C1592     1.0  0.55748  0.64797  0.18731  1.0000
  C   C1593     1.0  0.55425  0.68095  0.18750  1.0000
  C   C1594     1.0  0.61091  0.75649  0.19660  1.0000
  C   C1595     1.0  0.61855  0.74039  0.21046  1.0000
  C   C1596     1.0  0.64442  0.75042  0.21981  1.0000
  C   C1597     1.0  0.66272  0.77661  0.21542  1.0000
  C   C1598     1.0  0.65538  0.79259  0.20160  1.0000
  C   C1599     1.0  0.62968  0.78248  0.19220  1.0000
  C   C1600     1.0  0.52224  0.95096  0.17829  1.0000
  C   C1601     1.0  0.58038  0.95262  0.25822  1.0000
  H   H1272     1.0  0.55388  0.80281  0.17179  1.0000
  H   H1273     1.0  0.63005  0.70117  0.17762  1.0000
  H   H1274     1.0  0.63453  0.64356  0.17627  1.0000
  H   H1275     1.0  0.58876  0.60890  0.18284  1.0000
  C   C1602     1.0  0.73383  0.51794  0.28706  1.0000
  H   H1276     1.0  0.76674  0.52018  0.16719  1.0000
  H   H1277     1.0  0.60462  0.72001  0.21400  1.0000
  H   H1278     1.0  0.65041  0.73785  0.23044  1.0000
  H   H1279     1.0  0.68258  0.78457  0.22270  1.0000
  H   H1280     1.0  0.66961  0.81291  0.19815  1.0000
  H   H1281     1.0  0.62470  0.79483  0.18147  1.0000
  H   H1282     1.0  0.97810  0.73599  0.30349  1.0000
  C   C1603     1.0  0.70037  0.84997  0.28020  1.0000
  C   C1604     1.0  0.75464  0.83473  0.12933  1.0000
  C   C1605     1.0  0.80694  0.52020  0.18304  1.0000
  H   H1283     1.0  0.80575  0.85112  0.15953  1.0000
  H   H1284     1.0  0.51019  0.79368  0.22495  1.0000
  H   H1285     1.0  0.91964  0.59752  0.97623  1.0000
  C   C1606     1.0  0.68699  0.90398  0.28763  1.0000
  H   H1286     1.0  0.54146  0.70148  0.14986  1.0000
  C   C1607     1.0  0.95475  0.64970  0.29172  1.0000
  C   C1608     1.0  0.83544  0.98639  0.11079  1.0000
  C   C1609     1.0  0.93931  0.51843  0.02498  1.0000
  C   C1610     1.0  0.82873  0.97465  0.98791  1.0000
  C   C1611     1.0  0.70088  0.53161  0.26470  1.0000
  C   C1612     1.0  0.63066  0.52990  0.28147  1.0000
  C   C1613     1.0  0.79662  0.72023  0.28954  1.0000
  C   C1614     1.0  0.73427  0.95658  0.17389  1.0000
  C   C1615     1.0  0.74143  0.95047  0.27190  1.0000
  C   C1616     1.0  0.64007  0.94694  0.27293  1.0000
  S   S219      1.0  0.77781  0.87272  0.28213  1.0000
  C   C1617     1.0  0.54048  0.75552  0.19296  1.0000
  H   H1287     1.0  0.81711  0.62398  0.21815  1.0000
  H   H1288     1.0  0.95791  0.56607  0.02662  1.0000
  C   C1618     1.0  0.83514  0.60652  0.22044  1.0000
  Fe  Fe110     1.0  0.81117  0.83360  0.28826  1.0000
  H   H1289     1.0  0.92161  0.87844  0.18432  1.0000
  H   H1290     1.0  0.56031  0.82864  0.14621  1.0000
  C   C1619     1.0  0.70636  0.65351  0.30357  1.0000
  Fe  Fe111     1.0  0.84254  0.61315  0.30433  1.0000
  C   C1620     1.0  0.80835  0.75033  0.29398  1.0000
  C   C1621     1.0  0.57005  0.80533  0.14808  1.0000
  C   C1622     1.0  0.98662  0.86910  0.30276  1.0000
  H   H1291     1.0  0.54355  0.59541  0.12413  1.0000
  C   C1623     1.0  0.62550  0.58621  0.28654  1.0000
  C   C1624     1.0  0.97905  0.57007  0.30176  1.0000
  C   C1625     1.0  0.57110  0.63306  0.13498  1.0000
  C   C1626     1.0  0.94846  0.55623  0.97970  1.0000
  H   H1292     1.0  0.60961  0.72434  0.15491  1.0000
  H   H1293     1.0  0.84937  0.50853  0.23772  1.0000
  C   C1627     1.0  0.72495  0.96959  0.24156  1.0000
  C   C1628     1.0  0.72547  0.66257  0.29104  1.0000
  C   C1629     1.0  0.74375  0.49444  0.26149  1.0000
  H   H1294     1.0  0.78985  0.95370  0.26405  1.0000
  C   C1630     1.0  0.51204  0.75048  0.18445  1.0000
  H   H1295     1.0  0.53169  0.69079  0.19081  1.0000
  C   C1631     1.0  0.75053  0.95352  0.08590  1.0000
  H   H1296     1.0  0.58013  0.90165  0.25680  1.0000
  C   C1632     1.0  0.50759  0.77330  0.12858  1.0000
  C   C1633     1.0  0.59731  0.97975  0.26310  1.0000
  C   C1634     1.0  0.73207  0.64086  0.27901  1.0000
  C   C1635     1.0  0.70929  0.95425  0.26786  1.0000
  H   H1297     1.0  0.79237  0.51505  0.19309  1.0000
  C   C1636     1.0  0.88014  0.56044  0.22726  1.0000
  C   C1637     1.0  0.76509  0.95709  0.26099  1.0000
  C   C1638     1.0  0.49581  0.51663  0.15188  1.0000
  C   C1639     1.0  0.57042  0.66286  0.14226  1.0000
  C   C1640     1.0  0.85813  0.53073  0.17140  1.0000
  C   C1641     1.0  0.98653  0.65959  0.29078  1.0000
  H   H1298     1.0  0.90704  0.66303  0.29759  1.0000
  C   C1642     1.0  0.79227  0.52330  0.16834  1.0000
  H   H1299     1.0  0.66487  0.94805  0.06360  1.0000
  H   H1300     1.0  0.74756  0.64757  0.26948  1.0000
  C   C1643     1.0  0.70056  0.60066  0.29211  1.0000
  C   C1644     1.0  0.59318  0.92267  0.26066  1.0000
  H   H1301     1.0  0.84556  0.94413  0.09750  1.0000
  C   C1645     1.0  0.53965  0.77113  0.20762  1.0000
  C   C1646     1.0  0.96302  0.54166  0.02360  1.0000
  C   C1647     1.0  0.50360  0.74043  0.12944  1.0000
  H   H1302     1.0  0.64457  0.50845  0.28149  1.0000
  Fe  Fe112     1.0  0.80104  0.90145  0.30179  1.0000
  C   C1648     1.0  0.71838  0.51126  0.25514  1.0000
  H   H1303     1.0  0.72681  0.99025  0.29512  1.0000
  H   H1304     1.0  0.71863  0.97572  0.22962  1.0000
  H   H1305     1.0  0.94800  0.62545  0.28878  1.0000
  C   C1649     1.0  0.89947  0.50653  0.20096  1.0000
  C   C1650     1.0  0.68869  0.89558  0.30351  1.0000
  H   H1306     1.0  0.56124  0.77585  0.21431  1.0000
  H   H1307     1.0  0.77750  0.71831  0.28098  1.0000
  C   C1651     1.0  0.67099  0.97170  0.06780  1.0000
  H   H1308     1.0  0.52499  0.78328  0.12070  1.0000
  H   H1309     1.0  0.88362  0.53374  0.17228  1.0000
  H   H1310     1.0  0.68190  0.54513  0.25946  1.0000
  C   C1652     1.0  0.75689  0.96656  0.24583  1.0000
  H   H1311     1.0  0.92211  0.71809  0.30500  1.0000
  C   C1653     1.0  0.70585  0.99048  0.30231  1.0000
  H   H1312     1.0  0.63290  0.95587  0.30656  1.0000
  H   H1313     1.0  0.97377  0.49113  0.27781  1.0000
  C   C1654     1.0  0.62572  0.52023  0.60920  1.0000
  H   H1314     1.0  0.77524  0.77709  0.32181  1.0000
  S   S220      1.0  0.76349  0.92347  0.31864  1.0000
  H   H1315     1.0  0.58965  0.94844  0.43395  1.0000
  H   H1316     1.0  0.59416  0.98917  0.55226  1.0000
  H   H1317     1.0  0.76853  0.51084  0.37385  1.0000
  Fe  Fe113     1.0  0.67693  0.53354  0.52380  1.0000
  H   H1318     1.0  0.50124  0.52167  0.44252  1.0000
  H   H1319     1.0  0.80295  0.89738  0.57847  1.0000
  Fe  Fe114     1.0  0.65474  0.59412  0.54142  1.0000
  S   S221      1.0  0.63746  0.56492  0.56183  1.0000
  S   S222      1.0  0.64205  0.64639  0.53617  1.0000
  Fe  Fe115     1.0  0.68293  0.53690  0.55989  1.0000
  S   S223      1.0  0.71213  0.52606  0.58240  1.0000
  Fe  Fe116     1.0  0.61761  0.53084  0.54369  1.0000
  H   H1320     1.0  0.51304  0.85343  0.50301  1.0000
  S   S224      1.0  0.70153  0.56836  0.54047  1.0000
  S   S225      1.0  0.63176  0.56099  0.52341  1.0000
  Fe  Fe117     1.0  0.64741  0.84509  0.54182  1.0000
  S   S226      1.0  0.61961  0.87648  0.55846  1.0000
  S   S227      1.0  0.66447  0.79579  0.54974  1.0000
  Fe  Fe118     1.0  0.65008  0.89778  0.51642  1.0000
  S   S228      1.0  0.62349  0.93156  0.53167  1.0000
  S   S229      1.0  0.66327  0.90768  0.49070  1.0000
  Fe  Fe119     1.0  0.65453  0.91566  0.55210  1.0000
  S   S230      1.0  0.67623  0.95655  0.56779  1.0000
  Fe  Fe120     1.0  0.59132  0.89010  0.53686  1.0000
  S   S231      1.0  0.53899  0.89162  0.52938  1.0000
  S   S232      1.0  0.68333  0.88384  0.53625  1.0000
  S   S233      1.0  0.61708  0.85653  0.52081  1.0000
  C   C1655     1.0  0.70119  0.96627  0.58465  1.0000
  H   H1321     1.0  0.58523  0.88227  0.48272  1.0000
  S   S234      1.0  0.86738  0.56936  0.31302  1.0000
  H   H1322     1.0  0.75536  0.91814  0.56478  1.0000
  C   C1656     1.0  0.71323  0.55781  0.32299  1.0000
  H   H1323     1.0  0.73371  0.92544  0.51056  1.0000
  H   H1324     1.0  0.71039  0.91844  0.59163  1.0000
  C   C1657     1.0  0.65597  0.94095  0.47841  1.0000
  C   C1658     1.0  0.85400  0.97016  0.63274  1.0000
  H   H1325     1.0  0.67927  0.91976  0.45851  1.0000
  C   C1659     1.0  0.62760  0.60576  0.60180  1.0000
  H   H1326     1.0  0.72419  0.49789  0.47096  1.0000
  H   H1327     1.0  0.95941  0.57174  0.30982  1.0000
  H   H1328     1.0  0.51227  0.60138  0.55856  1.0000
  C   C1660     1.0  0.78016  0.50725  0.34917  1.0000
  H   H1329     1.0  0.52711  0.90071  0.56315  1.0000
  C   C1661     1.0  0.59950  0.52969  0.60010  1.0000
  H   H1330     1.0  0.82107  0.76643  0.33935  1.0000
  H   H1331     1.0  0.69069  0.96758  0.35849  1.0000
  H   H1332     1.0  0.74366  0.60275  0.51021  1.0000
  H   H1333     1.0  0.54796  0.81199  0.52162  1.0000
  C   C1662     1.0  0.58505  0.60930  0.58250  1.0000
  H   H1334     1.0  0.67942  0.61592  0.31399  1.0000
  C   C1663     1.0  0.64905  0.68788  0.53994  1.0000
  C   C1664     1.0  0.63030  0.71031  0.53205  1.0000
  C   C1665     1.0  0.63450  0.74329  0.53483  1.0000
  C   C1666     1.0  0.65770  0.75445  0.54555  1.0000
  C   C1667     1.0  0.67643  0.73200  0.55340  1.0000
  C   C1668     1.0  0.67230  0.69908  0.55059  1.0000
  H   H1335     1.0  0.61243  0.70219  0.52366  1.0000
  H   H1336     1.0  0.61984  0.76006  0.52868  1.0000
  H   H1337     1.0  0.69455  0.74020  0.56166  1.0000
  H   H1338     1.0  0.68734  0.68243  0.55660  1.0000
  P   P56       1.0  0.57701  0.56400  0.60586  1.0000
  S   S235      1.0  0.83228  0.86057  0.30883  1.0000
  C   C1669     1.0  0.82429  0.94357  0.58239  1.0000
  H   H1339     1.0  0.63216  0.53263  0.62000  1.0000
  H   H1340     1.0  0.72757  0.94212  0.53845  1.0000
  C   C1670     1.0  0.53554  0.52727  0.54825  1.0000
  C   C1671     1.0  0.53783  0.55937  0.55225  1.0000
  C   C1672     1.0  0.67373  0.60527  0.48991  1.0000
  H   H1341     1.0  0.56086  0.57102  0.55270  1.0000
  H   H1342     1.0  0.74555  0.93396  0.61421  1.0000
  H   H1343     1.0  0.71869  0.96181  0.48925  1.0000
  C   C1673     1.0  0.51720  0.58858  0.59947  1.0000
  C   C1674     1.0  0.91535  0.55562  0.62463  1.0000
  C   C1675     1.0  0.66708  0.94048  0.46284  1.0000
  C   C1676     1.0  0.68626  0.51551  0.42110  1.0000
  C   C1677     1.0  0.54852  0.96853  0.39440  1.0000
  S   S236      1.0  0.79471  0.50126  0.31698  1.0000
  H   H1344     1.0  0.72192  0.56771  0.46380  1.0000
  H   H1345     1.0  0.86522  0.72719  0.32008  1.0000
  H   H1346     1.0  0.58710  0.59606  0.45140  1.0000
  C   C1678     1.0  0.75236  0.95234  0.33332  1.0000
  C   C1679     1.0  0.88291  0.98222  0.63856  1.0000
  H   H1347     1.0  0.56357  0.86299  0.45699  1.0000
  C   C1680     1.0  0.64516  0.62840  0.59363  1.0000
  C   C1681     1.0  0.51480  0.50361  0.44837  1.0000
  S   S237      1.0  0.66150  0.50089  0.54304  1.0000
  C   C1682     1.0  0.63235  0.65166  0.42680  1.0000
  C   C1683     1.0  0.84624  0.72517  0.31144  1.0000
  H   H1348     1.0  0.76013  0.57598  0.48555  1.0000
  C   C1684     1.0  0.76458  0.49753  0.36304  1.0000
  C   C1685     1.0  0.58803  0.58064  0.46143  1.0000
  C   C1686     1.0  0.56927  0.92993  0.47946  1.0000
  H   H1349     1.0  0.62401  0.65160  0.41470  1.0000
  C   C1687     1.0  0.90115  0.89862  0.33611  1.0000
  C   C1688     1.0  0.72136  0.95817  0.52910  1.0000
  C   C1689     1.0  0.55107  0.97539  0.51322  1.0000
  C   C1690     1.0  0.83955  0.92066  0.34050  1.0000
  C   C1691     1.0  0.85059  0.89543  0.34953  1.0000
  C   C1692     1.0  0.88130  0.88397  0.34698  1.0000
  P   P57       1.0  0.82391  0.87471  0.36239  1.0000
  C   C1693     1.0  0.84445  0.86034  0.37953  1.0000
  C   C1694     1.0  0.79404  0.90074  0.37015  1.0000
  C   C1695     1.0  0.80191  0.93228  0.37414  1.0000
  C   C1696     1.0  0.77915  0.95216  0.38072  1.0000
  C   C1697     1.0  0.74857  0.94061  0.38359  1.0000
  C   C1698     1.0  0.71631  0.96933  0.50141  1.0000
  C   C1699     1.0  0.76339  0.88914  0.37330  1.0000
  C   C1700     1.0  0.83242  0.83403  0.38757  1.0000
  C   C1701     1.0  0.84778  0.82337  0.40113  1.0000
  C   C1702     1.0  0.87491  0.83923  0.40691  1.0000
  C   C1703     1.0  0.88654  0.86593  0.39919  1.0000
  C   C1704     1.0  0.87124  0.87663  0.38562  1.0000
  C   C1705     1.0  0.80701  0.84294  0.35051  1.0000
  C   C1706     1.0  0.82155  0.81317  0.34996  1.0000
  C   C1707     1.0  0.80963  0.78929  0.33990  1.0000
  C   C1708     1.0  0.78373  0.79524  0.33001  1.0000
  C   C1709     1.0  0.76968  0.82503  0.33021  1.0000
  C   C1710     1.0  0.78119  0.84880  0.34044  1.0000
  H   H1350     1.0  0.92460  0.88936  0.33386  1.0000
  C   C1711     1.0  0.72493  0.94883  0.51343  1.0000
  H   H1351     1.0  0.68529  0.91302  0.31273  1.0000
  H   H1352     1.0  0.81536  0.92856  0.34157  1.0000
  H   H1353     1.0  0.88966  0.86326  0.35306  1.0000
  H   H1354     1.0  0.82556  0.94161  0.37209  1.0000
  H   H1355     1.0  0.91273  0.54084  0.61418  1.0000
  H   H1356     1.0  0.85044  0.95422  0.32242  1.0000
  C   C1712     1.0  0.71505  0.94324  0.59418  1.0000
  H   H1357     1.0  0.75700  0.86471  0.37071  1.0000
  H   H1358     1.0  0.81108  0.82186  0.38340  1.0000
  H   H1359     1.0  0.83852  0.80292  0.40723  1.0000
  H   H1360     1.0  0.88673  0.83101  0.41745  1.0000
  H   H1361     1.0  0.90730  0.87851  0.40379  1.0000
  H   H1362     1.0  0.88018  0.89774  0.37996  1.0000
  H   H1363     1.0  0.84257  0.80858  0.35696  1.0000
  C   C1713     1.0  0.57248  0.89820  0.47504  1.0000
  H   H1364     1.0  0.63813  0.59496  0.61206  1.0000
  H   H1365     1.0  0.75071  0.83009  0.32199  1.0000
  H   H1366     1.0  0.77071  0.87208  0.34005  1.0000
  C   C1714     1.0  0.69232  0.56571  0.43501  1.0000
  P   P58       1.0  0.52447  0.96790  0.44107  1.0000
  C   C1715     1.0  0.49857  0.64612  0.53459  1.0000
  C   C1716     1.0  0.55879  0.68585  0.59715  1.0000
  C   C1717     1.0  0.85862  0.50007  0.62152  1.0000
  C   C1718     1.0  0.89021  0.92421  0.32741  1.0000
  C   C1719     1.0  0.50234  0.81885  0.48475  1.0000
  C   C1720     1.0  0.63696  0.62298  0.43450  1.0000
  C   C1721     1.0  0.64030  0.96800  0.48380  1.0000
  H   H1367     1.0  0.53702  0.57657  0.46273  1.0000
  C   C1722     1.0  0.69621  0.86460  0.30769  1.0000
  C   C1723     1.0  0.56044  0.63123  0.52603  1.0000
  C   C1724     1.0  0.53500  0.61289  0.52024  1.0000
  C   C1725     1.0  0.77113  0.96679  0.56657  1.0000
  C   C1726     1.0  0.52405  0.66434  0.54078  1.0000
  C   C1727     1.0  0.55503  0.65695  0.53617  1.0000
  P   P59       1.0  0.51727  0.69805  0.55371  1.0000
  C   C1728     1.0  0.52489  0.73449  0.54331  1.0000
  C   C1729     1.0  0.53153  0.76264  0.55182  1.0000
  C   C1730     1.0  0.73514  0.95218  0.60704  1.0000
  H   H1368     1.0  0.55724  0.51425  0.43534  1.0000
  C   C1731     1.0  0.53391  0.76275  0.51901  1.0000
  C   C1732     1.0  0.52593  0.73480  0.52682  1.0000
  C   C1733     1.0  0.54557  0.69706  0.56989  1.0000
  C   C1734     1.0  0.57618  0.71019  0.56806  1.0000
  C   C1735     1.0  0.59758  0.71168  0.58072  1.0000
  C   C1736     1.0  0.58889  0.69957  0.59528  1.0000
  H   H1369     1.0  0.58446  0.62528  0.52276  1.0000
  H   H1370     1.0  0.53939  0.59252  0.51273  1.0000
  H   H1371     1.0  0.57513  0.67085  0.54045  1.0000
  H   H1372     1.0  0.53093  0.76300  0.56456  1.0000
  C   C1737     1.0  0.85936  0.93516  0.32957  1.0000
  H   H1373     1.0  0.53508  0.76286  0.50630  1.0000
  C   C1738     1.0  0.69310  0.52647  0.34443  1.0000
  H   H1374     1.0  0.58356  0.71974  0.55690  1.0000
  H   H1375     1.0  0.62100  0.72215  0.57915  1.0000
  H   H1376     1.0  0.60563  0.70060  0.60505  1.0000
  C   C1739     1.0  0.64959  0.68039  0.45023  1.0000
  C   C1740     1.0  0.66334  0.96684  0.45291  1.0000
  H   H1377     1.0  0.69835  0.85860  0.31998  1.0000
  H   H1378     1.0  0.63192  0.60096  0.42821  1.0000
  C   C1741     1.0  0.58906  0.54015  0.48720  1.0000
  S   S238      1.0  0.84932  0.66106  0.31639  1.0000
  H   H1379     1.0  0.92633  0.63313  0.63511  1.0000
  H   H1380     1.0  0.52113  0.71343  0.52001  1.0000
  H   H1381     1.0  0.56503  0.95803  0.51941  1.0000
  C   C1742     1.0  0.83421  0.69505  0.30713  1.0000
  H   H1382     1.0  0.67281  0.96631  0.44114  1.0000
  H   H1383     1.0  0.73165  0.57327  0.31849  1.0000
  C   C1743     1.0  0.57767  0.56923  0.62691  1.0000
  C   C1744     1.0  0.74177  0.98428  0.61081  1.0000
  C   C1745     1.0  0.66538  0.52597  0.31931  1.0000
  C   C1746     1.0  0.72769  0.49182  0.59203  1.0000
  H   H1384     1.0  0.63984  0.54385  0.48607  1.0000
  C   C1747     1.0  0.49765  0.83387  0.49925  1.0000
  C   C1748     1.0  0.50553  0.51234  0.54767  1.0000
  C   C1749     1.0  0.55416  0.95114  0.46941  1.0000
  H   H1385     1.0  0.66290  0.65253  0.46997  1.0000
  C   C1750     1.0  0.71433  0.58014  0.47425  1.0000
  C   C1751     1.0  0.59329  0.51446  0.58561  1.0000
  H   H1386     1.0  0.58280  0.62034  0.62642  1.0000
  H   H1387     1.0  0.71689  0.90030  0.38206  1.0000
  H   H1388     1.0  0.69551  0.51791  0.35635  1.0000
  H   H1389     1.0  0.66884  0.63515  0.59765  1.0000
  H   H1390     1.0  0.59313  0.95662  0.38387  1.0000
  C   C1752     1.0  0.63869  0.68036  0.43465  1.0000
  C   C1753     1.0  0.71317  0.97094  0.35268  1.0000
  C   C1754     1.0  0.68787  0.54736  0.31329  1.0000
  C   C1755     1.0  0.84491  0.97564  0.61717  1.0000
  C   C1756     1.0  0.51834  0.97065  0.51150  1.0000
  H   H1391     1.0  0.53808  0.54114  0.48571  1.0000
  H   H1392     1.0  0.50292  0.49787  0.49201  1.0000
  C   C1757     1.0  0.70175  0.54476  0.42310  1.0000
  C   C1758     1.0  0.55954  0.56959  0.46781  1.0000
  H   H1393     1.0  0.70437  0.58843  0.43632  1.0000
  H   H1394     1.0  0.50777  0.98051  0.40773  1.0000
  H   H1395     1.0  0.49655  0.93963  0.48407  1.0000
  C   C1759     1.0  0.80076  0.92262  0.57666  1.0000
  H   H1396     1.0  0.70798  0.92865  0.33821  1.0000
  C   C1760     1.0  0.68426  0.49248  0.48640  1.0000
  C   C1761     1.0  0.71554  0.54772  0.33853  1.0000
  C   C1762     1.0  0.73621  0.58484  0.48659  1.0000
  H   H1397     1.0  0.79589  0.52770  0.34948  1.0000
  H   H1398     1.0  0.58956  0.52444  0.49719  1.0000
  C   C1763     1.0  0.63279  0.64126  0.57986  1.0000
  H   H1399     1.0  0.84486  0.93421  0.58842  1.0000
  C   C1764     1.0  0.50403  0.62051  0.52442  1.0000
  H   H1400     1.0  0.81650  0.49938  0.60681  1.0000
  S   S239      1.0  0.56970  0.50548  0.54359  1.0000
  H   H1401     1.0  0.98105  0.85273  0.31203  1.0000
  H   H1402     1.0  0.57069  0.51936  0.63158  1.0000
  C   C1765     1.0  0.50470  0.90133  0.55682  1.0000
  C   C1766     1.0  0.77408  0.93425  0.56883  1.0000
  H   H1403     1.0  0.55214  0.67637  0.60843  1.0000
  S   S240      1.0  0.70138  0.51737  0.50128  1.0000
  H   H1404     1.0  0.56255  0.60130  0.57759  1.0000
  H   H1405     1.0  0.72108  0.55109  0.41539  1.0000
  H   H1406     1.0  0.51395  0.67427  0.58637  1.0000
  H   H1407     1.0  0.59382  0.64105  0.56337  1.0000
  C   C1767     1.0  0.66143  0.50717  0.43105  1.0000
  C   C1768     1.0  0.66749  0.55739  0.44513  1.0000
  H   H1408     1.0  0.57436  0.52245  0.57797  1.0000
  H   H1409     1.0  0.64670  0.65808  0.57326  1.0000
  H   H1410     1.0  0.91897  0.59873  0.61144  1.0000
  H   H1411     1.0  0.65112  0.49854  0.33935  1.0000
  C   C1769     1.0  0.56008  0.54947  0.48072  1.0000
  H   H1412     1.0  0.54566  0.81190  0.55059  1.0000
  C   C1770     1.0  0.50408  0.89751  0.54047  1.0000
  C   C1771     1.0  0.58060  0.59962  0.63372  1.0000
  H   H1413     1.0  0.82196  0.96688  0.61308  1.0000
  C   C1772     1.0  0.65426  0.65175  0.45796  1.0000
  C   C1773     1.0  0.74321  0.49567  0.60673  1.0000
  C   C1774     1.0  0.66810  0.51552  0.33481  1.0000
  C   C1775     1.0  0.68294  0.59058  0.47576  1.0000
  H   H1414     1.0  0.73532  0.55566  0.34589  1.0000
  H   H1415     1.0  0.90530  0.93466  0.31856  1.0000
  C   C1776     1.0  0.64805  0.62277  0.45014  1.0000
  H   H1416     1.0  0.65463  0.70263  0.45632  1.0000
  C   C1777     1.0  0.82091  0.97639  0.58060  1.0000
  C   C1778     1.0  0.72309  0.94880  0.34109  1.0000
  C   C1779     1.0  0.59732  0.59619  0.59635  1.0000
  C   C1780     1.0  0.53988  0.79039  0.54398  1.0000
  C   C1781     1.0  0.54115  0.79043  0.52759  1.0000
  H   H1417     1.0  0.61880  0.94289  0.40926  1.0000
  C   C1782     1.0  0.61728  0.57174  0.46802  1.0000
  C   C1783     1.0  0.53561  0.56108  0.60017  1.0000
  C   C1784     1.0  0.56030  0.88744  0.46057  1.0000
  C   C1785     1.0  0.64479  0.49534  0.60406  1.0000
  H   H1418     1.0  0.63346  0.52035  0.45088  1.0000
  H   H1419     1.0  0.70171  0.67026  0.31300  1.0000
  H   H1420     1.0  0.53401  0.50973  0.59892  1.0000
  C   C1786     1.0  0.77159  0.97857  0.33743  1.0000
  H   H1421     1.0  0.53781  0.97579  0.38339  1.0000
  C   C1787     1.0  0.60276  0.63178  0.57433  1.0000
  H   H1422     1.0  0.74525  0.51912  0.61195  1.0000
  C   C1788     1.0  0.91910  0.58839  0.62304  1.0000
  H   H1423     1.0  0.68837  0.62125  0.51307  1.0000
  P   P60       1.0  0.65435  0.58546  0.45987  1.0000
  C   C1789     1.0  0.69569  0.61001  0.50218  1.0000
  C   C1790     1.0  0.53717  0.68462  0.58453  1.0000
  C   C1791     1.0  0.65225  0.52780  0.44313  1.0000
  C   C1792     1.0  0.51023  0.57657  0.55541  1.0000
  C   C1793     1.0  0.57977  0.95787  0.39468  1.0000
  C   C1794     1.0  0.59420  0.95018  0.40897  1.0000
  C   C1795     1.0  0.57741  0.95321  0.42298  1.0000
  C   C1796     1.0  0.54560  0.96310  0.42278  1.0000
  H   H1424     1.0  0.84294  0.77583  0.30818  1.0000
  H   H1425     1.0  0.52787  0.61164  0.60179  1.0000
  H   H1426     1.0  0.64599  0.51690  0.31209  1.0000
  C   C1797     1.0  0.74068  0.90912  0.37990  1.0000
  C   C1798     1.0  0.61755  0.55122  0.48088  1.0000
  H   H1427     1.0  0.64955  0.61306  0.49151  1.0000
  C   C1799     1.0  0.72690  0.59976  0.50054  1.0000
  H   H1428     1.0  0.53654  0.90002  0.43911  1.0000
  C   C1800     1.0  0.54504  0.90848  0.45050  1.0000
  H   H1429     1.0  0.78495  0.97677  0.38335  1.0000
  H   H1430     1.0  0.63529  0.70258  0.42866  1.0000
  H   H1431     1.0  0.49827  0.52857  0.51662  1.0000
  H   H1432     1.0  0.57952  0.93810  0.49053  1.0000
  C   C1801     1.0  0.53152  0.97128  0.40836  1.0000
  C   C1802     1.0  0.54173  0.94050  0.45486  1.0000
  C   C1803     1.0  0.79453  0.98780  0.57228  1.0000
  H   H1433     1.0  0.52161  0.82654  0.47732  1.0000
  H   H1434     1.0  0.55281  0.97579  0.47293  1.0000
  H   H1435     1.0  0.91244  0.96898  0.58772  1.0000
  H   H1436     1.0  0.73561  0.49354  0.53420  1.0000
  H   H1437     1.0  0.63177  0.96883  0.49574  1.0000
  H   H1438     1.0  0.50772  0.94934  0.51621  1.0000
  H   H1439     1.0  0.95498  0.96483  0.56817  1.0000
  C   C1804     1.0  0.91022  0.98170  0.57679  1.0000
  C   C1805     1.0  0.52076  0.53140  0.59780  1.0000
  C   C1806     1.0  0.57372  0.54292  0.63664  1.0000
  H   H1440     1.0  0.79407  0.98197  0.33163  1.0000
  C   C1807     1.0  0.54660  0.49947  0.44422  1.0000
  H   H1441     1.0  0.73085  0.95636  0.38841  1.0000
  H   H1442     1.0  0.69364  0.49919  0.41189  1.0000
  H   H1443     1.0  0.75016  0.97580  0.56080  1.0000
  H   H1444     1.0  0.85520  0.52437  0.62526  1.0000
  C   C1808     1.0  0.65322  0.97130  0.30884  1.0000
  C   C1809     1.0  0.93430  0.97905  0.56567  1.0000
  C   C1810     1.0  0.70882  0.98783  0.53276  1.0000
  C   C1811     1.0  0.92329  0.60776  0.63637  1.0000
  C   C1812     1.0  0.91522  0.54209  0.63962  1.0000
  Fe  Fe121     1.0  0.83849  0.61229  0.90342  1.0000
  S   S241      1.0  0.84421  0.59275  0.87880  1.0000
  S   S242      1.0  0.83610  0.66380  0.91293  1.0000
  Fe  Fe122     1.0  0.83997  0.54483  0.91801  1.0000
  S   S243      1.0  0.84622  0.52133  0.89432  1.0000
  C   C1813     1.0  0.88170  0.96637  0.79509  1.0000
  Fe  Fe123     1.0  0.88091  0.56080  0.88957  1.0000
  S   S244      1.0  0.92717  0.54968  0.87727  1.0000
  Fe  Fe124     1.0  0.80882  0.55420  0.88519  1.0000
  S   S245      1.0  0.76681  0.53996  0.86852  1.0000
  S   S246      1.0  0.87734  0.58230  0.91363  1.0000
  S   S247      1.0  0.80039  0.57611  0.90937  1.0000
  Fe  Fe125     1.0  0.89630  0.91868  0.90291  1.0000
  S   S248      1.0  0.88038  0.88096  0.91951  1.0000
  S   S249      1.0  0.94506  0.94195  0.90578  1.0000
  Fe  Fe126     1.0  0.82993  0.92455  0.88693  1.0000
  S   S250      1.0  0.80934  0.88696  0.90283  1.0000
  S   S251      1.0  0.80952  0.95218  0.86556  1.0000
  Fe  Fe127     1.0  0.83730  0.91149  0.92274  1.0000
  S   S252      1.0  0.82056  0.91923  0.94814  1.0000
  Fe  Fe128     1.0  0.85429  0.85900  0.89876  1.0000
  S   S253      1.0  0.85955  0.80702  0.89024  1.0000
  S   S254      1.0  0.85455  0.95034  0.90721  1.0000
  S   S255      1.0  0.87341  0.89528  0.88178  1.0000
  H   H1445     1.0  0.93635  0.65483  0.94960  1.0000
  H   H1446     1.0  0.86614  0.92585  0.78126  1.0000
  H   H1447     1.0  0.77395  0.52084  0.92577  1.0000
  C   C1814     1.0  0.70078  0.61916  0.77462  1.0000
  C   C1815     1.0  0.96903  0.73419  0.86723  1.0000
  C   C1816     1.0  0.98077  0.89758  0.88966  1.0000
  C   C1817     1.0  0.78043  0.98849  0.84262  1.0000
  C   C1818     1.0  0.83577  0.96590  0.77768  1.0000
  C   C1819     1.0  0.71650  0.56394  0.77495  1.0000
  C   C1820     1.0  0.93660  0.61384  0.85540  1.0000
  H   H1448     1.0  0.84759  0.98310  0.94346  1.0000
  H   H1449     1.0  0.95854  0.88591  0.88650  1.0000
  C   C1821     1.0  0.83018  0.95165  0.96119  1.0000
  C   C1822     1.0  0.76077  0.97728  0.79334  1.0000
  C   C1823     1.0  0.75649  0.60590  0.77371  1.0000
  S   S256      1.0  0.84918  0.51652  0.94055  1.0000
  H   H1450     1.0  0.74526  0.51339  0.72050  1.0000
  C   C1824     1.0  0.66621  0.51029  0.80049  1.0000
  C   C1825     1.0  0.90608  0.62466  0.85206  1.0000
  H   H1451     1.0  0.79786  0.80197  0.91147  1.0000
  C   C1826     1.0  0.76945  0.69781  0.89012  1.0000
  C   C1827     1.0  0.76896  0.85266  0.93899  1.0000
  C   C1828     1.0  0.84444  0.70321  0.90642  1.0000
  C   C1829     1.0  0.85020  0.71026  0.89067  1.0000
  C   C1830     1.0  0.85504  0.74202  0.88603  1.0000
  C   C1831     1.0  0.85395  0.76731  0.89700  1.0000
  C   C1832     1.0  0.84871  0.76021  0.91280  1.0000
  C   C1833     1.0  0.84388  0.72846  0.91743  1.0000
  H   H1452     1.0  0.85011  0.69130  0.88201  1.0000
  H   H1453     1.0  0.85920  0.74707  0.87378  1.0000
  H   H1454     1.0  0.84825  0.77915  0.92147  1.0000
  H   H1455     1.0  0.83935  0.72342  0.92964  1.0000
  C   C1834     1.0  0.96397  0.55373  0.88739  1.0000
  C   C1835     1.0  0.96540  0.56015  0.90355  1.0000
  H   H1456     1.0  0.73889  0.65361  0.77371  1.0000
  H   H1457     1.0  0.94378  0.56356  0.91003  1.0000
  C   C1836     1.0  0.84241  0.98052  0.95581  1.0000
  C   C1837     1.0  0.98232  0.67654  0.91875  1.0000
  C   C1838     1.0  0.96819  0.83198  0.92036  1.0000
  C   C1839     1.0  0.85603  0.49719  0.68077  1.0000
  C   C1840     1.0  0.72588  0.50575  0.84864  1.0000
  H   H1458     1.0  0.99146  0.54399  0.86669  1.0000
  C   C1841     1.0  0.75569  0.50626  0.85641  1.0000
  H   H1459     1.0  0.83813  0.95732  0.64040  1.0000
  H   H1460     1.0  0.86116  0.52723  0.66076  1.0000
  H   H1461     1.0  0.91719  0.52951  0.93855  1.0000
  H   H1462     1.0  0.96110  0.85539  0.91664  1.0000
  H   H1463     1.0  0.57718  0.58010  0.67239  1.0000
  H   H1464     1.0  0.63552  0.49857  0.81975  1.0000
  H   H1465     1.0  0.76683  0.70263  0.86500  1.0000
  H   H1466     1.0  0.68742  0.50822  0.80766  1.0000
  C   C1842     1.0  0.92756  0.57526  0.97126  1.0000
  C   C1843     1.0  0.78998  0.83219  0.93151  1.0000
  C   C1844     1.0  0.92614  0.53640  0.95008  1.0000
  C   C1845     1.0  0.97387  0.67005  0.93425  1.0000
  H   H1467     1.0  0.82028  0.95317  0.76945  1.0000
  H   H1468     1.0  0.96444  0.77381  0.85164  1.0000
  C   C1846     1.0  0.95656  0.63081  0.86581  1.0000
  H   H1469     1.0  0.71520  0.49285  0.88629  1.0000
  C   C1847     1.0  0.98068  0.92520  0.89893  1.0000
  H   H1470     1.0  0.69479  0.97576  0.85742  1.0000
  H   H1471     1.0  0.97938  0.71908  0.85831  1.0000
  H   H1472     1.0  0.97963  0.62123  0.86844  1.0000
  H   H1473     1.0  0.97308  0.95406  0.96081  1.0000
  H   H1474     1.0  0.92775  0.60931  0.66162  1.0000
  H   H1475     1.0  0.83657  0.51052  0.68565  1.0000
  P   P61       1.0  0.97112  0.68147  0.88655  1.0000
  C   C1848     1.0  0.87007  0.50659  0.66671  1.0000
  C   C1849     1.0  0.94637  0.51666  0.95867  1.0000
  C   C1850     1.0  0.91657  0.56540  0.95643  1.0000
  C   C1851     1.0  0.76403  0.71444  0.87627  1.0000
  H   H1476     1.0  0.77687  0.67330  0.88963  1.0000
  C   C1852     1.0  0.77220  0.49902  0.80869  1.0000
  C   C1853     1.0  0.77570  0.96983  0.85607  1.0000
  H   H1477     1.0  0.90704  0.69174  0.87447  1.0000
  H   H1478     1.0  0.68161  0.96235  0.79732  1.0000
  C   C1854     1.0  0.86168  0.95037  0.78436  1.0000
  H   H1479     1.0  0.58610  0.50131  0.80377  1.0000
  H   H1480     1.0  0.75495  0.93636  0.90295  1.0000
  C   C1855     1.0  0.60886  0.50653  0.79847  1.0000
  H   H1481     1.0  0.71022  0.52568  0.85012  1.0000
  C   C1856     1.0  0.92022  0.56158  0.65294  1.0000
  C   C1857     1.0  0.77216  0.98169  0.93535  1.0000
  C   C1858     1.0  0.89564  0.65285  0.85891  1.0000
  C   C1859     1.0  0.91566  0.67011  0.86915  1.0000
  C   C1860     1.0  0.94628  0.65920  0.87275  1.0000
  H   H1482     1.0  0.90164  0.95424  0.80035  1.0000
  H   H1483     1.0  0.89033  0.61078  0.84445  1.0000
  C   C1861     1.0  0.96350  0.72258  0.88238  1.0000
  C   C1862     1.0  0.95997  0.67254  0.90647  1.0000
  C   C1863     1.0  0.92893  0.66252  0.90998  1.0000
  C   C1864     1.0  0.92055  0.65631  0.92551  1.0000
  C   C1865     1.0  0.57721  0.57710  0.65971  1.0000
  C   C1866     1.0  0.75017  0.51566  0.79969  1.0000
  C   C1867     1.0  0.73266  0.62864  0.77399  1.0000
  C   C1868     1.0  0.94818  0.74198  0.89342  1.0000
  C   C1869     1.0  0.93915  0.77263  0.88941  1.0000
  C   C1870     1.0  0.94538  0.78425  0.87447  1.0000
  C   C1871     1.0  0.95466  0.78082  0.93109  1.0000
  H   H1484     1.0  0.58299  0.62695  0.65530  1.0000
  C   C1872     1.0  0.83532  0.49518  0.95719  1.0000
  C   C1873     1.0  0.69267  0.58695  0.77502  1.0000
  C   C1874     1.0  0.73552  0.50122  0.78646  1.0000
  H   H1485     1.0  0.78270  0.50987  0.81917  1.0000
  C   C1875     1.0  0.94574  0.81128  0.92671  1.0000
  C   C1876     1.0  0.94299  0.65991  0.93762  1.0000
  H   H1486     1.0  0.81367  0.82910  0.93633  1.0000
  H   H1487     1.0  0.58867  0.51479  0.77560  1.0000
  H   H1488     1.0  0.87180  0.66102  0.85651  1.0000
  H   H1489     1.0  0.78292  0.97240  0.79935  1.0000
  H   H1490     1.0  0.75449  0.75587  0.91688  1.0000
  H   H1491     1.0  0.91098  0.65950  0.90086  1.0000
  H   H1492     1.0  0.89649  0.64869  0.92811  1.0000
  C   C1877     1.0  0.74450  0.96567  0.86135  1.0000
  H   H1493     1.0  0.94200  0.73324  0.90490  1.0000
  H   H1494     1.0  0.96894  0.91780  0.93810  1.0000
  H   H1495     1.0  0.92125  0.81861  0.92786  1.0000
  H   H1496     1.0  0.92619  0.78710  0.89770  1.0000
  H   H1497     1.0  0.93776  0.80786  0.87142  1.0000
  H   H1498     1.0  0.64050  0.52523  0.76317  1.0000
  H   H1499     1.0  0.77055  0.69998  0.91537  1.0000
  C   C1878     1.0  0.76161  0.95563  0.92635  1.0000
  H   H1500     1.0  0.78122  0.61323  0.77319  1.0000
  H   H1501     1.0  0.93695  0.76454  0.93561  1.0000
  C   C1879     1.0  0.77360  0.98403  0.90259  1.0000
  P   P62       1.0  0.70622  0.52225  0.77511  1.0000
  C   C1880     1.0  0.72809  0.50494  0.72891  1.0000
  H   H1502     1.0  0.76725  0.55634  0.77379  1.0000
  C   C1881     1.0  0.76231  0.95681  0.90996  1.0000
  C   C1882     1.0  0.73895  0.85787  0.93240  1.0000
  C   C1883     1.0  0.72980  0.84238  0.91839  1.0000
  C   C1884     1.0  0.75048  0.82103  0.91107  1.0000
  C   C1885     1.0  0.78090  0.81670  0.91752  1.0000
  P   P63       1.0  0.74028  0.80274  0.89237  1.0000
  C   C1886     1.0  0.69785  0.80121  0.88923  1.0000
  C   C1887     1.0  0.75999  0.82683  0.87800  1.0000
  C   C1888     1.0  0.78912  0.81751  0.87169  1.0000
  C   C1889     1.0  0.80587  0.83768  0.86174  1.0000
  C   C1890     1.0  0.79358  0.86723  0.85797  1.0000
  C   C1891     1.0  0.76452  0.87661  0.86413  1.0000
  C   C1892     1.0  0.74795  0.85673  0.87429  1.0000
  C   C1893     1.0  0.67794  0.79118  0.90138  1.0000
  C   C1894     1.0  0.64505  0.78920  0.89897  1.0000
  C   C1895     1.0  0.63188  0.79678  0.88436  1.0000
  C   C1896     1.0  0.65163  0.80606  0.87210  1.0000
  C   C1897     1.0  0.68454  0.80802  0.87447  1.0000
  C   C1898     1.0  0.75245  0.76188  0.89158  1.0000
  C   C1899     1.0  0.75726  0.74478  0.90545  1.0000
  C   C1900     1.0  0.92400  0.59434  0.65131  1.0000
  H   H1503     1.0  0.73146  0.53300  0.90635  1.0000
  C   C1901     1.0  0.70345  0.97149  0.79237  1.0000
  C   C1902     1.0  0.75528  0.74629  0.87698  1.0000
  C   C1903     1.0  0.74848  0.57367  0.77411  1.0000
  C   C1904     1.0  0.58054  0.60348  0.65008  1.0000
  H   H1504     1.0  0.72304  0.87437  0.93804  1.0000
  H   H1505     1.0  0.70690  0.84753  0.91320  1.0000
  H   H1506     1.0  0.88970  0.97855  0.65073  1.0000
  H   H1507     1.0  0.79968  0.79525  0.87492  1.0000
  H   H1508     1.0  0.82896  0.83077  0.85744  1.0000
  H   H1509     1.0  0.80694  0.88329  0.85061  1.0000
  H   H1510     1.0  0.75539  0.89974  0.86136  1.0000
  H   H1511     1.0  0.72615  0.86497  0.87950  1.0000
  H   H1512     1.0  0.68789  0.78478  0.91269  1.0000
  H   H1513     1.0  0.62978  0.78158  0.90841  1.0000
  H   H1514     1.0  0.60639  0.79520  0.88249  1.0000
  H   H1515     1.0  0.64145  0.81156  0.86072  1.0000
  H   H1516     1.0  0.69947  0.81454  0.86472  1.0000
  H   H1517     1.0  0.77630  0.86511  0.94969  1.0000
  H   H1518     1.0  0.68228  0.63680  0.77480  1.0000
  C   C1905     1.0  0.74240  0.50989  0.90628  1.0000
  H   H1519     1.0  0.73332  0.95042  0.80993  1.0000
  H   H1520     1.0  0.75091  0.75881  0.86616  1.0000
  H   H1521     1.0  0.66784  0.58018  0.77547  1.0000
  C   C1906     1.0  0.73265  0.96469  0.79942  1.0000
  C   C1907     1.0  0.76588  0.71293  0.90468  1.0000
  H   H1522     1.0  0.74012  0.95167  0.87167  1.0000
  H   H1523     1.0  0.74399  0.53945  0.80334  1.0000
  C   C1908     1.0  0.96034  0.76504  0.86337  1.0000
  C   C1909     1.0  0.57370  0.54684  0.65300  1.0000
  H   H1524     1.0  0.94439  0.59152  0.85042  1.0000
  H   H1525     1.0  0.57091  0.52641  0.66046  1.0000
  C   C1910     1.0  0.66804  0.51711  0.78439  1.0000
  H   H1526     1.0  0.74403  0.53691  0.74714  1.0000
  C   C1911     1.0  0.72732  0.51815  0.74408  1.0000
  H   H1527     1.0  0.90007  0.57986  0.94987  1.0000
  H   H1528     1.0  0.78539  0.49829  0.95186  1.0000
  P   P64       1.0  0.91159  0.49976  0.64159  1.0000
  H   H1529     1.0  0.75402  0.93415  0.93213  1.0000
  C   C1912     1.0  0.61037  0.51404  0.78255  1.0000
  H   H1530     1.0  0.92153  0.55149  0.66456  1.0000
  C   C1913     1.0  0.70573  0.50659  0.75518  1.0000
  C   C1914     1.0  0.98617  0.77117  0.92941  1.0000
  C   C1915     1.0  0.63673  0.50490  0.80746  1.0000
  C   C1916     1.0  0.71869  0.97943  0.85321  1.0000
  C   C1917     1.0  0.63980  0.51960  0.77555  1.0000
  H   H1531     1.0  0.77264  0.98024  0.94807  1.0000
  H   H1532     1.0  0.75691  0.98767  0.74686  1.0000
  C   C1918     1.0  0.76649  0.50316  0.91710  1.0000
  H   H1533     1.0  0.77500  0.98432  0.88992  1.0000
  C   C1919     1.0  0.95801  0.52714  0.97339  1.0000
  H   H1534     1.0  0.96459  0.49408  0.66393  1.0000
  H   H1535     1.0  0.99130  0.67274  0.94363  1.0000
  H   H1536     1.0  0.76418  0.98770  0.71833  1.0000
  C   C1920     1.0  0.99206  0.92323  0.94331  1.0000
