data_image0
_chemical_formula_structural       H2CFeSCFeSC2HCSFe2SC5SFeS2FeS2CFeSCS2C5HC10HPC3HCHC2HCH2FeSC7HCH2C2HC4H6CH2SH5C2HCHPC3H4FeCHCFeH3C6FeCH3C2H4SCH2C2S2CH4CSH2CSHC6PC4H2C12H7C2H12CHCHSCHC2SFeCSHC2S2CHC3H2C2H2CHC2HCH2CHCHCPC2H2SC2SFeCFeSCHC3HC2H2CHC2HC8H5SFeS2FeHSFe2CS2CHC3FeSC4HC2H2CHC4FeH3C2HC3HC2HC3H3C2H2CHCH3SC3PC4HC11H2SC3H7C3SCHPCH2CH2C4H2C3HSHC5H2C2H2CSCHPHCH3CH5C2HCHCHC3HSH3CHC2H2CHC9HC4H2CSH7SH4CH2CH2C6HC2SH4C2PC4HCH2CH2C3HFeS2FeSFeSCS2CSFeCSC3HS3FeCFeS2CHCSC3H2C2FeHC3H2C3SC2HC7H3C6SH4C3HCH2CSHC4H2CH4CHC4HC2SCHCH6CSCSFeSH2CH2CH6CHCSHCH4C2H4C4PC4HC4HC3HC4HCHCH3CSH3PH2C2H4CHC3HC2H4C3H2CPFeCFeH2PC2HC2H5C4HCH4CFeC4HC4HCSHCHCSHFe2CSC2HCSCSHCHCH2CHCHCH3C2H2CFeHSFeH2C2HCHCFeS2FeSHFeSFeSC3HC9HSH2C4HCHCHCHCSH4C2HC2HC6H4C5H3CHCHC2HCHCHC6PC15H14CH5C3H2C3H3CHC3H2C3HC3H2CPC2HC3HCHC9HC3H2C3H7C5PC7HC2HCPC2PHC2H3C2H6CHCH2SH4CH3CH3C2H3C2H2SC2HCHSC2H2CHC2HCHCH4C4HCH4C2PHC2HC2HC5HSHCH2SFeSCH3CHC4HC2SH4C2HFeSHCFeSFeSC2HC2HSCHCH2CH3C3H2SHC2FeCHCFeHCH2CH2FeH2CH2S2CH2PC2H2CSCHC3H2CPC4HC3HCHC2HC2H6CH2C6HC3FeCH2CHCH2SCH4C2H6SHC4HCHSHC2HC3PC8HC8H3CH2C2H3CHCHC4HC2PCHCHC4HC7H3SFeHC3H2CHC3H3CHCH2CH5FeCSC2H3CHCH2SFeS2C2FeCFeCHCHCHCHC7H5C3H3PH2CFeC2HCHSC4HSCH2C2H3CHCHCHCPH2CSC3HCH5C2H4S2HCHC4HC2PC17H2C2H5C2H3C3PC18H17C2FeC2HC2H2C4HCH2CHCHCHCH3CFeHC2H3CSHCHSH2C4H2CHC2H2C3H2CHC2HSH2C3PCHC3H4CFeS2FeS2FeSFeS3FeH2FeHSFeSCSH2SHSC3HCHC2HC3PCH2C2H2C3H2C6H4C6H4C3H3FePHC5HC2HC2PSC3H3C2SC4HSC2FeHC2H4C4HC7SH2CH5C3HCH3C6PC19H12CH4CHC3H3CHC2HCHCH4C2SHC3H2C3H2CH2CSCHSH2C9H4C3FeHCH4C6PC3HSFeHC3HC2H3CHCFeSC3HCH2CH3CHCSHCHCHC2SC2H6CH4C3HFeCSH4C2SH3C2H2CHC3H4CHC2H4CHC6HCH2C2FeHC2SFeSFeS2Fe2S3C3H2CHC2H4CFeC6H2CSFeCSC2FeSCSCSFeSC3H2C2HCHC6H8CHCHPCHC2H2C3SHCH2CH4CS2HC2H2C2SCPCH3C2HC4HCHCPCSH2C2HCHC2H2C6HC2H2C3SCHFeCHCH4CH3CHC2HC11FeC2H5CH2CHC2SH2PHFeC4PHC6HC8H8CH7C5H4C3H3CH5C3HCHC4PC13HC2HC3H2C2H3CH3CPS2C5SCHCH3CHC3PCHCH3CHFeC5H2CH2C2H2SCHFeC2H2C3HC2H6CHCHS2HC2HC2HSC2SFeS2FeSFeCS3CH2C3SFeSFeS2CFeS3CSC2H2C3H4C2HC5HCHCH3C6H5C2HCHCHCH2C2H3C6PC18H20CHC2HCH2C4HC2HCHC2H4CHCHC7PC18H20SC6PC16H7C2HCSC2H5CSC2H4SCH2C3HC2HCSHFeC3H4FeH2C5HC3HC2PHFeHC3SCSC3SCFeCHCH3CFeH7C2FeCH4C2H2CHCHPHSH2CHSCHCH2C3HCSPHC2HCHC2HFeH5C4H2C2HCH2C4HCHCH2CHCH2CPC3HC2HC2H2C2HCH4CHCH2C2H2CHFeC5H5C2HC2SH3C4HSH3CHC2SC5H2CH2CHC2H3CH3CH5CHCHCPC4H2C2HC2H2C3
_chemical_formula_sum              "H1152 C1440 Fe96 S192 P48"
_cell_length_a       44.5289
_cell_length_b       44.7514
_cell_length_c       51.7465
_cell_angle_alpha    90.1981
_cell_angle_beta     89.964
_cell_angle_gamma    119.832

_space_group_name_H-M_alt    "P 1"
_space_group_IT_number       1

loop_
  _space_group_symop_operation_xyz
  'x, y, z'

loop_
  _atom_site_type_symbol
  _atom_site_label
  _atom_site_symmetry_multiplicity
  _atom_site_fract_x
  _atom_site_fract_y
  _atom_site_fract_z
  _atom_site_occupancy
  H   H1        1.0  0.51462  0.21038  0.16017  1.0000
  H   H2        1.0  0.44083  0.51103  0.13190  1.0000
  C   C1        1.0  0.32864  0.49119  0.20414  1.0000
  Fe  Fe1       1.0  0.45318  0.47323  0.26697  1.0000
  S   S1        1.0  0.39715  0.43257  0.26881  1.0000
  C   C2        1.0  0.02006  0.50247  0.05130  1.0000
  Fe  Fe2       1.0  0.39052  0.46017  0.23474  1.0000
  S   S2        1.0  0.36062  0.43160  0.19824  1.0000
  C   C3        1.0  0.43383  0.29154  0.08122  1.0000
  C   C4        1.0  0.49152  0.12420  0.09291  1.0000
  H   H3        1.0  0.44350  0.36521  0.10775  1.0000
  C   C5        1.0  0.05467  0.42092  0.09785  1.0000
  S   S3        1.0  0.49032  0.17345  0.26080  1.0000
  Fe  Fe3       1.0  0.49967  0.29158  0.26319  1.0000
  Fe  Fe4       1.0  0.09689  0.47877  0.17666  1.0000
  S   S4        1.0  0.45792  0.30595  0.26494  1.0000
  C   C6        1.0  0.05670  0.40814  0.07341  1.0000
  C   C7        1.0  0.07752  0.35122  0.13962  1.0000
  C   C8        1.0  0.45080  0.34683  0.10091  1.0000
  C   C9        1.0  0.03179  0.35765  0.23210  1.0000
  C   C10       1.0  0.09718  0.35216  0.05275  1.0000
  S   S5        1.0  0.50274  0.25890  0.23133  1.0000
  Fe  Fe5       1.0  0.39417  0.38507  0.01669  1.0000
  S   S6        1.0  0.43029  0.44202  0.01625  1.0000
  S   S7        1.0  0.41177  0.34624  0.01866  1.0000
  Fe  Fe6       1.0  0.33096  0.39260  0.01592  1.0000
  S   S8        1.0  0.36232  0.45026  0.01547  1.0000
  S   S9        1.0  0.27298  0.36715  0.01638  1.0000
  C   C11       1.0  0.49911  0.37808  0.19645  1.0000
  Fe  Fe7       1.0  0.39441  0.44392  0.04628  1.0000
  S   S10       1.0  0.41590  0.47801  0.08242  1.0000
  C   C12       1.0  0.06687  0.45608  0.10142  1.0000
  S   S11       1.0  0.36072  0.38665  0.04851  1.0000
  S   S12       1.0  0.36086  0.38481  0.98419  1.0000
  C   C13       1.0  0.08587  0.35749  0.00024  1.0000
  C   C14       1.0  0.50471  0.37582  0.26913  1.0000
  C   C15       1.0  0.08085  0.46594  0.05598  1.0000
  C   C16       1.0  0.49840  0.38709  0.17067  1.0000
  C   C17       1.0  0.50995  0.15834  0.08407  1.0000
  H   H4        1.0  0.48880  0.32855  0.97697  1.0000
  C   C18       1.0  0.28363  0.46860  0.28471  1.0000
  C   C19       1.0  0.45657  0.36351  0.01571  1.0000
  C   C20       1.0  0.47136  0.34534  0.02646  1.0000
  C   C21       1.0  0.45617  0.10400  0.08694  1.0000
  C   C22       1.0  0.44463  0.27770  0.17157  1.0000
  C   C23       1.0  0.05032  0.31989  0.14837  1.0000
  C   C24       1.0  0.47745  0.39411  0.00226  1.0000
  C   C25       1.0  0.26668  0.46201  0.21087  1.0000
  C   C26       1.0  0.15952  0.46656  0.07948  1.0000
  C   C27       1.0  0.04595  0.34549  0.09989  1.0000
  H   H5        1.0  0.46604  0.40796  0.99344  1.0000
  P   P1        1.0  0.04318  0.36300  0.06911  1.0000
  C   C28       1.0  0.50238  0.15972  0.28862  1.0000
  C   C29       1.0  0.25966  0.38149  0.98964  1.0000
  C   C30       1.0  0.05738  0.39223  0.23407  1.0000
  H   H6        1.0  0.05194  0.31025  0.16719  1.0000
  C   C31       1.0  0.22681  0.37848  0.98924  1.0000
  H   H7        1.0  0.20928  0.36646  0.00526  1.0000
  C   C32       1.0  0.06938  0.43092  0.05242  1.0000
  C   C33       1.0  0.14295  0.45199  0.27892  1.0000
  H   H8        1.0  0.30008  0.47160  0.26833  1.0000
  C   C34       1.0  0.48792  0.03757  0.12547  1.0000
  H   H9        1.0  0.35158  0.49073  0.19772  1.0000
  H   H10       1.0  0.04356  0.40472  0.16668  1.0000
  Fe  Fe8       1.0  0.39182  0.46983  0.29523  1.0000
  S   S13       1.0  0.12904  0.50515  0.21168  1.0000
  C   C35       1.0  0.47478  0.12175  0.18049  1.0000
  C   C36       1.0  0.37549  0.44598  0.16609  1.0000
  C   C37       1.0  0.40558  0.47735  0.16106  1.0000
  C   C38       1.0  0.25013  0.44037  0.28584  1.0000
  C   C39       1.0  0.39932  0.46531  0.11438  1.0000
  C   C40       1.0  0.36883  0.43436  0.11935  1.0000
  C   C41       1.0  0.35684  0.42505  0.14496  1.0000
  H   H11       1.0  0.06634  0.46588  0.12050  1.0000
  C   C42       1.0  0.46753  0.29747  0.08435  1.0000
  H   H12       1.0  0.35430  0.41766  0.10344  1.0000
  H   H13       1.0  0.33294  0.40142  0.14836  1.0000
  C   C43       1.0  0.48685  0.41908  0.27042  1.0000
  C   C44       1.0  0.51310  0.41051  0.27001  1.0000
  H   H14       1.0  0.24058  0.42156  0.27031  1.0000
  C   C45       1.0  0.47003  0.34962  0.26828  1.0000
  C   C46       1.0  0.44394  0.35824  0.26951  1.0000
  C   C47       1.0  0.45235  0.39279  0.27082  1.0000
  C   C48       1.0  0.49387  0.06112  0.10551  1.0000
  H   H15       1.0  0.47394  0.27834  0.07775  1.0000
  H   H16       1.0  0.07840  0.49551  0.28141  1.0000
  H   H17       1.0  0.43198  0.39887  0.27156  1.0000
  H   H18       1.0  0.48247  0.39801  0.16536  1.0000
  H   H19       1.0  0.45517  0.32131  0.03611  1.0000
  H   H20       1.0  0.29446  0.43748  0.19601  1.0000
  C   C49       1.0  0.49312  0.32829  0.09539  1.0000
  H   H21       1.0  0.44133  0.07780  0.09391  1.0000
  H   H22       1.0  0.12952  0.35016  0.99347  1.0000
  S   S14       1.0  0.49765  0.46263  0.26993  1.0000
  H   H23       1.0  0.04466  0.36573  0.01246  1.0000
  H   H24       1.0  0.45449  0.12687  0.18663  1.0000
  H   H25       1.0  0.50956  0.19604  0.20677  1.0000
  H   H26       1.0  0.22501  0.46394  0.05763  1.0000
  H   H27       1.0  0.21122  0.42986  0.01707  1.0000
  C   C50       1.0  0.06491  0.36081  0.01881  1.0000
  C   C51       1.0  0.11282  0.35201  0.00789  1.0000
  H   H28       1.0  0.08244  0.40087  0.22535  1.0000
  C   C52       1.0  0.14530  0.43391  0.30030  1.0000
  H   H29       1.0  0.05116  0.34567  0.30090  1.0000
  P   P2        1.0  0.51288  0.10676  0.11226  1.0000
  C   C53       1.0  0.48583  0.04887  0.07997  1.0000
  C   C54       1.0  0.49340  0.17179  0.06906  1.0000
  C   C55       1.0  0.06491  0.50060  0.26618  1.0000
  H   H30       1.0  0.49715  0.26095  0.13102  1.0000
  H   H31       1.0  0.10031  0.36592  0.15156  1.0000
  H   H32       1.0  0.46053  0.26619  0.16750  1.0000
  H   H33       1.0  0.41245  0.10195  0.06734  1.0000
  Fe  Fe9       1.0  0.14628  0.46613  0.20966  1.0000
  C   C56       1.0  0.41735  0.48693  0.13541  1.0000
  H   H34       1.0  0.13517  0.49371  0.26733  1.0000
  C   C57       1.0  0.05069  0.41573  0.24710  1.0000
  Fe  Fe10      1.0  0.39437  0.44222  0.98541  1.0000
  H   H35       1.0  0.03694  0.33975  0.22154  1.0000
  H   H36       1.0  0.48475  0.40986  0.07611  1.0000
  H   H37       1.0  0.47236  0.45720  0.06991  1.0000
  C   C58       1.0  0.08023  0.47863  0.08055  1.0000
  C   C59       1.0  0.07543  0.36387  0.11545  1.0000
  C   C60       1.0  0.16632  0.50025  0.07516  1.0000
  C   C61       1.0  0.13729  0.47966  0.28349  1.0000
  C   C62       1.0  0.45832  0.15149  0.06301  1.0000
  C   C63       1.0  0.26933  0.49275  0.21988  1.0000
  Fe  Fe11      1.0  0.15369  0.47305  0.14899  1.0000
  C   C64       1.0  0.15311  0.45625  0.03264  1.0000
  H   H38       1.0  0.42005  0.49406  0.17695  1.0000
  H   H39       1.0  0.24585  0.49299  0.22492  1.0000
  H   H40       1.0  0.39961  0.31213  0.08638  1.0000
  C   C65       1.0  0.22608  0.45773  0.01640  1.0000
  C   C66       1.0  0.42552  0.31633  0.08937  1.0000
  H   H41       1.0  0.09064  0.50600  0.08349  1.0000
  H   H42       1.0  0.13969  0.34556  0.04004  1.0000
  H   H43       1.0  0.41709  0.33816  0.26912  1.0000
  H   H44       1.0  0.07098  0.44241  0.24833  1.0000
  S   S15       1.0  0.16062  0.45095  0.11097  1.0000
  C   C67       1.0  0.44361  0.28906  0.19651  1.0000
  H   H45       1.0  0.07152  0.42218  0.03339  1.0000
  H   H46       1.0  0.45891  0.28665  0.21173  1.0000
  C   C68       1.0  0.07032  0.35819  0.04526  1.0000
  C   C69       1.0  0.23402  0.47693  0.03924  1.0000
  S   S16       1.0  0.14896  0.44020  0.24712  1.0000
  S   S17       1.0  0.11132  0.43745  0.17605  1.0000
  C   C70       1.0  0.29636  0.46119  0.20313  1.0000
  H   H47       1.0  0.10250  0.35049  0.07290  1.0000
  H   H48       1.0  0.09172  0.48346  0.03981  1.0000
  H   H49       1.0  0.14851  0.41905  0.06109  1.0000
  H   H50       1.0  0.14796  0.43900  0.01649  1.0000
  C   C71       1.0  0.11846  0.34934  0.03412  1.0000
  S   S18       1.0  0.44830  0.50921  0.29487  1.0000
  H   H51       1.0  0.29480  0.46573  0.97917  1.0000
  H   H52       1.0  0.09672  0.38826  0.10899  1.0000
  C   C72       1.0  0.15303  0.44479  0.05804  1.0000
  S   S19       1.0  0.16104  0.50584  0.99645  1.0000
  H   H53       1.0  0.48427  0.38250  0.21103  1.0000
  C   C73       1.0  0.45088  0.42892  0.19944  1.0000
  C   C74       1.0  0.45384  0.44270  0.17480  1.0000
  C   C75       1.0  0.43436  0.42139  0.15432  1.0000
  C   C76       1.0  0.41108  0.38652  0.15865  1.0000
  C   C77       1.0  0.40689  0.37290  0.18362  1.0000
  C   C78       1.0  0.42761  0.39411  0.20379  1.0000
  P   P3        1.0  0.37799  0.32775  0.18926  1.0000
  C   C79       1.0  0.34012  0.31233  0.16910  1.0000
  C   C80       1.0  0.40321  0.30724  0.18236  1.0000
  C   C81       1.0  0.40516  0.29673  0.15711  1.0000
  C   C82       1.0  0.42549  0.28160  0.15187  1.0000
  H   H54       1.0  0.24152  0.43896  0.20950  1.0000
  H   H55       1.0  0.48788  0.10962  0.27308  1.0000
  C   C83       1.0  0.42336  0.30419  0.20182  1.0000
  C   C84       1.0  0.32336  0.27853  0.15936  1.0000
  C   C85       1.0  0.29412  0.26703  0.14357  1.0000
  C   C86       1.0  0.28108  0.28895  0.13788  1.0000
  C   C87       1.0  0.29691  0.32218  0.14834  1.0000
  C   C88       1.0  0.32611  0.33371  0.16412  1.0000
  C   C89       1.0  0.36172  0.32095  0.22197  1.0000
  C   C90       1.0  0.35380  0.34465  0.23353  1.0000
  C   C91       1.0  0.34093  0.33943  0.25876  1.0000
  C   C92       1.0  0.33550  0.31036  0.27254  1.0000
  C   C93       1.0  0.34249  0.28622  0.26094  1.0000
  C   C94       1.0  0.35515  0.29124  0.23564  1.0000
  H   H56       1.0  0.46640  0.44523  0.21528  1.0000
  H   H57       1.0  0.47090  0.46996  0.17168  1.0000
  H   H58       1.0  0.43662  0.43204  0.13518  1.0000
  H   H59       1.0  0.39603  0.37049  0.14259  1.0000
  H   H60       1.0  0.42572  0.38378  0.22290  1.0000
  H   H61       1.0  0.39124  0.30043  0.14146  1.0000
  H   H62       1.0  0.42666  0.27304  0.13254  1.0000
  C   C95       1.0  0.16053  0.49010  0.02822  1.0000
  C   C96       1.0  0.49842  0.12669  0.28955  1.0000
  H   H63       1.0  0.42386  0.31389  0.22108  1.0000
  H   H64       1.0  0.33277  0.26105  0.16397  1.0000
  H   H65       1.0  0.28153  0.24111  0.13576  1.0000
  H   H66       1.0  0.25859  0.28018  0.12551  1.0000
  H   H67       1.0  0.28657  0.33906  0.14422  1.0000
  H   H68       1.0  0.33781  0.35933  0.17248  1.0000
  H   H69       1.0  0.35758  0.36725  0.22307  1.0000
  H   H70       1.0  0.33509  0.35797  0.26758  1.0000
  H   H71       1.0  0.32568  0.30646  0.29213  1.0000
  H   H72       1.0  0.33818  0.26360  0.27156  1.0000
  H   H73       1.0  0.35990  0.27198  0.22688  1.0000
  H   H74       1.0  0.41438  0.26811  0.07194  1.0000
  C   C97       1.0  0.32056  0.48620  0.98394  1.0000
  H   H75       1.0  0.46366  0.12160  0.14024  1.0000
  C   C98       1.0  0.03112  0.47562  0.25899  1.0000
  H   H76       1.0  0.49170  0.12105  0.21941  1.0000
  S   S20       1.0  0.04213  0.46859  0.17278  1.0000
  C   C99       1.0  0.51300  0.40578  0.99914  1.0000
  H   H77       1.0  0.08152  0.35968  0.97987  1.0000
  C   C100      1.0  0.48028  0.11897  0.15416  1.0000
  C   C101      1.0  0.50853  0.42764  0.11387  1.0000
  S   S21       1.0  0.44691  0.49847  0.23161  1.0000
  Fe  Fe12      1.0  0.51151  0.23053  0.26333  1.0000
  C   C102      1.0  0.49571  0.11839  0.19902  1.0000
  S   S22       1.0  0.19093  0.49685  0.18252  1.0000
  H   H78       1.0  0.44567  0.16215  0.05141  1.0000
  C   C103      1.0  0.43968  0.11762  0.07199  1.0000
  C   C104      1.0  0.48506  0.35353  0.10330  1.0000
  S   S23       1.0  0.50141  0.25871  0.29504  1.0000
  S   S24       1.0  0.37836  0.49290  0.26132  1.0000
  C   C105      1.0  0.25551  0.51048  0.99173  1.0000
  H   H79       1.0  0.49458  0.04596  0.14528  1.0000
  C   C106      1.0  0.32745  0.50053  0.00871  1.0000
  C   C107      1.0  0.23619  0.47457  0.99264  1.0000
  C   C108      1.0  0.50684  0.35765  0.02431  1.0000
  H   H80       1.0  0.04425  0.40403  0.11435  1.0000
  H   H81       1.0  0.49077  0.06644  0.06410  1.0000
  C   C109      1.0  0.50686  0.11275  0.14615  1.0000
  C   C110      1.0  0.48595  0.45660  0.08713  1.0000
  H   H82       1.0  0.50783  0.19808  0.06213  1.0000
  H   H83       1.0  0.49140  0.50382  0.10236  1.0000
  C   C111      1.0  0.47220  0.01384  0.07453  1.0000
  H   H84       1.0  0.51800  0.34398  0.03364  1.0000
  C   C112      1.0  0.05414  0.51132  0.00411  1.0000
  C   C113      1.0  0.49239  0.42941  0.09103  1.0000
  H   H85       1.0  0.48359  0.50467  0.98874  1.0000
  C   C114      1.0  0.49687  0.48302  0.10540  1.0000
  H   H86       1.0  0.22905  0.45986  0.97484  1.0000
  H   H87       1.0  0.30702  0.49072  0.02303  1.0000
  C   C115      1.0  0.02065  0.48359  0.00751  1.0000
  H   H88       1.0  0.14896  0.41207  0.29705  1.0000
  C   C116      1.0  0.51814  0.38182  0.15198  1.0000
  H   H89       1.0  0.51906  0.33229  0.09768  1.0000
  C   C117      1.0  0.51857  0.36272  0.20346  1.0000
  P   P4        1.0  0.51741  0.39279  0.11859  1.0000
  C   C118      1.0  0.51468  0.48249  0.12747  1.0000
  C   C119      1.0  0.02112  0.30107  0.13281  1.0000
  H   H90       1.0  0.51906  0.03994  0.99096  1.0000
  H   H91       1.0  0.51851  0.35490  0.22322  1.0000
  S   S25       1.0  0.36104  0.45146  0.33312  1.0000
  C   C120      1.0  0.29602  0.38579  0.60276  1.0000
  C   C121      1.0  0.48416  0.32405  0.57987  1.0000
  S   S26       1.0  0.11159  0.40163  0.39751  1.0000
  Fe  Fe13      1.0  0.07549  0.39844  0.42899  1.0000
  C   C122      1.0  0.24110  0.46084  0.32693  1.0000
  Fe  Fe14      1.0  0.14836  0.41119  0.43010  1.0000
  S   S27       1.0  0.18082  0.38595  0.42957  1.0000
  C   C123      1.0  0.49891  0.50342  0.55865  1.0000
  H   H92       1.0  0.51434  0.19412  0.43388  1.0000
  C   C124      1.0  0.27489  0.48906  0.32610  1.0000
  C   C125      1.0  0.20444  0.39586  0.45834  1.0000
  C   C126      1.0  0.19869  0.41404  0.47794  1.0000
  H   H93       1.0  0.17927  0.42151  0.47561  1.0000
  C   C127      1.0  0.47317  0.08534  0.61864  1.0000
  C   C128      1.0  0.13932  0.45796  0.58038  1.0000
  H   H94       1.0  0.42679  0.33167  0.37756  1.0000
  H   H95       1.0  0.46608  0.29979  0.31821  1.0000
  C   C129      1.0  0.51073  0.35195  0.59303  1.0000
  H   H96       1.0  0.15140  0.42141  0.56313  1.0000
  C   C130      1.0  0.04042  0.42112  0.31740  1.0000
  C   C131      1.0  0.49797  0.34802  0.33779  1.0000
  H   H97       1.0  0.38656  0.40251  0.33175  1.0000
  C   C132      1.0  0.17326  0.37581  0.58704  1.0000
  C   C133      1.0  0.37654  0.46387  0.36547  1.0000
  C   C134      1.0  0.50830  0.11579  0.31175  1.0000
  C   C135      1.0  0.48096  0.44615  0.33433  1.0000
  C   C136      1.0  0.39859  0.48529  0.41735  1.0000
  C   C137      1.0  0.36384  0.46157  0.41195  1.0000
  C   C138      1.0  0.35294  0.45105  0.38620  1.0000
  C   C139      1.0  0.02677  0.44122  0.30788  1.0000
  H   H98       1.0  0.43012  0.49620  0.35545  1.0000
  H   H99       1.0  0.34518  0.45204  0.42752  1.0000
  H   H100      1.0  0.32591  0.43325  0.38227  1.0000
  H   H101      1.0  0.04480  0.50437  0.55192  1.0000
  H   H102      1.0  0.14648  0.43634  0.51789  1.0000
  S   S28       1.0  0.11002  0.40169  0.46150  1.0000
  Fe  Fe15      1.0  0.37648  0.41399  0.51820  1.0000
  S   S29       1.0  0.42040  0.46816  0.51579  1.0000
  S   S30       1.0  0.38412  0.36774  0.51855  1.0000
  Fe  Fe16      1.0  0.32461  0.43880  0.52165  1.0000
  H   H103      1.0  0.50800  0.23635  0.39782  1.0000
  S   S31       1.0  0.27128  0.42890  0.53068  1.0000
  Fe  Fe17      1.0  0.38724  0.47600  0.48696  1.0000
  Fe  Fe18      1.0  0.39352  0.47949  0.54788  1.0000
  C   C140      1.0  0.12791  0.49198  0.54929  1.0000
  S   S32       1.0  0.34426  0.42119  0.48813  1.0000
  S   S33       1.0  0.35155  0.42491  0.55169  1.0000
  C   C141      1.0  0.50372  0.08628  0.53848  1.0000
  H   H104      1.0  0.42334  0.29328  0.62714  1.0000
  C   C142      1.0  0.48736  0.48669  0.44371  1.0000
  C   C143      1.0  0.22491  0.34552  0.59424  1.0000
  C   C144      1.0  0.47190  0.43231  0.59197  1.0000
  Fe  Fe19      1.0  0.13243  0.45848  0.39916  1.0000
  S   S34       1.0  0.14145  0.48953  0.36212  1.0000
  C   C145      1.0  0.26024  0.50373  0.42680  1.0000
  C   C146      1.0  0.42751  0.37748  0.51676  1.0000
  C   C147      1.0  0.43527  0.35126  0.51188  1.0000
  C   C148      1.0  0.46991  0.35892  0.51060  1.0000
  H   H105      1.0  0.04506  0.38470  0.48219  1.0000
  C   C149      1.0  0.48897  0.41903  0.51830  1.0000
  C   C150      1.0  0.45452  0.41111  0.52063  1.0000
  H   H106      1.0  0.41454  0.32505  0.50912  1.0000
  H   H107      1.0  0.47565  0.33861  0.50679  1.0000
  C   C151      1.0  0.04156  0.47290  0.34849  1.0000
  H   H108      1.0  0.44911  0.43091  0.52633  1.0000
  C   C152      1.0  0.23021  0.38694  0.46131  1.0000
  C   C153      1.0  0.25067  0.39681  0.48369  1.0000
  C   C154      1.0  0.24506  0.41521  0.50317  1.0000
  C   C155      1.0  0.21875  0.42341  0.50046  1.0000
  Fe  Fe20      1.0  0.13017  0.45852  0.45980  1.0000
  H   H109      1.0  0.27047  0.38983  0.48597  1.0000
  H   H110      1.0  0.21447  0.43783  0.51540  1.0000
  H   H111      1.0  0.43325  0.03644  0.50086  1.0000
  C   C156      1.0  0.27283  0.45945  0.41295  1.0000
  C   C157      1.0  0.43221  0.29420  0.43636  1.0000
  H   H112      1.0  0.28597  0.42676  0.61224  1.0000
  C   C158      1.0  0.36958  0.46927  0.62035  1.0000
  C   C159      1.0  0.50718  0.34396  0.38342  1.0000
  C   C160      1.0  0.51614  0.18177  0.30994  1.0000
  H   H113      1.0  0.35183  0.46314  0.60438  1.0000
  C   C161      1.0  0.49678  0.39295  0.51344  1.0000
  C   C162      1.0  0.44770  0.31015  0.61769  1.0000
  H   H114      1.0  0.35591  0.50707  0.57530  1.0000
  C   C163      1.0  0.03809  0.38400  0.50229  1.0000
  C   C164      1.0  0.24652  0.33158  0.59018  1.0000
  C   C165      1.0  0.51773  0.25473  0.63249  1.0000
  H   H115      1.0  0.29893  0.34109  0.59105  1.0000
  H   H116      1.0  0.06498  0.45640  0.37732  1.0000
  H   H117      1.0  0.06061  0.44554  0.58045  1.0000
  C   C166      1.0  0.05349  0.34040  0.34210  1.0000
  C   C167      1.0  0.41123  0.34272  0.34152  1.0000
  H   H118      1.0  0.20346  0.37783  0.55352  1.0000
  H   H119      1.0  0.48029  0.39810  0.33382  1.0000
  C   C168      1.0  0.17783  0.36997  0.56098  1.0000
  H   H120      1.0  0.09482  0.33526  0.53975  1.0000
  C   C169      1.0  0.47429  0.03384  0.63100  1.0000
  H   H121      1.0  0.23706  0.49992  0.55588  1.0000
  H   H122      1.0  0.47673  0.11046  0.62359  1.0000
  H   H123      1.0  0.45655  0.26440  0.35723  1.0000
  S   S35       1.0  0.09330  0.45480  0.42846  1.0000
  C   C170      1.0  0.46884  0.36596  0.44068  1.0000
  C   C171      1.0  0.43589  0.34965  0.42910  1.0000
  C   C172      1.0  0.41762  0.31353  0.42716  1.0000
  P   P5        1.0  0.41676  0.37449  0.41705  1.0000
  C   C173      1.0  0.37507  0.35985  0.43242  1.0000
  C   C174      1.0  0.44360  0.41878  0.42697  1.0000
  C   C175      1.0  0.44540  0.42736  0.45325  1.0000
  C   C176      1.0  0.46771  0.46105  0.46158  1.0000
  H   H124      1.0  0.49110  0.13127  0.42804  1.0000
  C   C177      1.0  0.05383  0.42642  0.34247  1.0000
  C   C178      1.0  0.46430  0.44447  0.40918  1.0000
  C   C179      1.0  0.36572  0.33887  0.45448  1.0000
  C   C180      1.0  0.33386  0.32808  0.46657  1.0000
  C   C181      1.0  0.31127  0.33865  0.45715  1.0000
  C   C182      1.0  0.32060  0.36017  0.43565  1.0000
  C   C183      1.0  0.35237  0.37090  0.42345  1.0000
  C   C184      1.0  0.41177  0.37081  0.38210  1.0000
  C   C185      1.0  0.39489  0.38675  0.34195  1.0000
  C   C186      1.0  0.40153  0.39144  0.36848  1.0000
  C   C187      1.0  0.45269  0.30307  0.59221  1.0000
  H   H125      1.0  0.48331  0.39357  0.44318  1.0000
  H   H126      1.0  0.42988  0.40789  0.46735  1.0000
  S   S36       1.0  0.41320  0.50267  0.44902  1.0000
  C   C188      1.0  0.40935  0.40724  0.59241  1.0000
  C   C189      1.0  0.06679  0.36486  0.63376  1.0000
  C   C190      1.0  0.03238  0.40976  0.51221  1.0000
  H   H127      1.0  0.38333  0.33168  0.46311  1.0000
  H   H128      1.0  0.32737  0.31266  0.48396  1.0000
  H   H129      1.0  0.28703  0.33104  0.46698  1.0000
  H   H130      1.0  0.30358  0.36928  0.42880  1.0000
  H   H131      1.0  0.35911  0.38848  0.40753  1.0000
  H   H132      1.0  0.19733  0.32929  0.59126  1.0000
  H   H133      1.0  0.39911  0.41162  0.37813  1.0000
  C   C191      1.0  0.47869  0.06612  0.63734  1.0000
  C   C192      1.0  0.27914  0.47280  0.38789  1.0000
  C   C193      1.0  0.14962  0.35528  0.54406  1.0000
  S   S37       1.0  0.36556  0.49451  0.51886  1.0000
  C   C194      1.0  0.40521  0.48951  0.61602  1.0000
  H   H134      1.0  0.12739  0.49728  0.59096  1.0000
  P   P6        1.0  0.21053  0.39740  0.60811  1.0000
  C   C195      1.0  0.23886  0.38007  0.60201  1.0000
  H   H135      1.0  0.15370  0.35197  0.52381  1.0000
  H   H136      1.0  0.06595  0.40667  0.61461  1.0000
  C   C196      1.0  0.27461  0.40013  0.60628  1.0000
  H   H137      1.0  0.43155  0.34933  0.57025  1.0000
  H   H138      1.0  0.37987  0.35509  0.57833  1.0000
  C   C197      1.0  0.47161  0.29224  0.35852  1.0000
  C   C198      1.0  0.41742  0.34697  0.36817  1.0000
  C   C199      1.0  0.23260  0.44324  0.60163  1.0000
  C   C200      1.0  0.13611  0.49030  0.30903  1.0000
  H   H139      1.0  0.27504  0.43694  0.41733  1.0000
  H   H140      1.0  0.23467  0.37290  0.44615  1.0000
  C   C201      1.0  0.14454  0.44092  0.55945  1.0000
  C   C202      1.0  0.22815  0.45565  0.57789  1.0000
  C   C203      1.0  0.46514  0.31072  0.44760  1.0000
  H   H141      1.0  0.41806  0.26637  0.43476  1.0000
  S   S38       1.0  0.13245  0.48875  0.49622  1.0000
  H   H142      1.0  0.39203  0.30037  0.41857  1.0000
  C   C204      1.0  0.04258  0.44766  0.59330  1.0000
  C   C205      1.0  0.48341  0.34657  0.44975  1.0000
  C   C206      1.0  0.11651  0.34590  0.55304  1.0000
  C   C207      1.0  0.26362  0.47505  0.43243  1.0000
  C   C208      1.0  0.45948  0.04006  0.58688  1.0000
  H   H143      1.0  0.51418  0.20322  0.55398  1.0000
  H   H144      1.0  0.21400  0.43832  0.56227  1.0000
  C   C209      1.0  0.51879  0.14859  0.42905  1.0000
  C   C210      1.0  0.43459  0.37301  0.57838  1.0000
  H   H145      1.0  0.45864  0.43702  0.32176  1.0000
  H   H146      1.0  0.48978  0.39821  0.57780  1.0000
  C   C211      1.0  0.44240  0.43495  0.59718  1.0000
  S   S39       1.0  0.17185  0.46874  0.43040  1.0000
  C   C212      1.0  0.47142  0.05825  0.53154  1.0000
  H   H147      1.0  0.47659  0.29579  0.45460  1.0000
  P   P7        1.0  0.44752  0.02364  0.55422  1.0000
  H   H148      1.0  0.06480  0.41122  0.34970  1.0000
  C   C213      1.0  0.46774  0.40099  0.58265  1.0000
  H   H149      1.0  0.39462  0.35893  0.30791  1.0000
  H   H150      1.0  0.04145  0.40190  0.30540  1.0000
  H   H151      1.0  0.08052  0.34721  0.34208  1.0000
  C   C214      1.0  0.25232  0.46700  0.62103  1.0000
  H   H152      1.0  0.41572  0.32439  0.33086  1.0000
  H   H153      1.0  0.46514  0.08497  0.47103  1.0000
  H   H154      1.0  0.08609  0.34473  0.58577  1.0000
  H   H155      1.0  0.04803  0.33371  0.38343  1.0000
  H   H156      1.0  0.39469  0.03462  0.58032  1.0000
  C   C215      1.0  0.05185  0.47968  0.60432  1.0000
  C   C216      1.0  0.28209  0.35175  0.59440  1.0000
  H   H157      1.0  0.46955  0.46735  0.48189  1.0000
  C   C217      1.0  0.14380  0.44432  0.32587  1.0000
  H   H158      1.0  0.03781  0.50707  0.63164  1.0000
  C   C218      1.0  0.05183  0.37918  0.61795  1.0000
  H   H159      1.0  0.04257  0.49327  0.36048  1.0000
  C   C219      1.0  0.11160  0.35116  0.57900  1.0000
  C   C220      1.0  0.40542  0.37626  0.58292  1.0000
  C   C221      1.0  0.50592  0.35906  0.61853  1.0000
  H   H160      1.0  0.22408  0.45771  0.34295  1.0000
  S   S40       1.0  0.14365  0.44641  0.61258  1.0000
  H   H161      1.0  0.13575  0.37123  0.61570  1.0000
  H   H162      1.0  0.50331  0.36288  0.32028  1.0000
  H   H163      1.0  0.14663  0.43065  0.34203  1.0000
  C   C222      1.0  0.46460  0.02074  0.60594  1.0000
  H   H164      1.0  0.07661  0.50197  0.59979  1.0000
  C   C223      1.0  0.46343  0.07232  0.59354  1.0000
  C   C224      1.0  0.48567  0.47840  0.41753  1.0000
  H   H165      1.0  0.44503  0.45879  0.60441  1.0000
  H   H166      1.0  0.38689  0.41007  0.59578  1.0000
  C   C225      1.0  0.13987  0.36613  0.59597  1.0000
  H   H167      1.0  0.25896  0.46477  0.45185  1.0000
  C   C226      1.0  0.05411  0.45207  0.35806  1.0000
  C   C227      1.0  0.03529  0.33292  0.36538  1.0000
  C   C228      1.0  0.47709  0.31221  0.33650  1.0000
  C   C229      1.0  0.13371  0.47525  0.52839  1.0000
  C   C230      1.0  0.48666  0.30812  0.38195  1.0000
  C   C231      1.0  0.41149  0.48647  0.37101  1.0000
  C   C232      1.0  0.47575  0.08540  0.48996  1.0000
  C   C233      1.0  0.45776  0.05784  0.50697  1.0000
  C   C234      1.0  0.13990  0.47307  0.33039  1.0000
  H   H168      1.0  0.48818  0.31837  0.56025  1.0000
  C   C235      1.0  0.39953  0.36228  0.32850  1.0000
  C   C236      1.0  0.13098  0.48360  0.57512  1.0000
  C   C237      1.0  0.14174  0.44939  0.53366  1.0000
  C   C238      1.0  0.24133  0.49090  0.57415  1.0000
  H   H169      1.0  0.43241  0.28103  0.58210  1.0000
  H   H170      1.0  0.50057  0.49839  0.40370  1.0000
  C   C239      1.0  0.02329  0.50114  0.54010  1.0000
  S   S41       1.0  0.42227  0.50677  0.58489  1.0000
  H   H171      1.0  0.28713  0.46091  0.37316  1.0000
  H   H172      1.0  0.50955  0.44536  0.52083  1.0000
  H   H173      1.0  0.50517  0.09032  0.31237  1.0000
  H   H174      1.0  0.23570  0.30518  0.58364  1.0000
  H   H175      1.0  0.48354  0.29253  0.39880  1.0000
  H   H176      1.0  0.47199  0.48744  0.56375  1.0000
  H   H177      1.0  0.45931  0.08759  0.57927  1.0000
  S   S42       1.0  0.01969  0.35695  0.42899  1.0000
  H   H178      1.0  0.50827  0.02318  0.53268  1.0000
  H   H179      1.0  0.32357  0.40116  0.60613  1.0000
  H   H180      1.0  0.03593  0.43083  0.49989  1.0000
  H   H181      1.0  0.41303  0.34359  0.63149  1.0000
  C   C240      1.0  0.50729  0.11367  0.49742  1.0000
  H   H182      1.0  0.34479  0.50526  0.34324  1.0000
  H   H183      1.0  0.46397  0.43853  0.38893  1.0000
  C   C241      1.0  0.26522  0.50226  0.61731  1.0000
  H   H184      1.0  0.03925  0.33752  0.51033  1.0000
  H   H185      1.0  0.49911  0.22833  0.62765  1.0000
  C   C242      1.0  0.02992  0.48267  0.62210  1.0000
  C   C243      1.0  0.02424  0.35574  0.54395  1.0000
  C   C244      1.0  0.42227  0.49722  0.39670  1.0000
  C   C245      1.0  0.02809  0.46764  0.32344  1.0000
  C   C246      1.0  0.27592  0.50171  0.38212  1.0000
  C   C247      1.0  0.22892  0.43647  0.30695  1.0000
  H   H186      1.0  0.51561  0.08675  0.55685  1.0000
  C   C248      1.0  0.03691  0.33950  0.31894  1.0000
  C   C249      1.0  0.47429  0.33828  0.63105  1.0000
  S   S43       1.0  0.51354  0.30379  0.51170  1.0000
  H   H187      1.0  0.51769  0.20696  0.50614  1.0000
  H   H188      1.0  0.02744  0.42141  0.44827  1.0000
  H   H189      1.0  0.48910  0.49766  0.33622  1.0000
  H   H190      1.0  0.50877  0.35936  0.45881  1.0000
  C   C250      1.0  0.03440  0.35721  0.51818  1.0000
  C   C251      1.0  0.49839  0.48053  0.34226  1.0000
  P   P8        1.0  0.51434  0.46929  0.59722  1.0000
  C   C252      1.0  0.51373  0.48921  0.62752  1.0000
  C   C253      1.0  0.49343  0.42410  0.34123  1.0000
  C   C254      1.0  0.38243  0.01610  0.56489  1.0000
  C   C255      1.0  0.02157  0.40801  0.53778  1.0000
  H   H191      1.0  0.51937  0.35525  0.40167  1.0000
  C   C256      1.0  0.51308  0.36431  0.36127  1.0000
  H   H192      1.0  0.51946  0.20734  0.30935  1.0000
  H   H193      1.0  0.02106  0.33457  0.55590  1.0000
  C   C257      1.0  0.29586  0.49302  0.30465  1.0000
  H   H194      1.0  0.20295  0.41459  0.30780  1.0000
  H   H195      1.0  0.37402  0.36734  0.63728  1.0000
  C   C258      1.0  0.42779  0.49766  0.63717  1.0000
  C   C259      1.0  0.12538  0.32043  0.85037  1.0000
  C   C260      1.0  0.51001  0.37380  0.67915  1.0000
  H   H196      1.0  0.51832  0.48304  0.79797  1.0000
  Fe  Fe21      1.0  0.45280  0.45790  0.75978  1.0000
  S   S44       1.0  0.39528  0.42378  0.76022  1.0000
  S   S45       1.0  0.48921  0.43850  0.75005  1.0000
  Fe  Fe22      1.0  0.39455  0.46432  0.73492  1.0000
  S   S46       1.0  0.36172  0.45212  0.69825  1.0000
  Fe  Fe23      1.0  0.39756  0.45583  0.79487  1.0000
  S   S47       1.0  0.36790  0.42820  0.83147  1.0000
  C   C261      1.0  0.19105  0.36099  0.68264  1.0000
  S   S48       1.0  0.16059  0.50530  0.86067  1.0000
  S   S49       1.0  0.02917  0.46012  0.69049  1.0000
  C   C262      1.0  0.15512  0.46167  0.77873  1.0000
  S   S50       1.0  0.48935  0.08407  0.86264  1.0000
  Fe  Fe24      1.0  0.48287  0.27187  0.76875  1.0000
  C   C263      1.0  0.06712  0.47021  0.86441  1.0000
  S   S51       1.0  0.43862  0.28223  0.77491  1.0000
  C   C264      1.0  0.29557  0.41018  0.77109  1.0000
  C   C265      1.0  0.45605  0.27904  0.67294  1.0000
  C   C266      1.0  0.44085  0.36469  0.66735  1.0000
  H   H197      1.0  0.25688  0.45822  0.63928  1.0000
  S   S52       1.0  0.48828  0.24245  0.73555  1.0000
  S   S53       1.0  0.49424  0.24313  0.79902  1.0000
  S   S54       1.0  0.14863  0.42373  0.89661  1.0000
  Fe  Fe25      1.0  0.11058  0.41319  0.92848  1.0000
  C   C267      1.0  0.18002  0.36787  0.86513  1.0000
  Fe  Fe26      1.0  0.18754  0.43948  0.92846  1.0000
  S   S55       1.0  0.23040  0.42769  0.92283  1.0000
  S   S56       1.0  0.41568  0.47445  0.94856  1.0000
  C   C268      1.0  0.49376  0.46874  0.64824  1.0000
  H   H198      1.0  0.31358  0.48350  0.78218  1.0000
  C   C269      1.0  0.24017  0.40811  0.94808  1.0000
  S   S57       1.0  0.18077  0.49853  0.67959  1.0000
  C   C270      1.0  0.46308  0.41025  0.88968  1.0000
  C   C271      1.0  0.23949  0.45048  0.84947  1.0000
  C   C272      1.0  0.14522  0.49817  0.80863  1.0000
  H   H199      1.0  0.44686  0.22765  0.67933  1.0000
  H   H200      1.0  0.49347  0.14961  0.85497  1.0000
  C   C273      1.0  0.04627  0.39921  0.83425  1.0000
  C   C274      1.0  0.16441  0.46024  0.82534  1.0000
  Fe  Fe27      1.0  0.08444  0.47314  0.68486  1.0000
  H   H201      1.0  0.49753  0.47326  0.84313  1.0000
  C   C275      1.0  0.43170  0.17909  0.88686  1.0000
  C   C276      1.0  0.48973  0.29853  0.94489  1.0000
  C   C277      1.0  0.41663  0.24014  0.70510  1.0000
  H   H202      1.0  0.25099  0.38304  0.89470  1.0000
  H   H203      1.0  0.34186  0.48598  0.94659  1.0000
  C   C278      1.0  0.44815  0.30450  0.68062  1.0000
  C   C279      1.0  0.35674  0.45809  0.64554  1.0000
  C   C280      1.0  0.37932  0.46654  0.66674  1.0000
  S   S58       1.0  0.12265  0.50451  0.71567  1.0000
  C   C281      1.0  0.41498  0.48597  0.66229  1.0000
  C   C282      1.0  0.24975  0.48235  0.86118  1.0000
  H   H204      1.0  0.47161  0.46489  0.91896  1.0000
  C   C283      1.0  0.38084  0.44237  0.86388  1.0000
  C   C284      1.0  0.41031  0.47385  0.86969  1.0000
  C   C285      1.0  0.41999  0.48358  0.89567  1.0000
  C   C286      1.0  0.40096  0.46168  0.91619  1.0000
  C   C287      1.0  0.37111  0.43047  0.91036  1.0000
  C   C288      1.0  0.36100  0.42113  0.88438  1.0000
  C   C289      1.0  0.02269  0.47731  0.89880  1.0000
  H   H205      1.0  0.12680  0.29763  0.81399  1.0000
  H   H206      1.0  0.35587  0.41349  0.92585  1.0000
  H   H207      1.0  0.33811  0.39689  0.88008  1.0000
  C   C290      1.0  0.47389  0.39487  0.75711  1.0000
  C   C291      1.0  0.49236  0.37948  0.74769  1.0000
  C   C292      1.0  0.48037  0.34447  0.75187  1.0000
  C   C293      1.0  0.45075  0.32489  0.76668  1.0000
  C   C294      1.0  0.43174  0.34003  0.77581  1.0000
  C   C295      1.0  0.44332  0.37506  0.77104  1.0000
  S   S59       1.0  0.45546  0.48755  0.79562  1.0000
  H   H208      1.0  0.51836  0.33266  0.69256  1.0000
  H   H209      1.0  0.40867  0.32496  0.78719  1.0000
  H   H210      1.0  0.42902  0.38678  0.77860  1.0000
  H   H211      1.0  0.04790  0.40360  0.79234  1.0000
  C   C296      1.0  0.49127  0.14167  0.78942  1.0000
  C   C297      1.0  0.41345  0.37394  0.91675  1.0000
  C   C298      1.0  0.42465  0.29756  0.70089  1.0000
  H   H212      1.0  0.44331  0.04096  0.91655  1.0000
  C   C299      1.0  0.49699  0.48609  0.91424  1.0000
  H   H213      1.0  0.51385  0.05078  0.72057  1.0000
  H   H214      1.0  0.09138  0.38578  0.78666  1.0000
  C   C300      1.0  0.49312  0.15627  0.81374  1.0000
  S   S60       1.0  0.10209  0.43428  0.68214  1.0000
  H   H215      1.0  0.05967  0.42409  0.95317  1.0000
  C   C301      1.0  0.08194  0.38633  0.80588  1.0000
  C   C302      1.0  0.39139  0.36680  0.89561  1.0000
  C   C303      1.0  0.40499  0.38139  0.87157  1.0000
  C   C304      1.0  0.44062  0.40336  0.86864  1.0000
  H   H216      1.0  0.09200  0.38138  0.64231  1.0000
  H   H217      1.0  0.28916  0.23359  0.86862  1.0000
  C   C305      1.0  0.45832  0.01728  0.94626  1.0000
  H   H218      1.0  0.17246  0.42960  0.79675  1.0000
  H   H219      1.0  0.36367  0.35089  0.89804  1.0000
  H   H220      1.0  0.38776  0.37680  0.85536  1.0000
  H   H221      1.0  0.45013  0.41505  0.85002  1.0000
  C   C306      1.0  0.28724  0.44843  0.87007  1.0000
  H   H222      1.0  0.18371  0.43035  0.64302  1.0000
  C   C307      1.0  0.28228  0.39692  0.96891  1.0000
  C   C308      1.0  0.26707  0.47368  0.70377  1.0000
  C   C309      1.0  0.14460  0.34566  0.86883  1.0000
  C   C310      1.0  0.05752  0.39694  0.80928  1.0000
  H   H223      1.0  0.31225  0.23095  0.91171  1.0000
  C   C311      1.0  0.49088  0.10643  0.83438  1.0000
  C   C312      1.0  0.39626  0.39176  0.67357  1.0000
  S   S61       1.0  0.11855  0.46679  0.92841  1.0000
  C   C313      1.0  0.24730  0.48182  0.72024  1.0000
  H   H224      1.0  0.43203  0.16310  0.90241  1.0000
  C   C314      1.0  0.08036  0.49699  0.88257  1.0000
  H   H225      1.0  0.44210  0.33682  0.95875  1.0000
  H   H226      1.0  0.48671  0.07628  0.65674  1.0000
  H   H227      1.0  0.47473  0.04136  0.95623  1.0000
  H   H228      1.0  0.37324  0.24575  0.91647  1.0000
  H   H229      1.0  0.11395  0.36941  0.82456  1.0000
  H   H230      1.0  0.20955  0.34954  0.64784  1.0000
  C   C315      1.0  0.43110  0.18977  0.84114  1.0000
  S   S62       1.0  0.45202  0.49624  0.73259  1.0000
  C   C316      1.0  0.27235  0.40976  0.94799  1.0000
  S   S63       1.0  0.39004  0.49270  0.76949  1.0000
  Fe  Fe28      1.0  0.15919  0.47789  0.89830  1.0000
  S   S64       1.0  0.05732  0.36620  0.92709  1.0000
  H   H231      1.0  0.25483  0.45596  0.68782  1.0000
  H   H232      1.0  0.48623  0.27074  0.91023  1.0000
  C   C317      1.0  0.20033  0.36553  0.65648  1.0000
  H   H233      1.0  0.30256  0.43615  0.87340  1.0000
  H   H234      1.0  0.28275  0.42285  0.73419  1.0000
  C   C318      1.0  0.03141  0.44676  0.86318  1.0000
  H   H235      1.0  0.36448  0.50278  0.85563  1.0000
  H   H236      1.0  0.47481  0.28410  0.65781  1.0000
  H   H237      1.0  0.46583  0.40072  0.93046  1.0000
  H   H238      1.0  0.33307  0.46342  0.81948  1.0000
  H   H239      1.0  0.03046  0.40094  0.66785  1.0000
  H   H240      1.0  0.46120  0.38795  0.70462  1.0000
  C   C319      1.0  0.41575  0.35873  0.64853  1.0000
  H   H241      1.0  0.17168  0.45002  0.84150  1.0000
  C   C320      1.0  0.48986  0.09226  0.81006  1.0000
  S   S65       1.0  0.15726  0.44757  0.74681  1.0000
  H   H242      1.0  0.19460  0.38684  0.87986  1.0000
  C   C321      1.0  0.09465  0.37709  0.82724  1.0000
  H   H243      1.0  0.32913  0.44303  0.64870  1.0000
  H   H244      1.0  0.21112  0.40553  0.79566  1.0000
  H   H245      1.0  0.47938  0.46783  0.68816  1.0000
  H   H246      1.0  0.13589  0.49521  0.76754  1.0000
  C   C322      1.0  0.48950  0.10960  0.78764  1.0000
  C   C323      1.0  0.14165  0.31737  0.82820  1.0000
  H   H247      1.0  0.26583  0.34201  0.82336  1.0000
  H   H248      1.0  0.28906  0.31200  0.89593  1.0000
  H   H249      1.0  0.06067  0.47597  0.81118  1.0000
  H   H250      1.0  0.18965  0.33597  0.80775  1.0000
  C   C324      1.0  0.05938  0.39013  0.85560  1.0000
  C   C325      1.0  0.49701  0.35490  0.82115  1.0000
  C   C326      1.0  0.43200  0.23092  0.87241  1.0000
  C   C327      1.0  0.43105  0.22040  0.84668  1.0000
  P   P9        1.0  0.43055  0.26980  0.87931  1.0000
  C   C328      1.0  0.44835  0.28775  0.91058  1.0000
  C   C329      1.0  0.45703  0.30354  0.85699  1.0000
  C   C330      1.0  0.44841  0.32881  0.85051  1.0000
  C   C331      1.0  0.46825  0.35424  0.83247  1.0000
  H   H251      1.0  0.42561  0.49079  0.85420  1.0000
  C   C332      1.0  0.47755  0.31732  0.95849  1.0000
  C   C333      1.0  0.48705  0.30550  0.84658  1.0000
  C   C334      1.0  0.43690  0.30752  0.92405  1.0000
  C   C335      1.0  0.43099  0.20934  0.89247  1.0000
  H   H252      1.0  0.43079  0.18193  0.82125  1.0000
  C   C336      1.0  0.14441  0.48576  0.78340  1.0000
  C   C337      1.0  0.47558  0.28422  0.92084  1.0000
  C   C338      1.0  0.38579  0.25849  0.87609  1.0000
  H   H253      1.0  0.48858  0.06760  0.80849  1.0000
  C   C339      1.0  0.19801  0.39072  0.64187  1.0000
  C   C340      1.0  0.31606  0.24045  0.87069  1.0000
  C   C341      1.0  0.33762  0.25020  0.84903  1.0000
  C   C342      1.0  0.37229  0.25890  0.85165  1.0000
  H   H254      1.0  0.44258  0.50819  0.89980  1.0000
  C   C343      1.0  0.25768  0.43294  0.85424  1.0000
  H   H255      1.0  0.50643  0.37268  0.88365  1.0000
  C   C344      1.0  0.29719  0.48010  0.88205  1.0000
  H   H256      1.0  0.43045  0.23592  0.83084  1.0000
  H   H257      1.0  0.42607  0.32856  0.85900  1.0000
  H   H258      1.0  0.46080  0.37282  0.82655  1.0000
  C   C345      1.0  0.49244  0.13843  0.83620  1.0000
  S   S66       1.0  0.50482  0.01235  0.88907  1.0000
  H   H259      1.0  0.49491  0.28701  0.85190  1.0000
  H   H260      1.0  0.41699  0.31187  0.91600  1.0000
  H   H261      1.0  0.09792  0.30323  0.85333  1.0000
  P   P10       1.0  0.50924  0.43904  0.88682  1.0000
  H   H262      1.0  0.27082  0.34900  0.91911  1.0000
  H   H263      1.0  0.43254  0.14598  0.85681  1.0000
  C   C346      1.0  0.49452  0.48378  0.67213  1.0000
  C   C347      1.0  0.45126  0.32199  0.94808  1.0000
  H   H264      1.0  0.42984  0.21581  0.91248  1.0000
  H   H265      1.0  0.32751  0.25081  0.83011  1.0000
  H   H266      1.0  0.38853  0.26586  0.83455  1.0000
  H   H267      1.0  0.40285  0.36347  0.93561  1.0000
  C   C348      1.0  0.16479  0.44873  0.79994  1.0000
  H   H268      1.0  0.42283  0.41233  0.70965  1.0000
  C   C349      1.0  0.39354  0.37220  0.65170  1.0000
  C   C350      1.0  0.33814  0.48960  0.81895  1.0000
  C   C351      1.0  0.51429  0.46358  0.83666  1.0000
  H   H269      1.0  0.29026  0.42223  0.93223  1.0000
  C   C352      1.0  0.44917  0.39524  0.91376  1.0000
  C   C353      1.0  0.08288  0.37840  0.85203  1.0000
  H   H270      1.0  0.09203  0.37059  0.86862  1.0000
  H   H271      1.0  0.31801  0.48186  0.69535  1.0000
  H   H272      1.0  0.30276  0.39856  0.80989  1.0000
  H   H273      1.0  0.31962  0.41235  0.76431  1.0000
  C   C354      1.0  0.27906  0.32528  0.85809  1.0000
  C   C355      1.0  0.19656  0.36500  0.84295  1.0000
  C   C356      1.0  0.36374  0.24765  0.89763  1.0000
  H   H274      1.0  0.47901  0.01920  0.64548  1.0000
  H   H275      1.0  0.21705  0.43917  0.83702  1.0000
  C   C357      1.0  0.28577  0.40203  0.79694  1.0000
  P   P11       1.0  0.46834  0.34567  0.66454  1.0000
  Fe  Fe29      1.0  0.15862  0.47711  0.95906  1.0000
  C   C358      1.0  0.44282  0.38378  0.68951  1.0000
  Fe  Fe30      1.0  0.14284  0.46802  0.71116  1.0000
  H   H276      1.0  0.21973  0.47058  0.71696  1.0000
  H   H277      1.0  0.39147  0.26051  0.72908  1.0000
  P   P12       1.0  0.24291  0.39109  0.83976  1.0000
  C   C359      1.0  0.40886  0.26542  0.71297  1.0000
  C   C360      1.0  0.27482  0.41626  0.75414  1.0000
  H   H278      1.0  0.37904  0.40215  0.67603  1.0000
  C   C361      1.0  0.25491  0.39949  0.80604  1.0000
  C   C362      1.0  0.24432  0.41443  0.76311  1.0000
  H   H279      1.0  0.40512  0.21564  0.71505  1.0000
  H   H280      1.0  0.17165  0.37772  0.71456  1.0000
  H   H281      1.0  0.41890  0.31700  0.70784  1.0000
  H   H282      1.0  0.22845  0.41974  0.75014  1.0000
  H   H283      1.0  0.13220  0.34787  0.88621  1.0000
  C   C363      1.0  0.43194  0.16940  0.86120  1.0000
  C   C364      1.0  0.26793  0.34475  0.84413  1.0000
  C   C365      1.0  0.23449  0.40624  0.78896  1.0000
  C   C366      1.0  0.32907  0.23901  0.89496  1.0000
  H   H284      1.0  0.08490  0.46770  0.85151  1.0000
  C   C367      1.0  0.25939  0.36718  0.85706  1.0000
  H   H285      1.0  0.16655  0.42152  0.68891  1.0000
  H   H286      1.0  0.49380  0.33253  0.74326  1.0000
  H   H287      1.0  0.05103  0.39168  0.87502  1.0000
  H   H288      1.0  0.19321  0.34174  0.69385  1.0000
  C   C368      1.0  0.42088  0.39749  0.69249  1.0000
  Fe  Fe31      1.0  0.13755  0.46907  0.65076  1.0000
  C   C369      1.0  0.03555  0.47363  0.77538  1.0000
  C   C370      1.0  0.44020  0.24694  0.68506  1.0000
  C   C371      1.0  0.28042  0.32700  0.88509  1.0000
  C   C372      1.0  0.25944  0.36755  0.88422  1.0000
  H   H289      1.0  0.43275  0.49250  0.67825  1.0000
  C   C373      1.0  0.17613  0.40598  0.67987  1.0000
  C   C374      1.0  0.30259  0.48818  0.70806  1.0000
  C   C375      1.0  0.27026  0.34788  0.89815  1.0000
  C   C376      1.0  0.17720  0.33936  0.82459  1.0000
  H   H290      1.0  0.28652  0.30878  0.84795  1.0000
  C   C377      1.0  0.17896  0.38122  0.69433  1.0000
  S   S67       1.0  0.11737  0.50603  0.65218  1.0000
  H   H291      1.0  0.06101  0.31855  0.65089  1.0000
  C   C378      1.0  0.18565  0.41075  0.65381  1.0000
  H   H292      1.0  0.31935  0.49139  0.89488  1.0000
  C   C379      1.0  0.15552  0.48572  0.82975  1.0000
  S   S68       1.0  0.49201  0.16323  0.76091  1.0000
  H   H293      1.0  0.23500  0.49532  0.85800  1.0000
  Fe  Fe32      1.0  0.50607  0.21860  0.76561  1.0000
  Fe  Fe33      1.0  0.51234  0.04967  0.85757  1.0000
  C   C380      1.0  0.03733  0.46155  0.79988  1.0000
  S   S69       1.0  0.20083  0.49491  0.92882  1.0000
  C   C381      1.0  0.03475  0.40947  0.94408  1.0000
  C   C382      1.0  0.27848  0.49706  0.87760  1.0000
  H   H294      1.0  0.49476  0.18109  0.81529  1.0000
  C   C383      1.0  0.05819  0.50049  0.89981  1.0000
  S   S70       1.0  0.14846  0.42279  0.96038  1.0000
  C   C384      1.0  0.31831  0.51067  0.72888  1.0000
  S   S71       1.0  0.50005  0.01175  0.82521  1.0000
  H   H295      1.0  0.51040  0.42069  0.66886  1.0000
  C   C385      1.0  0.26293  0.50440  0.74103  1.0000
  H   H296      1.0  0.51055  0.29549  0.95281  1.0000
  C   C386      1.0  0.02587  0.37851  0.93155  1.0000
  H   H297      1.0  0.48827  0.09832  0.76887  1.0000
  H   H298      1.0  0.51570  0.39460  0.73673  1.0000
  C   C387      1.0  0.32730  0.50119  0.79780  1.0000
  H   H299      1.0  0.24694  0.51032  0.75328  1.0000
  C   C388      1.0  0.21712  0.39204  0.96850  1.0000
  H   H300      1.0  0.47761  0.44112  0.64600  1.0000
  C   C389      1.0  0.50685  0.33110  0.82866  1.0000
  H   H301      1.0  0.05731  0.49699  0.76803  1.0000
  H   H302      1.0  0.51124  0.37341  0.80616  1.0000
  H   H303      1.0  0.51752  0.24431  0.67340  1.0000
  C   C390      1.0  0.34702  0.49781  0.96559  1.0000
  C   C391      1.0  0.44052  0.01707  0.92398  1.0000
  H   H304      1.0  0.30768  0.39949  0.96912  1.0000
  H   H305      1.0  0.19208  0.39035  0.96844  1.0000
  C   C392      1.0  0.04944  0.32946  0.63841  1.0000
  Fe  Fe34      1.0  0.17156  0.53450  0.18317  1.0000
  H   H306      1.0  0.45055  0.64698  0.25619  1.0000
  S   S72       1.0  0.21052  0.58963  0.19145  1.0000
  Fe  Fe35      1.0  0.43557  0.52990  0.25953  1.0000
  H   H307      1.0  0.10189  0.56437  0.15503  1.0000
  H   H308      1.0  0.50152  0.62329  0.99052  1.0000
  C   C393      1.0  0.50624  0.77767  0.13469  1.0000
  C   C394      1.0  0.49551  0.95108  0.26648  1.0000
  H   H309      1.0  0.47110  0.98765  0.97182  1.0000
  C   C395      1.0  0.46318  0.61232  0.27577  1.0000
  H   H310      1.0  0.47067  0.72722  0.15022  1.0000
  C   C396      1.0  0.42431  0.93075  0.00294  1.0000
  Fe  Fe36      1.0  0.38327  0.73443  0.06754  1.0000
  S   S73       1.0  0.35074  0.75987  0.06726  1.0000
  S   S74       1.0  0.40857  0.72808  0.03087  1.0000
  Fe  Fe37      1.0  0.38193  0.73034  0.12827  1.0000
  S   S75       1.0  0.34953  0.75546  0.13135  1.0000
  H   H311      1.0  0.46765  0.00496  0.05465  1.0000
  Fe  Fe38      1.0  0.32007  0.72134  0.09795  1.0000
  S   S76       1.0  0.26218  0.69143  0.09704  1.0000
  Fe  Fe39      1.0  0.38378  0.79118  0.10059  1.0000
  S   S77       1.0  0.35019  0.69335  0.09644  1.0000
  C   C397      1.0  0.36047  0.63033  0.17412  1.0000
  C   C398      1.0  0.46595  0.99061  0.09456  1.0000
  C   C399      1.0  0.44167  0.80216  0.23923  1.0000
  H   H312      1.0  0.51914  0.93673  0.13803  1.0000
  C   C400      1.0  0.38741  0.53900  0.99671  1.0000
  C   C401      1.0  0.46924  0.89817  0.12373  1.0000
  C   C402      1.0  0.48095  0.74266  0.13298  1.0000
  C   C403      1.0  0.44908  0.81854  0.97321  1.0000
  C   C404      1.0  0.15469  0.62271  0.19989  1.0000
  C   C405      1.0  0.33481  0.62415  0.15593  1.0000
  C   C406      1.0  0.37478  0.71601  0.24992  1.0000
  C   C407      1.0  0.35704  0.72318  0.23056  1.0000
  C   C408      1.0  0.36568  0.72404  0.20419  1.0000
  H   H313      1.0  0.45227  0.87352  0.18803  1.0000
  S   S78       1.0  0.45268  0.58479  0.24906  1.0000
  H   H314      1.0  0.33684  0.72863  0.23595  1.0000
  H   H315      1.0  0.35186  0.72973  0.18962  1.0000
  C   C409      1.0  0.39269  0.72569  0.99883  1.0000
  C   C410      1.0  0.22262  0.53161  0.27946  1.0000
  C   C411      1.0  0.35906  0.71923  0.99380  1.0000
  C   C412      1.0  0.50260  0.76783  0.21479  1.0000
  H   H316      1.0  0.34200  0.71610  0.00973  1.0000
  C   C413      1.0  0.25092  0.53372  0.26624  1.0000
  H   H317      1.0  0.26005  0.51617  0.27126  1.0000
  C   C414      1.0  0.45128  0.86903  0.10804  1.0000
  H   H318      1.0  0.48623  0.80914  0.26042  1.0000
  C   C415      1.0  0.40131  0.70960  0.24249  1.0000
  H   H319      1.0  0.41890  0.98031  0.27925  1.0000
  C   C416      1.0  0.07067  0.53461  0.02432  1.0000
  S   S79       1.0  0.41838  0.76842  0.09930  1.0000
  H   H320      1.0  0.42855  0.54822  0.09563  1.0000
  H   H321      1.0  0.06603  0.54890  0.06328  1.0000
  H   H322      1.0  0.07843  0.56353  0.22326  1.0000
  H   H323      1.0  0.29012  0.69937  0.27098  1.0000
  C   C417      1.0  0.40958  0.70996  0.21609  1.0000
  C   C418      1.0  0.32438  0.82220  0.29199  1.0000
  H   H324      1.0  0.35666  0.54497  0.21358  1.0000
  C   C419      1.0  0.30038  0.59952  0.16093  1.0000
  C   C420      1.0  0.29155  0.58149  0.18427  1.0000
  H   H325      1.0  0.41739  0.53405  0.04940  1.0000
  C   C421      1.0  0.22509  0.61583  0.16405  1.0000
  C   C422      1.0  0.20299  0.61042  0.14318  1.0000
  C   C423      1.0  0.21428  0.63378  0.12256  1.0000
  C   C424      1.0  0.24806  0.66184  0.12246  1.0000
  C   C425      1.0  0.27042  0.66654  0.14297  1.0000
  C   C426      1.0  0.25878  0.64392  0.16391  1.0000
  H   H326      1.0  0.17697  0.58880  0.14323  1.0000
  H   H327      1.0  0.19697  0.63001  0.10667  1.0000
  H   H328      1.0  0.29658  0.68784  0.14297  1.0000
  H   H329      1.0  0.27603  0.64813  0.17998  1.0000
  C   C427      1.0  0.43622  0.58679  0.03736  1.0000
  C   C428      1.0  0.43502  0.56870  0.08178  1.0000
  C   C429      1.0  0.45888  0.90305  0.99837  1.0000
  C   C430      1.0  0.45873  0.82343  0.01944  1.0000
  C   C431      1.0  0.45241  0.62124  0.04574  1.0000
  H   H330      1.0  0.43456  0.51365  0.99872  1.0000
  H   H331      1.0  0.11169  0.61817  0.13370  1.0000
  H   H332      1.0  0.44182  0.78371  0.22572  1.0000
  C   C432      1.0  0.08186  0.53228  0.25343  1.0000
  H   H333      1.0  0.39968  0.62064  0.01197  1.0000
  C   C433      1.0  0.35172  0.61267  0.19758  1.0000
  H   H334      1.0  0.40923  0.94124  0.99459  1.0000
  C   C434      1.0  0.42842  0.56069  0.05552  1.0000
  C   C435      1.0  0.25238  0.51290  0.03832  1.0000
  H   H335      1.0  0.50264  0.69887  0.24233  1.0000
  C   C436      1.0  0.36829  0.63289  0.28606  1.0000
  H   H336      1.0  0.41497  0.70362  0.25699  1.0000
  C   C437      1.0  0.22756  0.57970  0.25484  1.0000
  H   H337      1.0  0.36543  0.53775  0.03425  1.0000
  C   C438      1.0  0.39201  0.71734  0.19677  1.0000
  C   C439      1.0  0.27008  0.69822  0.25838  1.0000
  C   C440      1.0  0.25394  0.71738  0.26419  1.0000
  C   C441      1.0  0.22839  0.71614  0.24774  1.0000
  C   C442      1.0  0.21817  0.69494  0.22567  1.0000
  C   C443      1.0  0.23540  0.67684  0.21954  1.0000
  P   P13       1.0  0.18649  0.69442  0.20362  1.0000
  C   C444      1.0  0.15474  0.70079  0.22064  1.0000
  C   C445      1.0  0.21048  0.72811  0.18051  1.0000
  C   C446      1.0  0.21913  0.76224  0.18599  1.0000
  C   C447      1.0  0.23779  0.78835  0.16804  1.0000
  C   C448      1.0  0.24830  0.78062  0.14471  1.0000
  C   C449      1.0  0.24077  0.74693  0.13955  1.0000
  C   C450      1.0  0.22229  0.72080  0.15748  1.0000
  C   C451      1.0  0.13884  0.71739  0.20853  1.0000
  C   C452      1.0  0.11331  0.72115  0.22146  1.0000
  C   C453      1.0  0.10304  0.70783  0.24633  1.0000
  C   C454      1.0  0.11807  0.69044  0.25821  1.0000
  C   C455      1.0  0.14362  0.68665  0.24533  1.0000
  C   C456      1.0  0.16097  0.65329  0.18777  1.0000
  C   C457      1.0  0.39960  0.89732  0.28807  1.0000
  C   C458      1.0  0.14480  0.65139  0.16402  1.0000
  H   H338      1.0  0.47558  0.82919  0.03602  1.0000
  H   H339      1.0  0.26160  0.73349  0.28131  1.0000
  H   H340      1.0  0.21677  0.73180  0.25221  1.0000
  H   H341      1.0  0.22904  0.66170  0.20204  1.0000
  H   H342      1.0  0.21159  0.76873  0.20412  1.0000
  H   H343      1.0  0.24432  0.81464  0.17225  1.0000
  H   H344      1.0  0.26285  0.80079  0.13078  1.0000
  H   H345      1.0  0.24955  0.74106  0.12168  1.0000
  H   H346      1.0  0.21739  0.69499  0.15331  1.0000
  H   H347      1.0  0.14578  0.72703  0.18900  1.0000
  H   H348      1.0  0.10118  0.73408  0.21207  1.0000
  H   H349      1.0  0.08311  0.71059  0.25627  1.0000
  H   H350      1.0  0.10965  0.67956  0.27730  1.0000
  H   H351      1.0  0.15439  0.67235  0.25454  1.0000
  C   C459      1.0  0.47369  0.00248  0.12001  1.0000
  H   H352      1.0  0.14858  0.67454  0.15455  1.0000
  H   H353      1.0  0.34405  0.64644  0.02763  1.0000
  H   H354      1.0  0.28042  0.59450  0.14680  1.0000
  H   H355      1.0  0.47039  0.89156  0.98652  1.0000
  H   H356      1.0  0.48744  0.74397  0.25230  1.0000
  C   C460      1.0  0.05342  0.53049  0.04777  1.0000
  C   C461      1.0  0.47836  0.74726  0.08652  1.0000
  C   C462      1.0  0.45965  0.53574  0.99459  1.0000
  H   H357      1.0  0.45561  0.60898  0.11044  1.0000
  H   H358      1.0  0.38928  0.57107  0.29875  1.0000
  C   C463      1.0  0.46729  0.72749  0.10900  1.0000
  C   C464      1.0  0.03212  0.51415  0.22558  1.0000
  C   C465      1.0  0.21104  0.59565  0.00915  1.0000
  H   H359      1.0  0.46045  0.68379  0.29473  1.0000
  H   H360      1.0  0.39845  0.88054  0.30349  1.0000
  H   H361      1.0  0.34162  0.63848  0.13802  1.0000
  C   C466      1.0  0.33881  0.58474  0.25637  1.0000
  H   H362      1.0  0.32148  0.84293  0.28391  1.0000
  C   C467      1.0  0.42407  0.81388  0.02343  1.0000
  C   C468      1.0  0.46499  0.66230  0.29588  1.0000
  C   C469      1.0  0.50313  0.78223  0.08805  1.0000
  H   H363      1.0  0.42960  0.70422  0.21057  1.0000
  H   H364      1.0  0.45430  0.78999  0.14903  1.0000
  C   C470      1.0  0.31710  0.58836  0.20291  1.0000
  C   C471      1.0  0.35460  0.56816  0.26860  1.0000
  C   C472      1.0  0.33141  0.52188  0.21323  1.0000
  H   H365      1.0  0.29674  0.63037  0.97813  1.0000
  C   C473      1.0  0.44596  0.91611  0.04101  1.0000
  C   C474      1.0  0.46575  0.83981  0.27621  1.0000
  C   C475      1.0  0.51530  0.95986  0.24400  1.0000
  H   H366      1.0  0.47664  0.89213  0.03402  1.0000
  H   H367      1.0  0.38991  0.66995  0.06090  1.0000
  C   C476      1.0  0.50582  0.87309  0.09565  1.0000
  P   P14       1.0  0.37699  0.84002  0.25582  1.0000
  C   C477      1.0  0.39068  0.88482  0.26263  1.0000
  C   C478      1.0  0.41407  0.83368  0.25537  1.0000
  H   H368      1.0  0.41449  0.81225  0.04289  1.0000
  C   C479      1.0  0.25604  0.58198  0.24168  1.0000
  C   C480      1.0  0.41542  0.81048  0.23766  1.0000
  C   C481      1.0  0.12356  0.61945  0.15224  1.0000
  H   H369      1.0  0.21838  0.59736  0.25018  1.0000
  C   C482      1.0  0.26100  0.67818  0.23591  1.0000
  H   H370      1.0  0.23238  0.57107  0.98576  1.0000
  C   C483      1.0  0.39128  0.90717  0.24335  1.0000
  C   C484      1.0  0.35442  0.82431  0.22539  1.0000
  C   C485      1.0  0.32197  0.79406  0.22452  1.0000
  C   C486      1.0  0.30662  0.77948  0.20078  1.0000
  C   C487      1.0  0.32338  0.79504  0.17775  1.0000
  C   C488      1.0  0.35573  0.82493  0.17836  1.0000
  C   C489      1.0  0.37135  0.83933  0.20208  1.0000
  C   C490      1.0  0.45953  0.64155  0.27404  1.0000
  C   C491      1.0  0.46447  0.85815  0.18473  1.0000
  H   H371      1.0  0.51069  0.79794  0.07081  1.0000
  C   C492      1.0  0.42705  0.93003  0.02986  1.0000
  C   C493      1.0  0.38031  0.52426  0.97189  1.0000
  C   C494      1.0  0.44956  0.83026  0.16760  1.0000
  H   H372      1.0  0.39568  0.79762  0.22306  1.0000
  H   H373      1.0  0.33089  0.55560  0.98075  1.0000
  C   C495      1.0  0.49777  0.82019  0.17440  1.0000
  C   C496      1.0  0.37376  0.64237  0.05871  1.0000
  C   C497      1.0  0.13357  0.59089  0.18798  1.0000
  H   H374      1.0  0.38356  0.89845  0.22377  1.0000
  H   H375      1.0  0.30899  0.78090  0.24205  1.0000
  H   H376      1.0  0.28216  0.75557  0.20018  1.0000
  H   H377      1.0  0.31170  0.78345  0.15938  1.0000
  H   H378      1.0  0.36911  0.83636  0.16039  1.0000
  H   H379      1.0  0.39712  0.86149  0.20221  1.0000
  H   H380      1.0  0.37208  0.61776  0.21132  1.0000
  C   C498      1.0  0.37856  0.62038  0.07508  1.0000
  C   C499      1.0  0.35806  0.58478  0.07214  1.0000
  C   C500      1.0  0.33213  0.57117  0.05327  1.0000
  C   C501      1.0  0.32623  0.59309  0.03732  1.0000
  C   C502      1.0  0.34773  0.62889  0.03988  1.0000
  P   P15       1.0  0.29137  0.57637  0.01391  1.0000
  C   C503      1.0  0.26505  0.52993  0.01468  1.0000
  C   C504      1.0  0.26155  0.59144  0.02116  1.0000
  C   C505      1.0  0.23502  0.58501  0.00357  1.0000
  C   C506      1.0  0.46964  0.85664  0.09391  1.0000
  C   C507      1.0  0.21312  0.61237  0.03249  1.0000
  C   C508      1.0  0.23897  0.61811  0.05034  1.0000
  C   C509      1.0  0.26308  0.60765  0.04480  1.0000
  H   H381      1.0  0.17263  0.53809  0.04664  1.0000
  C   C510      1.0  0.50544  0.91464  0.12547  1.0000
  C   C511      1.0  0.34618  0.61747  0.26502  1.0000
  H   H382      1.0  0.10804  0.55123  0.25890  1.0000
  C   C512      1.0  0.47161  0.82611  0.99429  1.0000
  P   P16       1.0  0.30607  0.56317  0.23200  1.0000
  C   C513      1.0  0.38297  0.61572  0.29866  1.0000
  C   C514      1.0  0.43964  0.84843  0.27460  1.0000
  P   P17       1.0  0.42910  0.57608  0.00341  1.0000
  H   H383      1.0  0.26905  0.60212  0.22750  1.0000
  C   C515      1.0  0.41428  0.72946  0.97776  1.0000
  C   C516      1.0  0.26729  0.55834  0.24678  1.0000
  H   H384      1.0  0.39814  0.63091  0.09005  1.0000
  H   H385      1.0  0.36208  0.56765  0.08461  1.0000
  H   H386      1.0  0.31701  0.54356  0.05137  1.0000
  C   C517      1.0  0.21074  0.55442  0.27362  1.0000
  C   C518      1.0  0.37670  0.58371  0.28962  1.0000
  H   H387      1.0  0.33446  0.63089  0.25577  1.0000
  H   H388      1.0  0.19440  0.62035  0.03699  1.0000
  H   H389      1.0  0.24015  0.63035  0.06866  1.0000
  H   H390      1.0  0.28238  0.61187  0.05922  1.0000
  H   H391      1.0  0.44796  0.91522  0.06185  1.0000
  H   H392      1.0  0.50651  0.88771  0.21097  1.0000
  C   C519      1.0  0.06535  0.53913  0.23326  1.0000
  H   H393      1.0  0.44007  0.73387  0.98119  1.0000
  C   C520      1.0  0.49789  0.74337  0.23349  1.0000
  H   H394      1.0  0.09677  0.55591  0.02172  1.0000
  H   H395      1.0  0.27408  0.66393  0.23098  1.0000
  S   S80       1.0  0.40419  0.71804  0.16385  1.0000
  H   H396      1.0  0.47780  0.58285  0.30019  1.0000
  H   H397      1.0  0.45615  0.96361  0.09034  1.0000
  H   H398      1.0  0.16640  0.62323  0.21832  1.0000
  H   H399      1.0  0.44689  0.70082  0.10805  1.0000
  C   C521      1.0  0.11793  0.58918  0.16424  1.0000
  H   H400      1.0  0.40223  0.95870  0.23434  1.0000
  H   H401      1.0  0.34959  0.54305  0.26236  1.0000
  H   H402      1.0  0.37469  0.79788  0.00556  1.0000
  C   C522      1.0  0.50874  0.78360  0.01431  1.0000
  H   H403      1.0  0.45519  0.90779  0.13478  1.0000
  H   H404      1.0  0.12990  0.56752  0.19695  1.0000
  H   H405      1.0  0.41439  0.94010  0.04211  1.0000
  C   C523      1.0  0.31086  0.59069  0.98241  1.0000
  C   C524      1.0  0.51697  0.79740  0.11199  1.0000
  H   H406      1.0  0.49618  0.78744  0.21956  1.0000
  H   H407      1.0  0.51064  0.97355  0.22869  1.0000
  H   H408      1.0  0.26245  0.52275  0.97302  1.0000
  C   C525      1.0  0.40152  0.94149  0.24933  1.0000
  C   C526      1.0  0.45931  0.62923  0.07202  1.0000
  H   H409      1.0  0.26477  0.56226  0.18776  1.0000
  H   H410      1.0  0.46016  0.64200  0.03203  1.0000
  S   S81       1.0  0.40590  0.84802  0.10658  1.0000
  C   C527      1.0  0.46200  0.90283  0.02526  1.0000
  C   C528      1.0  0.41078  0.95368  0.27462  1.0000
  H   H411      1.0  0.37630  0.86419  0.98242  1.0000
  C   C529      1.0  0.46667  0.81657  0.25863  1.0000
  H   H412      1.0  0.47559  0.95800  0.26864  1.0000
  S   S82       1.0  0.36183  0.71365  0.28286  1.0000
  C   C530      1.0  0.46423  0.56906  0.99457  1.0000
  C   C531      1.0  0.51525  0.76668  0.19019  1.0000
  H   H413      1.0  0.42556  0.82374  0.15776  1.0000
  H   H414      1.0  0.48167  0.77184  0.00916  1.0000
  C   C532      1.0  0.46609  0.81128  0.16251  1.0000
  H   H415      1.0  0.18872  0.55268  0.28380  1.0000
  C   C533      1.0  0.36072  0.52693  0.01507  1.0000
  C   C534      1.0  0.45035  0.60293  0.09007  1.0000
  H   H416      1.0  0.45609  0.83500  0.08104  1.0000
  C   C535      1.0  0.35238  0.78764  0.29275  1.0000
  H   H417      1.0  0.38723  0.64901  0.17013  1.0000
  C   C536      1.0  0.44056  0.91755  0.98697  1.0000
  H   H418      1.0  0.37387  0.65807  0.29269  1.0000
  H   H419      1.0  0.47168  0.65581  0.07841  1.0000
  H   H420      1.0  0.46642  0.73590  0.06812  1.0000
  H   H421      1.0  0.37116  0.78112  0.28537  1.0000
  C   C537      1.0  0.30190  0.52275  0.22169  1.0000
  C   C538      1.0  0.40177  0.80618  0.00237  1.0000
  C   C539      1.0  0.50239  0.93468  0.28659  1.0000
  C   C540      1.0  0.49535  0.86643  0.19739  1.0000
  H   H422      1.0  0.46993  0.98466  0.13547  1.0000
  C   C541      1.0  0.41176  0.62646  0.99311  1.0000
  H   H423      1.0  0.19028  0.58992  0.99564  1.0000
  H   H424      1.0  0.25690  0.52737  0.05611  1.0000
  H   H425      1.0  0.06732  0.51465  0.98581  1.0000
  H   H426      1.0  0.43892  0.86554  0.28900  1.0000
  C   C542      1.0  0.34951  0.81496  0.28222  1.0000
  C   C543      1.0  0.50617  0.71778  0.22784  1.0000
  P   P18       1.0  0.51743  0.84271  0.98985  1.0000
  H   H427      1.0  0.48465  0.85036  0.29165  1.0000
  C   C544      1.0  0.42932  0.60970  0.98422  1.0000
  C   C545      1.0  0.48755  0.53059  0.98926  1.0000
  H   H428      1.0  0.17172  0.51750  0.09137  1.0000
  C   C546      1.0  0.49728  0.59728  0.98988  1.0000
  C   C547      1.0  0.51193  0.84749  0.19227  1.0000
  H   H429      1.0  0.50269  0.73678  0.03064  1.0000
  C   C548      1.0  0.40849  0.64992  0.97731  1.0000
  C   C549      1.0  0.47408  0.60486  0.29896  1.0000
  C   C550      1.0  0.51882  0.71640  0.20342  1.0000
  C   C551      1.0  0.40975  0.93156  0.29399  1.0000
  C   C552      1.0  0.41423  0.80833  0.97727  1.0000
  H   H430      1.0  0.39406  0.66199  0.98411  1.0000
  S   S83       1.0  0.13748  0.51304  0.14826  1.0000
  H   H431      1.0  0.21001  0.51231  0.29432  1.0000
  C   C553      1.0  0.16698  0.51193  0.04969  1.0000
  H   H432      1.0  0.32160  0.51489  0.30327  1.0000
  H   H433      1.0  0.01984  0.51887  0.20926  1.0000
  S   S84       1.0  0.37682  0.71606  0.41720  1.0000
  Fe  Fe40      1.0  0.39745  0.72239  0.31752  1.0000
  S   S85       1.0  0.39084  0.68336  0.34803  1.0000
  C   C554      1.0  0.44810  0.93369  0.42257  1.0000
  H   H434      1.0  0.33954  0.53931  0.42438  1.0000
  H   H435      1.0  0.46177  0.99582  0.60160  1.0000
  H   H436      1.0  0.46654  0.69638  0.58206  1.0000
  C   C555      1.0  0.35494  0.53001  0.58057  1.0000
  H   H437      1.0  0.43349  0.55574  0.53666  1.0000
  C   C556      1.0  0.47424  0.65383  0.31941  1.0000
  C   C557      1.0  0.34689  0.00224  0.56078  1.0000
  C   C558      1.0  0.48016  0.62594  0.32066  1.0000
  C   C559      1.0  0.39891  0.82101  0.52804  1.0000
  H   H438      1.0  0.46736  0.73511  0.48187  1.0000
  C   C560      1.0  0.39492  0.72083  0.44883  1.0000
  C   C561      1.0  0.37374  0.71604  0.47035  1.0000
  S   S86       1.0  0.47546  0.67575  0.34789  1.0000
  H   H439      1.0  0.34746  0.71030  0.46729  1.0000
  H   H440      1.0  0.43100  0.89831  0.49809  1.0000
  H   H441      1.0  0.44923  0.79213  0.41549  1.0000
  H   H442      1.0  0.41707  0.94102  0.31364  1.0000
  C   C562      1.0  0.43264  0.60247  0.54490  1.0000
  C   C563      1.0  0.22464  0.56209  0.34377  1.0000
  H   H443      1.0  0.30401  0.72606  0.53134  1.0000
  Fe  Fe41      1.0  0.40748  0.72881  0.56871  1.0000
  S   S87       1.0  0.36223  0.73694  0.56389  1.0000
  H   H444      1.0  0.38395  0.85983  0.52750  1.0000
  C   C564      1.0  0.48204  0.67137  0.45087  1.0000
  Fe  Fe42      1.0  0.33734  0.69683  0.59462  1.0000
  S   S88       1.0  0.28667  0.64871  0.58811  1.0000
  Fe  Fe43      1.0  0.38489  0.77401  0.59706  1.0000
  S   S89       1.0  0.38139  0.68653  0.59807  1.0000
  C   C565      1.0  0.33115  0.76850  0.31326  1.0000
  C   C566      1.0  0.41976  0.72489  0.50027  1.0000
  H   H445      1.0  0.44045  0.82609  0.44893  1.0000
  C   C567      1.0  0.38606  0.71839  0.49580  1.0000
  C   C568      1.0  0.02941  0.52233  0.51870  1.0000
  H   H446      1.0  0.36915  0.71452  0.51194  1.0000
  S   S90       1.0  0.46083  0.74550  0.37577  1.0000
  C   C569      1.0  0.47451  0.60504  0.44249  1.0000
  H   H447      1.0  0.43937  0.83312  0.33544  1.0000
  C   C570      1.0  0.49400  0.86755  0.44912  1.0000
  H   H448      1.0  0.44375  0.66320  0.50081  1.0000
  H   H449      1.0  0.37853  0.80460  0.54131  1.0000
  C   C571      1.0  0.34348  0.58920  0.42861  1.0000
  H   H450      1.0  0.50715  0.72584  0.39940  1.0000
  H   H451      1.0  0.31182  0.53663  0.48712  1.0000
  H   H452      1.0  0.42037  0.78725  0.52553  1.0000
  C   C572      1.0  0.26197  0.63293  0.61632  1.0000
  C   C573      1.0  0.23994  0.59744  0.61899  1.0000
  C   C574      1.0  0.39853  0.63492  0.44418  1.0000
  H   H453      1.0  0.23985  0.58005  0.60447  1.0000
  H   H454      1.0  0.41768  0.63855  0.59107  1.0000
  S   S91       1.0  0.40438  0.76178  0.34789  1.0000
  H   H455      1.0  0.46643  0.66565  0.41061  1.0000
  C   C575      1.0  0.50665  0.92137  0.36421  1.0000
  C   C576      1.0  0.35122  0.58834  0.59455  1.0000
  Fe  Fe44      1.0  0.44853  0.70668  0.34439  1.0000
  C   C577      1.0  0.43286  0.65437  0.60701  1.0000
  H   H456      1.0  0.29081  0.76182  0.33954  1.0000
  C   C578      1.0  0.23358  0.57831  0.41819  1.0000
  Fe  Fe45      1.0  0.40392  0.72500  0.37795  1.0000
  H   H457      1.0  0.22156  0.51691  0.36076  1.0000
  C   C579      1.0  0.47688  0.92186  0.45763  1.0000
  H   H458      1.0  0.28348  0.71889  0.44983  1.0000
  H   H459      1.0  0.44641  0.58856  0.62926  1.0000
  C   C580      1.0  0.19772  0.55646  0.41898  1.0000
  H   H460      1.0  0.30386  0.75381  0.49001  1.0000
  H   H461      1.0  0.25259  0.51544  0.44185  1.0000
  Fe  Fe46      1.0  0.46082  0.77918  0.34393  1.0000
  H   H462      1.0  0.24718  0.58321  0.39997  1.0000
  H   H463      1.0  0.41441  0.66146  0.45015  1.0000
  C   C581      1.0  0.30683  0.77640  0.32337  1.0000
  H   H464      1.0  0.44736  0.88582  0.42705  1.0000
  H   H465      1.0  0.48988  0.00363  0.46192  1.0000
  S   S92       1.0  0.45431  0.74248  0.31205  1.0000
  S   S93       1.0  0.43198  0.76828  0.60069  1.0000
  C   C582      1.0  0.26649  0.51710  0.40176  1.0000
  H   H466      1.0  0.17687  0.60962  0.55893  1.0000
  H   H467      1.0  0.31734  0.58056  0.42223  1.0000
  P   P19       1.0  0.45408  0.62637  0.45808  1.0000
  C   C583      1.0  0.33618  0.57113  0.57142  1.0000
  C   C584      1.0  0.45653  0.91125  0.43514  1.0000
  H   H468      1.0  0.34884  0.61048  0.59997  1.0000
  H   H469      1.0  0.35522  0.64166  0.43481  1.0000
  C   C585      1.0  0.43499  0.95617  0.55750  1.0000
  S   S94       1.0  0.43543  0.72577  0.53227  1.0000
  C   C586      1.0  0.43557  0.63271  0.53469  1.0000
  H   H470      1.0  0.45470  0.98468  0.42164  1.0000
  C   C587      1.0  0.36479  0.62363  0.43569  1.0000
  C   C588      1.0  0.46085  0.68711  0.60178  1.0000
  C   C589      1.0  0.50491  0.69433  0.46948  1.0000
  H   H471      1.0  0.42707  0.59653  0.56522  1.0000
  H   H472      1.0  0.50323  0.96378  0.48507  1.0000
  C   C590      1.0  0.43629  0.57941  0.52873  1.0000
  P   P20       1.0  0.28917  0.52174  0.35090  1.0000
  C   C591      1.0  0.45807  0.85753  0.34374  1.0000
  C   C592      1.0  0.51566  0.89592  0.36002  1.0000
  C   C593      1.0  0.47700  0.93881  0.54659  1.0000
  C   C594      1.0  0.44805  0.88989  0.60866  1.0000
  H   H473      1.0  0.28548  0.66426  0.53262  1.0000
  C   C595      1.0  0.44935  0.88337  0.34746  1.0000
  C   C596      1.0  0.36927  0.57716  0.61045  1.0000
  C   C597      1.0  0.44933  0.83298  0.50267  1.0000
  H   H474      1.0  0.42380  0.87857  0.34242  1.0000
  C   C598      1.0  0.46873  0.59701  0.41610  1.0000
  H   H475      1.0  0.26357  0.65707  0.45074  1.0000
  C   C599      1.0  0.45838  0.85032  0.58341  1.0000
  C   C600      1.0  0.35596  0.56606  0.42991  1.0000
  H   H476      1.0  0.43028  0.89611  0.61829  1.0000
  C   C601      1.0  0.51887  0.58846  0.44215  1.0000
  C   C602      1.0  0.42903  0.72826  0.45321  1.0000
  H   H477      1.0  0.32256  0.58013  0.55918  1.0000
  H   H478      1.0  0.33387  0.74763  0.32138  1.0000
  H   H479      1.0  0.15233  0.53317  0.44320  1.0000
  H   H480      1.0  0.19873  0.55547  0.34972  1.0000
  H   H481      1.0  0.39885  0.97365  0.51696  1.0000
  H   H482      1.0  0.20580  0.53216  0.56837  1.0000
  C   C603      1.0  0.45805  0.98990  0.54932  1.0000
  H   H483      1.0  0.26471  0.53983  0.39793  1.0000
  H   H484      1.0  0.30266  0.96747  0.53790  1.0000
  C   C604      1.0  0.33565  0.54686  0.35408  1.0000
  C   C605      1.0  0.35126  0.58077  0.36363  1.0000
  C   C606      1.0  0.38715  0.59997  0.36683  1.0000
  C   C607      1.0  0.40762  0.58548  0.36051  1.0000
  C   C608      1.0  0.39226  0.55147  0.35182  1.0000
  C   C609      1.0  0.42423  0.64292  0.63261  1.0000
  H   H485      1.0  0.33613  0.94932  0.51000  1.0000
  C   C610      1.0  0.48802  0.95504  0.46758  1.0000
  C   C611      1.0  0.48099  0.70827  0.62204  1.0000
  C   C612      1.0  0.42876  0.87397  0.50360  1.0000
  Fe  Fe47      1.0  0.51348  0.00216  0.35761  1.0000
  C   C613      1.0  0.27133  0.54888  0.34245  1.0000
  H   H486      1.0  0.38389  0.53821  0.61557  1.0000
  H   H487      1.0  0.39969  0.62747  0.31520  1.0000
  C   C614      1.0  0.24462  0.59196  0.32940  1.0000
  H   H488      1.0  0.33226  0.01016  0.57297  1.0000
  C   C615      1.0  0.29051  0.57800  0.32694  1.0000
  H   H489      1.0  0.23432  0.60858  0.32437  1.0000
  H   H490      1.0  0.44874  0.82674  0.57249  1.0000
  S   S95       1.0  0.39113  0.82727  0.59712  1.0000
  C   C616      1.0  0.27742  0.59970  0.32071  1.0000
  H   H491      1.0  0.43268  0.92543  0.40508  1.0000
  H   H492      1.0  0.33582  0.59240  0.36883  1.0000
  H   H493      1.0  0.39926  0.62620  0.37404  1.0000
  H   H494      1.0  0.43540  0.60066  0.36246  1.0000
  C   C617      1.0  0.33020  0.97819  0.54103  1.0000
  C   C618      1.0  0.48391  0.91302  0.60976  1.0000
  H   H495      1.0  0.50223  0.73389  0.61807  1.0000
  H   H496      1.0  0.42658  0.90479  0.56237  1.0000
  H   H497      1.0  0.05562  0.54200  0.51398  1.0000
  H   H498      1.0  0.44406  0.56757  0.48990  1.0000
  H   H499      1.0  0.46767  0.82522  0.49636  1.0000
  H   H500      1.0  0.26351  0.54862  0.48298  1.0000
  S   S96       1.0  0.35428  0.73469  0.62751  1.0000
  H   H501      1.0  0.44995  0.60090  0.40570  1.0000
  C   C619      1.0  0.42252  0.81134  0.51923  1.0000
  C   C620      1.0  0.38460  0.98179  0.52936  1.0000
  C   C621      1.0  0.44254  0.64007  0.50844  1.0000
  C   C622      1.0  0.44119  0.72989  0.47876  1.0000
  H   H502      1.0  0.18357  0.54380  0.40152  1.0000
  C   C623      1.0  0.35632  0.53194  0.34916  1.0000
  H   H503      1.0  0.44582  0.73200  0.43696  1.0000
  S   S97       1.0  0.46514  0.94988  0.35675  1.0000
  H   H504      1.0  0.50357  0.51299  0.45018  1.0000
  C   C624      1.0  0.35304  0.61999  0.50767  1.0000
  C   C625      1.0  0.34806  0.58752  0.50101  1.0000
  H   H505      1.0  0.24196  0.55259  0.52927  1.0000
  C   C626      1.0  0.28854  0.56886  0.48960  1.0000
  C   C627      1.0  0.29345  0.60155  0.49604  1.0000
  C   C628      1.0  0.32581  0.62688  0.50540  1.0000
  P   P21       1.0  0.25779  0.60989  0.49340  1.0000
  C   C629      1.0  0.23410  0.58866  0.46441  1.0000
  C   C630      1.0  0.23028  0.59332  0.52151  1.0000
  C   C631      1.0  0.21090  0.60858  0.52976  1.0000
  C   C632      1.0  0.19090  0.59711  0.55219  1.0000
  C   C633      1.0  0.18944  0.56986  0.56620  1.0000
  C   C634      1.0  0.50601  0.71734  0.41914  1.0000
  C   C635      1.0  0.22803  0.56539  0.53540  1.0000
  C   C636      1.0  0.25182  0.59392  0.44088  1.0000
  H   H506      1.0  0.39885  0.55900  0.43975  1.0000
  C   C637      1.0  0.18006  0.55058  0.44242  1.0000
  C   C638      1.0  0.19810  0.56669  0.46504  1.0000
  C   C639      1.0  0.27339  0.65577  0.49173  1.0000
  C   C640      1.0  0.27257  0.67156  0.46849  1.0000
  C   C641      1.0  0.28354  0.70678  0.46791  1.0000
  C   C642      1.0  0.29511  0.72648  0.49050  1.0000
  C   C643      1.0  0.29554  0.71094  0.51374  1.0000
  C   C644      1.0  0.28494  0.67584  0.51436  1.0000
  H   H507      1.0  0.37794  0.64002  0.51467  1.0000
  H   H508      1.0  0.43203  0.65044  0.54687  1.0000
  H   H509      1.0  0.41021  0.94971  0.56590  1.0000
  C   C645      1.0  0.37076  0.54769  0.60342  1.0000
  H   H510      1.0  0.33023  0.65200  0.51103  1.0000
  H   H511      1.0  0.21163  0.62971  0.51914  1.0000
  C   C646      1.0  0.46607  0.83588  0.44086  1.0000
  C   C647      1.0  0.33782  0.54177  0.56452  1.0000
  H   H512      1.0  0.36914  0.58211  0.50281  1.0000
  H   H513      1.0  0.27965  0.61069  0.44006  1.0000
  H   H514      1.0  0.18380  0.56157  0.48296  1.0000
  C   C648      1.0  0.43534  0.85818  0.59586  1.0000
  H   H515      1.0  0.49377  0.93718  0.62004  1.0000
  C   C649      1.0  0.40157  0.00595  0.54921  1.0000
  H   H516      1.0  0.48461  0.91928  0.54634  1.0000
  C   C650      1.0  0.23775  0.54037  0.35009  1.0000
  C   C651      1.0  0.38975  0.57735  0.43843  1.0000
  C   C652      1.0  0.47411  0.91581  0.35679  1.0000
  C   C653      1.0  0.46032  0.96704  0.43204  1.0000
  H   H517      1.0  0.26826  0.54135  0.59154  1.0000
  C   C654      1.0  0.41138  0.61200  0.44535  1.0000
  C   C655      1.0  0.44432  0.93068  0.55580  1.0000
  P   P22       1.0  0.48783  0.89275  0.47375  1.0000
  C   C656      1.0  0.44289  0.58652  0.50235  1.0000
  H   H518      1.0  0.17431  0.56123  0.58379  1.0000
  C   C657      1.0  0.48768  0.58463  0.40285  1.0000
  H   H519      1.0  0.31556  0.58389  0.31957  1.0000
  C   C658      1.0  0.44710  0.61746  0.49219  1.0000
  C   C659      1.0  0.47088  0.81653  0.42175  1.0000
  C   C660      1.0  0.49029  0.99753  0.53922  1.0000
  C   C661      1.0  0.48303  0.68307  0.42556  1.0000
  H   H520      1.0  0.32537  0.52777  0.54696  1.0000
  C   C662      1.0  0.49406  0.87276  0.58523  1.0000
  C   C663      1.0  0.50000  0.97223  0.53829  1.0000
  C   C664      1.0  0.40203  0.85227  0.52025  1.0000
  C   C665      1.0  0.45247  0.86435  0.49452  1.0000
  C   C666      1.0  0.50033  0.60148  0.45531  1.0000
  C   C667      1.0  0.49153  0.86411  0.34948  1.0000
  C   C668      1.0  0.48015  0.97768  0.45463  1.0000
  H   H521      1.0  0.48724  0.53090  0.52997  1.0000
  H   H522      1.0  0.48289  0.57842  0.38246  1.0000
  H   H523      1.0  0.48827  0.61988  0.33864  1.0000
  S   S98       1.0  0.50438  0.83378  0.34246  1.0000
  Fe  Fe48      1.0  0.40011  0.72692  0.62957  1.0000
  H   H524      1.0  0.40819  0.54022  0.34705  1.0000
  C   C669      1.0  0.31575  0.56190  0.49210  1.0000
  C   C670      1.0  0.34906  0.96797  0.52532  1.0000
  C   C671      1.0  0.20760  0.55371  0.55763  1.0000
  H   H525      1.0  0.50582  0.68574  0.48881  1.0000
  H   H526      1.0  0.50718  0.81414  0.39546  1.0000
  C   C672      1.0  0.50344  0.82881  0.41050  1.0000
  H   H527      1.0  0.28447  0.80930  0.32050  1.0000
  C   C673      1.0  0.50748  0.52812  0.53932  1.0000
  C   C674      1.0  0.30330  0.80313  0.31264  1.0000
  C   C675      1.0  0.26313  0.65534  0.63572  1.0000
  H   H528      1.0  0.13276  0.51235  0.31227  1.0000
  H   H529      1.0  0.51173  0.86579  0.57634  1.0000
  H   H530      1.0  0.50646  0.60917  0.47533  1.0000
  C   C676      1.0  0.50690  0.90399  0.59853  1.0000
  H   H531      1.0  0.50975  0.88139  0.52501  1.0000
  C   C677      1.0  0.51251  0.58000  0.41593  1.0000
  H   H532      1.0  0.27996  0.68279  0.63369  1.0000
  H   H533      1.0  0.44919  0.51488  0.40065  1.0000
  C   C678      1.0  0.25912  0.51414  0.59409  1.0000
  H   H534      1.0  0.27939  0.52039  0.63255  1.0000
  H   H535      1.0  0.29257  0.62227  0.30886  1.0000
  H   H536      1.0  0.45540  0.51320  0.63414  1.0000
  H   H537      1.0  0.12188  0.51215  0.54547  1.0000
  H   H538      1.0  0.48765  0.92889  0.30433  1.0000
  Fe  Fe49      1.0  0.15779  0.53309  0.68281  1.0000
  C   C679      1.0  0.48666  0.83938  0.85347  1.0000
  S   S99       1.0  0.19112  0.59049  0.68630  1.0000
  C   C680      1.0  0.41799  0.95561  0.91940  1.0000
  C   C681      1.0  0.44983  0.56450  0.69087  1.0000
  H   H539      1.0  0.48542  0.79551  0.66296  1.0000
  H   H540      1.0  0.44815  0.64303  0.92322  1.0000
  H   H541      1.0  0.37907  0.57397  0.69394  1.0000
  C   C682      1.0  0.46342  0.64271  0.81869  1.0000
  H   H542      1.0  0.48841  0.71328  0.66329  1.0000
  C   C683      1.0  0.29704  0.57059  0.67614  1.0000
  H   H543      1.0  0.42519  0.78191  0.76033  1.0000
  H   H544      1.0  0.34884  0.80153  0.72183  1.0000
  S   S100      1.0  0.35272  0.71483  0.91474  1.0000
  Fe  Fe50      1.0  0.38473  0.70396  0.81913  1.0000
  S   S101      1.0  0.35502  0.69629  0.78122  1.0000
  S   S102      1.0  0.36530  0.66652  0.85260  1.0000
  C   C684      1.0  0.42030  0.98623  0.91061  1.0000
  C   C685      1.0  0.37957  0.63244  0.72312  1.0000
  Fe  Fe51      1.0  0.49850  0.97652  0.85656  1.0000
  C   C686      1.0  0.41886  0.61934  0.74599  1.0000
  Fe  Fe52      1.0  0.44858  0.75468  0.84931  1.0000
  C   C687      1.0  0.35718  0.58627  0.75464  1.0000
  H   H545      1.0  0.10796  0.51469  0.88359  1.0000
  C   C688      1.0  0.44726  0.62134  0.83985  1.0000
  H   H546      1.0  0.41361  0.55711  0.72096  1.0000
  C   C689      1.0  0.35437  0.60174  0.65691  1.0000
  H   H547      1.0  0.43496  0.66050  0.71855  1.0000
  C   C690      1.0  0.44324  0.58822  0.84030  1.0000
  H   H548      1.0  0.45083  0.72823  0.71932  1.0000
  C   C691      1.0  0.43869  0.58142  0.64917  1.0000
  C   C692      1.0  0.50055  0.82364  0.69892  1.0000
  C   C693      1.0  0.40441  0.71962  0.69984  1.0000
  C   C694      1.0  0.36993  0.71135  0.70332  1.0000
  C   C695      1.0  0.35527  0.70459  0.72833  1.0000
  C   C696      1.0  0.37487  0.70614  0.75015  1.0000
  C   C697      1.0  0.31496  0.76143  0.74761  1.0000
  H   H549      1.0  0.44484  0.62399  0.74923  1.0000
  H   H550      1.0  0.35453  0.71008  0.68677  1.0000
  H   H551      1.0  0.32857  0.69807  0.73076  1.0000
  H   H552      1.0  0.50599  0.97082  0.93766  1.0000
  H   H553      1.0  0.32573  0.60041  0.73164  1.0000
  C   C698      1.0  0.28672  0.61125  0.80522  1.0000
  C   C699      1.0  0.36886  0.71981  0.94699  1.0000
  C   C700      1.0  0.29496  0.60072  0.67621  1.0000
  H   H554      1.0  0.46794  0.66871  0.81859  1.0000
  H   H555      1.0  0.49275  0.85858  0.91029  1.0000
  H   H556      1.0  0.06857  0.52081  0.91419  1.0000
  P   P23       1.0  0.32055  0.55118  0.77044  1.0000
  H   H557      1.0  0.27537  0.54672  0.68298  1.0000
  H   H558      1.0  0.35682  0.58385  0.81800  1.0000
  C   C701      1.0  0.07558  0.56669  0.76022  1.0000
  Fe  Fe53      1.0  0.44803  0.52228  0.76837  1.0000
  C   C702      1.0  0.51885  0.80676  0.91725  1.0000
  C   C703      1.0  0.35142  0.55740  0.81800  1.0000
  H   H559      1.0  0.22336  0.53330  0.82592  1.0000
  C   C704      1.0  0.21805  0.58435  0.64044  1.0000
  H   H560      1.0  0.29594  0.63850  0.80783  1.0000
  S   S103      1.0  0.42372  0.72608  0.66871  1.0000
  C   C705      1.0  0.47152  0.91551  0.93695  1.0000
  C   C706      1.0  0.21857  0.60677  0.65953  1.0000
  C   C707      1.0  0.24146  0.64224  0.65738  1.0000
  C   C708      1.0  0.50462  0.83254  0.78676  1.0000
  H   H561      1.0  0.24206  0.65958  0.67225  1.0000
  S   S104      1.0  0.49703  0.80664  0.84916  1.0000
  C   C709      1.0  0.43584  0.95556  0.94177  1.0000
  H   H562      1.0  0.48370  0.80128  0.71045  1.0000
  H   H563      1.0  0.39676  0.80156  0.96094  1.0000
  C   C710      1.0  0.39598  0.87817  0.94329  1.0000
  C   C711      1.0  0.29374  0.56530  0.78634  1.0000
  H   H564      1.0  0.48737  0.52275  0.93416  1.0000
  H   H565      1.0  0.48719  0.64739  0.78155  1.0000
  H   H566      1.0  0.24326  0.59506  0.83071  1.0000
  C   C712      1.0  0.40050  0.57283  0.68522  1.0000
  H   H567      1.0  0.06940  0.58429  0.79757  1.0000
  C   C713      1.0  0.46775  0.89052  0.85656  1.0000
  H   H568      1.0  0.20072  0.55693  0.64209  1.0000
  C   C714      1.0  0.46844  0.88391  0.92940  1.0000
  H   H569      1.0  0.37517  0.64794  0.70930  1.0000
  C   C715      1.0  0.33921  0.61057  0.93270  1.0000
  P   P24       1.0  0.43560  0.91684  0.95223  1.0000
  H   H570      1.0  0.42487  0.71609  0.76317  1.0000
  H   H571      1.0  0.44713  0.54906  0.81855  1.0000
  C   C716      1.0  0.35218  0.63194  0.65728  1.0000
  S   S105      1.0  0.43605  0.72112  0.88414  1.0000
  C   C717      1.0  0.09906  0.56710  0.74211  1.0000
  C   C718      1.0  0.34726  0.71632  0.96803  1.0000
  C   C719      1.0  0.41323  0.63947  0.72827  1.0000
  H   H572      1.0  0.48728  0.78743  0.95114  1.0000
  C   C720      1.0  0.50592  0.51906  0.92304  1.0000
  H   H573      1.0  0.47320  0.77785  0.78061  1.0000
  H   H574      1.0  0.32111  0.71094  0.96440  1.0000
  H   H575      1.0  0.40050  0.53309  0.95740  1.0000
  H   H576      1.0  0.32913  0.62009  0.78098  1.0000
  H   H577      1.0  0.28605  0.52142  0.88707  1.0000
  C   C721      1.0  0.39104  0.59293  0.75932  1.0000
  C   C722      1.0  0.35571  0.51181  0.83947  1.0000
  H   H578      1.0  0.40310  0.93247  0.90815  1.0000
  H   H579      1.0  0.44476  0.85998  0.93269  1.0000
  H   H580      1.0  0.41968  0.72999  0.93628  1.0000
  H   H581      1.0  0.51496  0.53099  0.69392  1.0000
  S   S106      1.0  0.47642  0.58008  0.76910  1.0000
  S   S107      1.0  0.39546  0.74829  0.84541  1.0000
  H   H582      1.0  0.40804  0.88321  0.90247  1.0000
  C   C723      1.0  0.43877  0.63899  0.94300  1.0000
  H   H583      1.0  0.22820  0.63129  0.88360  1.0000
  C   C724      1.0  0.45888  0.57311  0.66501  1.0000
  C   C725      1.0  0.45208  0.57529  0.81861  1.0000
  C   C726      1.0  0.47515  0.80280  0.77815  1.0000
  C   C727      1.0  0.25704  0.58691  0.81805  1.0000
  H   H584      1.0  0.35546  0.57286  0.93700  1.0000
  C   C728      1.0  0.47963  0.86706  0.77295  1.0000
  C   C729      1.0  0.44963  0.83726  0.76479  1.0000
  P   P25       1.0  0.41532  0.84024  0.74886  1.0000
  C   C730      1.0  0.37401  0.80465  0.75836  1.0000
  C   C731      1.0  0.41464  0.87887  0.75812  1.0000
  C   C732      1.0  0.42215  0.89105  0.78371  1.0000
  C   C733      1.0  0.42255  0.92145  0.79073  1.0000
  C   C734      1.0  0.41463  0.93945  0.77252  1.0000
  C   C735      1.0  0.40573  0.92675  0.74730  1.0000
  C   C736      1.0  0.40539  0.89639  0.74016  1.0000
  C   C737      1.0  0.36945  0.79055  0.78321  1.0000
  C   C738      1.0  0.33800  0.76170  0.79000  1.0000
  C   C739      1.0  0.31094  0.74685  0.77208  1.0000
  C   C740      1.0  0.34617  0.79058  0.74089  1.0000
  C   C741      1.0  0.42335  0.83831  0.71487  1.0000
  C   C742      1.0  0.44495  0.86844  0.70107  1.0000
  C   C743      1.0  0.45171  0.86665  0.67489  1.0000
  C   C744      1.0  0.43730  0.83473  0.66244  1.0000
  C   C745      1.0  0.41677  0.80460  0.67626  1.0000
  C   C746      1.0  0.41026  0.80628  0.70247  1.0000
  H   H585      1.0  0.48201  0.89216  0.77098  1.0000
  H   H586      1.0  0.42802  0.87733  0.79828  1.0000
  C   C747      1.0  0.49774  0.96153  0.72669  1.0000
  C   C748      1.0  0.29868  0.51923  0.74543  1.0000
  H   H587      1.0  0.39906  0.94046  0.73330  1.0000
  H   H588      1.0  0.39791  0.88667  0.72066  1.0000
  H   H589      1.0  0.39039  0.80122  0.79718  1.0000
  H   H590      1.0  0.33517  0.75003  0.80882  1.0000
  H   H591      1.0  0.45679  0.89323  0.71052  1.0000
  C   C749      1.0  0.49185  0.97081  0.70225  1.0000
  C   C750      1.0  0.50058  0.89872  0.84746  1.0000
  H   H592      1.0  0.40640  0.77987  0.66673  1.0000
  H   H593      1.0  0.39528  0.78253  0.71302  1.0000
  H   H594      1.0  0.50315  0.78363  0.90597  1.0000
  C   C751      1.0  0.12313  0.60229  0.78903  1.0000
  C   C752      1.0  0.14681  0.60191  0.77128  1.0000
  C   C753      1.0  0.13455  0.58496  0.74747  1.0000
  P   P26       1.0  0.19282  0.62706  0.77728  1.0000
  C   C754      1.0  0.20327  0.62907  0.81120  1.0000
  C   C755      1.0  0.21539  0.60779  0.76190  1.0000
  C   C756      1.0  0.24907  0.62845  0.75233  1.0000
  C   C757      1.0  0.26585  0.61335  0.73955  1.0000
  C   C758      1.0  0.24936  0.57755  0.73669  1.0000
  C   C759      1.0  0.21637  0.55680  0.74700  1.0000
  C   C760      1.0  0.19961  0.57188  0.75981  1.0000
  C   C761      1.0  0.23422  0.65656  0.82087  1.0000
  C   C762      1.0  0.24292  0.65757  0.84698  1.0000
  C   C763      1.0  0.22111  0.63082  0.86349  1.0000
  C   C764      1.0  0.19085  0.60279  0.85381  1.0000
  C   C765      1.0  0.18209  0.60174  0.82773  1.0000
  C   C766      1.0  0.20588  0.66853  0.76320  1.0000
  C   C767      1.0  0.20854  0.69580  0.77839  1.0000
  C   C768      1.0  0.21725  0.72739  0.76698  1.0000
  C   C769      1.0  0.22261  0.73170  0.74030  1.0000
  C   C770      1.0  0.21929  0.70440  0.72500  1.0000
  C   C771      1.0  0.21078  0.67287  0.73636  1.0000
  H   H595      1.0  0.13206  0.61661  0.80696  1.0000
  H   H596      1.0  0.15236  0.58566  0.73290  1.0000
  H   H597      1.0  0.26241  0.65617  0.75460  1.0000
  H   H598      1.0  0.29166  0.62953  0.73195  1.0000
  H   H599      1.0  0.26215  0.56584  0.72661  1.0000
  H   H600      1.0  0.20354  0.52904  0.74492  1.0000
  H   H601      1.0  0.17412  0.55560  0.76774  1.0000
  H   H602      1.0  0.25200  0.67686  0.80819  1.0000
  H   H603      1.0  0.26699  0.67870  0.85434  1.0000
  H   H604      1.0  0.40740  0.98633  0.89289  1.0000
  H   H605      1.0  0.51853  0.85803  0.73134  1.0000
  H   H606      1.0  0.15925  0.57919  0.82045  1.0000
  H   H607      1.0  0.20347  0.69259  0.79895  1.0000
  H   H608      1.0  0.21947  0.74846  0.77878  1.0000
  H   H609      1.0  0.22912  0.75610  0.73144  1.0000
  H   H610      1.0  0.22300  0.70746  0.70426  1.0000
  H   H611      1.0  0.20761  0.65173  0.72411  1.0000
  C   C772      1.0  0.46726  0.59637  0.79712  1.0000
  C   C773      1.0  0.45611  0.98672  0.95507  1.0000
  Fe  Fe54      1.0  0.42051  0.67817  0.85553  1.0000
  C   C774      1.0  0.32252  0.63135  0.66685  1.0000
  C   C775      1.0  0.32653  0.57103  0.66635  1.0000
  H   H612      1.0  0.35014  0.61831  0.91350  1.0000
  C   C776      1.0  0.44784  0.80516  0.76699  1.0000
  C   C777      1.0  0.40950  0.71501  0.74667  1.0000
  H   H613      1.0  0.39621  0.57772  0.77297  1.0000
  H   H614      1.0  0.51828  0.92439  0.84090  1.0000
  C   C778      1.0  0.32273  0.62669  0.94447  1.0000
  C   C779      1.0  0.08761  0.58431  0.78366  1.0000
  C   C780      1.0  0.36119  0.54533  0.83939  1.0000
  C   C781      1.0  0.50971  0.80926  0.94269  1.0000
  H   H615      1.0  0.37296  0.65582  0.64974  1.0000
  C   C782      1.0  0.36111  0.83608  0.91044  1.0000
  H   H616      1.0  0.04808  0.55281  0.75600  1.0000
  H   H617      1.0  0.08984  0.55372  0.72379  1.0000
  C   C783      1.0  0.30529  0.60058  0.78963  1.0000
  H   H618      1.0  0.35711  0.82780  0.89041  1.0000
  C   C784      1.0  0.33479  0.53548  0.79691  1.0000
  H   H619      1.0  0.43881  0.65587  0.67262  1.0000
  C   C785      1.0  0.34351  0.82553  0.95525  1.0000
  H   H620      1.0  0.42902  0.93106  0.81039  1.0000
  C   C786      1.0  0.26415  0.54109  0.79973  1.0000
  H   H621      1.0  0.41514  0.96309  0.77808  1.0000
  H   H622      1.0  0.17470  0.58127  0.86633  1.0000
  H   H623      1.0  0.43199  0.57197  0.85702  1.0000
  C   C787      1.0  0.44489  0.66419  0.65278  1.0000
  Fe  Fe55      1.0  0.38236  0.71228  0.87929  1.0000
  H   H624      1.0  0.29419  0.74974  0.73362  1.0000
  C   C788      1.0  0.30891  0.61711  0.96933  1.0000
  C   C789      1.0  0.42037  0.56379  0.70084  1.0000
  H   H625      1.0  0.47527  0.98196  0.70015  1.0000
  H   H626      1.0  0.31619  0.79020  0.92410  1.0000
  H   H627      1.0  0.28714  0.72374  0.77702  1.0000
  C   C790      1.0  0.33806  0.81494  0.92941  1.0000
  S   S108      1.0  0.43893  0.71285  0.82078  1.0000
  H   H628      1.0  0.37361  0.56228  0.85572  1.0000
  C   C791      1.0  0.34216  0.58498  0.94591  1.0000
  H   H629      1.0  0.48154  0.57328  0.65723  1.0000
  S   S109      1.0  0.43099  0.63511  0.86548  1.0000
  H   H630      1.0  0.43732  0.80642  0.87101  1.0000
  H   H631      1.0  0.41879  0.67379  0.93975  1.0000
  C   C792      1.0  0.44467  0.85685  0.86436  1.0000
  C   C793      1.0  0.45443  0.83162  0.86339  1.0000
  C   C794      1.0  0.40257  0.72680  0.95210  1.0000
  C   C795      1.0  0.24577  0.55192  0.81530  1.0000
  H   H632      1.0  0.46568  0.55850  0.70328  1.0000
  H   H633      1.0  0.46842  0.88990  0.66425  1.0000
  C   C796      1.0  0.47424  0.63054  0.79767  1.0000
  H   H634      1.0  0.45361  0.60113  0.95080  1.0000
  C   C797      1.0  0.35162  0.60570  0.73600  1.0000
  C   C798      1.0  0.42416  0.72185  0.72171  1.0000
  H   H635      1.0  0.32729  0.54721  0.66548  1.0000
  H   H636      1.0  0.41938  0.85029  0.87156  1.0000
  C   C799      1.0  0.51462  0.51941  0.67539  1.0000
  C   C800      1.0  0.40954  0.58178  0.65919  1.0000
  C   C801      1.0  0.49564  0.88296  0.91667  1.0000
  H   H637      1.0  0.32065  0.64667  0.93428  1.0000
  H   H638      1.0  0.32048  0.65447  0.66637  1.0000
  C   C802      1.0  0.38986  0.86758  0.91732  1.0000
  H   H639      1.0  0.27173  0.60026  0.68304  1.0000
  C   C803      1.0  0.44205  0.61546  0.95878  1.0000
  C   C804      1.0  0.37230  0.85702  0.96221  1.0000
  H   H640      1.0  0.48543  0.96516  0.74354  1.0000
  S   S110      1.0  0.45499  0.92174  0.85891  1.0000
  H   H641      1.0  0.13794  0.51761  0.81176  1.0000
  H   H642      1.0  0.45805  0.82050  0.95360  1.0000
  C   C805      1.0  0.50262  0.94606  0.93200  1.0000
  C   C806      1.0  0.42219  0.65637  0.95231  1.0000
  C   C807      1.0  0.50142  0.82037  0.67211  1.0000
  P   P27       1.0  0.38903  0.60030  0.63995  1.0000
  C   C808      1.0  0.51019  0.87324  0.84623  1.0000
  H   H643      1.0  0.34589  0.52153  0.73197  1.0000
  C   C809      1.0  0.47329  0.69662  0.64750  1.0000
  C   C810      1.0  0.50844  0.96695  0.68063  1.0000
  C   C811      1.0  0.50680  0.86462  0.78414  1.0000
  H   H644      1.0  0.50453  0.97493  0.66178  1.0000
  H   H645      1.0  0.25597  0.51389  0.79895  1.0000
  H   H646      1.0  0.44278  0.83316  0.64226  1.0000
  H   H647      1.0  0.32570  0.80901  0.96996  1.0000
  C   C812      1.0  0.32836  0.57535  0.97076  1.0000
  Fe  Fe56      1.0  0.81875  0.30148  0.15481  1.0000
  S   S111      1.0  0.84011  0.26542  0.15681  1.0000
  S   S112      1.0  0.81498  0.32652  0.11723  1.0000
  Fe  Fe57      1.0  0.81589  0.30564  0.21507  1.0000
  S   S113      1.0  0.83713  0.27029  0.22020  1.0000
  S   S114      1.0  0.80481  0.32899  0.25066  1.0000
  Fe  Fe58      1.0  0.87390  0.30008  0.18853  1.0000
  S   S115      1.0  0.92940  0.31292  0.19195  1.0000
  Fe  Fe59      1.0  0.80129  0.23946  0.18834  1.0000
  S   S116      1.0  0.77134  0.18292  0.19608  1.0000
  S   S117      1.0  0.85526  0.33803  0.18501  1.0000
  S   S118      1.0  0.77692  0.27269  0.18466  1.0000
  Fe  Fe60      1.0  0.57690  0.03356  0.07540  1.0000
  H   H648      1.0  0.89217  0.37998  0.23671  1.0000
  H   H649      1.0  0.55138  0.09929  0.06853  1.0000
  Fe  Fe61      1.0  0.58046  0.03775  0.13619  1.0000
  H   H650      1.0  0.56898  0.22621  0.13678  1.0000
  S   S119      1.0  0.55765  0.04762  0.17277  1.0000
  Fe  Fe62      1.0  0.64379  0.05468  0.10377  1.0000
  S   S120      1.0  0.70018  0.09197  0.09789  1.0000
  C   C813      1.0  0.89508  0.48003  0.03144  1.0000
  S   S121      1.0  0.60767  0.07596  0.10419  1.0000
  H   H651      1.0  0.85434  0.25711  0.08322  1.0000
  H   H652      1.0  0.63548  0.43286  0.27824  1.0000
  S   S122      1.0  0.81952  0.28320  0.99951  1.0000
  H   H653      1.0  0.59732  0.14099  0.18840  1.0000
  S   S123      1.0  0.68082  0.33722  0.02928  1.0000
  C   C814      1.0  0.71302  0.35691  0.00574  1.0000
  C   C815      1.0  0.74144  0.35158  0.00614  1.0000
  C   C816      1.0  0.69265  0.15832  0.22300  1.0000
  H   H654      1.0  0.74320  0.33535  0.02079  1.0000
  C   C817      1.0  0.62818  0.44145  0.08607  1.0000
  H   H655      1.0  0.95570  0.30311  0.14194  1.0000
  C   C818      1.0  0.57007  0.04528  0.20510  1.0000
  C   C819      1.0  0.80000  0.33218  0.30386  1.0000
  H   H656      1.0  0.58524  0.43809  0.14120  1.0000
  C   C820      1.0  0.59001  0.04492  0.25726  1.0000
  C   C821      1.0  0.56159  0.04912  0.25162  1.0000
  C   C822      1.0  0.55188  0.04953  0.22571  1.0000
  P   P28       1.0  0.00933  0.43471  0.27552  1.0000
  C   C823      1.0  0.54255  0.03961  0.98632  1.0000
  H   H657      1.0  0.89548  0.31889  0.25598  1.0000
  H   H658      1.0  0.85903  0.21850  0.99662  1.0000
  C   C824      1.0  0.56377  0.03979  0.00654  1.0000
  C   C825      1.0  0.93032  0.15579  0.07624  1.0000
  H   H659      1.0  0.67399  0.40459  0.17057  1.0000
  H   H660      1.0  0.61228  0.13133  0.05577  1.0000
  C   C826      1.0  0.80797  0.31703  0.28300  1.0000
  C   C827      1.0  0.81839  0.29294  0.28838  1.0000
  C   C828      1.0  0.71098  0.37822  0.98693  1.0000
  H   H661      1.0  0.82491  0.28117  0.27278  1.0000
  H   H662      1.0  0.99998  0.34438  0.17548  1.0000
  C   C829      1.0  0.81650  0.31382  0.08474  1.0000
  C   C830      1.0  0.80693  0.27995  0.07803  1.0000
  C   C831      1.0  0.80787  0.27111  0.05191  1.0000
  C   C832      1.0  0.81827  0.29580  0.03212  1.0000
  C   C833      1.0  0.82770  0.32966  0.03888  1.0000
  C   C834      1.0  0.82688  0.33849  0.06499  1.0000
  H   H663      1.0  0.79837  0.26044  0.09288  1.0000
  H   H664      1.0  0.80000  0.24485  0.04696  1.0000
  H   H665      1.0  0.83535  0.34898  0.02400  1.0000
  H   H666      1.0  0.83451  0.36467  0.06996  1.0000
  C   C835      1.0  0.74945  0.15870  0.16886  1.0000
  C   C836      1.0  0.72456  0.12392  0.17177  1.0000
  C   C837      1.0  0.70853  0.10351  0.14997  1.0000
  C   C838      1.0  0.71792  0.11778  0.12528  1.0000
  C   C839      1.0  0.74215  0.15275  0.12242  1.0000
  C   C840      1.0  0.75773  0.17334  0.14423  1.0000
  H   H667      1.0  0.71804  0.11268  0.19086  1.0000
  H   H668      1.0  0.68975  0.07654  0.15223  1.0000
  H   H669      1.0  0.74860  0.16391  0.10335  1.0000
  H   H670      1.0  0.77676  0.20022  0.14192  1.0000
  C   C841      1.0  0.99332  0.36442  0.17773  1.0000
  C   C842      1.0  0.95987  0.35600  0.18523  1.0000
  C   C843      1.0  0.61719  0.17556  0.11070  1.0000
  H   H671      1.0  0.92579  0.37587  0.19348  1.0000
  H   H672      1.0  0.61934  0.11597  0.15622  1.0000
  H   H673      1.0  0.89980  0.38039  0.01620  1.0000
  Fe  Fe63      1.0  0.62789  0.32697  0.01828  1.0000
  P   P29       1.0  0.62675  0.20913  0.21214  1.0000
  H   H674      1.0  0.76543  0.17216  0.04126  1.0000
  C   C844      1.0  0.96299  0.41860  0.27630  1.0000
  C   C845      1.0  0.89053  0.30016  0.10598  1.0000
  C   C846      1.0  0.97776  0.43202  0.08608  1.0000
  C   C847      1.0  0.61293  0.15444  0.24600  1.0000
  C   C848      1.0  0.97667  0.41657  0.18346  1.0000
  H   H675      1.0  0.78318  0.10906  0.16574  1.0000
  C   C849      1.0  0.96658  0.21615  0.06597  1.0000
  C   C850      1.0  0.91925  0.31328  0.12238  1.0000
  H   H676      1.0  0.62075  0.24590  0.08956  1.0000
  C   C851      1.0  0.81013  0.19467  0.01639  1.0000
  C   C852      1.0  0.98400  0.40009  0.01128  1.0000
  P   P30       1.0  0.87294  0.20305  0.08970  1.0000
  S   S124      1.0  0.61457  0.01423  0.07372  1.0000
  C   C853      1.0  0.60400  0.13886  0.07313  1.0000
  C   C854      1.0  0.56068  0.41002  0.10607  1.0000
  C   C855      1.0  0.56634  0.40413  0.08040  1.0000
  H   H677      1.0  0.00436  0.44416  0.07972  1.0000
  H   H678      1.0  0.00008  0.27677  0.13963  1.0000
  H   H679      1.0  0.53019  0.05333  0.22165  1.0000
  C   C856      1.0  0.52225  0.11234  0.19123  1.0000
  C   C857      1.0  0.97916  0.37212  0.99608  1.0000
  S   S125      1.0  0.52916  0.26595  0.08159  1.0000
  C   C858      1.0  0.01048  0.42511  0.17687  1.0000
  C   C859      1.0  0.62806  0.16612  0.08834  1.0000
  C   C860      1.0  0.52785  0.10959  0.16493  1.0000
  C   C861      1.0  0.58909  0.43237  0.12152  1.0000
  H   H680      1.0  0.54762  0.05298  0.26717  1.0000
  S   S126      1.0  0.59182  0.31122  0.19587  1.0000
  C   C862      1.0  0.60003  0.41963  0.07055  1.0000
  C   C863      1.0  0.58264  0.29618  0.11760  1.0000
  Fe  Fe64      1.0  0.55999  0.29446  0.23331  1.0000
  H   H681      1.0  0.95507  0.40083  0.23678  1.0000
  C   C864      1.0  0.54701  0.28015  0.11306  1.0000
  C   C865      1.0  0.60763  0.03979  0.23668  1.0000
  H   H682      1.0  0.93114  0.24409  0.12455  1.0000
  H   H683      1.0  0.89257  0.22117  0.03544  1.0000
  H   H684      1.0  0.73115  0.29556  0.25811  1.0000
  H   H685      1.0  0.60569  0.22474  0.26115  1.0000
  C   C866      1.0  0.90036  0.46193  0.98838  1.0000
  C   C867      1.0  0.59395  0.21864  0.16985  1.0000
  C   C868      1.0  0.59073  0.20905  0.19598  1.0000
  C   C869      1.0  0.56015  0.20116  0.20924  1.0000
  H   H686      1.0  0.62338  0.31704  0.14633  1.0000
  C   C870      1.0  0.64407  0.19066  0.18952  1.0000
  C   C871      1.0  0.62315  0.15666  0.18084  1.0000
  C   C872      1.0  0.63552  0.14246  0.16249  1.0000
  C   C873      1.0  0.66860  0.16240  0.15208  1.0000
  C   C874      1.0  0.68945  0.19651  0.16022  1.0000
  C   C875      1.0  0.67727  0.21066  0.17886  1.0000
  C   C876      1.0  0.01892  0.31374  0.10860  1.0000
  S   S127      1.0  0.53191  0.29859  0.00916  1.0000
  H   H687      1.0  0.79211  0.35103  0.30004  1.0000
  H   H688      1.0  0.61776  0.22614  0.15948  1.0000
  C   C877      1.0  0.84598  0.20863  0.01490  1.0000
  H   H689      1.0  0.67802  0.15137  0.13772  1.0000
  H   H690      1.0  0.71520  0.21184  0.15220  1.0000
  H   H691      1.0  0.69378  0.23715  0.18476  1.0000
  H   H692      1.0  0.83260  0.41289  0.05541  1.0000
  H   H693      1.0  0.66759  0.10928  0.27701  1.0000
  C   C878      1.0  0.95139  0.38204  0.18754  1.0000
  C   C879      1.0  0.96983  0.42072  0.11164  1.0000
  C   C880      1.0  0.67552  0.12931  0.23861  1.0000
  H   H694      1.0  0.74101  0.21768  0.26850  1.0000
  C   C881      1.0  0.93407  0.29314  0.12863  1.0000
  H   H695      1.0  0.68863  0.15590  0.20235  1.0000
  H   H696      1.0  0.65744  0.10487  0.22997  1.0000
  H   H697      1.0  0.92952  0.33866  0.13083  1.0000
  C   C882      1.0  0.64810  0.26244  0.08576  1.0000
  C   C883      1.0  0.66481  0.25245  0.06771  1.0000
  C   C884      1.0  0.70011  0.27377  0.06286  1.0000
  C   C885      1.0  0.71841  0.30570  0.07526  1.0000
  C   C886      1.0  0.70141  0.31678  0.09239  1.0000
  C   C887      1.0  0.66645  0.29426  0.09835  1.0000
  P   P31       1.0  0.72463  0.35911  0.10703  1.0000
  C   C888      1.0  0.69450  0.37286  0.11744  1.0000
  C   C889      1.0  0.74660  0.35623  0.13543  1.0000
  C   C890      1.0  0.77856  0.38410  0.14322  1.0000
  C   C891      1.0  0.79381  0.38264  0.16647  1.0000
  C   C892      1.0  0.77683  0.35384  0.18243  1.0000
  C   C893      1.0  0.74470  0.32639  0.17507  1.0000
  C   C894      1.0  0.72971  0.32742  0.15162  1.0000
  C   C895      1.0  0.66713  0.36824  0.10130  1.0000
  C   C896      1.0  0.64288  0.37720  0.10998  1.0000
  C   C897      1.0  0.64529  0.39017  0.13494  1.0000
  C   C898      1.0  0.67253  0.39514  0.15104  1.0000
  C   C899      1.0  0.69720  0.38680  0.14231  1.0000
  C   C900      1.0  0.75386  0.38827  0.08278  1.0000
  C   C901      1.0  0.74290  0.40532  0.06572  1.0000
  C   C902      1.0  0.76400  0.42473  0.04523  1.0000
  C   C903      1.0  0.79630  0.42745  0.04157  1.0000
  C   C904      1.0  0.80779  0.41119  0.05865  1.0000
  C   C905      1.0  0.78661  0.39148  0.07908  1.0000
  C   C906      1.0  0.53301  0.20201  0.19636  1.0000
  H   H698      1.0  0.65039  0.22835  0.05732  1.0000
  H   H699      1.0  0.71323  0.26605  0.04898  1.0000
  H   H700      1.0  0.74559  0.32192  0.07091  1.0000
  H   H701      1.0  0.65316  0.30148  0.11232  1.0000
  H   H702      1.0  0.79151  0.40712  0.13158  1.0000
  H   H703      1.0  0.81872  0.40389  0.17222  1.0000
  H   H704      1.0  0.78851  0.35277  0.20055  1.0000
  H   H705      1.0  0.73141  0.30425  0.18758  1.0000
  H   H706      1.0  0.70464  0.30602  0.14642  1.0000
  H   H707      1.0  0.66399  0.35682  0.08226  1.0000
  H   H708      1.0  0.62123  0.37261  0.09779  1.0000
  H   H709      1.0  0.68930  0.38273  0.98683  1.0000
  C   C907      1.0  0.59460  0.04028  0.00023  1.0000
  H   H710      1.0  0.71779  0.39060  0.15533  1.0000
  H   H711      1.0  0.71744  0.40241  0.06719  1.0000
  H   H712      1.0  0.75450  0.43624  0.03143  1.0000
  H   H713      1.0  0.81182  0.44117  0.02498  1.0000
  C   C908      1.0  0.61336  0.18576  0.24236  1.0000
  H   H714      1.0  0.79513  0.37761  0.09140  1.0000
  C   C909      1.0  0.90216  0.30417  0.26902  1.0000
  C   C910      1.0  0.90214  0.27469  0.26006  1.0000
  C   C911      1.0  0.91103  0.25587  0.27670  1.0000
  H   H715      1.0  0.86781  0.48321  0.99798  1.0000
  H   H716      1.0  0.60434  0.41503  0.05071  1.0000
  H   H717      1.0  0.52360  0.50330  0.14142  1.0000
  C   C912      1.0  0.58246  0.15713  0.11824  1.0000
  H   H718      1.0  0.94354  0.24792  0.07104  1.0000
  C   C913      1.0  0.87672  0.26692  0.09572  1.0000
  C   C914      1.0  0.89134  0.24645  0.10209  1.0000
  H   H719      1.0  0.97015  0.43670  0.18583  1.0000
  C   C915      1.0  0.84816  0.19875  0.06087  1.0000
  H   H720      1.0  0.00696  0.49992  0.06947  1.0000
  C   C916      1.0  0.56926  0.12042  0.08062  1.0000
  H   H721      1.0  0.89579  0.26673  0.24005  1.0000
  H   H722      1.0  0.91120  0.23315  0.26962  1.0000
  H   H723      1.0  0.72589  0.34534  0.24327  1.0000
  H   H724      1.0  0.82745  0.16812  0.17860  1.0000
  C   C917      1.0  0.70621  0.16348  0.27612  1.0000
  C   C918      1.0  0.01837  0.39881  0.17323  1.0000
  S   S128      1.0  0.55052  0.03932  0.03919  1.0000
  H   H725      1.0  0.87857  0.31554  0.10160  1.0000
  C   C919      1.0  0.93962  0.22215  0.07272  1.0000
  C   C920      1.0  0.96195  0.18297  0.06776  1.0000
  C   C921      1.0  0.99287  0.36967  0.25676  1.0000
  H   H726      1.0  0.00990  0.41871  0.01745  1.0000
  H   H727      1.0  0.81753  0.13075  0.08715  1.0000
  C   C922      1.0  0.99948  0.34636  0.24342  1.0000
  C   C923      1.0  0.60472  0.20022  0.26321  1.0000
  C   C924      1.0  0.55823  0.12908  0.10347  1.0000
  H   H728      1.0  0.67703  0.33582  0.21449  1.0000
  H   H729      1.0  0.60327  0.11374  0.27273  1.0000
  C   C925      1.0  0.65574  0.28092  0.21257  1.0000
  H   H730      1.0  0.53436  0.45493  0.14893  1.0000
  H   H731      1.0  0.87905  0.14027  0.08940  1.0000
  C   C926      1.0  0.90748  0.39183  0.25391  1.0000
  S   S129      1.0  0.56917  0.26433  0.26418  1.0000
  C   C927      1.0  0.91189  0.31539  0.29448  1.0000
  H   H732      1.0  0.62547  0.39535  0.14209  1.0000
  S   S130      1.0  0.58601  0.27149  0.01814  1.0000
  H   H733      1.0  0.92529  0.47377  0.06102  1.0000
  H   H734      1.0  0.52515  0.36959  0.26894  1.0000
  C   C928      1.0  0.98622  0.31245  0.04173  1.0000
  C   C929      1.0  0.95174  0.29575  0.03340  1.0000
  C   C930      1.0  0.92930  0.30707  0.04196  1.0000
  C   C931      1.0  0.94156  0.33558  0.05840  1.0000
  C   C932      1.0  0.97594  0.35223  0.06686  1.0000
  C   C933      1.0  0.94303  0.40358  0.25403  1.0000
  C   C934      1.0  0.72246  0.19286  0.26041  1.0000
  C   C935      1.0  0.68616  0.25817  0.23719  1.0000
  C   C936      1.0  0.82613  0.15981  0.15872  1.0000
  H   H735      1.0  0.54481  0.38814  0.06787  1.0000
  H   H736      1.0  0.62971  0.03670  0.24079  1.0000
  H   H737      1.0  0.55218  0.34429  0.19039  1.0000
  H   H738      1.0  0.79877  0.17743  0.08052  1.0000
  C   C937      1.0  0.68177  0.13190  0.26521  1.0000
  C   C938      1.0  0.79319  0.18256  0.04000  1.0000
  C   C939      1.0  0.84814  0.18303  0.14017  1.0000
  Fe  Fe65      1.0  0.55773  0.29011  0.04380  1.0000
  H   H739      1.0  0.64450  0.46512  0.12355  1.0000
  C   C940      1.0  0.79825  0.11616  0.12567  1.0000
  H   H740      1.0  0.94255  0.27433  0.02001  1.0000
  H   H741      1.0  0.90260  0.29438  0.03535  1.0000
  H   H742      1.0  0.92440  0.34493  0.06444  1.0000
  H   H743      1.0  0.55675  0.19416  0.22943  1.0000
  C   C941      1.0  0.90789  0.19509  0.08163  1.0000
  C   C942      1.0  0.93542  0.40385  0.11996  1.0000
  C   C943      1.0  0.90893  0.39764  0.10261  1.0000
  C   C944      1.0  0.91684  0.40899  0.07708  1.0000
  C   C945      1.0  0.95143  0.42736  0.06889  1.0000
  C   C946      1.0  0.90332  0.16175  0.08304  1.0000
  P   P32       1.0  0.96125  0.44126  0.03577  1.0000
  C   C947      1.0  0.95559  0.40416  0.01777  1.0000
  C   C948      1.0  0.93194  0.45505  0.02399  1.0000
  C   C949      1.0  0.92347  0.45189  0.99765  1.0000
  H   H744      1.0  0.00309  0.30305  0.03510  1.0000
  S   S131      1.0  0.57057  0.39838  0.00332  1.0000
  Fe  Fe66      1.0  0.57735  0.35232  0.00950  1.0000
  H   H745      1.0  0.68931  0.02426  0.21670  1.0000
  C   C950      1.0  0.61864  0.42921  0.29448  1.0000
  C   C951      1.0  0.57370  0.29878  0.16421  1.0000
  C   C952      1.0  0.91750  0.35058  0.99544  1.0000
  H   H746      1.0  0.00774  0.46634  0.99146  1.0000
  C   C953      1.0  0.92220  0.37852  0.01055  1.0000
  C   C954      1.0  0.92004  0.25975  0.11876  1.0000
  H   H747      1.0  0.92914  0.39517  0.13976  1.0000
  H   H748      1.0  0.88222  0.38396  0.10898  1.0000
  H   H749      1.0  0.89597  0.40347  0.06375  1.0000
  C   C955      1.0  0.86491  0.21036  0.03699  1.0000
  H   H750      1.0  0.77369  0.17800  0.27542  1.0000
  C   C956      1.0  0.84553  0.17289  0.11414  1.0000
  Fe  Fe67      1.0  0.55851  0.29477  0.29409  1.0000
  S   S132      1.0  0.60594  0.04821  0.28934  1.0000
  C   C957      1.0  0.81221  0.18535  0.06225  1.0000
  C   C958      1.0  0.70720  0.31955  0.23692  1.0000
  C   C959      1.0  0.71560  0.19023  0.23394  1.0000
  H   H751      1.0  0.72915  0.21261  0.22169  1.0000
  C   C960      1.0  0.53741  0.35647  0.18484  1.0000
  H   H752      1.0  0.61151  0.04091  0.01548  1.0000
  H   H753      1.0  0.98471  0.37377  0.08001  1.0000
  C   C961      1.0  0.65875  0.25263  0.22079  1.0000
  H   H754      1.0  0.59992  0.30103  0.10149  1.0000
  H   H755      1.0  0.63446  0.27750  0.20044  1.0000
  H   H756      1.0  0.86644  0.20895  0.14630  1.0000
  C   C962      1.0  0.94602  0.34775  0.98776  1.0000
  H   H757      1.0  0.79555  0.19396  0.99939  1.0000
  C   C963      1.0  0.71026  0.29150  0.24521  1.0000
  S   S133      1.0  0.60968  0.34098  0.98222  1.0000
  H   H758      1.0  0.98283  0.17829  0.06248  1.0000
  C   C964      1.0  0.53695  0.36558  0.15912  1.0000
  H   H759      1.0  0.65512  0.17983  0.08282  1.0000
  C   C965      1.0  0.56645  0.21877  0.15692  1.0000
  H   H760      1.0  0.55118  0.35978  0.14485  1.0000
  C   C966      1.0  0.59583  0.30519  0.14301  1.0000
  C   C967      1.0  0.52049  0.45489  0.13175  1.0000
  S   S134      1.0  0.60070  0.34468  0.04539  1.0000
  C   C968      1.0  0.82054  0.13912  0.10711  1.0000
  C   C969      1.0  0.67991  0.31424  0.22063  1.0000
  H   H761      1.0  0.62037  0.14291  0.23081  1.0000
  H   H762      1.0  0.54812  0.10428  0.15917  1.0000
  H   H763      1.0  0.86409  0.38680  0.27580  1.0000
  H   H764      1.0  0.65418  0.45337  0.07827  1.0000
  H   H765      1.0  0.99105  0.23720  0.05926  1.0000
  H   H766      1.0  0.97929  0.31970  0.24143  1.0000
  C   C970      1.0  0.60313  0.13761  0.26985  1.0000
  H   H767      1.0  0.61357  0.47350  0.28573  1.0000
  H   H768      1.0  0.88416  0.49108  0.04449  1.0000
  H   H769      1.0  0.68852  0.23664  0.24418  1.0000
  H   H770      1.0  0.52060  0.27785  0.17566  1.0000
  C   C971      1.0  0.80113  0.12647  0.15148  1.0000
  C   C972      1.0  0.89156  0.39547  0.27598  1.0000
  C   C973      1.0  0.88596  0.47577  0.00528  1.0000
  H   H771      1.0  0.99037  0.42502  0.12499  1.0000
  Fe  Fe68      1.0  0.56542  0.28668  0.98354  1.0000
  C   C974      1.0  0.91823  0.46998  0.04076  1.0000
  S   S135      1.0  0.61931  0.01991  0.13784  1.0000
  H   H772      1.0  0.96793  0.36039  0.26562  1.0000
  H   H773      1.0  0.98965  0.46345  0.23169  1.0000
  H   H774      1.0  0.93444  0.44132  0.98424  1.0000
  H   H775      1.0  0.94246  0.32669  0.97533  1.0000
  C   C975      1.0  0.78366  0.18613  0.29480  1.0000
  C   C976      1.0  0.59317  0.15152  0.29006  1.0000
  S   S136      1.0  0.55653  0.32950  0.26332  1.0000
  H   H776      1.0  0.61208  0.03661  0.19521  1.0000
  H   H777      1.0  0.57452  0.16482  0.13553  1.0000
  H   H778      1.0  0.77792  0.09074  0.11991  1.0000
  C   C977      1.0  0.53802  0.28305  0.15962  1.0000
  C   C978      1.0  0.53587  0.21012  0.17013  1.0000
  H   H779      1.0  0.67034  0.27202  0.98099  1.0000
  H   H780      1.0  0.71220  0.10172  0.29871  1.0000
  C   C979      1.0  0.52753  0.38708  0.00981  1.0000
  H   H781      1.0  0.99602  0.29893  0.09694  1.0000
  C   C980      1.0  0.62270  0.44796  0.11155  1.0000
  C   C981      1.0  0.00395  0.47809  0.03146  1.0000
  C   C982      1.0  0.76720  0.36648  0.98720  1.0000
  H   H782      1.0  0.92667  0.13002  0.07747  1.0000
  H   H783      1.0  0.53837  0.10962  0.20563  1.0000
  H   H784      1.0  0.00116  0.36987  0.98994  1.0000
  H   H785      1.0  0.83506  0.19781  0.28398  1.0000
  C   C983      1.0  0.92050  0.26683  0.30222  1.0000
  H   H786      1.0  0.63582  0.19695  0.12233  1.0000
  C   C984      1.0  0.59778  0.03993  0.21077  1.0000
  C   C985      1.0  0.59426  0.18298  0.28679  1.0000
  H   H787      1.0  0.53992  0.43070  0.27002  1.0000
  H   H788      1.0  0.99001  0.33124  0.30104  1.0000
  H   H789      1.0  0.78857  0.36148  0.98725  1.0000
  H   H790      1.0  0.89172  0.33127  0.98947  1.0000
  C   C986      1.0  0.99867  0.34113  0.05830  1.0000
  H   H791      1.0  0.58685  0.19400  0.30250  1.0000
  C   C987      1.0  0.60372  0.04007  0.97409  1.0000
  C   C988      1.0  0.94654  0.42164  0.29856  1.0000
  C   C989      1.0  0.52478  0.27356  0.13425  1.0000
  C   C990      1.0  0.01817  0.40463  0.25839  1.0000
  C   C991      1.0  0.81850  0.19690  0.29967  1.0000
  C   C992      1.0  0.91106  0.41039  0.29824  1.0000
  H   H792      1.0  0.91321  0.33920  0.30038  1.0000
  C   C993      1.0  0.01505  0.48252  0.23836  1.0000
  H   H793      1.0  0.53708  0.17473  0.08868  1.0000
  H   H794      1.0  0.52891  0.42866  0.98793  1.0000
  C   C994      1.0  0.60639  0.45210  0.29876  1.0000
  C   C995      1.0  0.97764  0.41738  0.44359  1.0000
  Fe  Fe69      1.0  0.57963  0.05015  0.38696  1.0000
  H   H795      1.0  0.52114  0.13518  0.48439  1.0000
  C   C996      1.0  0.81051  0.20565  0.34475  1.0000
  C   C997      1.0  0.56717  0.12299  0.60808  1.0000
  S   S137      1.0  0.59659  0.09082  0.35607  1.0000
  Fe  Fe70      1.0  0.85805  0.36779  0.43690  1.0000
  S   S138      1.0  0.84070  0.31136  0.43735  1.0000
  Fe  Fe71      1.0  0.78486  0.35397  0.43075  1.0000
  S   S139      1.0  0.76221  0.29654  0.43009  1.0000
  S   S140      1.0  0.75025  0.37633  0.42489  1.0000
  Fe  Fe72      1.0  0.79826  0.30649  0.46386  1.0000
  Fe  Fe73      1.0  0.80715  0.30830  0.40361  1.0000
  S   S141      1.0  0.80859  0.28101  0.36659  1.0000
  S   S142      1.0  0.81825  0.36317  0.46556  1.0000
  S   S143      1.0  0.82686  0.36493  0.40218  1.0000
  C   C998      1.0  0.72892  0.37700  0.45319  1.0000
  C   C999      1.0  0.69704  0.37584  0.45127  1.0000
  C   C1000     1.0  0.67917  0.37546  0.47366  1.0000
  H   H796      1.0  0.68583  0.37454  0.43247  1.0000
  H   H797      1.0  0.65437  0.37392  0.47195  1.0000
  C   C1001     1.0  0.99064  0.37248  0.43175  1.0000
  H   H798      1.0  0.90167  0.25644  0.52724  1.0000
  C   C1002     1.0  0.93261  0.36334  0.42613  1.0000
  C   C1003     1.0  0.95619  0.35135  0.42424  1.0000
  H   H799      1.0  0.90660  0.34756  0.41915  1.0000
  H   H800      1.0  0.94784  0.32590  0.41657  1.0000
  H   H801      1.0  0.96477  0.36996  0.48757  1.0000
  H   H802      1.0  0.64648  0.30740  0.49414  1.0000
  C   C1004     1.0  0.56991  0.30436  0.36379  1.0000
  Fe  Fe74      1.0  0.57749  0.04847  0.32609  1.0000
  C   C1005     1.0  0.59903  0.05737  0.45569  1.0000
  C   C1006     1.0  0.54081  0.47103  0.36431  1.0000
  C   C1007     1.0  0.53183  0.18390  0.43223  1.0000
  C   C1008     1.0  0.56422  0.42045  0.39331  1.0000
  C   C1009     1.0  0.81068  0.29755  0.33489  1.0000
  C   C1010     1.0  0.80147  0.32263  0.32966  1.0000
  H   H803      1.0  0.59367  0.14785  0.42058  1.0000
  H   H804      1.0  0.79432  0.33383  0.34539  1.0000
  C   C1011     1.0  0.93559  0.35058  0.35197  1.0000
  S   S144      1.0  0.79994  0.33736  0.61541  1.0000
  Fe  Fe75      1.0  0.58572  0.05186  0.57725  1.0000
  C   C1012     1.0  0.58421  0.44700  0.31952  1.0000
  S   S145      1.0  0.57525  0.07280  0.54010  1.0000
  C   C1013     1.0  0.52840  0.49302  0.35716  1.0000
  C   C1014     1.0  0.88924  0.38666  0.60677  1.0000
  Fe  Fe76      1.0  0.63834  0.05201  0.61478  1.0000
  S   S146      1.0  0.69440  0.07395  0.62451  1.0000
  C   C1015     1.0  0.69487  0.26815  0.49239  1.0000
  S   S147      1.0  0.61415  0.08539  0.61158  1.0000
  C   C1016     1.0  0.98383  0.32400  0.34248  1.0000
  S   S148      1.0  0.78416  0.27498  0.50123  1.0000
  Fe  Fe77      1.0  0.61284  0.34957  0.51820  1.0000
  S   S149      1.0  0.66975  0.37313  0.52619  1.0000
  C   C1017     1.0  0.69335  0.37681  0.49804  1.0000
  C   C1018     1.0  0.72575  0.37905  0.49998  1.0000
  C   C1019     1.0  0.74332  0.37872  0.47756  1.0000
  H   H805      1.0  0.73680  0.38000  0.51878  1.0000
  H   H806      1.0  0.76806  0.38009  0.47921  1.0000
  C   C1020     1.0  0.57411  0.41886  0.33624  1.0000
  C   C1021     1.0  0.58322  0.06406  0.50796  1.0000
  H   H807      1.0  0.84691  0.44384  0.46769  1.0000
  C   C1022     1.0  0.61036  0.05787  0.50220  1.0000
  H   H808      1.0  0.92845  0.25253  0.31452  1.0000
  C   C1023     1.0  0.79548  0.31949  0.58386  1.0000
  C   C1024     1.0  0.79684  0.33907  0.56222  1.0000
  C   C1025     1.0  0.79325  0.32579  0.53692  1.0000
  C   C1026     1.0  0.78848  0.29276  0.53287  1.0000
  C   C1027     1.0  0.78656  0.27296  0.55457  1.0000
  C   C1028     1.0  0.78999  0.28619  0.57988  1.0000
  H   H809      1.0  0.80060  0.36469  0.56501  1.0000
  H   H810      1.0  0.79394  0.34112  0.52058  1.0000
  H   H811      1.0  0.78238  0.24723  0.55187  1.0000
  H   H812      1.0  0.78822  0.27056  0.59631  1.0000
  H   H813      1.0  0.87395  0.36068  0.61405  1.0000
  H   H814      1.0  0.75987  0.13422  0.63557  1.0000
  H   H815      1.0  0.94993  0.34877  0.54312  1.0000
  H   H816      1.0  0.00381  0.28076  0.63050  1.0000
  C   C1029     1.0  0.89413  0.39241  0.58016  1.0000
  H   H817      1.0  0.72506  0.16887  0.40517  1.0000
  C   C1030     1.0  0.91547  0.39772  0.51870  1.0000
  H   H818      1.0  0.62895  0.33311  0.58627  1.0000
  P   P33       1.0  0.71622  0.16769  0.31009  1.0000
  C   C1031     1.0  0.65420  0.20490  0.33575  1.0000
  H   H819      1.0  0.55049  0.43836  0.45506  1.0000
  C   C1032     1.0  0.86202  0.44466  0.54160  1.0000
  C   C1033     1.0  0.60606  0.18026  0.59130  1.0000
  H   H820      1.0  0.97746  0.30550  0.60211  1.0000
  H   H821      1.0  0.67495  0.38403  0.60915  1.0000
  C   C1034     1.0  0.00222  0.33139  0.31911  1.0000
  C   C1035     1.0  0.93605  0.33940  0.56106  1.0000
  C   C1036     1.0  0.59289  0.41614  0.39810  1.0000
  S   S150      1.0  0.52545  0.04076  0.38945  1.0000
  H   H822      1.0  0.87493  0.37550  0.35791  1.0000
  C   C1037     1.0  0.94312  0.39613  0.43618  1.0000
  H   H823      1.0  0.80678  0.44900  0.49819  1.0000
  H   H824      1.0  0.76351  0.03699  0.53713  1.0000
  C   C1038     1.0  0.64185  0.25556  0.40294  1.0000
  H   H825      1.0  0.91514  0.20801  0.39084  1.0000
  H   H826      1.0  0.69530  0.30728  0.51684  1.0000
  H   H827      1.0  0.88437  0.30478  0.62465  1.0000
  H   H828      1.0  0.88161  0.32757  0.34147  1.0000
  C   C1039     1.0  0.72388  0.23137  0.32308  1.0000
  S   S151      1.0  0.54098  0.01434  0.60197  1.0000
  S   S152      1.0  0.52334  0.03935  0.32530  1.0000
  H   H829      1.0  0.64798  0.15531  0.32654  1.0000
  C   C1040     1.0  0.54914  0.42871  0.41400  1.0000
  C   C1041     1.0  0.96379  0.37961  0.36318  1.0000
  H   H830      1.0  0.83873  0.23497  0.60098  1.0000
  H   H831      1.0  0.98551  0.45862  0.56223  1.0000
  C   C1042     1.0  0.56786  0.13697  0.63237  1.0000
  C   C1043     1.0  0.92110  0.29673  0.31136  1.0000
  S   S153      1.0  0.57965  0.29213  0.51696  1.0000
  C   C1044     1.0  0.65944  0.17628  0.43238  1.0000
  P   P34       1.0  0.00012  0.37680  0.58611  1.0000
  C   C1045     1.0  0.72312  0.18951  0.60582  1.0000
  H   H832      1.0  0.62790  0.41601  0.42683  1.0000
  H   H833      1.0  0.60444  0.40874  0.38279  1.0000
  H   H834      1.0  0.59717  0.21966  0.38028  1.0000
  C   C1046     1.0  0.90013  0.31778  0.56028  1.0000
  C   C1047     1.0  0.60874  0.40123  0.31097  1.0000
  H   H835      1.0  0.82667  0.14690  0.53233  1.0000
  C   C1048     1.0  0.57551  0.31616  0.41049  1.0000
  C   C1049     1.0  0.84025  0.21471  0.61114  1.0000
  C   C1050     1.0  0.75098  0.06598  0.56401  1.0000
  C   C1051     1.0  0.90929  0.34178  0.48969  1.0000
  H   H836      1.0  0.57453  0.46470  0.32187  1.0000
  C   C1052     1.0  0.68981  0.22089  0.40052  1.0000
  H   H837      1.0  0.66838  0.16460  0.59808  1.0000
  C   C1053     1.0  0.68124  0.16286  0.42710  1.0000
  P   P35       1.0  0.63695  0.22434  0.42702  1.0000
  C   C1054     1.0  0.57727  0.15843  0.42536  1.0000
  S   S154      1.0  0.58032  0.35699  0.54766  1.0000
  H   H838      1.0  0.57663  0.23379  0.43309  1.0000
  H   H839      1.0  0.85959  0.36897  0.52015  1.0000
  C   C1055     1.0  0.55720  0.44732  0.57509  1.0000
  C   C1056     1.0  0.66197  0.35934  0.61883  1.0000
  H   H840      1.0  0.90696  0.32091  0.47765  1.0000
  C   C1057     1.0  0.65293  0.24767  0.45719  1.0000
  H   H841      1.0  0.96064  0.43249  0.31624  1.0000
  C   C1058     1.0  0.69796  0.12760  0.32753  1.0000
  C   C1059     1.0  0.69287  0.16674  0.59264  1.0000
  H   H842      1.0  0.53583  0.18776  0.34877  1.0000
  H   H843      1.0  0.56177  0.20495  0.57926  1.0000
  C   C1060     1.0  0.94194  0.36962  0.49518  1.0000
  C   C1061     1.0  0.88145  0.30545  0.58314  1.0000
  C   C1062     1.0  0.82432  0.15482  0.61581  1.0000
  C   C1063     1.0  0.68524  0.12539  0.35270  1.0000
  C   C1064     1.0  0.67486  0.09574  0.36742  1.0000
  C   C1065     1.0  0.67727  0.06811  0.35723  1.0000
  H   H844      1.0  0.85884  0.21491  0.32849  1.0000
  C   C1066     1.0  0.52115  0.11410  0.52169  1.0000
  C   C1067     1.0  0.75919  0.09876  0.57271  1.0000
  H   H845      1.0  0.74457  0.10120  0.58839  1.0000
  H   H846      1.0  0.69244  0.04892  0.32438  1.0000
  C   C1068     1.0  0.71182  0.25362  0.33027  1.0000
  C   C1069     1.0  0.76210  0.18544  0.31493  1.0000
  C   C1070     1.0  0.69414  0.14639  0.57262  1.0000
  S   S155      1.0  0.58761  0.35863  0.48386  1.0000
  C   C1071     1.0  0.56262  0.43275  0.43900  1.0000
  H   H847      1.0  0.88223  0.37059  0.56718  1.0000
  Fe  Fe78      1.0  0.54501  0.30008  0.54449  1.0000
  C   C1072     1.0  0.70114  0.10005  0.31766  1.0000
  H   H848      1.0  0.73319  0.22110  0.38210  1.0000
  C   C1073     1.0  0.52342  0.43634  0.35638  1.0000
  H   H849      1.0  0.66466  0.09412  0.38670  1.0000
  H   H850      1.0  0.66888  0.04512  0.36873  1.0000
  H   H851      1.0  0.64009  0.05119  0.47201  1.0000
  H   H852      1.0  0.85443  0.32010  0.49462  1.0000
  C   C1074     1.0  0.88484  0.44158  0.52442  1.0000
  H   H853      1.0  0.61858  0.22174  0.61878  1.0000
  H   H854      1.0  0.85356  0.28962  0.58247  1.0000
  H   H855      1.0  0.66787  0.25789  0.34163  1.0000
  C   C1075     1.0  0.91595  0.27928  0.36655  1.0000
  H   H856      1.0  0.96464  0.39999  0.62312  1.0000
  C   C1076     1.0  0.92484  0.25346  0.36985  1.0000
  C   C1077     1.0  0.53647  0.20492  0.54411  1.0000
  H   H857      1.0  0.58558  0.13290  0.56918  1.0000
  C   C1078     1.0  0.93467  0.33513  0.60765  1.0000
  C   C1079     1.0  0.94508  0.39768  0.50938  1.0000
  C   C1080     1.0  0.60624  0.42011  0.42315  1.0000
  C   C1081     1.0  0.95363  0.34863  0.58484  1.0000
  C   C1082     1.0  0.69044  0.07026  0.33234  1.0000
  C   C1083     1.0  0.53200  0.27937  0.61266  1.0000
  C   C1084     1.0  0.85142  0.44460  0.48834  1.0000
  C   C1085     1.0  0.88964  0.27854  0.38207  1.0000
  C   C1086     1.0  0.87278  0.25271  0.40050  1.0000
  C   C1087     1.0  0.88180  0.22719  0.40358  1.0000
  C   C1088     1.0  0.71217  0.20801  0.39578  1.0000
  Fe  Fe79      1.0  0.55160  0.36042  0.51324  1.0000
  C   C1089     1.0  0.92801  0.40562  0.37037  1.0000
  C   C1090     1.0  0.54702  0.28360  0.41542  1.0000
  H   H858      1.0  0.77720  0.20854  0.61048  1.0000
  H   H859      1.0  0.88196  0.29782  0.38043  1.0000
  H   H860      1.0  0.85256  0.25256  0.41228  1.0000
  H   H861      1.0  0.86874  0.20725  0.41793  1.0000
  H   H862      1.0  0.98831  0.38063  0.36612  1.0000
  C   C1091     1.0  0.56801  0.21119  0.50459  1.0000
  H   H863      1.0  0.64026  0.16466  0.44751  1.0000
  H   H864      1.0  0.88653  0.31089  0.54201  1.0000
  C   C1092     1.0  0.00066  0.32484  0.36557  1.0000
  H   H865      1.0  0.71649  0.26848  0.50222  1.0000
  C   C1093     1.0  0.63617  0.33061  0.60584  1.0000
  C   C1094     1.0  0.54688  0.45633  0.59809  1.0000
  S   S156      1.0  0.58735  0.31727  0.33205  1.0000
  H   H866      1.0  0.75966  0.19495  0.35565  1.0000
  H   H867      1.0  0.94539  0.25362  0.35854  1.0000
  P   P36       1.0  0.93891  0.31316  0.34304  1.0000
  H   H868      1.0  0.94727  0.48855  0.49620  1.0000
  Fe  Fe80      1.0  0.54143  0.07893  0.35706  1.0000
  C   C1095     1.0  0.90783  0.22757  0.38825  1.0000
  C   C1096     1.0  0.59535  0.21252  0.51879  1.0000
  C   C1097     1.0  0.59301  0.20906  0.54578  1.0000
  C   C1098     1.0  0.56372  0.20616  0.55840  1.0000
  P   P37       1.0  0.62720  0.20846  0.56415  1.0000
  H   H869      1.0  0.89537  0.43753  0.48409  1.0000
  C   C1099     1.0  0.64942  0.19266  0.54352  1.0000
  C   C1100     1.0  0.68580  0.21046  0.54181  1.0000
  C   C1101     1.0  0.70257  0.19976  0.52435  1.0000
  C   C1102     1.0  0.68342  0.17156  0.50816  1.0000
  C   C1103     1.0  0.64738  0.15380  0.50956  1.0000
  C   C1104     1.0  0.63047  0.16411  0.52720  1.0000
  H   H870      1.0  0.67060  0.12874  0.56240  1.0000
  C   C1105     1.0  0.64103  0.26972  0.46589  1.0000
  C   C1106     1.0  0.58812  0.44616  0.62175  1.0000
  C   C1107     1.0  0.65817  0.25100  0.57567  1.0000
  C   C1108     1.0  0.68185  0.25479  0.59512  1.0000
  C   C1109     1.0  0.70755  0.28755  0.60293  1.0000
  C   C1110     1.0  0.71021  0.31678  0.59112  1.0000
  C   C1111     1.0  0.68663  0.31325  0.57188  1.0000
  C   C1112     1.0  0.66038  0.28048  0.56436  1.0000
  H   H871      1.0  0.56481  0.48147  0.37508  1.0000
  H   H872      1.0  0.61823  0.21628  0.50865  1.0000
  H   H873      1.0  0.98582  0.44266  0.45158  1.0000
  H   H874      1.0  0.70162  0.23298  0.55349  1.0000
  H   H875      1.0  0.73052  0.21366  0.52318  1.0000
  H   H876      1.0  0.69649  0.16361  0.49443  1.0000
  H   H877      1.0  0.63245  0.13208  0.49686  1.0000
  H   H878      1.0  0.60257  0.15014  0.52753  1.0000
  C   C1113     1.0  0.87975  0.34157  0.49895  1.0000
  H   H879      1.0  0.52632  0.43100  0.41099  1.0000
  H   H880      1.0  0.92465  0.42609  0.37860  1.0000
  H   H881      1.0  0.59025  0.43069  0.55750  1.0000
  H   H882      1.0  0.55646  0.06515  0.44594  1.0000
  H   H883      1.0  0.73083  0.34215  0.59668  1.0000
  H   H884      1.0  0.68877  0.33597  0.56269  1.0000
  H   H885      1.0  0.64242  0.27835  0.54939  1.0000
  C   C1114     1.0  0.62152  0.27033  0.36413  1.0000
  C   C1115     1.0  0.64870  0.30430  0.36604  1.0000
  C   C1116     1.0  0.67271  0.31388  0.38612  1.0000
  C   C1117     1.0  0.66943  0.28964  0.40450  1.0000
  C   C1118     1.0  0.68283  0.28992  0.50076  1.0000
  H   H886      1.0  0.81197  0.08898  0.51705  1.0000
  H   H887      1.0  0.72584  0.13226  0.55052  1.0000
  H   H888      1.0  0.86912  0.26009  0.48956  1.0000
  H   H889      1.0  0.82810  0.26501  0.31776  1.0000
  C   C1119     1.0  0.58648  0.14445  0.58770  1.0000
  C   C1120     1.0  0.89875  0.31397  0.60681  1.0000
  C   C1121     1.0  0.52992  0.26166  0.39434  1.0000
  H   H890      1.0  0.69371  0.34027  0.38766  1.0000
  H   H891      1.0  0.68831  0.29777  0.41999  1.0000
  H   H892      1.0  0.57833  0.37365  0.34387  1.0000
  C   C1122     1.0  0.98875  0.42185  0.61716  1.0000
  H   H893      1.0  0.59904  0.27654  0.60812  1.0000
  H   H894      1.0  0.52714  0.38029  0.62848  1.0000
  H   H895      1.0  0.69092  0.23145  0.46441  1.0000
  H   H896      1.0  0.60284  0.26298  0.34856  1.0000
  H   H897      1.0  0.82091  0.21387  0.36399  1.0000
  C   C1123     1.0  0.92152  0.44802  0.61470  1.0000
  C   C1124     1.0  0.61848  0.05507  0.47623  1.0000
  C   C1125     1.0  0.65556  0.29024  0.48779  1.0000
  H   H898      1.0  0.86505  0.44406  0.56229  1.0000
  C   C1126     1.0  0.54106  0.27204  0.36869  1.0000
  H   H899      1.0  0.69429  0.24391  0.39048  1.0000
  C   C1127     1.0  0.66302  0.20498  0.41870  1.0000
  C   C1128     1.0  0.99845  0.45377  0.62850  1.0000
  C   C1129     1.0  0.83187  0.20641  0.32468  1.0000
  C   C1130     1.0  0.01727  0.30823  0.62690  1.0000
  P   P38       1.0  0.79605  0.17044  0.57293  1.0000
  C   C1131     1.0  0.75602  0.17038  0.57978  1.0000
  C   C1132     1.0  0.81938  0.20075  0.54749  1.0000
  C   C1133     1.0  0.80133  0.20278  0.52597  1.0000
  C   C1134     1.0  0.81933  0.22396  0.50514  1.0000
  C   C1135     1.0  0.85541  0.24349  0.50568  1.0000
  C   C1136     1.0  0.87365  0.24145  0.52692  1.0000
  C   C1137     1.0  0.85576  0.21996  0.54769  1.0000
  C   C1138     1.0  0.72559  0.14844  0.56601  1.0000
  C   C1139     1.0  0.96001  0.40706  0.37218  1.0000
  C   C1140     1.0  0.58700  0.32631  0.38488  1.0000
  C   C1141     1.0  0.59794  0.43688  0.59877  1.0000
  C   C1142     1.0  0.75455  0.19139  0.59941  1.0000
  C   C1143     1.0  0.78614  0.12832  0.56132  1.0000
  H   H900      1.0  0.53521  0.36776  0.58350  1.0000
  C   C1144     1.0  0.79719  0.09174  0.53258  1.0000
  C   C1145     1.0  0.80538  0.12460  0.54128  1.0000
  H   H901      1.0  0.81044  0.12824  0.60952  1.0000
  C   C1146     1.0  0.59081  0.19399  0.42927  1.0000
  C   C1147     1.0  0.60541  0.19419  0.61560  1.0000
  C   C1148     1.0  0.90302  0.41437  0.62404  1.0000
  H   H902      1.0  0.77336  0.18791  0.52515  1.0000
  H   H903      1.0  0.80520  0.22559  0.48865  1.0000
  C   C1149     1.0  0.68001  0.24702  0.47079  1.0000
  C   C1150     1.0  0.01748  0.38105  0.55389  1.0000
  H   H904      1.0  0.72936  0.28117  0.33077  1.0000
  H   H905      1.0  0.01596  0.42748  0.54472  1.0000
  H   H906      1.0  0.75063  0.24197  0.31761  1.0000
  C   C1151     1.0  0.70126  0.19575  0.32219  1.0000
  H   H907      1.0  0.60968  0.35110  0.38143  1.0000
  H   H908      1.0  0.87047  0.21803  0.56359  1.0000
  H   H909      1.0  0.58921  0.33327  0.42642  1.0000
  C   C1152     1.0  0.92665  0.45390  0.58812  1.0000
  P   P39       1.0  0.91888  0.43425  0.53631  1.0000
  S   S157      1.0  0.91329  0.41047  0.44047  1.0000
  S   S158      1.0  0.61104  0.05433  0.42329  1.0000
  C   C1153     1.0  0.00228  0.32244  0.61095  1.0000
  C   C1154     1.0  0.55585  0.31346  0.61930  1.0000
  C   C1155     1.0  0.53843  0.20703  0.51718  1.0000
  C   C1156     1.0  0.61831  0.24590  0.38229  1.0000
  C   C1157     1.0  0.70780  0.17890  0.40896  1.0000
  S   S159      1.0  0.54039  0.40399  0.51114  1.0000
  C   C1158     1.0  0.00133  0.40547  0.44150  1.0000
  H   H910      1.0  0.65100  0.32327  0.35203  1.0000
  C   C1159     1.0  0.81999  0.28357  0.31408  1.0000
  H   H911      1.0  0.98138  0.42861  0.38191  1.0000
  H   H912      1.0  0.98705  0.31939  0.38381  1.0000
  H   H913      1.0  0.62165  0.27246  0.45530  1.0000
  C   C1160     1.0  0.88278  0.36929  0.51350  1.0000
  H   H914      1.0  0.67766  0.14016  0.43728  1.0000
  C   C1161     1.0  0.57148  0.06295  0.46147  1.0000
  C   C1162     1.0  0.82879  0.44746  0.50553  1.0000
  C   C1163     1.0  0.87905  0.44125  0.49772  1.0000
  P   P40       1.0  0.54332  0.41021  0.36198  1.0000
  C   C1164     1.0  0.56389  0.06663  0.48742  1.0000
  H   H915      1.0  0.68093  0.23239  0.60386  1.0000
  C   C1165     1.0  0.56754  0.20647  0.43210  1.0000
  H   H916      1.0  0.62586  0.05643  0.51771  1.0000
  H   H917      1.0  0.97057  0.41956  0.51225  1.0000
  H   H918      1.0  0.72600  0.29030  0.61771  1.0000
  C   C1166     1.0  0.83409  0.44749  0.53214  1.0000
  H   H919      1.0  0.54310  0.07177  0.49155  1.0000
  Fe  Fe81      1.0  0.55180  0.30155  0.48427  1.0000
  C   C1167     1.0  0.77582  0.19531  0.33990  1.0000
  C   C1168     1.0  0.61953  0.29863  0.61809  1.0000
  C   C1169     1.0  0.91335  0.42609  0.57065  1.0000
  C   C1170     1.0  0.82232  0.18070  0.60187  1.0000
  C   C1171     1.0  0.76993  0.06243  0.54389  1.0000
  H   H920      1.0  0.56703  0.33275  0.60436  1.0000
  H   H921      1.0  0.54548  0.44756  0.55682  1.0000
  C   C1172     1.0  0.59109  0.42837  0.44358  1.0000
  H   H922      1.0  0.61732  0.42894  0.59898  1.0000
  H   H923      1.0  0.60100  0.43079  0.46308  1.0000
  C   C1173     1.0  0.66616  0.18264  0.32813  1.0000
  C   C1174     1.0  0.96800  0.49200  0.50891  1.0000
  H   H924      1.0  0.72209  0.20493  0.62164  1.0000
  H   H925      1.0  0.54552  0.13593  0.52749  1.0000
  S   S160      1.0  0.61381  0.02201  0.57862  1.0000
  C   C1175     1.0  0.89997  0.37704  0.35899  1.0000
  H   H926      1.0  0.72984  0.04343  0.57297  1.0000
  Fe  Fe82      1.0  0.57212  0.04515  0.63661  1.0000
  C   C1176     1.0  0.96159  0.47052  0.53036  1.0000
  C   C1177     1.0  0.90384  0.34987  0.34960  1.0000
  H   H927      1.0  0.57008  0.21433  0.48387  1.0000
  H   H928      1.0  0.62714  0.19467  0.34066  1.0000
  C   C1178     1.0  0.58642  0.39595  0.33165  1.0000
  C   C1179     1.0  0.67701  0.24042  0.33647  1.0000
  C   C1180     1.0  0.58270  0.43780  0.57542  1.0000
  H   H929      1.0  0.93181  0.46952  0.62809  1.0000
  C   C1181     1.0  0.98957  0.47535  0.54594  1.0000
  C   C1182     1.0  0.56287  0.45611  0.62141  1.0000
  H   H930      1.0  0.68350  0.14656  0.36116  1.0000
  H   H931      1.0  0.52790  0.25461  0.35279  1.0000
  H   H932      1.0  0.81616  0.44915  0.54544  1.0000
  H   H933      1.0  0.94065  0.48018  0.58119  1.0000
  H   H934      1.0  0.94759  0.34121  0.62617  1.0000
  H   H935      1.0  0.53138  0.10872  0.42177  1.0000
  C   C1183     1.0  0.01913  0.35819  0.60680  1.0000
  H   H936      1.0  0.55202  0.09535  0.60516  1.0000
  C   C1184     1.0  0.54151  0.13587  0.42573  1.0000
  H   H937      1.0  0.61790  0.38321  0.30751  1.0000
  S   S161      1.0  0.52032  0.26606  0.57993  1.0000
  S   S162      1.0  0.53233  0.26881  0.44747  1.0000
  H   H938      1.0  0.89853  0.41325  0.31526  1.0000
  C   C1185     1.0  0.52489  0.49980  0.57116  1.0000
  C   C1186     1.0  0.01079  0.41845  0.59943  1.0000
  H   H939      1.0  0.58477  0.13803  0.30833  1.0000
  C   C1187     1.0  0.52178  0.13777  0.33313  1.0000
  C   C1188     1.0  0.52544  0.17067  0.33227  1.0000
  H   H940      1.0  0.01873  0.48419  0.31617  1.0000
  S   S163      1.0  0.53473  0.12513  0.36104  1.0000
  C   C1189     1.0  0.85994  0.22273  0.63378  1.0000
  C   C1190     1.0  0.58674  0.17258  0.63607  1.0000
  S   S164      1.0  0.94874  0.41718  0.93824  1.0000
  Fe  Fe83      1.0  0.81850  0.32264  0.71331  1.0000
  S   S165      1.0  0.82598  0.27701  0.71531  1.0000
  S   S166      1.0  0.82262  0.35162  0.75096  1.0000
  Fe  Fe84      1.0  0.85890  0.29927  0.68002  1.0000
  S   S167      1.0  0.91180  0.30437  0.67615  1.0000
  Fe  Fe85      1.0  0.78177  0.25255  0.68722  1.0000
  C   C1191     1.0  0.52356  0.38710  0.89941  1.0000
  S   S168      1.0  0.85361  0.34650  0.67887  1.0000
  S   S169      1.0  0.77199  0.29694  0.68704  1.0000
  S   S170      1.0  0.54732  0.05619  0.67141  1.0000
  C   C1192     1.0  0.56642  0.32241  0.64523  1.0000
  H   H941      1.0  0.98189  0.43253  0.88109  1.0000
  H   H942      1.0  0.61283  0.17571  0.70624  1.0000
  C   C1193     1.0  0.54395  0.26163  0.86770  1.0000
  C   C1194     1.0  0.73130  0.35286  0.71475  1.0000
  C   C1195     1.0  0.77118  0.36953  0.66981  1.0000
  S   S171      1.0  0.57000  0.07205  0.85563  1.0000
  Fe  Fe86      1.0  0.89220  0.37799  0.93589  1.0000
  S   S172      1.0  0.86891  0.32075  0.93246  1.0000
  Fe  Fe87      1.0  0.82255  0.37361  0.93869  1.0000
  S   S173      1.0  0.79361  0.31597  0.93498  1.0000
  S   S174      1.0  0.79624  0.40485  0.94376  1.0000
  C   C1196     1.0  0.52622  0.46950  0.81117  1.0000
  Fe  Fe88      1.0  0.83268  0.32466  0.90379  1.0000
  S   S175      1.0  0.81929  0.29524  0.86528  1.0000
  S   S176      1.0  0.53760  0.31530  0.76632  1.0000
  S   S177      1.0  0.85857  0.38225  0.90562  1.0000
  C   C1197     1.0  0.54697  0.43456  0.84486  1.0000
  S   S178      1.0  0.54406  0.25471  0.94650  1.0000
  C   C1198     1.0  0.52387  0.44530  0.85360  1.0000
  C   C1199     1.0  0.53978  0.37245  0.91337  1.0000
  H   H943      1.0  0.52792  0.04286  0.76570  1.0000
  H   H944      1.0  0.78674  0.37581  0.65246  1.0000
  C   C1200     1.0  0.97758  0.40130  0.93570  1.0000
  C   C1201     1.0  0.96794  0.36943  0.92416  1.0000
  C   C1202     1.0  0.99218  0.35809  0.92199  1.0000
  H   H945      1.0  0.94220  0.35401  0.91636  1.0000
  H   H946      1.0  0.98508  0.33391  0.91248  1.0000
  H   H947      1.0  0.73656  0.33532  0.92024  1.0000
  H   H948      1.0  0.62881  0.29002  0.88437  1.0000
  C   C1203     1.0  0.54810  0.45766  0.80241  1.0000
  C   C1204     1.0  0.55891  0.05230  0.70371  1.0000
  H   H949      1.0  0.57406  0.37127  0.71327  1.0000
  C   C1205     1.0  0.53675  0.24921  0.89331  1.0000
  C   C1206     1.0  0.59765  0.04800  0.73481  1.0000
  C   C1207     1.0  0.54511  0.04523  0.75007  1.0000
  C   C1208     1.0  0.53723  0.04983  0.72442  1.0000
  C   C1209     1.0  0.56042  0.38214  0.70325  1.0000
  H   H950      1.0  0.59851  0.43464  0.71209  1.0000
  C   C1210     1.0  0.76507  0.38755  0.96826  1.0000
  H   H951      1.0  0.61437  0.27048  0.65263  1.0000
  C   C1211     1.0  0.55299  0.50946  0.89350  1.0000
  H   H952      1.0  0.55597  0.42149  0.85746  1.0000
  H   H953      1.0  0.58652  0.18347  0.65474  1.0000
  H   H954      1.0  0.57602  0.43162  0.81257  1.0000
  C   C1212     1.0  0.82482  0.33665  0.78250  1.0000
  C   C1213     1.0  0.82020  0.30374  0.78662  1.0000
  C   C1214     1.0  0.81924  0.29165  0.81195  1.0000
  C   C1215     1.0  0.82401  0.31269  0.83357  1.0000
  C   C1216     1.0  0.83086  0.34638  0.82941  1.0000
  C   C1217     1.0  0.83059  0.35806  0.80411  1.0000
  H   H955      1.0  0.81736  0.28763  0.77027  1.0000
  H   H956      1.0  0.81497  0.26590  0.81476  1.0000
  H   H957      1.0  0.83584  0.36321  0.84574  1.0000
  H   H958      1.0  0.83490  0.38384  0.80126  1.0000
  H   H959      1.0  0.71277  0.36504  0.83774  1.0000
  C   C1218     1.0  0.68886  0.13989  0.67488  1.0000
  C   C1219     1.0  0.67116  0.35612  0.64410  1.0000
  H   H960      1.0  0.66891  0.14124  0.68593  1.0000
  C   C1220     1.0  0.55294  0.29755  0.66493  1.0000
  H   H961      1.0  0.89896  0.40973  0.64463  1.0000
  C   C1221     1.0  0.94545  0.34685  0.68224  1.0000
  H   H962      1.0  0.58083  0.32497  0.92588  1.0000
  C   C1222     1.0  0.96449  0.40501  0.69742  1.0000
  H   H963      1.0  0.56614  0.45917  0.69009  1.0000
  H   H964      1.0  0.63168  0.27281  0.80331  1.0000
  C   C1223     1.0  0.67040  0.25816  0.68879  1.0000
  C   C1224     1.0  0.65656  0.22278  0.69275  1.0000
  H   H965      1.0  0.98224  0.45577  0.64325  1.0000
  H   H966      1.0  0.69612  0.27290  0.68073  1.0000
  H   H967      1.0  0.67176  0.21065  0.68805  1.0000
  C   C1225     1.0  0.72663  0.24339  0.75229  1.0000
  C   C1226     1.0  0.69054  0.22684  0.75169  1.0000
  C   C1227     1.0  0.67105  0.19180  0.75758  1.0000
  C   C1228     1.0  0.68756  0.17331  0.76450  1.0000
  C   C1229     1.0  0.72387  0.18980  0.76506  1.0000
  C   C1230     1.0  0.74316  0.22490  0.75888  1.0000
  P   P41       1.0  0.74613  0.16783  0.77638  1.0000
  C   C1231     1.0  0.75454  0.17592  0.81058  1.0000
  C   C1232     1.0  0.71931  0.12169  0.77180  1.0000
  C   C1233     1.0  0.69401  0.10227  0.79034  1.0000
  C   C1234     1.0  0.67379  0.06653  0.78781  1.0000
  C   C1235     1.0  0.67786  0.04983  0.76639  1.0000
  C   C1236     1.0  0.70251  0.06887  0.74761  1.0000
  C   C1237     1.0  0.72334  0.10459  0.75036  1.0000
  C   C1238     1.0  0.76524  0.15623  0.82488  1.0000
  C   C1239     1.0  0.77295  0.16290  0.85120  1.0000
  C   C1240     1.0  0.76991  0.18917  0.86342  1.0000
  C   C1241     1.0  0.75909  0.20868  0.84935  1.0000
  C   C1242     1.0  0.75157  0.20228  0.82302  1.0000
  C   C1243     1.0  0.78689  0.18517  0.75918  1.0000
  C   C1244     1.0  0.81865  0.20196  0.77250  1.0000
  C   C1245     1.0  0.84993  0.21689  0.75887  1.0000
  C   C1246     1.0  0.84984  0.21519  0.73190  1.0000
  C   C1247     1.0  0.81844  0.19872  0.71852  1.0000
  C   C1248     1.0  0.78718  0.18433  0.73208  1.0000
  H   H968      1.0  0.74196  0.27041  0.74725  1.0000
  H   H969      1.0  0.67770  0.24105  0.74630  1.0000
  H   H970      1.0  0.64312  0.17891  0.75656  1.0000
  H   H971      1.0  0.67192  0.14627  0.76914  1.0000
  H   H972      1.0  0.77105  0.23788  0.75896  1.0000
  H   H973      1.0  0.68964  0.11472  0.80670  1.0000
  H   H974      1.0  0.65432  0.05184  0.80222  1.0000
  H   H975      1.0  0.57282  0.37830  0.94568  1.0000
  H   H976      1.0  0.70540  0.05598  0.73083  1.0000
  H   H977      1.0  0.74226  0.11832  0.73559  1.0000
  H   H978      1.0  0.76799  0.13599  0.81558  1.0000
  H   H979      1.0  0.78146  0.14785  0.86213  1.0000
  H   H980      1.0  0.77617  0.19469  0.88375  1.0000
  H   H981      1.0  0.75719  0.22930  0.85880  1.0000
  H   H982      1.0  0.74390  0.21833  0.81260  1.0000
  H   H983      1.0  0.81958  0.20446  0.79331  1.0000
  H   H984      1.0  0.87428  0.23045  0.76921  1.0000
  H   H985      1.0  0.87407  0.22756  0.72133  1.0000
  H   H986      1.0  0.81824  0.19825  0.69759  1.0000
  H   H987      1.0  0.76316  0.17302  0.72138  1.0000
  C   C1249     1.0  0.62334  0.20308  0.70305  1.0000
  H   H988      1.0  0.58580  0.34859  0.64996  1.0000
  C   C1250     1.0  0.74876  0.16529  0.66155  1.0000
  C   C1251     1.0  0.72290  0.16735  0.67546  1.0000
  H   H989      1.0  0.96003  0.38629  0.79894  1.0000
  C   C1252     1.0  0.01109  0.42131  0.94546  1.0000
  H   H990      1.0  0.87368  0.24897  0.64087  1.0000
  H   H991      1.0  0.60674  0.05448  0.69358  1.0000
  C   C1253     1.0  0.55160  0.03927  0.96018  1.0000
  C   C1254     1.0  0.62836  0.29537  0.64345  1.0000
  C   C1255     1.0  0.71478  0.34183  0.69066  1.0000
  C   C1256     1.0  0.56735  0.42314  0.94058  1.0000
  H   H992      1.0  0.78000  0.38049  0.73493  1.0000
  C   C1257     1.0  0.64552  0.41408  0.87822  1.0000
  C   C1258     1.0  0.78732  0.38075  0.69383  1.0000
  H   H993      1.0  0.64865  0.30256  0.74355  1.0000
  C   C1259     1.0  0.97359  0.37669  0.84925  1.0000
  H   H994      1.0  0.63224  0.31720  0.92674  1.0000
  C   C1260     1.0  0.55598  0.43157  0.69013  1.0000
  C   C1261     1.0  0.84380  0.16290  0.63858  1.0000
  H   H995      1.0  0.55647  0.46159  0.78242  1.0000
  H   H996      1.0  0.71651  0.34667  0.73244  1.0000
  H   H997      1.0  0.63782  0.42294  0.86137  1.0000
  H   H998      1.0  0.66494  0.38695  0.85580  1.0000
  C   C1262     1.0  0.73509  0.34958  0.66822  1.0000
  H   H999      1.0  0.65711  0.37929  0.68913  1.0000
  C   C1263     1.0  0.70584  0.10905  0.64518  1.0000
  H   H1000     1.0  0.93712  0.29323  0.86931  1.0000
  C   C1264     1.0  0.68028  0.11092  0.65956  1.0000
  C   C1265     1.0  0.57716  0.17374  0.78803  1.0000
  C   C1266     1.0  0.57455  0.14444  0.77627  1.0000
  C   C1267     1.0  0.59038  0.12754  0.78766  1.0000
  C   C1268     1.0  0.60875  0.13979  0.81079  1.0000
  C   C1269     1.0  0.61122  0.16906  0.82289  1.0000
  C   C1270     1.0  0.59503  0.18576  0.81137  1.0000
  P   P42       1.0  0.63451  0.18577  0.85295  1.0000
  C   C1271     1.0  0.60517  0.18966  0.87503  1.0000
  C   C1272     1.0  0.64763  0.15733  0.86738  1.0000
  C   C1273     1.0  0.63666  0.14411  0.89237  1.0000
  C   C1274     1.0  0.64762  0.12281  0.90354  1.0000
  C   C1275     1.0  0.66919  0.11409  0.88985  1.0000
  C   C1276     1.0  0.68071  0.12755  0.86519  1.0000
  C   C1277     1.0  0.67042  0.14954  0.85414  1.0000
  C   C1278     1.0  0.61628  0.21805  0.89173  1.0000
  C   C1279     1.0  0.59356  0.21872  0.91009  1.0000
  C   C1280     1.0  0.55991  0.19104  0.91219  1.0000
  C   C1281     1.0  0.52990  0.42035  0.90550  1.0000
  C   C1282     1.0  0.57101  0.16227  0.87691  1.0000
  C   C1283     1.0  0.67403  0.22598  0.84755  1.0000
  C   C1284     1.0  0.68306  0.24030  0.82269  1.0000
  C   C1285     1.0  0.71410  0.27104  0.81873  1.0000
  C   C1286     1.0  0.73623  0.28773  0.83949  1.0000
  C   C1287     1.0  0.72792  0.27326  0.86414  1.0000
  C   C1288     1.0  0.69718  0.24225  0.86811  1.0000
  H   H1001     1.0  0.56430  0.18647  0.77947  1.0000
  H   H1002     1.0  0.55968  0.13442  0.75862  1.0000
  H   H1003     1.0  0.58815  0.10469  0.77872  1.0000
  H   H1004     1.0  0.62007  0.12565  0.81923  1.0000
  H   H1005     1.0  0.59574  0.20776  0.82062  1.0000
  H   H1006     1.0  0.61954  0.14986  0.90344  1.0000
  H   H1007     1.0  0.63872  0.11240  0.92270  1.0000
  H   H1008     1.0  0.67664  0.09665  0.89840  1.0000
  H   H1009     1.0  0.69752  0.12083  0.85469  1.0000
  H   H1010     1.0  0.67976  0.16010  0.83513  1.0000
  H   H1011     1.0  0.64228  0.23963  0.89087  1.0000
  H   H1012     1.0  0.60182  0.24062  0.92283  1.0000
  H   H1013     1.0  0.53540  0.34715  0.90818  1.0000
  H   H1014     1.0  0.52939  0.33200  0.82009  1.0000
  H   H1015     1.0  0.56187  0.13992  0.86441  1.0000
  H   H1016     1.0  0.66644  0.22783  0.80628  1.0000
  H   H1017     1.0  0.72114  0.28201  0.79955  1.0000
  H   H1018     1.0  0.76009  0.31164  0.83641  1.0000
  H   H1019     1.0  0.74577  0.28574  0.88005  1.0000
  H   H1020     1.0  0.69152  0.23091  0.88722  1.0000
  S   S179      1.0  0.73204  0.20359  0.69402  1.0000
  C   C1289     1.0  0.79377  0.39863  0.87247  1.0000
  C   C1290     1.0  0.80756  0.43337  0.87881  1.0000
  C   C1291     1.0  0.78635  0.44481  0.88969  1.0000
  C   C1292     1.0  0.75135  0.42150  0.89423  1.0000
  C   C1293     1.0  0.73722  0.38655  0.88763  1.0000
  C   C1294     1.0  0.75883  0.37524  0.87697  1.0000
  P   P43       1.0  0.69179  0.35642  0.89270  1.0000
  C   C1295     1.0  0.68507  0.32916  0.92043  1.0000
  C   C1296     1.0  0.67007  0.38113  0.89685  1.0000
  C   C1297     1.0  0.66462  0.39037  0.92166  1.0000
  C   C1298     1.0  0.64906  0.41067  0.92469  1.0000
  C   C1299     1.0  0.66083  0.39353  0.87513  1.0000
  C   C1300     1.0  0.65306  0.31334  0.93326  1.0000
  C   C1301     1.0  0.55888  0.44064  0.81935  1.0000
  C   C1302     1.0  0.97901  0.35781  0.67313  1.0000
  C   C1303     1.0  0.70582  0.30217  0.95085  1.0000
  C   C1304     1.0  0.71138  0.32312  0.92929  1.0000
  C   C1305     1.0  0.67368  0.32957  0.86436  1.0000
  C   C1306     1.0  0.68944  0.34040  0.84002  1.0000
  C   C1307     1.0  0.67461  0.31976  0.81813  1.0000
  C   C1308     1.0  0.64375  0.28840  0.82031  1.0000
  C   C1309     1.0  0.62782  0.27767  0.84439  1.0000
  C   C1310     1.0  0.64255  0.29823  0.86624  1.0000
  H   H1021     1.0  0.81039  0.38977  0.86458  1.0000
  H   H1022     1.0  0.83487  0.45122  0.87594  1.0000
  H   H1023     1.0  0.79726  0.47153  0.89536  1.0000
  H   H1024     1.0  0.73571  0.43087  0.90326  1.0000
  H   H1025     1.0  0.74870  0.34833  0.87228  1.0000
  H   H1026     1.0  0.67257  0.38214  0.93871  1.0000
  H   H1027     1.0  0.68677  0.32835  0.79943  1.0000
  C   C1311     1.0  0.76738  0.37226  0.71628  1.0000
  C   C1312     1.0  0.63451  0.36971  0.75243  1.0000
  H   H1028     1.0  0.81533  0.39538  0.69516  1.0000
  C   C1313     1.0  0.00507  0.39247  0.67574  1.0000
  S   S180      1.0  0.59495  0.03908  0.92119  1.0000
  C   C1314     1.0  0.63947  0.42249  0.90297  1.0000
  C   C1315     1.0  0.00933  0.45046  0.88071  1.0000
  H   H1029     1.0  0.64447  0.41724  0.94393  1.0000
  H   H1030     1.0  0.77512  0.18643  0.66205  1.0000
  H   H1031     1.0  0.89332  0.45857  0.96806  1.0000
  H   H1032     1.0  0.91364  0.36185  0.70364  1.0000
  H   H1033     1.0  0.88991  0.35594  0.86019  1.0000
  C   C1316     1.0  0.57766  0.31947  0.88427  1.0000
  S   S181      1.0  0.81533  0.26904  0.65186  1.0000
  C   C1317     1.0  0.60358  0.21860  0.70888  1.0000
  C   C1318     1.0  0.58934  0.05169  0.70915  1.0000
  H   H1034     1.0  0.66376  0.03989  0.68566  1.0000
  H   H1035     1.0  0.55648  0.46352  0.93190  1.0000
  H   H1036     1.0  0.60306  0.25425  0.84606  1.0000
  H   H1037     1.0  0.62156  0.04817  0.73871  1.0000
  S   S182      1.0  0.58728  0.03886  0.78727  1.0000
  C   C1319     1.0  0.93865  0.37037  0.69508  1.0000
  H   H1038     1.0  0.58379  0.43677  0.95691  1.0000
  H   H1039     1.0  0.87666  0.20323  0.66524  1.0000
  C   C1320     1.0  0.64244  0.38387  0.72766  1.0000
  C   C1321     1.0  0.65095  0.27406  0.69499  1.0000
  C   C1322     1.0  0.54857  0.16295  0.89549  1.0000
  H   H1040     1.0  0.57756  0.20329  0.71652  1.0000
  C   C1323     1.0  0.52035  0.48111  0.89912  1.0000
  C   C1324     1.0  0.61713  0.25385  0.70455  1.0000
  H   H1041     1.0  0.62727  0.43808  0.90534  1.0000
  C   C1325     1.0  0.57538  0.04409  0.75539  1.0000
  S   S183      1.0  0.59846  0.01418  0.64162  1.0000
  H   H1042     1.0  0.72330  0.34037  0.64946  1.0000
  Fe  Fe89      1.0  0.54919  0.28502  0.79518  1.0000
  C   C1326     1.0  0.00624  0.45495  0.75996  1.0000
  C   C1327     1.0  0.57415  0.41779  0.70258  1.0000
  C   C1328     1.0  0.65196  0.36834  0.70826  1.0000
  H   H1043     1.0  0.88547  0.30032  0.87207  1.0000
  H   H1044     1.0  0.60106  0.26528  0.70842  1.0000
  H   H1045     1.0  0.59293  0.34673  0.88092  1.0000
  H   H1046     1.0  0.63039  0.32942  0.77722  1.0000
  Fe  Fe90      1.0  0.80802  0.31500  0.65279  1.0000
  H   H1047     1.0  0.99282  0.34109  0.85503  1.0000
  H   H1048     1.0  0.95868  0.42311  0.70692  1.0000
  C   C1329     1.0  0.93904  0.31748  0.86395  1.0000
  C   C1330     1.0  0.97075  0.34493  0.85586  1.0000
  C   C1331     1.0  0.90994  0.32147  0.86553  1.0000
  C   C1332     1.0  0.91244  0.35281  0.85882  1.0000
  C   C1333     1.0  0.63679  0.34041  0.75800  1.0000
  H   H1049     1.0  0.64054  0.40650  0.72332  1.0000
  C   C1334     1.0  0.55098  0.27174  0.91456  1.0000
  C   C1335     1.0  0.56121  0.39019  0.93424  1.0000
  C   C1336     1.0  0.73731  0.39395  0.96840  1.0000
  H   H1050     1.0  0.94526  0.40418  0.84513  1.0000
  C   C1337     1.0  0.94397  0.38018  0.85046  1.0000
  C   C1338     1.0  0.99776  0.41621  0.68777  1.0000
  P   P44       1.0  0.66801  0.31945  0.68881  1.0000
  H   H1051     1.0  0.53379  0.24376  0.85164  1.0000
  Fe  Fe91      1.0  0.54374  0.28396  0.73473  1.0000
  H   H1052     1.0  0.54251  0.19155  0.92662  1.0000
  C   C1339     1.0  0.55177  0.43824  0.92632  1.0000
  C   C1340     1.0  0.65375  0.33849  0.71349  1.0000
  C   C1341     1.0  0.64771  0.29268  0.95489  1.0000
  S   S184      1.0  0.57009  0.30943  0.69673  1.0000
  C   C1342     1.0  0.67415  0.28722  0.96377  1.0000
  S   S185      1.0  0.56236  0.25868  0.76336  1.0000
  C   C1343     1.0  0.64666  0.32501  0.73871  1.0000
  C   C1344     1.0  0.86163  0.19686  0.64755  1.0000
  C   C1345     1.0  0.98088  0.41123  0.79309  1.0000
  S   S186      1.0  0.57922  0.31352  0.83132  1.0000
  C   C1346     1.0  0.58224  0.03939  0.95387  1.0000
  Fe  Fe92      1.0  0.55720  0.03142  0.82488  1.0000
  C   C1347     1.0  0.57059  0.30711  0.90984  1.0000
  H   H1053     1.0  0.66148  0.02223  0.76415  1.0000
  C   C1348     1.0  0.56529  0.29687  0.86303  1.0000
  H   H1054     1.0  0.72652  0.29851  0.95820  1.0000
  H   H1055     1.0  0.98468  0.33972  0.66348  1.0000
  H   H1056     1.0  0.62628  0.38118  0.76731  1.0000
  C   C1349     1.0  0.65268  0.01217  0.68440  1.0000
  Fe  Fe93      1.0  0.56152  0.03180  0.88542  1.0000
  H   H1057     1.0  0.65381  0.09004  0.65893  1.0000
  H   H1058     1.0  0.57146  0.50615  0.88198  1.0000
  H   H1059     1.0  0.73575  0.41031  0.95378  1.0000
  H   H1060     1.0  0.53509  0.03934  0.94489  1.0000
  H   H1061     1.0  0.62305  0.28100  0.96485  1.0000
  H   H1062     1.0  0.52052  0.22188  0.89659  1.0000
  H   H1063     1.0  0.69159  0.37857  0.65371  1.0000
  C   C1350     1.0  0.65461  0.32403  0.65662  1.0000
  C   C1351     1.0  0.74022  0.13582  0.64665  1.0000
  Fe  Fe94      1.0  0.83254  0.31822  0.96406  1.0000
  C   C1352     1.0  0.97893  0.42377  0.76880  1.0000
  H   H1064     1.0  0.95656  0.40887  0.75654  1.0000
  H   H1065     1.0  0.55367  0.12017  0.64832  1.0000
  H   H1066     1.0  0.00542  0.47948  0.91248  1.0000
  H   H1067     1.0  0.00501  0.46423  0.74090  1.0000
  C   C1353     1.0  0.52420  0.40968  0.67828  1.0000
  C   C1354     1.0  0.52856  0.36020  0.69153  1.0000
  H   H1068     1.0  0.84481  0.14273  0.64940  1.0000
  H   H1069     1.0  0.01879  0.44595  0.95428  1.0000
  C   C1355     1.0  0.52805  0.26374  0.65848  1.0000
  H   H1070     1.0  0.69260  0.01535  0.65921  1.0000
  C   C1356     1.0  0.00992  0.43028  0.80901  1.0000
  H   H1071     1.0  0.59999  0.44548  0.63985  1.0000
  P   P45       1.0  0.01460  0.41269  0.83915  1.0000
  H   H1072     1.0  0.62761  0.04045  0.96952  1.0000
  S   S187      1.0  0.85873  0.37532  0.96916  1.0000
  H   H1073     1.0  0.55601  0.46368  0.63931  1.0000
  H   H1074     1.0  0.52239  0.14152  0.89705  1.0000
  C   C1357     1.0  0.52336  0.74073  0.18465  1.0000
  H   H1075     1.0  0.53604  0.85441  0.20190  1.0000
  S   S188      1.0  0.56920  0.92530  0.11089  1.0000
  C   C1358     1.0  0.55027  0.83031  0.28324  1.0000
  H   H1076     1.0  0.66412  0.89910  0.15667  1.0000
  C   C1359     1.0  0.63701  0.87991  0.15871  1.0000
  H   H1077     1.0  0.55830  0.96192  0.22467  1.0000
  H   H1078     1.0  0.54176  0.55451  0.98012  1.0000
  C   C1360     1.0  0.53674  0.88662  0.00130  1.0000
  C   C1361     1.0  0.52027  0.55870  0.98425  1.0000
  C   C1362     1.0  0.54557  0.89435  0.02749  1.0000
  H   H1079     1.0  0.55620  0.79022  0.26516  1.0000
  C   C1363     1.0  0.56098  0.81638  0.26355  1.0000
  S   S189      1.0  0.54560  0.99749  0.10744  1.0000
  P   P46       1.0  0.58691  0.92992  0.26011  1.0000
  H   H1080     1.0  0.55072  0.96540  0.98182  1.0000
  C   C1364     1.0  0.61155  0.88724  0.15041  1.0000
  C   C1365     1.0  0.55540  0.77843  0.03377  1.0000
  H   H1081     1.0  0.53306  0.73921  0.16577  1.0000
  C   C1366     1.0  0.58548  0.87051  0.24044  1.0000
  H   H1082     1.0  0.60551  0.82441  0.03348  1.0000
  C   C1367     1.0  0.53886  0.91253  0.98491  1.0000
  C   C1368     1.0  0.57847  0.81301  0.02817  1.0000
  H   H1083     1.0  0.56264  0.93326  0.05727  1.0000
  Fe  Fe95      1.0  0.58589  0.98154  0.10782  1.0000
  H   H1084     1.0  0.58514  0.85927  0.01038  1.0000
  H   H1085     1.0  0.61884  0.91190  0.14162  1.0000
  H   H1086     1.0  0.55056  0.61389  0.98081  1.0000
  H   H1087     1.0  0.55725  0.86891  0.14638  1.0000
  H   H1088     1.0  0.64724  0.84194  0.17554  1.0000
  C   C1369     1.0  0.52515  0.59207  0.98455  1.0000
  C   C1370     1.0  0.54242  0.95282  0.24175  1.0000
  C   C1371     1.0  0.57656  0.86261  0.15297  1.0000
  C   C1372     1.0  0.60025  0.94164  0.20719  1.0000
  H   H1089     1.0  0.53715  0.81501  0.30013  1.0000
  H   H1090     1.0  0.56553  0.97828  0.02821  1.0000
  C   C1373     1.0  0.64557  0.98226  0.23559  1.0000
  C   C1374     1.0  0.52379  0.90246  0.11110  1.0000
  H   H1091     1.0  0.56451  0.76302  0.04349  1.0000
  C   C1375     1.0  0.52910  0.92699  0.28428  1.0000
  H   H1092     1.0  0.58723  0.82568  0.22710  1.0000
  H   H1093     1.0  0.60850  0.95276  0.16646  1.0000
  C   C1376     1.0  0.61321  0.95236  0.23234  1.0000
  C   C1377     1.0  0.57845  0.83641  0.24213  1.0000
  C   C1378     1.0  0.62746  0.84771  0.16930  1.0000
  C   C1379     1.0  0.56681  0.83277  0.01527  1.0000
  H   H1094     1.0  0.60043  0.88574  0.22420  1.0000
  C   C1380     1.0  0.54958  0.93608  0.26182  1.0000
  H   H1095     1.0  0.53517  0.82474  0.11272  1.0000
  C   C1381     1.0  0.55809  0.95295  0.02058  1.0000
  H   H1096     1.0  0.54961  0.87471  0.29761  1.0000
  H   H1097     1.0  0.58581  0.79797  0.17947  1.0000
  C   C1382     1.0  0.56665  0.83006  0.16341  1.0000
  H   H1098     1.0  0.54328  0.87473  0.04077  1.0000
  C   C1383     1.0  0.54964  0.94560  0.99448  1.0000
  H   H1099     1.0  0.57489  0.91943  0.20417  1.0000
  H   H1100     1.0  0.65575  0.99192  0.25469  1.0000
  C   C1384     1.0  0.59244  0.82277  0.17150  1.0000
  P   P47       1.0  0.52120  0.79819  0.16589  1.0000
  C   C1385     1.0  0.57425  0.88463  0.25998  1.0000
  C   C1386     1.0  0.55630  0.92744  0.03701  1.0000
  C   C1387     1.0  0.55690  0.86422  0.28151  1.0000
  H   H1101     1.0  0.52475  0.69619  0.19904  1.0000
  C   C1388     1.0  0.53178  0.81824  0.00849  1.0000
  C   C1389     1.0  0.61926  0.96048  0.18575  1.0000
  H   H1102     1.0  0.53470  0.91564  0.30067  1.0000
  C   C1390     1.0  0.61220  0.94670  0.28931  1.0000
  C   C1391     1.0  0.52061  0.76367  0.02663  1.0000
  H   H1103     1.0  0.59245  0.98090  0.29895  1.0000
  H   H1104     1.0  0.63796  0.91665  0.28543  1.0000
  C   C1392     1.0  0.63485  0.93506  0.29709  1.0000
  C   C1393     1.0  0.65155  0.98998  0.18918  1.0000
  H   H1105     1.0  0.66607  0.00486  0.17255  1.0000
  C   C1394     1.0  0.66468  0.00085  0.21407  1.0000
  H   H1106     1.0  0.51991  0.86371  0.08444  1.0000
  H   H1107     1.0  0.56280  0.91485  0.55039  1.0000
  H   H1108     1.0  0.59492  0.56274  0.53933  1.0000
  H   H1109     1.0  0.54514  0.76705  0.43297  1.0000
  C   C1395     1.0  0.52771  0.74038  0.43797  1.0000
  H   H1110     1.0  0.54432  0.74665  0.47768  1.0000
  C   C1396     1.0  0.53111  0.86053  0.41816  1.0000
  H   H1111     1.0  0.54942  0.54138  0.61528  1.0000
  H   H1112     1.0  0.52483  0.94515  0.37337  1.0000
  C   C1397     1.0  0.65329  0.94673  0.32029  1.0000
  C   C1398     1.0  0.55484  0.94729  0.48275  1.0000
  H   H1113     1.0  0.66328  0.97897  0.35391  1.0000
  H   H1114     1.0  0.54853  0.56838  0.51720  1.0000
  C   C1399     1.0  0.52723  0.72886  0.46312  1.0000
  H   H1115     1.0  0.54245  0.51995  0.36266  1.0000
  Fe  Fe96      1.0  0.57127  0.98685  0.60544  1.0000
  C   C1400     1.0  0.52648  0.87987  0.43738  1.0000
  C   C1401     1.0  0.58766  0.95457  0.52187  1.0000
  C   C1402     1.0  0.62742  0.98235  0.32786  1.0000
  C   C1403     1.0  0.64938  0.97021  0.33578  1.0000
  C   C1404     1.0  0.54201  0.54934  0.53223  1.0000
  H   H1116     1.0  0.55603  0.87031  0.40884  1.0000
  H   H1117     1.0  0.61078  0.96937  0.53341  1.0000
  H   H1118     1.0  0.53847  0.58539  0.45219  1.0000
  H   H1119     1.0  0.54133  0.90089  0.36502  1.0000
  H   H1120     1.0  0.67030  0.93727  0.32639  1.0000
  C   C1405     1.0  0.60915  0.97094  0.30466  1.0000
  C   C1406     1.0  0.58493  0.96610  0.49742  1.0000
  H   H1121     1.0  0.54822  0.90451  0.44274  1.0000
  C   C1407     1.0  0.56053  0.92388  0.53149  1.0000
  C   C1408     1.0  0.56809  0.54617  0.54471  1.0000
  S   S190      1.0  0.55177  0.93028  0.60163  1.0000
  H   H1122     1.0  0.60611  0.98970  0.48984  1.0000
  H   H1123     1.0  0.55322  0.95686  0.46388  1.0000
  H   H1124     1.0  0.52696  0.57013  0.40566  1.0000
  C   C1409     1.0  0.00177  0.51783  0.50317  1.0000
  C   C1410     1.0  0.55964  0.52176  0.56426  1.0000
  C   C1411     1.0  0.53039  0.90492  0.51691  1.0000
  C   C1412     1.0  0.52712  0.91665  0.49248  1.0000
  H   H1125     1.0  0.52118  0.84723  0.63611  1.0000
  S   S191      1.0  0.56689  0.00903  0.35678  1.0000
  H   H1126     1.0  0.62431  0.00061  0.33968  1.0000
  H   H1127     1.0  0.52563  0.97879  0.53155  1.0000
  H   H1128     1.0  0.00656  0.53400  0.48638  1.0000
  C   C1413     1.0  0.53390  0.52501  0.63094  1.0000
  H   H1129     1.0  0.58030  0.52012  0.57398  1.0000
  C   C1414     1.0  0.60374  0.92867  0.79401  1.0000
  C   C1415     1.0  0.53819  0.54721  0.91704  1.0000
  S   S192      1.0  0.55500  0.99336  0.85447  1.0000
  C   C1416     1.0  0.54218  0.88490  0.69583  1.0000
  C   C1417     1.0  0.59895  0.95552  0.78529  1.0000
  C   C1418     1.0  0.55949  0.86663  0.94597  1.0000
  C   C1419     1.0  0.56871  0.86392  0.92058  1.0000
  C   C1420     1.0  0.65432  0.96256  0.66745  1.0000
  H   H1130     1.0  0.53543  0.87952  0.83898  1.0000
  H   H1131     1.0  0.54655  0.91289  0.90034  1.0000
  C   C1421     1.0  0.52050  0.85584  0.71071  1.0000
  H   H1132     1.0  0.61249  0.91309  0.67853  1.0000
  H   H1133     1.0  0.52373  0.94083  0.74853  1.0000
  C   C1422     1.0  0.62129  0.99032  0.69665  1.0000
  H   H1134     1.0  0.58679  0.56424  0.89761  1.0000
  C   C1423     1.0  0.59752  0.90150  0.77734  1.0000
  C   C1424     1.0  0.54165  0.88160  0.66876  1.0000
  H   H1135     1.0  0.58510  0.97671  0.75351  1.0000
  H   H1136     1.0  0.57616  0.88966  0.95694  1.0000
  H   H1137     1.0  0.61237  0.92899  0.81364  1.0000
  C   C1425     1.0  0.56181  0.54239  0.90238  1.0000
  H   H1138     1.0  0.59173  0.88492  0.91204  1.0000
  H   H1139     1.0  0.60162  0.88088  0.78402  1.0000
  H   H1140     1.0  0.58165  0.87983  0.73939  1.0000
  C   C1426     1.0  0.54815  0.83417  0.90613  1.0000
  H   H1141     1.0  0.60392  0.97681  0.79806  1.0000
  H   H1142     1.0  0.55491  0.83219  0.88630  1.0000
  H   H1143     1.0  0.55315  0.96864  0.91458  1.0000
  H   H1144     1.0  0.60861  0.00129  0.70775  1.0000
  H   H1145     1.0  0.66702  0.95184  0.65593  1.0000
  C   C1427     1.0  0.52011  0.94828  0.72950  1.0000
  H   H1146     1.0  0.54467  0.57276  0.92357  1.0000
  C   C1428     1.0  0.58765  0.95507  0.76002  1.0000
  H   H1147     1.0  0.54965  0.56768  0.65733  1.0000
  C   C1429     1.0  0.58575  0.90077  0.75213  1.0000
  P   P48       1.0  0.56579  0.92707  0.71070  1.0000
  C   C1430     1.0  0.57965  0.92702  0.74353  1.0000
  C   C1431     1.0  0.60588  0.95448  0.69409  1.0000
  C   C1432     1.0  0.62312  0.94066  0.68000  1.0000
  C   C1433     1.0  0.53742  0.94495  0.70792  1.0000
  H   H1148     1.0  0.55625  0.90391  0.65657  1.0000
  H   H1149     1.0  0.53097  0.90693  0.96495  1.0000
  C   C1434     1.0  0.52163  0.84943  0.65701  1.0000
  C   C1435     1.0  0.66893  0.99830  0.66946  1.0000
  H   H1150     1.0  0.52922  0.88761  0.79131  1.0000
  C   C1436     1.0  0.52601  0.91353  0.91109  1.0000
  C   C1437     1.0  0.53417  0.54003  0.65478  1.0000
  H   H1151     1.0  0.54360  0.95110  0.66643  1.0000
  H   H1152     1.0  0.52532  0.83055  0.79613  1.0000
  C   C1438     1.0  0.53106  0.95400  0.68343  1.0000
  C   C1439     1.0  0.52911  0.83984  0.95687  1.0000
  C   C1440     1.0  0.52961  0.94499  0.91898  1.0000
