data_image0
_chemical_formula_structural       SFeS2FeS2FeSFeS3C3PCFeS2HC9H4C6H2CH2CHC3H3C6H3CHC2PHC4HCHC2HC5HCH2CHC5PH2CH2C4H2CH2C5HC3H2CHCHCH2CH4CH2C2HCHC2H3CHCH2CH2C2H3C3H2CHC3H2C3HCHC4PC18PH16CHC2H9C2HCH2CHC2H5C3HFeS2FeSFeSFeS3FeCSCSC2SFeSHSC2HC2H4CHC4HC2H3C6H4FeC3H8CH5CHC3H5CHC2H2CH2CHCHCHCH2C4HCHC2HCPH3C5PC2HCH2C12H2CHC5H3CH2CH6C2HC14FeC2H2CHPHCH3C2HCSCH2C2H2CH2PCFeH2C3HCH3FeCHSHC2SC2HC3HFeS2FeSHFeSFeCS2CH2C2FeSC2SFeSHFeS2FeSFeS3FeS2FeS2FeSFeHS2FeSC4H2C7H4C7FeH2CHCHCH4C11H2C7H4SCHC6H4C2SC2HCHC2HPC2HC4SH2C4H5CH6C2H2C3SHCHC2H4CHSHCHC2H3CHCH2CHCH2CH2C2PCHCH2CPC4HC2HCH5C3H3C3SHSCHC3PC12HCH8CH2CHCHC2H3PC3H2C2H3CH2SC3HC5H4CHCH3C3H3CHC2H2C2H3C3HC2HC3HC2H4CHC3HC4H2C2HCHCH2C3HC3HCHCH2C4H2C2HC3SHSHP3CHC2HC2SC6HC2SHFeSC2FeS2FeS2Fe2S3HS2FeS2FeS2FeSFeS3CHC6H5CH3C6H4C6H4CH2C5H2C2HC5H2CH2PFeC2HC3HCHCHC4SCS2H4C2H2CHC4HCHC12PC12H13C6PC19HCHCH12CH3C5H8CH3CHC3H2C3HCHC4PHSCFeH2C6H6C8SHC3HCH3C3HCHFeC2H3CH4CHCH2PFeCHCH2CH7C2H2SHC3H2SC4H2C3H3C3HCHC2HCH3CHC2H2FeC2HCHC2H3C2HCH4C3HC2H4C4HCH4C2HCH5C5HC2HSHCH2CFeS3H3C6H4CHC3H3CH2CHCHC3H2SC6HC3H2C2HC3HCHC2HC3H2PCH3C6PHCHCHC2PCSHC2HCH3CH4FeCHC4H4FeCSHCS2C2S2H2C8H7C4HSH2SH2C2HC2HCH3C2FeCHC2HCH3CPHC4H3CH2CH2C4HCH2C3HC2H2C2H2CH3C2H2CHC2H2CFeS2FeS2FeSFeS3HSCFeS2HC2HCH2C3H3C8H4C6H4C4HC6H3FeCH2C2H2C5H4CHCH3CHC3H3C2H3CHC6PC3HC11H6C2H7C2HCHCH4CH2C2FeHCHC2PHCH2C5HC2HCHC4H2SHCPCHCHCSHCH2CH2C5H2C4FeHFeC2H2CH2CHC2HC2H3C5PSCSH2CHSHC4HCH2CH3CHSFeS2FeS2FeSFeS3HCHCH2FeSCS2H2C2HCHC6HC2H2C7H4CHC2SH2C6H4CH2C8PC2HC7FeC3H5C2H6CHC6PC15HC2H10CH3C2H2CHC4PC14H12FeHCH2SCH2C2HCHCHCHCHCSHCH3CHCH2CFeH2C2HCH2CHCHCHC2HSC3HCHCSC2H4CH3CHC10H3SH2SH5CHC2FeSFeS2FeSFeS3FeCSCHS2HCSCHCH2SHSFeCSCHCH3C4H2C6H2CHSC8H4C2H2C2H2C3HCH4CH4FeCHFeH3CFeC3H2C3HCHPCH2CHC6PC14H15C9H3C3H3C2HCH5CH3CSH2CHCFePC3H2CHCSC6HC2H2CH3CH4C3HCHC4H2C6H2CH2C4HC2HSCHCH3CHPCHCHPHCHC3SH3C2FeSHFeSHFeSHSFeS2FeS2FeSFeS3HC2HC7H2CHC6H4C2HCHC2HC7H4C2H5C3HCH2CHC2H3C3H2C3HCHCH2SCH2CPC5H2C2PH2C2H2CH6CH2C2PH2CSC4HC6HCH5C2HCH4CH6C2HC3HC7H2SC3HCHC2H2CHC3HSCFeSHSC4HC2FeH2C3H2CHC2HC3H3CHCH3CH4C4H3CHC2H2SHC6HC4HCH2C5HCSCHCH4C2H4CHCHC2H3CHCSHCH2C2PHCH2CHC3HC5HC3HSC3PC3H4CH3CHSCFePHFeS2CFe3S3FeSH2CH2C3HC2HCH3CH2SC2H2C7H4CHCH2CFeC3PHC3HCHCPCH3SHC3H2CHC5HCFeH2CHCH5CHCH2C4HC3H2SC3HC2HC2HC2HCH4CHC2H2CHC2HCH2CHC4HPHC4HC3HC2SH2C3HC2HC2H2CHC2HCSH2CSC4FeSHC2H3SFeS2FeSFeS5FeS2FeS2Fe2S3FeS2FeS2FeSFeS3HFeSFe2HSFeHCS2HC7H4C6HCH2C3HC7H4C6H4CHCFeHC6H3C7H3C4H3C7HCHCHC4H2C4PC18H18C5PC7HCSC4H4CHC3H3CSC5FeCH3C3HCHC2H2CHC9PC18H2PH17PH2C4HC4HC2HC2HC2H2C2H3C2H3CH6CHCH3C2HCH3CHCHC2HPH4C2HC3HC2HC4HCH2C3H2FeC6HC3HCPHC2HCH3C2HCHCH2C2H7C2HCHC2HC5H4C2SH2C4H2CH2CHC3HPCHC2HC3H2CHC2H2CHC2HCFeHFeHCSHSC4H3C4H3CPC3H4CHFeH2CHSHFeSHSCFeS2FeC2FeCFeS3FeS2FeS2FeS2FeS2FeSFeS2FeS2FeS2FeSFeS3CFeC4H4C6H4C5H2C6H4PC6H4C2H2C3H3C6H3CHC6HCH3C2PCHCHC4H2SHC3HCH2SCHCH2C2H2C3H2CHSCHC7HCH4SCHCH5C2H3C3H3PC16H7FeC2H2C2HCH2C2HCHCHC6H4C2H2CHCHCHC4H2CH3CPH2PHC2H3PCHC3HCHCH3C2HCH4C2HC3H4CH4CH4C4H3SCHCH3CHC4H2C3H2CHC2HPH3C5H3C9HC2H2C2HC2HS2CH2CH3C4HCHC3HCH2C2HC4HPHCHCHCHC2H2C5HC2H2CHC2PCHCHC2HC3HC2H3CHC4H2CHC2H2C2H2CHSC3S2CH2CH2CSHCFeS2FeS2FeHFeS3HPS2CHCHSH2C2H2C4HCHC2HC6H4C2HC3HC6H3C2HC7H8SHSHCH2CPHSHC4H4CH3C2HC5HCHC4HCHCHCHCHC3HC3H3CHC3HC2FeCH2CHC4HC2HCH2CHCPC2HC3HC3H3CSH3C3SCHCHCHC2SHFeH3C2HCHC2H4SCFeS2FeS2FeSFeS3HSC7H4C6H6C2HCH4C4H2SHCHC2FeC2HCPHC2FeCH3CH6C2H3CH2C2HC3HCH5C2HCHCH4C2HC3HC2HC2PCH2C2H2C3H4C3HC3PHCH2CH2CHC6HCH5CH3CH4CHC7PC16HCHCH2C3HCHC2FeC2HCS
_chemical_formula_sum              "S288 Fe144 C2160 P72 H1728"
_cell_length_a       72.6111
_cell_length_b       74.8179
_cell_length_c       32.1149
_cell_angle_alpha    89.3909
_cell_angle_beta     91.0286
_cell_angle_gamma    111.876

_space_group_name_H-M_alt    "P 1"
_space_group_IT_number       1

loop_
  _space_group_symop_operation_xyz
  'x, y, z'

loop_
  _atom_site_type_symbol
  _atom_site_label
  _atom_site_symmetry_multiplicity
  _atom_site_fract_x
  _atom_site_fract_y
  _atom_site_fract_z
  _atom_site_occupancy
  S   S1        1.0  0.24723  0.03557  0.49434  1.0000
  Fe  Fe1       1.0  0.28148  0.07195  0.27170  1.0000
  S   S2        1.0  0.25261  0.06937  0.24120  1.0000
  S   S3        1.0  0.29037  0.08415  0.33673  1.0000
  Fe  Fe2       1.0  0.29632  0.05880  0.19352  1.0000
  S   S4        1.0  0.26869  0.05568  0.15691  1.0000
  S   S5        1.0  0.32251  0.05167  0.17204  1.0000
  Fe  Fe3       1.0  0.27087  0.08376  0.18588  1.0000
  S   S6        1.0  0.26065  0.10450  0.14810  1.0000
  Fe  Fe4       1.0  0.25267  0.04178  0.21489  1.0000
  S   S7        1.0  0.22476  0.01538  0.20670  1.0000
  S   S8        1.0  0.30001  0.08811  0.21795  1.0000
  S   S9        1.0  0.28009  0.04305  0.25000  1.0000
  C   C1        1.0  0.23478  0.10895  0.24067  1.0000
  C   C2        1.0  0.37588  0.07097  0.49210  1.0000
  C   C3        1.0  0.35586  0.04414  0.28878  1.0000
  P   P1        1.0  0.31351  0.99168  0.25914  1.0000
  C   C4        1.0  0.42782  0.99264  0.36345  1.0000
  Fe  Fe5       1.0  0.28077  0.21561  0.10860  1.0000
  S   S10       1.0  0.29386  0.19638  0.14401  1.0000
  S   S11       1.0  0.25031  0.21006  0.08160  1.0000
  H   H1        1.0  0.43437  0.02260  0.37828  1.0000
  C   C5        1.0  0.23191  0.99844  0.27866  1.0000
  C   C6        1.0  0.18240  0.02073  0.39818  1.0000
  C   C7        1.0  0.44005  0.01114  0.37692  1.0000
  C   C8        1.0  0.27002  0.13005  0.14822  1.0000
  C   C9        1.0  0.25907  0.13963  0.12767  1.0000
  C   C10       1.0  0.26610  0.15991  0.12618  1.0000
  C   C11       1.0  0.28419  0.17083  0.14537  1.0000
  C   C12       1.0  0.29507  0.16125  0.16629  1.0000
  C   C13       1.0  0.28810  0.14097  0.16745  1.0000
  H   H2        1.0  0.24512  0.13130  0.11248  1.0000
  H   H3        1.0  0.25758  0.16708  0.10998  1.0000
  H   H4        1.0  0.30916  0.16958  0.18092  1.0000
  H   H5        1.0  0.29692  0.13377  0.18214  1.0000
  C   C14       1.0  0.18615  0.01266  0.36180  1.0000
  C   C15       1.0  0.37278  0.01969  0.42697  1.0000
  C   C16       1.0  0.30577  0.03753  0.09513  1.0000
  C   C17       1.0  0.32208  0.04154  0.12226  1.0000
  C   C18       1.0  0.33847  0.03736  0.10969  1.0000
  C   C19       1.0  0.33854  0.02914  0.07044  1.0000
  H   H6        1.0  0.29308  0.04070  0.10429  1.0000
  H   H7        1.0  0.35125  0.04067  0.13026  1.0000
  C   C20       1.0  0.42640  0.98458  0.50706  1.0000
  H   H8        1.0  0.36749  0.11892  0.30533  1.0000
  H   H9        1.0  0.39357  0.12592  0.36056  1.0000
  C   C21       1.0  0.33016  0.06158  0.45907  1.0000
  H   H10       1.0  0.24210  0.02782  0.40698  1.0000
  C   C22       1.0  0.20243  0.04962  0.49285  1.0000
  C   C23       1.0  0.12261  0.03250  0.46112  1.0000
  C   C24       1.0  0.35384  0.09705  0.41627  1.0000
  H   H11       1.0  0.43671  0.98900  0.07193  1.0000
  H   H12       1.0  0.33263  0.09844  0.32118  1.0000
  H   H13       1.0  0.21546  0.05218  0.43167  1.0000
  C   C25       1.0  0.25944  0.04933  0.45102  1.0000
  C   C26       1.0  0.27454  0.06747  0.45571  1.0000
  C   C27       1.0  0.28394  0.07795  0.42039  1.0000
  C   C28       1.0  0.27825  0.07046  0.38022  1.0000
  C   C29       1.0  0.26312  0.05237  0.37552  1.0000
  C   C30       1.0  0.25378  0.04183  0.41085  1.0000
  H   H14       1.0  0.27904  0.07334  0.48650  1.0000
  H   H15       1.0  0.29569  0.09188  0.42421  1.0000
  H   H16       1.0  0.25860  0.04647  0.34470  1.0000
  C   C31       1.0  0.39154  0.00112  0.37698  1.0000
  H   H17       1.0  0.39809  0.05970  0.51079  1.0000
  C   C32       1.0  0.41995  0.00826  0.27354  1.0000
  C   C33       1.0  0.18816  0.01573  0.43728  1.0000
  P   P2        1.0  0.40268  0.98796  0.34575  1.0000
  H   H18       1.0  0.20447  0.21061  0.08748  1.0000
  C   C34       1.0  0.25563  0.21345  0.50492  1.0000
  C   C35       1.0  0.13844  0.04778  0.47860  1.0000
  C   C36       1.0  0.40276  0.99486  0.29151  1.0000
  C   C37       1.0  0.38546  0.99205  0.22487  1.0000
  H   H19       1.0  0.19852  0.99337  0.33579  1.0000
  C   C38       1.0  0.22011  0.99646  0.24280  1.0000
  H   H20       1.0  0.35200  0.06847  0.31710  1.0000
  C   C39       1.0  0.15678  0.04605  0.48566  1.0000
  C   C40       1.0  0.33339  0.05039  0.42720  1.0000
  H   H21       1.0  0.24170  0.08367  0.44508  1.0000
  C   C41       1.0  0.32411  0.04480  0.30855  1.0000
  C   C42       1.0  0.32969  0.11306  0.47953  1.0000
  C   C43       1.0  0.44693  0.99570  0.50593  1.0000
  C   C44       1.0  0.15939  0.02896  0.47531  1.0000
  C   C45       1.0  0.32162  0.12353  0.50427  1.0000
  H   H22       1.0  0.29340  0.02682  0.03473  1.0000
  C   C46       1.0  0.15789  0.22795  0.51835  1.0000
  H   H23       1.0  0.14456  0.22403  0.49916  1.0000
  H   H24       1.0  0.23667  0.98469  0.33500  1.0000
  C   C47       1.0  0.31463  0.02606  0.29346  1.0000
  H   H25       1.0  0.35529  0.01991  0.37225  1.0000
  C   C48       1.0  0.36956  0.08651  0.49439  1.0000
  C   C49       1.0  0.39697  0.00479  0.41919  1.0000
  C   C50       1.0  0.28607  0.00048  0.21048  1.0000
  C   C51       1.0  0.34640  0.02540  0.27368  1.0000
  C   C52       1.0  0.12510  0.01546  0.45068  1.0000
  P   P3        1.0  0.18296  0.02636  0.48382  1.0000
  H   H26       1.0  0.31679  0.13430  0.49023  1.0000
  H   H27       1.0  0.31540  0.05233  0.32183  1.0000
  C   C53       1.0  0.30283  0.02408  0.44416  1.0000
  H   H28       1.0  0.20404  0.99974  0.46836  1.0000
  H   H29       1.0  0.17659  0.22939  0.46663  1.0000
  C   C54       1.0  0.29959  0.03510  0.47603  1.0000
  C   C55       1.0  0.19767  0.21179  0.05782  1.0000
  C   C56       1.0  0.36369  0.11300  0.33635  1.0000
  C   C57       1.0  0.39346  0.07188  0.51217  1.0000
  H   H30       1.0  0.23148  0.11012  0.20788  1.0000
  H   H31       1.0  0.29219  0.00969  0.43815  1.0000
  C   C58       1.0  0.41986  0.01341  0.23152  1.0000
  H   H32       1.0  0.28635  0.02947  0.49467  1.0000
  H   H33       1.0  0.10843  0.03389  0.45560  1.0000
  C   C59       1.0  0.20742  0.22698  0.37851  1.0000
  C   C60       1.0  0.19865  0.00329  0.43908  1.0000
  C   C61       1.0  0.33499  0.20358  0.33007  1.0000
  C   C62       1.0  0.25658  0.98776  0.49344  1.0000
  C   C63       1.0  0.22326  0.09281  0.26356  1.0000
  H   H34       1.0  0.29836  0.01341  0.20154  1.0000
  C   C64       1.0  0.34408  0.10139  0.34520  1.0000
  C   C65       1.0  0.38779  0.01426  0.44383  1.0000
  C   C66       1.0  0.21597  0.05893  0.46151  1.0000
  H   H35       1.0  0.35526  0.01797  0.26091  1.0000
  H   H36       1.0  0.32218  0.02315  0.39505  1.0000
  C   C67       1.0  0.24531  0.22511  0.49212  1.0000
  H   H37       1.0  0.38510  0.11208  0.43082  1.0000
  C   C68       1.0  0.32231  0.02534  0.04317  1.0000
  H   H38       1.0  0.36519  0.02632  0.44677  1.0000
  C   C69       1.0  0.23255  0.08573  0.50776  1.0000
  H   H39       1.0  0.30792  0.19129  0.36444  1.0000
  H   H40       1.0  0.43349  0.01466  0.29168  1.0000
  C   C70       1.0  0.46044  0.98802  0.49043  1.0000
  H   H41       1.0  0.29867  0.01913  0.29617  1.0000
  H   H42       1.0  0.37183  0.05120  0.28677  1.0000
  H   H43       1.0  0.26885  0.16634  0.38881  1.0000
  H   H44       1.0  0.21103  0.08147  0.24848  1.0000
  C   C71       1.0  0.19588  0.99975  0.36404  1.0000
  H   H45       1.0  0.16805  0.19531  0.07793  1.0000
  H   H46       1.0  0.27904  0.11237  0.46398  1.0000
  C   C72       1.0  0.37837  0.11686  0.36742  1.0000
  C   C73       1.0  0.37348  0.10896  0.40730  1.0000
  H   H47       1.0  0.16881  0.05812  0.49901  1.0000
  C   C74       1.0  0.32537  0.98563  0.21539  1.0000
  H   H48       1.0  0.33889  0.19100  0.33356  1.0000
  C   C75       1.0  0.31323  0.05369  0.48372  1.0000
  C   C76       1.0  0.34471  0.05387  0.30597  1.0000
  H   H49       1.0  0.26520  0.00700  0.17047  1.0000
  H   H50       1.0  0.21962  0.07801  0.32248  1.0000
  H   H51       1.0  0.33621  0.01444  0.18890  1.0000
  C   C77       1.0  0.36715  0.01597  0.38512  1.0000
  H   H52       1.0  0.39180  0.01674  0.47656  1.0000
  C   C78       1.0  0.31977  0.03170  0.41984  1.0000
  H   H53       1.0  0.26845  0.21364  0.48790  1.0000
  H   H54       1.0  0.26728  0.16453  0.46540  1.0000
  C   C79       1.0  0.37652  0.00677  0.36016  1.0000
  H   H55       1.0  0.28986  0.98404  0.33481  1.0000
  H   H56       1.0  0.21025  0.98545  0.40383  1.0000
  C   C80       1.0  0.33918  0.09337  0.38493  1.0000
  C   C81       1.0  0.17714  0.20301  0.05224  1.0000
  H   H57       1.0  0.27230  0.13766  0.50329  1.0000
  H   H58       1.0  0.34633  0.05618  0.40778  1.0000
  H   H59       1.0  0.31018  0.06180  0.50849  1.0000
  C   C82       1.0  0.30598  0.02962  0.05565  1.0000
  C   C83       1.0  0.43905  0.98705  0.03940  1.0000
  C   C84       1.0  0.31754  0.20375  0.34740  1.0000
  H   H60       1.0  0.20936  0.21317  0.43652  1.0000
  H   H61       1.0  0.24399  0.01193  0.28498  1.0000
  C   C85       1.0  0.31231  0.21985  0.34217  1.0000
  H   H62       1.0  0.28603  0.99805  0.52107  1.0000
  C   C86       1.0  0.23098  0.07690  0.46902  1.0000
  C   C87       1.0  0.32565  0.01643  0.27488  1.0000
  C   C88       1.0  0.38103  0.10289  0.51735  1.0000
  H   H63       1.0  0.33091  0.11588  0.44640  1.0000
  H   H64       1.0  0.29868  0.21962  0.35562  1.0000
  C   C89       1.0  0.14340  0.01368  0.45773  1.0000
  C   C90       1.0  0.27146  0.98668  0.52047  1.0000
  C   C91       1.0  0.33612  0.09920  0.49776  1.0000
  H   H65       1.0  0.37169  0.00379  0.32811  1.0000
  C   C92       1.0  0.33512  0.99966  0.18551  1.0000
  H   H66       1.0  0.36101  0.21957  0.29491  1.0000
  C   C93       1.0  0.22815  0.09087  0.30520  1.0000
  C   C94       1.0  0.24441  0.10519  0.32418  1.0000
  C   C95       1.0  0.25584  0.12169  0.30162  1.0000
  C   C96       1.0  0.25099  0.12331  0.25951  1.0000
  P   P4        1.0  0.27633  0.14099  0.32575  1.0000
  C   C97       1.0  0.29986  0.13958  0.31291  1.0000
  C   C98       1.0  0.27508  0.16286  0.30351  1.0000
  C   C99       1.0  0.25780  0.16690  0.30796  1.0000
  C   C100      1.0  0.25582  0.18268  0.28732  1.0000
  C   C101      1.0  0.27088  0.19430  0.26142  1.0000
  C   C102      1.0  0.28801  0.19030  0.25650  1.0000
  C   C103      1.0  0.29009  0.17461  0.27719  1.0000
  C   C104      1.0  0.30242  0.13221  0.27442  1.0000
  C   C105      1.0  0.32130  0.13354  0.26235  1.0000
  C   C106      1.0  0.33761  0.14161  0.28912  1.0000
  C   C107      1.0  0.33510  0.14843  0.32808  1.0000
  C   C108      1.0  0.31635  0.14765  0.33977  1.0000
  C   C109      1.0  0.27446  0.13999  0.38202  1.0000
  C   C110      1.0  0.27776  0.12507  0.40395  1.0000
  C   C111      1.0  0.27679  0.12413  0.44743  1.0000
  C   C112      1.0  0.27296  0.13832  0.46952  1.0000
  C   C113      1.0  0.27008  0.15346  0.44808  1.0000
  C   C114      1.0  0.27087  0.15435  0.40451  1.0000
  P   P5        1.0  0.34740  0.08602  0.46702  1.0000
  H   H67       1.0  0.32393  0.08420  0.39108  1.0000
  H   H68       1.0  0.43318  0.02361  0.21765  1.0000
  H   H69       1.0  0.24788  0.10314  0.35622  1.0000
  H   H70       1.0  0.25978  0.13559  0.24085  1.0000
  H   H71       1.0  0.24560  0.15745  0.32629  1.0000
  H   H72       1.0  0.24231  0.18551  0.29013  1.0000
  H   H73       1.0  0.26905  0.20602  0.24396  1.0000
  H   H74       1.0  0.29938  0.19894  0.23528  1.0000
  H   H75       1.0  0.30320  0.17148  0.27133  1.0000
  H   H76       1.0  0.28994  0.12573  0.25337  1.0000
  H   H77       1.0  0.32328  0.12838  0.23201  1.0000
  H   H78       1.0  0.35216  0.14257  0.27951  1.0000
  H   H79       1.0  0.34773  0.15453  0.34901  1.0000
  H   H80       1.0  0.31481  0.15357  0.36951  1.0000
  H   H81       1.0  0.28104  0.11410  0.38723  1.0000
  H   H82       1.0  0.20391  0.21397  0.36039  1.0000
  C   C115      1.0  0.26738  0.99680  0.19239  1.0000
  H   H83       1.0  0.14511  0.00038  0.44946  1.0000
  C   C116      1.0  0.20236  0.99524  0.40252  1.0000
  C   C117      1.0  0.18127  0.01123  0.52923  1.0000
  H   H84       1.0  0.25933  0.00018  0.47332  1.0000
  H   H85       1.0  0.18161  0.01644  0.33170  1.0000
  H   H86       1.0  0.45234  0.01037  0.51696  1.0000
  H   H87       1.0  0.13653  0.06101  0.48662  1.0000
  H   H88       1.0  0.17506  0.03091  0.39569  1.0000
  H   H89       1.0  0.41623  0.99065  0.51933  1.0000
  H   H90       1.0  0.29838  0.99213  0.11531  1.0000
  H   H91       1.0  0.37652  0.11511  0.51952  1.0000
  H   H92       1.0  0.46361  0.08604  0.22501  1.0000
  C   C118      1.0  0.21064  0.22662  0.42159  1.0000
  C   C119      1.0  0.34742  0.21966  0.30821  1.0000
  H   H93       1.0  0.35130  0.02613  0.06086  1.0000
  C   C120      1.0  0.34296  0.99458  0.15004  1.0000
  H   H94       1.0  0.36717  0.05798  0.47561  1.0000
  H   H95       1.0  0.35044  0.00539  0.12698  1.0000
  C   C121      1.0  0.22922  0.22555  0.51524  1.0000
  H   H96       1.0  0.40257  0.00922  0.17454  1.0000
  C   C122      1.0  0.45973  0.01495  0.38914  1.0000
  C   C123      1.0  0.38553  0.98683  0.26679  1.0000
  H   H97       1.0  0.40788  0.99986  0.43353  1.0000
  H   H98       1.0  0.11284  0.00364  0.43701  1.0000
  H   H99       1.0  0.46272  0.03322  0.10383  1.0000
  H   H100      1.0  0.24441  0.09943  0.51400  1.0000
  H   H101      1.0  0.37216  0.98570  0.20591  1.0000
  C   C124      1.0  0.40262  0.00532  0.20719  1.0000
  C   C125      1.0  0.28885  0.98756  0.23963  1.0000
  C   C126      1.0  0.17615  0.23097  0.49999  1.0000
  H   H102      1.0  0.31698  0.98645  0.05636  1.0000
  Fe  Fe6       1.0  0.24341  0.03117  0.65149  1.0000
  S   S12       1.0  0.26558  0.05860  0.67842  1.0000
  S   S13       1.0  0.21974  0.00608  0.68596  1.0000
  Fe  Fe7       1.0  0.25411  0.04630  0.56094  1.0000
  S   S14       1.0  0.27685  0.07464  0.58135  1.0000
  Fe  Fe8       1.0  0.28561  0.05638  0.62755  1.0000
  S   S15       1.0  0.31805  0.06345  0.64050  1.0000
  Fe  Fe9       1.0  0.25501  0.07482  0.63001  1.0000
  S   S16       1.0  0.24666  0.10028  0.64877  1.0000
  S   S17       1.0  0.26439  0.02796  0.60390  1.0000
  S   S18       1.0  0.23130  0.04749  0.60629  1.0000
  Fe  Fe10      1.0  0.28971  0.21545  0.64522  1.0000
  C   C127      1.0  0.16228  0.99046  0.58483  1.0000
  S   S19       1.0  0.29309  0.19006  0.61123  1.0000
  C   C128      1.0  0.22503  0.13579  0.76701  1.0000
  S   S20       1.0  0.26721  0.21257  0.69451  1.0000
  C   C129      1.0  0.26364  0.12732  0.80095  1.0000
  C   C130      1.0  0.40368  0.02152  0.63958  1.0000
  S   S21       1.0  0.37166  0.01230  0.94615  1.0000
  Fe  Fe11      1.0  0.34114  0.99923  0.97310  1.0000
  S   S22       1.0  0.32190  0.01552  0.99311  1.0000
  H   H103      1.0  0.41799  0.08853  0.55168  1.0000
  S   S23       1.0  0.36800  0.99992  0.82874  1.0000
  C   C131      1.0  0.23377  0.20220  0.56351  1.0000
  C   C132      1.0  0.41533  0.01026  0.63958  1.0000
  H   H104      1.0  0.37262  0.00839  0.74179  1.0000
  C   C133      1.0  0.32577  0.01483  0.80229  1.0000
  C   C134      1.0  0.31344  0.01649  0.87113  1.0000
  H   H105      1.0  0.18114  0.20956  0.78076  1.0000
  H   H106      1.0  0.29519  0.01746  0.64844  1.0000
  H   H107      1.0  0.21132  0.99824  0.59582  1.0000
  H   H108      1.0  0.27756  0.01029  0.79669  1.0000
  C   C135      1.0  0.30724  0.01256  0.78500  1.0000
  H   H109      1.0  0.32449  0.10348  0.59869  1.0000
  C   C136      1.0  0.26878  0.10192  0.84175  1.0000
  C   C137      1.0  0.33117  0.05226  0.61188  1.0000
  C   C138      1.0  0.32170  0.03697  0.58449  1.0000
  C   C139      1.0  0.20820  0.13655  0.74638  1.0000
  H   H110      1.0  0.25837  0.19357  0.55166  1.0000
  C   C140      1.0  0.36295  0.05045  0.59559  1.0000
  C   C141      1.0  0.35179  0.05896  0.61718  1.0000
  H   H111      1.0  0.30583  0.03196  0.57953  1.0000
  H   H112      1.0  0.37890  0.05585  0.59975  1.0000
  H   H113      1.0  0.35918  0.07083  0.63804  1.0000
  C   C142      1.0  0.25982  0.12518  0.63802  1.0000
  C   C143      1.0  0.25358  0.13896  0.65632  1.0000
  C   C144      1.0  0.26366  0.15883  0.64878  1.0000
  C   C145      1.0  0.27995  0.16518  0.62226  1.0000
  C   C146      1.0  0.28600  0.15138  0.60345  1.0000
  C   C147      1.0  0.27609  0.13151  0.61149  1.0000
  H   H114      1.0  0.24092  0.13426  0.67661  1.0000
  H   H115      1.0  0.25880  0.16923  0.66343  1.0000
  H   H116      1.0  0.29856  0.15613  0.58289  1.0000
  H   H117      1.0  0.28094  0.12106  0.59711  1.0000
  Fe  Fe12      1.0  0.37841  0.98921  0.98147  1.0000
  C   C148      1.0  0.21850  0.00155  0.84297  1.0000
  C   C149      1.0  0.28582  0.16593  0.76548  1.0000
  C   C150      1.0  0.23476  0.00093  0.86608  1.0000
  H   H118      1.0  0.43094  0.01633  0.74107  1.0000
  H   H119      1.0  0.13195  0.21842  0.89992  1.0000
  H   H120      1.0  0.19489  0.12367  0.74384  1.0000
  H   H121      1.0  0.19556  0.15442  0.71270  1.0000
  H   H122      1.0  0.23128  0.23043  0.73093  1.0000
  H   H123      1.0  0.21134  0.21402  0.56973  1.0000
  H   H124      1.0  0.31591  0.01740  0.90454  1.0000
  H   H125      1.0  0.30477  0.01074  0.75165  1.0000
  C   C151      1.0  0.41208  0.02903  0.71215  1.0000
  H   H126      1.0  0.41045  0.03600  0.74053  1.0000
  H   H127      1.0  0.20070  0.19869  0.92483  1.0000
  H   H128      1.0  0.23631  0.16159  0.84758  1.0000
  H   H129      1.0  0.09791  0.19452  0.89296  1.0000
  H   H130      1.0  0.19393  0.05168  0.55638  1.0000
  C   C152      1.0  0.42551  0.00826  0.67591  1.0000
  H   H131      1.0  0.21668  0.19045  0.86518  1.0000
  C   C153      1.0  0.20855  0.15386  0.72891  1.0000
  C   C154      1.0  0.40201  0.03086  0.67586  1.0000
  C   C155      1.0  0.27264  0.99121  0.95929  1.0000
  H   H132      1.0  0.33772  0.01481  0.78252  1.0000
  H   H133      1.0  0.41812  0.98720  0.94400  1.0000
  H   H134      1.0  0.26308  0.07515  0.80985  1.0000
  H   H135      1.0  0.22430  0.12231  0.78092  1.0000
  H   H136      1.0  0.14279  0.22839  0.57531  1.0000
  C   C156      1.0  0.19854  0.00986  0.54658  1.0000
  H   H137      1.0  0.15245  0.19740  0.01019  1.0000
  C   C157      1.0  0.25278  0.17598  0.90143  1.0000
  C   C158      1.0  0.24995  0.20209  0.54077  1.0000
  H   H138      1.0  0.22535  0.22901  0.02965  1.0000
  H   H139      1.0  0.29766  0.16715  0.85527  1.0000
  C   C159      1.0  0.45718  0.99972  0.75486  1.0000
  H   H140      1.0  0.34310  0.01832  0.85894  1.0000
  H   H141      1.0  0.22047  0.08342  0.56922  1.0000
  C   C160      1.0  0.31764  0.18853  0.71577  1.0000
  H   H142      1.0  0.29587  0.07384  0.00894  1.0000
  C   C161      1.0  0.25055  0.16626  0.86354  1.0000
  H   H143      1.0  0.27305  0.09693  0.87082  1.0000
  C   C162      1.0  0.26916  0.99164  0.91618  1.0000
  H   H144      1.0  0.23233  0.98947  0.88866  1.0000
  C   C163      1.0  0.21902  0.07668  0.53892  1.0000
  H   H145      1.0  0.25319  0.08655  0.74320  1.0000
  H   H146      1.0  0.40700  0.11614  0.55621  1.0000
  C   C164      1.0  0.22567  0.17049  0.73248  1.0000
  C   C165      1.0  0.17644  0.21228  0.84601  1.0000
  C   C166      1.0  0.24255  0.16973  0.75289  1.0000
  C   C167      1.0  0.16305  0.00146  0.54885  1.0000
  H   H147      1.0  0.25336  0.11932  0.73744  1.0000
  C   C168      1.0  0.17965  0.98920  0.60165  1.0000
  H   H148      1.0  0.46414  0.01454  0.74455  1.0000
  C   C169      1.0  0.26311  0.08961  0.80746  1.0000
  C   C170      1.0  0.26669  0.16297  0.84641  1.0000
  H   H149      1.0  0.22593  0.18397  0.71919  1.0000
  C   C171      1.0  0.31123  0.19697  0.74817  1.0000
  P   P6        1.0  0.16935  0.21521  0.92994  1.0000
  H   H150      1.0  0.29434  0.23168  0.94838  1.0000
  H   H151      1.0  0.20395  0.99047  0.84743  1.0000
  H   H152      1.0  0.39265  0.03927  0.67598  1.0000
  C   C172      1.0  0.42375  0.01777  0.71227  1.0000
  C   C173      1.0  0.18029  0.21367  0.98004  1.0000
  C   C174      1.0  0.33288  0.02801  0.56372  1.0000
  C   C175      1.0  0.22339  0.21380  0.55075  1.0000
  C   C176      1.0  0.27103  0.18233  0.92262  1.0000
  P   P7        1.0  0.27515  0.01404  0.88810  1.0000
  C   C177      1.0  0.28182  0.03378  0.92458  1.0000
  C   C178      1.0  0.29503  0.01498  0.85399  1.0000
  H   H153      1.0  0.11732  0.15013  0.93857  1.0000
  C   C179      1.0  0.30483  0.99375  0.65736  1.0000
  H   H154      1.0  0.31846  0.21226  0.75401  1.0000
  H   H155      1.0  0.24049  0.17888  0.91431  1.0000
  C   C180      1.0  0.29188  0.01253  0.81072  1.0000
  C   C181      1.0  0.30085  0.04833  0.92553  1.0000
  C   C182      1.0  0.30586  0.06271  0.95587  1.0000
  C   C183      1.0  0.29184  0.06290  0.98496  1.0000
  C   C184      1.0  0.27270  0.04882  0.98343  1.0000
  C   C185      1.0  0.26768  0.03436  0.95329  1.0000
  C   C186      1.0  0.25384  0.01475  0.85925  1.0000
  C   C187      1.0  0.29078  0.00239  0.65675  1.0000
  C   C188      1.0  0.25773  0.11471  0.76682  1.0000
  C   C189      1.0  0.22113  0.01594  0.81301  1.0000
  C   C190      1.0  0.23999  0.02993  0.80656  1.0000
  C   C191      1.0  0.25626  0.02952  0.83001  1.0000
  H   H156      1.0  0.30131  0.18417  0.92227  1.0000
  H   H157      1.0  0.22970  0.19382  0.59195  1.0000
  C   C192      1.0  0.26906  0.12070  0.83858  1.0000
  H   H158      1.0  0.27922  0.00436  0.97688  1.0000
  C   C193      1.0  0.19775  0.99883  0.58235  1.0000
  C   C194      1.0  0.16841  0.20407  0.01359  1.0000
  C   C195      1.0  0.42533  0.98839  0.00929  1.0000
  C   C196      1.0  0.29244  0.15758  0.73283  1.0000
  C   C197      1.0  0.26749  0.23007  0.84175  1.0000
  H   H159      1.0  0.32958  0.19733  0.69599  1.0000
  H   H160      1.0  0.31198  0.04857  0.90346  1.0000
  H   H161      1.0  0.32075  0.07354  0.95729  1.0000
  C   C198      1.0  0.32609  0.10633  0.56545  1.0000
  H   H162      1.0  0.41602  0.00278  0.61131  1.0000
  H   H163      1.0  0.25289  0.02332  0.95299  1.0000
  C   C199      1.0  0.31983  0.12018  0.54719  1.0000
  H   H164      1.0  0.27277  0.19010  0.95169  1.0000
  H   H165      1.0  0.45047  0.01634  0.59984  1.0000
  H   H166      1.0  0.24201  0.04081  0.78267  1.0000
  H   H167      1.0  0.27082  0.04042  0.82465  1.0000
  H   H168      1.0  0.28529  0.14251  0.72539  1.0000
  H   H169      1.0  0.25563  0.18274  0.75590  1.0000
  C   C200      1.0  0.26673  0.22878  0.91806  1.0000
  C   C201      1.0  0.32883  0.01678  0.84535  1.0000
  H   H170      1.0  0.39561  0.02272  0.61159  1.0000
  C   C202      1.0  0.25754  0.09600  0.77003  1.0000
  C   C203      1.0  0.10960  0.19012  0.90515  1.0000
  C   C204      1.0  0.10537  0.17087  0.91597  1.0000
  C   C205      1.0  0.12054  0.16512  0.93080  1.0000
  C   C206      1.0  0.13989  0.17866  0.93524  1.0000
  C   C207      1.0  0.14414  0.19813  0.92567  1.0000
  C   C208      1.0  0.12894  0.20370  0.90956  1.0000
  C   C209      1.0  0.35863  0.98515  0.78465  1.0000
  C   C210      1.0  0.29523  0.18583  0.77252  1.0000
  C   C211      1.0  0.18208  0.20970  0.88701  1.0000
  C   C212      1.0  0.19640  0.20144  0.89371  1.0000
  C   C213      1.0  0.20534  0.19644  0.85984  1.0000
  C   C214      1.0  0.19990  0.19940  0.81916  1.0000
  C   C215      1.0  0.24251  0.15231  0.76951  1.0000
  Fe  Fe13      1.0  0.26616  0.23100  0.03070  1.0000
  C   C216      1.0  0.28496  0.16934  0.86808  1.0000
  C   C217      1.0  0.33422  0.09591  0.54091  1.0000
  H   H171      1.0  0.36289  0.98794  0.67857  1.0000
  H   H172      1.0  0.20863  0.01596  0.79406  1.0000
  C   C218      1.0  0.18531  0.20713  0.81230  1.0000
  H   H173      1.0  0.32004  0.00205  0.64872  1.0000
  P   P8        1.0  0.26448  0.15177  0.79588  1.0000
  H   H174      1.0  0.09038  0.16037  0.91242  1.0000
  C   C219      1.0  0.30829  0.16884  0.70821  1.0000
  H   H175      1.0  0.15159  0.17395  0.94608  1.0000
  H   H176      1.0  0.27354  0.12992  0.86558  1.0000
  H   H177      1.0  0.20707  0.19581  0.79296  1.0000
  C   C220      1.0  0.42852  0.98596  0.96729  1.0000
  C   C221      1.0  0.23756  0.98996  0.74575  1.0000
  H   H178      1.0  0.25158  0.00089  0.73713  1.0000
  C   C222      1.0  0.20081  0.22312  0.98645  1.0000
  S   S24       1.0  0.25304  0.22627  0.96448  1.0000
  C   C223      1.0  0.36390  0.99319  0.74483  1.0000
  H   H179      1.0  0.29017  0.19294  0.79646  1.0000
  H   H180      1.0  0.26020  0.99832  0.66658  1.0000
  C   C224      1.0  0.28710  0.17900  0.90600  1.0000
  C   C225      1.0  0.35354  0.03482  0.56931  1.0000
  H   H181      1.0  0.31295  0.16239  0.68243  1.0000
  H   H182      1.0  0.26188  0.04893  0.00615  1.0000
  C   C226      1.0  0.28679  0.23132  0.91888  1.0000
  H   H183      1.0  0.16528  0.21842  0.84000  1.0000
  H   H184      1.0  0.41681  0.99138  0.85315  1.0000
  P   P9        1.0  0.43932  0.99244  0.67583  1.0000
  C   C227      1.0  0.44414  0.98575  0.72814  1.0000
  Fe  Fe14      1.0  0.35978  0.99004  0.89548  1.0000
  H   H185      1.0  0.31361  0.12828  0.56640  1.0000
  H   H186      1.0  0.32559  0.01614  0.54282  1.0000
  C   C228      1.0  0.22000  0.98974  0.72676  1.0000
  C   C229      1.0  0.25711  0.22799  0.87929  1.0000
  C   C230      1.0  0.28766  0.23295  0.84270  1.0000
  H   H187      1.0  0.21024  0.23103  0.96141  1.0000
  C   C231      1.0  0.27114  0.99167  0.66743  1.0000
  H   H188      1.0  0.33894  0.08519  0.55567  1.0000
  H   H189      1.0  0.25996  0.22961  0.81217  1.0000
  H   H190      1.0  0.24160  0.22590  0.87824  1.0000
  Fe  Fe15      1.0  0.35725  0.99264  0.54510  1.0000
  C   C232      1.0  0.20945  0.22206  0.02514  1.0000
  H   H191      1.0  0.40414  0.99057  0.78078  1.0000
  S   S25       1.0  0.40479  0.99374  0.02521  1.0000
  H   H192      1.0  0.14944  0.00247  0.53709  1.0000
  C   C233      1.0  0.46129  0.99468  0.79507  1.0000
  C   C234      1.0  0.15689  0.23049  0.56121  1.0000
  S   S26       1.0  0.36821  0.02483  0.54229  1.0000
  C   C235      1.0  0.39843  0.10362  0.53794  1.0000
  C   C236      1.0  0.40465  0.08811  0.53533  1.0000
  H   H193      1.0  0.21275  0.01765  0.53295  1.0000
  C   C237      1.0  0.46355  0.01459  0.61267  1.0000
  C   C238      1.0  0.46271  0.00412  0.64964  1.0000
  C   C239      1.0  0.20405  0.05866  0.53158  1.0000
  H   H194      1.0  0.45307  0.02938  0.02943  1.0000
  Fe  Fe16      1.0  0.37056  0.39924  0.38347  1.0000
  S   S27       1.0  0.36970  0.42551  0.41484  1.0000
  S   S28       1.0  0.38540  0.40202  0.32068  1.0000
  Fe  Fe17      1.0  0.35061  0.37262  0.45721  1.0000
  S   S29       1.0  0.28056  0.24036  0.14729  1.0000
  H   H195      1.0  0.33405  0.35232  0.25107  1.0000
  Fe  Fe18      1.0  0.33888  0.40641  0.43356  1.0000
  S   S30       1.0  0.31439  0.41810  0.42966  1.0000
  Fe  Fe19      1.0  0.38005  0.41453  0.47206  1.0000
  C   C240      1.0  0.24143  0.34711  0.13280  1.0000
  S   S31       1.0  0.33891  0.38107  0.39764  1.0000
  S   S32       1.0  0.38265  0.38882  0.43992  1.0000
  C   C241      1.0  0.22073  0.33898  0.12958  1.0000
  H   H196      1.0  0.33984  0.26753  0.16854  1.0000
  H   H197      1.0  0.17079  0.30165  0.24162  1.0000
  C   C242      1.0  0.34825  0.30315  0.23967  1.0000
  C   C243      1.0  0.00700  0.37066  0.03658  1.0000
  Fe  Fe20      1.0  0.34581  0.40601  0.09229  1.0000
  S   S33       1.0  0.33522  0.40517  0.15860  1.0000
  C   C244      1.0  0.18257  0.36102  0.22913  1.0000
  C   C245      1.0  0.44297  0.46797  0.32895  1.0000
  S   S34       1.0  0.98736  0.38156  0.50754  1.0000
  Fe  Fe21      1.0  0.99285  0.28970  0.28906  1.0000
  S   S35       1.0  0.98689  0.31187  0.25000  1.0000
  H   H198      1.0  0.24986  0.35818  0.11101  1.0000
  Fe  Fe22      1.0  0.03625  0.31588  0.30554  1.0000
  S   S36       1.0  0.03283  0.34008  0.26771  1.0000
  S   S37       1.0  0.06364  0.32108  0.34736  1.0000
  Fe  Fe23      1.0  0.00363  0.33283  0.29972  1.0000
  S   S38       1.0  0.98919  0.35332  0.32138  1.0000
  Fe  Fe24      1.0  0.01635  0.31692  0.22110  1.0000
  S   S39       1.0  0.01923  0.32533  0.15214  1.0000
  S   S40       1.0  0.00797  0.31037  0.34045  1.0000
  S   S41       1.0  0.02147  0.29299  0.25718  1.0000
  Fe  Fe25      1.0  0.16900  0.31066  0.33590  1.0000
  S   S42       1.0  0.17815  0.28628  0.35679  1.0000
  S   S43       1.0  0.13976  0.30268  0.29980  1.0000
  Fe  Fe26      1.0  0.20829  0.34090  0.36729  1.0000
  S   S44       1.0  0.21981  0.31886  0.39141  1.0000
  S   S45       1.0  0.22536  0.37302  0.36951  1.0000
  Fe  Fe27      1.0  0.20806  0.30369  0.33062  1.0000
  S   S46       1.0  0.23052  0.29596  0.29402  1.0000
  Fe  Fe28      1.0  0.18891  0.30378  0.41522  1.0000
  H   H199      1.0  0.29986  0.30849  0.03431  1.0000
  S   S47       1.0  0.19829  0.32680  0.30526  1.0000
  S   S48       1.0  0.17801  0.32705  0.39575  1.0000
  Fe  Fe29      1.0  0.29446  0.25893  0.09221  1.0000
  S   S49       1.0  0.31919  0.28640  0.11244  1.0000
  C   C246      1.0  0.23310  0.26600  0.52061  1.0000
  C   C247      1.0  0.22752  0.27972  0.25262  1.0000
  C   C248      1.0  0.20948  0.26479  0.24354  1.0000
  C   C249      1.0  0.20848  0.25143  0.21209  1.0000
  H   H200      1.0  0.17364  0.27737  0.12167  1.0000
  H   H201      1.0  0.19648  0.26331  0.26129  1.0000
  C   C250      1.0  0.34841  0.29433  0.20165  1.0000
  C   C251      1.0  0.11902  0.30846  0.31320  1.0000
  C   C252      1.0  0.11901  0.31911  0.34875  1.0000
  C   C253      1.0  0.10205  0.32310  0.35839  1.0000
  C   C254      1.0  0.08496  0.31654  0.33266  1.0000
  C   C255      1.0  0.08510  0.30617  0.29678  1.0000
  C   C256      1.0  0.10203  0.30214  0.28719  1.0000
  H   H202      1.0  0.13200  0.32415  0.36892  1.0000
  H   H203      1.0  0.10218  0.33128  0.38598  1.0000
  H   H204      1.0  0.07208  0.30104  0.27668  1.0000
  H   H205      1.0  0.10190  0.29394  0.25956  1.0000
  C   C257      1.0  0.98777  0.37379  0.45562  1.0000
  C   C258      1.0  0.31883  0.30812  0.52023  1.0000
  C   C259      1.0  0.13462  0.29970  0.45748  1.0000
  C   C260      1.0  0.98875  0.36043  0.37376  1.0000
  C   C261      1.0  0.00265  0.35964  0.40379  1.0000
  C   C262      1.0  0.00232  0.36657  0.44438  1.0000
  C   C263      1.0  0.44119  0.42363  0.20177  1.0000
  Fe  Fe30      1.0  0.25140  0.23635  0.11685  1.0000
  H   H206      1.0  0.01394  0.35418  0.39538  1.0000
  H   H207      1.0  0.01339  0.36638  0.46709  1.0000
  C   C264      1.0  0.97042  0.28659  0.12460  1.0000
  H   H208      1.0  0.37025  0.36242  0.25967  1.0000
  C   C265      1.0  0.34009  0.34961  0.28050  1.0000
  H   H209      1.0  0.29899  0.35197  0.47461  1.0000
  C   C266      1.0  0.33147  0.30664  0.08097  1.0000
  H   H210      1.0  0.05204  0.35940  0.08846  1.0000
  H   H211      1.0  0.30251  0.29631  0.27553  1.0000
  H   H212      1.0  0.37838  0.46101  0.09114  1.0000
  H   H213      1.0  0.35462  0.30300  0.17434  1.0000
  C   C267      1.0  0.28841  0.35268  0.49728  1.0000
  C   C268      1.0  0.17450  0.31574  0.10350  1.0000
  C   C269      1.0  0.22500  0.28023  0.52472  1.0000
  C   C270      1.0  0.24048  0.32740  0.19360  1.0000
  C   C271      1.0  0.32653  0.27108  0.36218  1.0000
  C   C272      1.0  0.01520  0.28292  0.06845  1.0000
  C   C273      1.0  0.01697  0.29295  0.10628  1.0000
  C   C274      1.0  0.01720  0.31174  0.10595  1.0000
  C   C275      1.0  0.01549  0.32021  0.06754  1.0000
  C   C276      1.0  0.28308  0.24786  0.26831  1.0000
  C   C277      1.0  0.96872  0.30066  0.09756  1.0000
  H   H214      1.0  0.01810  0.28614  0.13558  1.0000
  H   H215      1.0  0.01519  0.33450  0.06710  1.0000
  C   C278      1.0  0.07067  0.34154  0.45825  1.0000
  C   C279      1.0  0.28974  0.40426  0.41419  1.0000
  C   C280      1.0  0.28279  0.38430  0.40747  1.0000
  C   C281      1.0  0.26283  0.37422  0.39478  1.0000
  C   C282      1.0  0.25002  0.38416  0.38825  1.0000
  C   C283      1.0  0.25710  0.40402  0.39516  1.0000
  C   C284      1.0  0.27673  0.41395  0.40829  1.0000
  H   H216      1.0  0.29282  0.37673  0.41149  1.0000
  H   H217      1.0  0.25758  0.35896  0.38842  1.0000
  H   H218      1.0  0.24736  0.41183  0.39002  1.0000
  H   H219      1.0  0.28194  0.42932  0.41335  1.0000
  S   S50       1.0  0.33372  0.34061  0.47151  1.0000
  C   C285      1.0  0.42282  0.46600  0.46185  1.0000
  H   H220      1.0  0.41243  0.45796  0.43799  1.0000
  C   C286      1.0  0.37144  0.40279  0.27558  1.0000
  C   C287      1.0  0.35308  0.40463  0.27867  1.0000
  C   C288      1.0  0.34214  0.40520  0.24248  1.0000
  C   C289      1.0  0.34942  0.40390  0.20292  1.0000
  C   C290      1.0  0.36779  0.40202  0.19973  1.0000
  C   C291      1.0  0.37882  0.40156  0.23599  1.0000
  H   H221      1.0  0.34744  0.40586  0.30901  1.0000
  H   H222      1.0  0.32801  0.40683  0.24498  1.0000
  H   H223      1.0  0.37344  0.40094  0.16936  1.0000
  H   H224      1.0  0.39299  0.40003  0.23334  1.0000
  C   C292      1.0  0.35606  0.46739  0.47961  1.0000
  C   C293      1.0  0.34943  0.28148  0.42118  1.0000
  S   S51       1.0  0.96740  0.26298  0.31009  1.0000
  C   C294      1.0  0.42189  0.45811  0.50191  1.0000
  C   C295      1.0  0.40490  0.45533  0.17567  1.0000
  H   H225      1.0  0.06785  0.33826  0.06088  1.0000
  C   C296      1.0  0.11341  0.32227  0.48134  1.0000
  H   H226      1.0  0.33645  0.45759  0.39071  1.0000
  C   C297      1.0  0.42840  0.43059  0.17951  1.0000
  C   C298      1.0  0.97442  0.36787  0.38494  1.0000
  H   H227      1.0  0.33709  0.43953  0.32739  1.0000
  P   P10       1.0  0.42888  0.45451  0.18912  1.0000
  C   C299      1.0  0.41478  0.40020  0.14239  1.0000
  C   C300      1.0  0.41541  0.41883  0.14941  1.0000
  H   H228      1.0  0.97414  0.32334  0.44649  1.0000
  C   C301      1.0  0.11111  0.38933  0.51998  1.0000
  C   C302      1.0  0.42584  0.44578  0.27403  1.0000
  C   C303      1.0  0.26639  0.29344  0.41344  1.0000
  C   C304      1.0  0.16248  0.25736  0.17169  1.0000
  S   S52       1.0  0.26510  0.25690  0.06456  1.0000
  H   H229      1.0  0.35253  0.24837  0.28732  1.0000
  H   H230      1.0  0.19330  0.37435  0.24141  1.0000
  C   C305      1.0  0.44055  0.40498  0.19472  1.0000
  C   C306      1.0  0.27933  0.24525  0.34316  1.0000
  C   C307      1.0  0.02609  0.37291  0.12943  1.0000
  C   C308      1.0  0.02589  0.28392  0.42450  1.0000
  H   H231      1.0  0.40558  0.42394  0.13167  1.0000
  H   H232      1.0  0.36917  0.44376  0.29478  1.0000
  H   H233      1.0  0.42329  0.43854  0.33932  1.0000
  H   H234      1.0  0.41576  0.43153  0.26502  1.0000
  H   H235      1.0  0.22839  0.28761  0.13026  1.0000
  C   C309      1.0  0.33124  0.26303  0.23290  1.0000
  H   H236      1.0  0.98769  0.35584  0.22965  1.0000
  H   H237      1.0  0.02122  0.36358  0.19332  1.0000
  H   H238      1.0  0.04567  0.39400  0.22170  1.0000
  H   H239      1.0  0.02423  0.28479  0.39096  1.0000
  H   H240      1.0  0.35083  0.35569  0.08822  1.0000
  H   H241      1.0  0.10320  0.39907  0.51861  1.0000
  C   C310      1.0  0.16995  0.36016  0.50805  1.0000
  C   C311      1.0  0.46136  0.46681  0.13561  1.0000
  H   H242      1.0  0.97613  0.31571  0.10532  1.0000
  H   H243      1.0  0.15145  0.24058  0.22721  1.0000
  C   C312      1.0  0.36706  0.45463  0.15326  1.0000
  C   C313      1.0  0.12781  0.39287  0.49548  1.0000
  C   C314      1.0  0.02031  0.26596  0.44405  1.0000
  S   S53       1.0  0.32864  0.38168  0.04981  1.0000
  H   H244      1.0  0.19390  0.37351  0.41596  1.0000
  C   C315      1.0  0.27931  0.31228  0.42135  1.0000
  H   H245      1.0  0.21789  0.27340  0.44282  1.0000
  C   C316      1.0  0.21545  0.26039  0.42541  1.0000
  C   C317      1.0  0.97345  0.27808  0.42909  1.0000
  H   H246      1.0  0.20956  0.27706  0.51712  1.0000
  H   H247      1.0  0.14034  0.32583  0.04326  1.0000
  H   H248      1.0  0.99602  0.30232  0.45810  1.0000
  H   H249      1.0  0.05973  0.41619  0.09760  1.0000
  C   C318      1.0  0.21235  0.26071  0.38240  1.0000
  H   H250      1.0  0.01811  0.25087  0.50228  1.0000
  S   S54       1.0  0.37585  0.40909  0.06870  1.0000
  H   H251      1.0  0.40050  0.48326  0.39062  1.0000
  C   C319      1.0  0.20974  0.32496  0.15843  1.0000
  H   H252      1.0  0.01499  0.26839  0.06898  1.0000
  C   C320      1.0  0.17501  0.33189  0.18823  1.0000
  C   C321      1.0  0.03701  0.38754  0.10193  1.0000
  H   H253      1.0  0.13283  0.40534  0.47507  1.0000
  H   H254      1.0  0.25812  0.29318  0.23591  1.0000
  H   H255      1.0  0.14299  0.29116  0.44772  1.0000
  C   C322      1.0  0.17309  0.29210  0.17908  1.0000
  H   H256      1.0  0.29923  0.28244  0.20468  1.0000
  C   C323      1.0  0.42730  0.39324  0.16515  1.0000
  H   H257      1.0  0.21168  0.30873  0.21365  1.0000
  H   H258      1.0  0.28143  0.31770  0.45293  1.0000
  C   C324      1.0  0.34004  0.27429  0.19838  1.0000
  H   H259      1.0  0.25290  0.27222  0.36610  1.0000
  C   C325      1.0  0.15754  0.25490  0.21378  1.0000
  H   H260      1.0  0.34523  0.30250  0.46144  1.0000
  H   H261      1.0  0.24932  0.23605  0.36498  1.0000
  C   C326      1.0  0.29295  0.30548  0.17532  1.0000
  H   H262      1.0  0.45157  0.43254  0.22475  1.0000
  H   H263      1.0  0.35226  0.45370  0.14435  1.0000
  C   C327      1.0  0.18874  0.34952  0.20310  1.0000
  C   C328      1.0  0.21978  0.31918  0.19042  1.0000
  P   P11       1.0  0.18296  0.31611  0.15703  1.0000
  C   C329      1.0  0.37126  0.45114  0.19447  1.0000
  H   H264      1.0  0.25636  0.26981  0.18032  1.0000
  C   C330      1.0  0.97443  0.34593  0.16950  1.0000
  H   H265      1.0  0.28556  0.24635  0.37436  1.0000
  H   H266      1.0  0.20430  0.35431  0.19560  1.0000
  C   C331      1.0  0.35663  0.34402  0.35645  1.0000
  P   P12       1.0  0.04610  0.32136  0.52271  1.0000
  C   C332      1.0  0.16848  0.28946  0.22155  1.0000
  C   C333      1.0  0.06522  0.37596  0.47315  1.0000
  C   C334      1.0  0.07632  0.37453  0.43913  1.0000
  C   C335      1.0  0.07927  0.35741  0.43207  1.0000
  H   H267      1.0  0.97881  0.28219  0.39775  1.0000
  C   C336      1.0  0.34242  0.23591  0.30354  1.0000
  C   C337      1.0  0.97244  0.36581  0.04850  1.0000
  H   H268      1.0  0.01541  0.35950  0.11756  1.0000
  C   C338      1.0  0.05425  0.35932  0.05522  1.0000
  H   H269      1.0  0.16031  0.24490  0.15251  1.0000
  H   H270      1.0  0.08256  0.38662  0.41804  1.0000
  H   H271      1.0  0.08767  0.35619  0.40535  1.0000
  H   H272      1.0  0.03704  0.31442  0.43190  1.0000
  H   H273      1.0  0.35456  0.31871  0.24195  1.0000
  C   C339      1.0  0.44731  0.47842  0.25673  1.0000
  C   C340      1.0  0.20791  0.38046  0.47645  1.0000
  C   C341      1.0  0.05103  0.40469  0.11808  1.0000
  H   H274      1.0  0.15168  0.32712  0.11607  1.0000
  H   H275      1.0  0.35962  0.44747  0.21731  1.0000
  H   H276      1.0  0.38237  0.46090  0.49099  1.0000
  C   C342      1.0  0.13816  0.38041  0.49733  1.0000
  C   C343      1.0  0.02928  0.37524  0.17242  1.0000
  C   C344      1.0  0.31723  0.28349  0.37500  1.0000
  S   S55       1.0  0.18122  0.28875  0.47781  1.0000
  H   H277      1.0  0.20205  0.32972  0.49197  1.0000
  S   S56       1.0  0.29675  0.23458  0.05503  1.0000
  C   C345      1.0  0.97372  0.37428  0.42573  1.0000
  H   H278      1.0  0.24359  0.31004  0.07260  1.0000
  C   C346      1.0  0.29128  0.32327  0.18062  1.0000
  C   C347      1.0  0.29311  0.33122  0.22037  1.0000
  C   C348      1.0  0.29643  0.32125  0.25533  1.0000
  P   P13       1.0  0.30094  0.33247  0.30601  1.0000
  C   C349      1.0  0.32756  0.34080  0.31373  1.0000
  C   C350      1.0  0.29217  0.35206  0.30469  1.0000
  C   C351      1.0  0.30531  0.37120  0.30894  1.0000
  C   C352      1.0  0.29818  0.38618  0.30729  1.0000
  C   C353      1.0  0.27795  0.38214  0.30061  1.0000
  C   C354      1.0  0.26476  0.36307  0.29640  1.0000
  C   C355      1.0  0.27182  0.34806  0.29875  1.0000
  C   C356      1.0  0.33605  0.33800  0.35168  1.0000
  C   C357      1.0  0.28739  0.31695  0.34777  1.0000
  C   C358      1.0  0.27397  0.29814  0.33997  1.0000
  C   C359      1.0  0.02252  0.26484  0.48721  1.0000
  C   C360      1.0  0.97522  0.35404  0.20879  1.0000
  H   H279      1.0  0.97890  0.29079  0.15344  1.0000
  C   C361      1.0  0.28943  0.32415  0.38858  1.0000
  H   H280      1.0  0.28901  0.33105  0.15364  1.0000
  H   H281      1.0  0.29241  0.34534  0.22345  1.0000
  H   H282      1.0  0.32099  0.37456  0.31378  1.0000
  H   H283      1.0  0.27238  0.39372  0.30022  1.0000
  H   H284      1.0  0.24898  0.35990  0.29267  1.0000
  H   H285      1.0  0.26141  0.33334  0.29606  1.0000
  H   H286      1.0  0.32708  0.33159  0.37813  1.0000
  H   H287      1.0  0.27093  0.29255  0.30866  1.0000
  C   C362      1.0  0.22546  0.25304  0.18952  1.0000
  H   H288      1.0  0.24808  0.32312  0.21889  1.0000
  H   H289      1.0  0.29902  0.33892  0.39517  1.0000
  C   C363      1.0  0.44708  0.47179  0.15636  1.0000
  H   H290      1.0  0.21330  0.34406  0.10535  1.0000
  C   C364      1.0  0.29901  0.30377  0.24939  1.0000
  H   H291      1.0  0.30917  0.30197  0.49387  1.0000
  C   C365      1.0  0.14358  0.31558  0.48342  1.0000
  C   C366      1.0  0.38650  0.47443  0.37637  1.0000
  H   H292      1.0  0.36199  0.28088  0.43904  1.0000
  H   H293      1.0  0.20592  0.24448  0.32556  1.0000
  H   H294      1.0  0.42668  0.37874  0.15987  1.0000
  P   P14       1.0  0.31835  0.25718  0.31506  1.0000
  C   C367      1.0  0.15236  0.32109  0.05132  1.0000
  C   C368      1.0  0.33996  0.29364  0.43392  1.0000
  C   C369      1.0  0.36892  0.45194  0.32216  1.0000
  H   H295      1.0  0.32661  0.46816  0.47203  1.0000
  H   H296      1.0  0.33947  0.29922  0.30331  1.0000
  C   C370      1.0  0.38671  0.46430  0.34013  1.0000
  C   C371      1.0  0.10447  0.30634  0.45542  1.0000
  H   H297      1.0  0.25036  0.23437  0.46518  1.0000
  H   H298      1.0  0.07316  0.30028  0.52339  1.0000
  H   H299      1.0  0.04846  0.36165  0.52611  1.0000
  C   C372      1.0  0.06328  0.34724  0.03967  1.0000
  H   H300      1.0  0.31130  0.44292  0.52412  1.0000
  H   H301      1.0  0.30506  0.28481  0.35704  1.0000
  S   S57       1.0  0.34883  0.39733  0.49401  1.0000
  C   C373      1.0  0.17295  0.36194  0.46492  1.0000
  C   C374      1.0  0.33091  0.27176  0.27126  1.0000
  C   C375      1.0  0.45153  0.48232  0.29918  1.0000
  H   H302      1.0  0.18526  0.25004  0.04531  1.0000
  C   C376      1.0  0.16051  0.27096  0.23865  1.0000
  C   C377      1.0  0.26356  0.28648  0.37269  1.0000
  C   C378      1.0  0.33678  0.32504  0.09828  1.0000
  C   C379      1.0  0.98317  0.28930  0.46315  1.0000
  C   C380      1.0  0.19835  0.32258  0.52188  1.0000
  H   H303      1.0  0.35048  0.26111  0.37588  1.0000
  H   H304      1.0  0.30829  0.40092  0.31189  1.0000
  H   H305      1.0  0.33280  0.32656  0.13000  1.0000
  H   H306      1.0  0.26446  0.34679  0.45263  1.0000
  C   C381      1.0  0.03630  0.29982  0.49133  1.0000
  H   H307      1.0  0.26726  0.34829  0.16825  1.0000
  C   C382      1.0  0.36706  0.45768  0.49919  1.0000
  H   H308      1.0  0.16068  0.35554  0.44322  1.0000
  H   H309      1.0  0.19969  0.25738  0.11665  1.0000
  H   H310      1.0  0.25830  0.28443  0.43880  1.0000
  C   C383      1.0  0.04320  0.39232  0.18834  1.0000
  C   C384      1.0  0.36066  0.35530  0.28514  1.0000
  C   C385      1.0  0.33583  0.46189  0.48867  1.0000
  H   H311      1.0  0.07280  0.32830  0.45147  1.0000
  H   H312      1.0  0.39264  0.44787  0.23737  1.0000
  H   H313      1.0  0.31655  0.30401  0.42098  1.0000
  C   C386      1.0  0.36836  0.47258  0.39431  1.0000
  H   H314      1.0  0.38493  0.35793  0.32723  1.0000
  C   C387      1.0  0.24427  0.28150  0.22937  1.0000
  C   C388      1.0  0.22226  0.28438  0.09893  1.0000
  H   H315      1.0  0.99717  0.38831  0.07682  1.0000
  H   H316      1.0  0.21296  0.27392  0.36730  1.0000
  C   C389      1.0  0.17013  0.27586  0.15432  1.0000
  C   C390      1.0  0.43011  0.44971  0.31633  1.0000
  H   H317      1.0  0.15655  0.26918  0.27126  1.0000
  H   H318      1.0  0.32440  0.24754  0.22930  1.0000
  H   H319      1.0  0.23443  0.23349  0.29379  1.0000
  C   C391      1.0  0.05856  0.34249  0.49114  1.0000
  C   C392      1.0  0.26250  0.24191  0.26328  1.0000
  C   C393      1.0  0.20596  0.26739  0.09132  1.0000
  H   H320      1.0  0.46226  0.45281  0.14005  1.0000
  C   C394      1.0  0.20505  0.37890  0.51947  1.0000
  C   C395      1.0  0.05403  0.40707  0.16118  1.0000
  H   H321      1.0  0.01654  0.33803  0.49879  1.0000
  C   C396      1.0  0.15503  0.32610  0.19966  1.0000
  C   C397      1.0  0.03355  0.30079  0.44800  1.0000
  C   C398      1.0  0.15887  0.32178  0.09278  1.0000
  H   H322      1.0  0.15793  0.36381  0.26116  1.0000
  C   C399      1.0  0.14889  0.33775  0.22528  1.0000
  C   C400      1.0  0.29716  0.29587  0.20951  1.0000
  H   H323      1.0  0.29133  0.29932  0.14448  1.0000
  H   H324      1.0  0.08950  0.30299  0.44344  1.0000
  H   H325      1.0  0.01420  0.25294  0.42562  1.0000
  H   H326      1.0  0.29201  0.25081  0.24072  1.0000
  C   C401      1.0  0.36894  0.35266  0.32317  1.0000
  H   H327      1.0  0.06489  0.42029  0.17354  1.0000
  C   C402      1.0  0.43441  0.46007  0.24380  1.0000
  C   C403      1.0  0.13305  0.32700  0.49564  1.0000
  C   C404      1.0  0.16266  0.35513  0.24027  1.0000
  H   H328      1.0  0.06295  0.38926  0.47854  1.0000
  C   C405      1.0  0.24328  0.26833  0.19781  1.0000
  C   C406      1.0  0.25874  0.23931  0.33798  1.0000
  C   C407      1.0  0.39004  0.45134  0.20565  1.0000
  C   C408      1.0  0.19180  0.37215  0.44930  1.0000
  H   H329      1.0  0.19542  0.30423  0.07954  1.0000
  H   H330      1.0  0.14424  0.31231  0.18977  1.0000
  C   C409      1.0  0.33959  0.29195  0.27443  1.0000
  C   C410      1.0  0.23088  0.29699  0.06610  1.0000
  H   H331      1.0  0.40069  0.46568  0.32647  1.0000
  C   C411      1.0  0.34707  0.34155  0.07471  1.0000
  H   H332      1.0  0.41140  0.46125  0.10995  1.0000
  C   C412      1.0  0.25128  0.34146  0.16502  1.0000
  H   H333      1.0  0.13355  0.33291  0.23489  1.0000
  H   H334      1.0  0.40444  0.39111  0.11950  1.0000
  C   C413      1.0  0.26904  0.34999  0.48480  1.0000
  C   C414      1.0  0.18801  0.30267  0.52373  1.0000
  C   C415      1.0  0.29172  0.24974  0.30832  1.0000
  H   H335      1.0  0.36302  0.34240  0.38636  1.0000
  C   C416      1.0  0.34278  0.27024  0.38541  1.0000
  C   C417      1.0  0.18336  0.30892  0.07205  1.0000
  C   C418      1.0  0.13181  0.36422  0.52375  1.0000
  H   H336      1.0  0.98624  0.34136  0.16004  1.0000
  C   C419      1.0  0.35834  0.44359  0.52934  1.0000
  H   H337      1.0  0.15886  0.31908  0.49337  1.0000
  C   C420      1.0  0.99269  0.37610  0.05598  1.0000
  H   H338      1.0  0.15111  0.38359  0.47822  1.0000
  H   H339      1.0  0.10842  0.28318  0.42213  1.0000
  C   C421      1.0  0.32381  0.29453  0.41098  1.0000
  C   C422      1.0  0.11511  0.29513  0.44332  1.0000
  C   C423      1.0  0.35056  0.45987  0.37641  1.0000
  C   C424      1.0  0.35086  0.44963  0.34043  1.0000
  H   H340      1.0  0.24045  0.34897  0.50402  1.0000
  H   H341      1.0  0.10507  0.33102  0.48939  1.0000
  C   C425      1.0  0.40051  0.45876  0.13419  1.0000
  C   C426      1.0  0.05674  0.36014  0.49964  1.0000
  H   H342      1.0  0.22259  0.38801  0.46396  1.0000
  C   C427      1.0  0.97620  0.28384  0.50345  1.0000
  C   C428      1.0  0.03049  0.28169  0.51076  1.0000
  C   C429      1.0  0.33214  0.32742  0.51859  1.0000
  S   S58       1.0  0.40401  0.43497  0.51544  1.0000
  H   H343      1.0  0.45026  0.39959  0.21238  1.0000
  S   S59       1.0  0.34263  0.42832  0.04855  1.0000
  H   H344      1.0  0.44628  0.47097  0.36182  1.0000
  P   P15       1.0  0.21763  0.24248  0.50126  1.0000
  P   P16       1.0  0.03323  0.38397  0.04645  1.0000
  P   P17       1.0  0.14518  0.34810  0.52738  1.0000
  C   C430      1.0  0.21504  0.24343  0.44528  1.0000
  H   H345      1.0  0.25596  0.24039  0.23225  1.0000
  C   C431      1.0  0.19789  0.26325  0.05110  1.0000
  C   C432      1.0  0.38172  0.45854  0.12322  1.0000
  H   H346      1.0  0.19459  0.23967  0.20561  1.0000
  C   C433      1.0  0.32466  0.23603  0.31996  1.0000
  C   C434      1.0  0.25034  0.23782  0.29804  1.0000
  S   S60       1.0  0.22406  0.23560  0.15171  1.0000
  C   C435      1.0  0.25547  0.35112  0.51392  1.0000
  C   C436      1.0  0.01316  0.33190  0.52973  1.0000
  C   C437      1.0  0.20842  0.24408  0.35889  1.0000
  C   C438      1.0  0.33692  0.30479  0.04016  1.0000
  C   C439      1.0  0.19358  0.23655  0.52453  1.0000
  C   C440      1.0  0.32704  0.44752  0.51827  1.0000
  H   H347      1.0  0.98388  0.29263  0.52951  1.0000
  C   C441      1.0  0.35264  0.33977  0.03398  1.0000
  C   C442      1.0  0.17417  0.23605  0.58576  1.0000
  S   S61       1.0  0.28552  0.26023  0.69938  1.0000
  H   H348      1.0  0.14846  0.35849  0.67980  1.0000
  Fe  Fe31      1.0  0.30691  0.26032  0.64968  1.0000
  S   S62       1.0  0.33050  0.28982  0.63434  1.0000
  C   C443      1.0  0.23587  0.29354  0.86003  1.0000
  C   C444      1.0  0.14645  0.34108  0.58116  1.0000
  Fe  Fe32      1.0  0.02045  0.32791  0.86795  1.0000
  S   S63       1.0  0.99273  0.30637  0.89500  1.0000
  S   S64       1.0  0.03137  0.36031  0.86793  1.0000
  Fe  Fe33      1.0  0.03520  0.29760  0.83533  1.0000
  S   S65       1.0  0.00833  0.27326  0.86007  1.0000
  S   S66       1.0  0.05869  0.29279  0.79504  1.0000
  Fe  Fe34      1.0  0.99004  0.28975  0.83507  1.0000
  Fe  Fe35      1.0  0.01295  0.29161  0.91802  1.0000
  S   S67       1.0  0.01182  0.27858  0.98304  1.0000
  S   S68       1.0  0.01650  0.31278  0.80662  1.0000
  S   S69       1.0  0.04099  0.31442  0.89477  1.0000
  H   H349      1.0  0.97927  0.42814  0.65751  1.0000
  S   S70       1.0  0.29799  0.40133  0.97333  1.0000
  S   S71       1.0  0.35635  0.40742  0.97356  1.0000
  Fe  Fe36      1.0  0.19434  0.29592  0.77381  1.0000
  S   S72       1.0  0.22122  0.31622  0.74215  1.0000
  S   S73       1.0  0.19295  0.26597  0.78803  1.0000
  Fe  Fe37      1.0  0.17747  0.32653  0.78844  1.0000
  S   S74       1.0  0.20391  0.34974  0.75914  1.0000
  S   S75       1.0  0.15297  0.33336  0.82028  1.0000
  Fe  Fe38      1.0  0.20043  0.32761  0.70942  1.0000
  S   S76       1.0  0.20645  0.33879  0.64296  1.0000
  Fe  Fe39      1.0  0.22301  0.33664  0.79423  1.0000
  S   S77       1.0  0.25515  0.34884  0.81801  1.0000
  S   S78       1.0  0.17290  0.30524  0.73649  1.0000
  S   S79       1.0  0.19708  0.31550  0.82778  1.0000
  C   C445      1.0  0.98038  0.34398  0.00385  1.0000
  H   H350      1.0  0.25607  0.40735  0.63848  1.0000
  C   C446      1.0  0.19927  0.32432  0.59789  1.0000
  C   C447      1.0  0.18896  0.30438  0.59986  1.0000
  C   C448      1.0  0.18336  0.29359  0.56283  1.0000
  C   C449      1.0  0.20644  0.27584  0.01820  1.0000
  C   C450      1.0  0.38468  0.44378  0.87467  1.0000
  C   C451      1.0  0.20406  0.33327  0.55883  1.0000
  H   H351      1.0  0.18535  0.29729  0.62982  1.0000
  H   H352      1.0  0.17551  0.27816  0.56449  1.0000
  H   H353      1.0  0.01084  0.45582  0.66976  1.0000
  H   H354      1.0  0.98404  0.35281  0.83549  1.0000
  H   H355      1.0  0.34072  0.28141  0.72565  1.0000
  C   C452      1.0  0.97770  0.35258  0.68068  1.0000
  H   H356      1.0  0.19094  0.24899  0.87714  1.0000
  H   H357      1.0  0.14812  0.31336  0.56746  1.0000
  H   H358      1.0  0.21756  0.38524  0.54059  1.0000
  C   C453      1.0  0.28607  0.38635  0.93063  1.0000
  C   C454      1.0  0.26564  0.38170  0.92327  1.0000
  C   C455      1.0  0.25578  0.36994  0.88939  1.0000
  C   C456      1.0  0.26637  0.36295  0.86226  1.0000
  C   C457      1.0  0.28676  0.36754  0.86979  1.0000
  C   C458      1.0  0.29656  0.37921  0.90369  1.0000
  H   H359      1.0  0.25741  0.38721  0.94388  1.0000
  H   H360      1.0  0.24009  0.36652  0.88400  1.0000
  H   H361      1.0  0.29508  0.36216  0.84908  1.0000
  H   H362      1.0  0.31226  0.38287  0.90888  1.0000
  C   C459      1.0  0.08487  0.30390  0.80313  1.0000
  C   C460      1.0  0.09766  0.29882  0.77747  1.0000
  C   C461      1.0  0.11850  0.30753  0.78243  1.0000
  C   C462      1.0  0.12681  0.32160  0.81298  1.0000
  C   C463      1.0  0.11401  0.32676  0.83841  1.0000
  C   C464      1.0  0.09319  0.31794  0.83369  1.0000
  H   H363      1.0  0.09141  0.28798  0.75376  1.0000
  H   H364      1.0  0.12810  0.30336  0.76265  1.0000
  H   H365      1.0  0.12023  0.33764  0.86206  1.0000
  H   H366      1.0  0.08360  0.32206  0.85361  1.0000
  C   C465      1.0  0.96823  0.34597  0.83069  1.0000
  H   H367      1.0  0.18349  0.30261  0.00684  1.0000
  H   H368      1.0  0.98902  0.34163  0.53677  1.0000
  C   C466      1.0  0.21223  0.25854  0.67490  1.0000
  C   C467      1.0  0.20327  0.26470  0.70708  1.0000
  C   C468      1.0  0.20400  0.25815  0.74773  1.0000
  C   C469      1.0  0.21400  0.24571  0.75628  1.0000
  C   C470      1.0  0.43557  0.47929  0.88545  1.0000
  H   H369      1.0  0.21177  0.26385  0.64363  1.0000
  H   H370      1.0  0.19568  0.27444  0.70037  1.0000
  C   C471      1.0  0.29289  0.34615  0.98593  1.0000
  C   C472      1.0  0.40830  0.40598  0.95408  1.0000
  H   H371      1.0  0.27998  0.29478  0.89504  1.0000
  C   C473      1.0  0.99101  0.37684  0.92688  1.0000
  C   C474      1.0  0.25996  0.39625  0.65384  1.0000
  C   C475      1.0  0.33044  0.30417  0.58994  1.0000
  C   C476      1.0  0.34340  0.32361  0.58884  1.0000
  C   C477      1.0  0.22239  0.24624  0.68344  1.0000
  H   H372      1.0  0.32901  0.27088  0.95995  1.0000
  H   H373      1.0  0.02750  0.42067  0.91159  1.0000
  C   C478      1.0  0.14867  0.31804  0.63311  1.0000
  H   H374      1.0  0.35304  0.32966  0.61534  1.0000
  H   H375      1.0  0.24635  0.39838  0.71181  1.0000
  P   P18       1.0  0.40844  0.44329  0.85966  1.0000
  Fe  Fe40      1.0  0.29178  0.23578  0.72894  1.0000
  C   C479      1.0  0.01937  0.37364  0.89297  1.0000
  C   C480      1.0  0.42824  0.41227  0.96642  1.0000
  H   H376      1.0  0.04442  0.37725  0.96306  1.0000
  C   C481      1.0  0.36546  0.45743  0.91609  1.0000
  C   C482      1.0  0.23642  0.30380  0.89637  1.0000
  C   C483      1.0  0.23409  0.29457  0.93533  1.0000
  H   H377      1.0  0.20562  0.31243  0.92368  1.0000
  C   C484      1.0  0.02906  0.39365  0.89399  1.0000
  H   H378      1.0  0.98890  0.25815  0.55496  1.0000
  C   C485      1.0  0.02474  0.32264  0.54882  1.0000
  H   H379      1.0  0.43491  0.46307  0.56361  1.0000
  C   C486      1.0  0.05597  0.44382  0.98322  1.0000
  C   C487      1.0  0.39402  0.43230  0.77902  1.0000
  C   C488      1.0  0.39156  0.42164  0.74241  1.0000
  C   C489      1.0  0.43646  0.43727  0.91355  1.0000
  S   S80       1.0  0.28385  0.23890  0.60892  1.0000
  C   C490      1.0  0.15814  0.26383  0.95287  1.0000
  S   S81       1.0  0.31487  0.23716  0.68166  1.0000
  S   S82       1.0  0.39327  0.46091  0.00799  1.0000
  H   H380      1.0  0.33496  0.41662  0.86814  1.0000
  H   H381      1.0  0.16893  0.29107  0.92026  1.0000
  H   H382      1.0  0.31279  0.23565  0.88242  1.0000
  H   H383      1.0  0.14973  0.32676  0.69723  1.0000
  C   C491      1.0  0.27845  0.33437  0.64030  1.0000
  C   C492      1.0  0.05901  0.35717  0.96938  1.0000
  H   H384      1.0  0.97572  0.33158  0.98356  1.0000
  H   H385      1.0  0.23869  0.31894  0.89382  1.0000
  C   C493      1.0  0.96949  0.31459  0.70609  1.0000
  H   H386      1.0  0.43126  0.47442  0.91694  1.0000
  C   C494      1.0  0.14791  0.34857  0.65501  1.0000
  C   C495      1.0  0.22129  0.35532  0.00045  1.0000
  C   C496      1.0  0.22337  0.23988  0.72420  1.0000
  C   C497      1.0  0.26117  0.35464  0.55580  1.0000
  H   H387      1.0  0.06048  0.35610  0.93604  1.0000
  C   C498      1.0  0.22337  0.29252  0.02525  1.0000
  H   H388      1.0  0.97924  0.32606  0.60573  1.0000
  C   C499      1.0  0.22958  0.34125  0.00480  1.0000
  C   C500      1.0  0.41136  0.40478  0.77241  1.0000
  C   C501      1.0  0.32287  0.28648  0.90821  1.0000
  C   C502      1.0  0.23330  0.27553  0.93755  1.0000
  C   C503      1.0  0.97845  0.47552  0.70365  1.0000
  C   C504      1.0  0.27016  0.38676  0.63220  1.0000
  C   C505      1.0  0.26447  0.27736  0.77817  1.0000
  C   C506      1.0  0.25827  0.29161  0.76195  1.0000
  C   C507      1.0  0.26916  0.31098  0.77087  1.0000
  C   C508      1.0  0.28626  0.31611  0.79601  1.0000
  C   C509      1.0  0.29266  0.30182  0.81202  1.0000
  C   C510      1.0  0.28145  0.28240  0.80345  1.0000
  P   P19       1.0  0.31516  0.30781  0.84281  1.0000
  C   C511      1.0  0.32513  0.33295  0.85704  1.0000
  C   C512      1.0  0.33376  0.34700  0.82641  1.0000
  C   C513      1.0  0.34265  0.36644  0.83730  1.0000
  C   C514      1.0  0.34319  0.37193  0.87890  1.0000
  C   C515      1.0  0.33466  0.35805  0.90950  1.0000
  C   C516      1.0  0.32559  0.33864  0.89874  1.0000
  C   C517      1.0  0.33417  0.30350  0.81354  1.0000
  C   C518      1.0  0.35409  0.31172  0.82693  1.0000
  C   C519      1.0  0.36902  0.30886  0.80422  1.0000
  C   C520      1.0  0.36422  0.29793  0.76777  1.0000
  C   C521      1.0  0.34449  0.28983  0.75405  1.0000
  C   C522      1.0  0.32952  0.29256  0.77679  1.0000
  H   H389      1.0  0.25618  0.26236  0.77123  1.0000
  H   H390      1.0  0.24492  0.28763  0.74283  1.0000
  H   H391      1.0  0.23345  0.26636  0.83420  1.0000
  H   H392      1.0  0.29416  0.33116  0.80309  1.0000
  H   H393      1.0  0.28610  0.27114  0.81567  1.0000
  H   H394      1.0  0.33367  0.34283  0.79416  1.0000
  H   H395      1.0  0.34921  0.37722  0.81356  1.0000
  H   H396      1.0  0.35013  0.38691  0.88763  1.0000
  H   H397      1.0  0.33517  0.36233  0.94178  1.0000
  H   H398      1.0  0.31930  0.32822  0.92326  1.0000
  H   H399      1.0  0.35805  0.32027  0.85508  1.0000
  H   H400      1.0  0.38432  0.31509  0.81492  1.0000
  H   H401      1.0  0.37573  0.29568  0.75005  1.0000
  C   C523      1.0  0.41388  0.41545  0.80905  1.0000
  C   C524      1.0  0.96786  0.26805  0.64142  1.0000
  C   C525      1.0  0.16952  0.27684  0.92309  1.0000
  C   C526      1.0  0.98882  0.32827  0.70981  1.0000
  C   C527      1.0  0.99322  0.34733  0.69624  1.0000
  C   C528      1.0  0.00060  0.35449  0.01040  1.0000
  P   P20       1.0  0.01781  0.36566  0.70303  1.0000
  C   C529      1.0  0.01397  0.38398  0.73383  1.0000
  C   C530      1.0  0.03500  0.35609  0.72698  1.0000
  C   C531      1.0  0.04603  0.36439  0.76297  1.0000
  C   C532      1.0  0.05948  0.35696  0.78042  1.0000
  C   C533      1.0  0.06234  0.34145  0.76174  1.0000
  C   C534      1.0  0.05189  0.33344  0.72527  1.0000
  C   C535      1.0  0.03850  0.34090  0.70758  1.0000
  C   C536      1.0  0.00918  0.38047  0.77598  1.0000
  C   C537      1.0  0.00430  0.39375  0.79919  1.0000
  C   C538      1.0  0.00412  0.41060  0.78048  1.0000
  C   C539      1.0  0.00857  0.41409  0.73832  1.0000
  C   C540      1.0  0.01342  0.40082  0.71496  1.0000
  C   C541      1.0  0.02930  0.37618  0.65466  1.0000
  C   C542      1.0  0.01854  0.37306  0.61695  1.0000
  C   C543      1.0  0.02795  0.38166  0.58022  1.0000
  C   C544      1.0  0.04801  0.39359  0.58089  1.0000
  C   C545      1.0  0.05882  0.39677  0.61830  1.0000
  C   C546      1.0  0.04952  0.38812  0.65506  1.0000
  C   C547      1.0  0.06743  0.32987  0.59800  1.0000
  H   H402      1.0  0.23245  0.25074  0.90304  1.0000
  C   C548      1.0  0.01907  0.31374  0.58782  1.0000
  H   H403      1.0  0.99998  0.32391  0.72450  1.0000
  C   C549      1.0  0.98305  0.26974  0.67032  1.0000
  H   H404      1.0  0.04433  0.37651  0.77811  1.0000
  H   H405      1.0  0.06732  0.36294  0.80917  1.0000
  H   H406      1.0  0.07239  0.33542  0.77599  1.0000
  H   H407      1.0  0.05390  0.32112  0.71157  1.0000
  H   H408      1.0  0.03057  0.33462  0.67922  1.0000
  H   H409      1.0  0.01554  0.26098  0.60658  1.0000
  H   H410      1.0  0.00031  0.39084  0.83156  1.0000
  H   H411      1.0  0.00001  0.42068  0.79848  1.0000
  H   H412      1.0  0.00772  0.42682  0.72353  1.0000
  H   H413      1.0  0.01612  0.40350  0.68203  1.0000
  H   H414      1.0  0.00289  0.36430  0.61564  1.0000
  H   H415      1.0  0.01956  0.37937  0.55125  1.0000
  C   C550      1.0  0.99685  0.45701  0.67721  1.0000
  H   H416      1.0  0.07434  0.40620  0.61902  1.0000
  H   H417      1.0  0.05803  0.39095  0.68398  1.0000
  H   H418      1.0  0.21235  0.34859  0.55723  1.0000
  C   C551      1.0  0.08881  0.30642  0.58206  1.0000
  C   C552      1.0  0.20754  0.35395  0.96840  1.0000
  C   C553      1.0  0.20194  0.33842  0.94090  1.0000
  C   C554      1.0  0.43235  0.46248  0.00765  1.0000
  C   C555      1.0  0.14695  0.35385  0.61336  1.0000
  H   H419      1.0  0.01287  0.31714  0.00049  1.0000
  H   H420      1.0  0.01105  0.34980  0.99484  1.0000
  H   H421      1.0  0.27425  0.39078  0.60020  1.0000
  H   H422      1.0  0.36500  0.46811  0.93819  1.0000
  H   H423      1.0  0.36707  0.41724  0.84300  1.0000
  H   H424      1.0  0.15001  0.30443  0.64083  1.0000
  H   H425      1.0  0.39736  0.39386  0.96983  1.0000
  H   H426      1.0  0.07196  0.33625  0.98468  1.0000
  C   C556      1.0  0.27470  0.37198  0.65165  1.0000
  H   H427      1.0  0.44763  0.44926  0.89825  1.0000
  H   H428      1.0  0.09153  0.37032  0.56478  1.0000
  H   H429      1.0  0.06125  0.45781  0.96818  1.0000
  C   C557      1.0  0.21021  0.32433  0.94521  1.0000
  H   H430      1.0  0.38735  0.44304  0.78105  1.0000
  C   C558      1.0  0.11481  0.36063  0.54769  1.0000
  C   C559      1.0  0.99181  0.32495  0.58974  1.0000
  C   C560      1.0  0.04188  0.40717  0.02067  1.0000
  H   H431      1.0  0.45778  0.43280  0.95576  1.0000
  H   H432      1.0  0.02718  0.30578  0.60257  1.0000
  C   C561      1.0  0.16125  0.31424  0.02031  1.0000
  C   C562      1.0  0.04993  0.36919  0.98480  1.0000
  C   C563      1.0  0.23403  0.27431  0.86240  1.0000
  H   H433      1.0  0.29676  0.26463  0.99356  1.0000
  C   C564      1.0  0.41950  0.47248  0.00399  1.0000
  H   H434      1.0  0.42636  0.44718  0.01407  1.0000
  C   C565      1.0  0.34861  0.42833  0.87686  1.0000
  C   C566      1.0  0.42679  0.46734  0.85135  1.0000
  C   C567      1.0  0.29410  0.35593  0.53914  1.0000
  C   C568      1.0  0.28346  0.30413  0.64695  1.0000
  P   P21       1.0  0.28705  0.35910  0.62332  1.0000
  H   H435      1.0  0.08380  0.43997  0.97827  1.0000
  S   S83       1.0  0.30173  0.23621  0.79676  1.0000
  C   C569      1.0  0.30914  0.29335  0.88958  1.0000
  Fe  Fe41      1.0  0.26305  0.23731  0.66091  1.0000
  H   H436      1.0  0.17355  0.23829  0.61893  1.0000
  H   H437      1.0  0.42267  0.41290  0.83436  1.0000
  C   C570      1.0  0.31333  0.37135  0.63309  1.0000
  C   C571      1.0  0.32235  0.36666  0.66837  1.0000
  C   C572      1.0  0.34285  0.37559  0.67507  1.0000
  C   C573      1.0  0.35439  0.38948  0.64695  1.0000
  C   C574      1.0  0.34540  0.39473  0.61263  1.0000
  C   C575      1.0  0.32490  0.38588  0.60594  1.0000
  H   H438      1.0  0.29310  0.29607  0.64516  1.0000
  H   H439      1.0  0.30611  0.33061  0.62807  1.0000
  H   H440      1.0  0.31360  0.35590  0.69038  1.0000
  H   H441      1.0  0.34979  0.37154  0.70175  1.0000
  H   H442      1.0  0.37032  0.39614  0.65153  1.0000
  H   H443      1.0  0.35438  0.40547  0.59082  1.0000
  C   C576      1.0  0.97906  0.44146  0.66998  1.0000
  C   C577      1.0  0.08097  0.32804  0.62774  1.0000
  C   C578      1.0  0.02937  0.41750  0.01538  1.0000
  C   C579      1.0  0.98728  0.26178  0.58689  1.0000
  C   C580      1.0  0.00238  0.26333  0.61601  1.0000
  C   C581      1.0  0.00031  0.26740  0.65766  1.0000
  C   C582      1.0  0.29219  0.31675  0.01911  1.0000
  C   C583      1.0  0.34791  0.44256  0.90387  1.0000
  S   S84       1.0  0.23378  0.23899  0.64284  1.0000
  H   H444      1.0  0.20013  0.27234  0.98716  1.0000
  C   C584      1.0  0.30026  0.27273  0.96476  1.0000
  C   C585      1.0  0.27244  0.33789  0.97879  1.0000
  C   C586      1.0  0.09159  0.31625  0.61985  1.0000
  H   H445      1.0  0.27209  0.27585  0.96024  1.0000
  C   C587      1.0  0.41636  0.43131  0.90157  1.0000
  H   H446      1.0  0.24038  0.34263  0.02949  1.0000
  H   H447      1.0  0.02638  0.44330  0.99171  1.0000
  H   H448      1.0  0.01188  0.26835  0.68040  1.0000
  C   C588      1.0  0.18145  0.27135  0.89642  1.0000
  C   C589      1.0  0.01987  0.40520  0.91133  1.0000
  C   C590      1.0  0.22435  0.32581  0.97676  1.0000
  H   H449      1.0  0.14887  0.26806  0.97358  1.0000
  C   C591      1.0  0.40507  0.42918  0.81276  1.0000
  H   H450      1.0  0.01406  0.41149  0.02475  1.0000
  Fe  Fe42      1.0  0.32761  0.40408  0.00388  1.0000
  C   C592      1.0  0.25451  0.39126  0.69516  1.0000
  C   C593      1.0  0.96994  0.26428  0.59930  1.0000
  H   H451      1.0  0.39837  0.39964  0.71069  1.0000
  H   H452      1.0  0.33380  0.44176  0.91620  1.0000
  H   H453      1.0  0.25020  0.35466  0.57826  1.0000
  C   C594      1.0  0.06166  0.41554  0.00763  1.0000
  H   H454      1.0  0.43271  0.40509  0.99190  1.0000
  H   H455      1.0  0.98127  0.27248  0.70283  1.0000
  H   H456      1.0  0.46276  0.46442  0.00524  1.0000
  H   H457      1.0  0.15618  0.31375  0.98821  1.0000
  C   C595      1.0  0.23315  0.26542  0.90116  1.0000
  H   H458      1.0  0.23691  0.30057  0.82998  1.0000
  C   C596      1.0  0.99713  0.33350  0.55066  1.0000
  H   H459      1.0  0.18429  0.36761  0.56876  1.0000
  H   H460      1.0  0.05504  0.40059  0.55249  1.0000
  P   P22       1.0  0.23550  0.30798  0.98233  1.0000
  Fe  Fe43      1.0  0.37180  0.43006  0.02188  1.0000
  C   C597      1.0  0.96629  0.34972  0.02255  1.0000
  H   H461      1.0  0.10215  0.31491  0.64286  1.0000
  C   C598      1.0  0.28637  0.27916  0.94600  1.0000
  H   H462      1.0  0.05950  0.33924  0.60445  1.0000
  H   H463      1.0  0.30116  0.36079  0.97602  1.0000
  C   C599      1.0  0.34760  0.32134  0.01676  1.0000
  H   H464      1.0  0.42692  0.46526  0.78393  1.0000
  H   H465      1.0  0.33142  0.42712  0.56121  1.0000
  H   H466      1.0  0.99848  0.30824  0.63836  1.0000
  H   H467      1.0  0.35175  0.31987  0.98517  1.0000
  H   H468      1.0  0.27332  0.35632  0.70957  1.0000
  H   H469      1.0  0.24814  0.33227  0.64962  1.0000
  H   H470      1.0  0.26422  0.32204  0.75877  1.0000
  C   C600      1.0  0.36689  0.42885  0.86251  1.0000
  C   C601      1.0  0.25096  0.30500  0.65830  1.0000
  H   H471      1.0  0.08335  0.33581  0.65691  1.0000
  H   H472      1.0  0.97044  0.32175  0.79903  1.0000
  S   S85       1.0  0.99006  0.41235  0.94834  1.0000
  H   H473      1.0  0.19139  0.33746  0.91582  1.0000
  C   C602      1.0  0.23674  0.29864  0.53868  1.0000
  C   C603      1.0  0.25833  0.32472  0.64977  1.0000
  C   C604      1.0  0.00046  0.36515  0.91019  1.0000
  H   H474      1.0  0.99300  0.34965  0.91000  1.0000
  H   H475      1.0  0.25772  0.27938  0.66330  1.0000
  S   S86       1.0  0.36494  0.36046  0.00365  1.0000
  C   C605      1.0  0.29086  0.32383  0.63787  1.0000
  C   C606      1.0  0.44233  0.42784  0.94601  1.0000
  C   C607      1.0  0.26465  0.28870  0.54666  1.0000
  C   C608      1.0  0.31844  0.27625  0.94574  1.0000
  H   H476      1.0  0.20136  0.36502  0.96461  1.0000
  H   H477      1.0  0.38692  0.41017  0.91244  1.0000
  C   C609      1.0  0.14869  0.33066  0.66489  1.0000
  C   C610      1.0  0.99655  0.47400  0.69426  1.0000
  C   C611      1.0  0.18167  0.25280  0.89856  1.0000
  H   H478      1.0  0.00912  0.36739  0.79076  1.0000
  H   H479      1.0  0.98040  0.36738  0.67197  1.0000
  H   H480      1.0  0.31447  0.28609  0.76519  1.0000
  C   C612      1.0  0.14760  0.32321  0.59138  1.0000
  C   C613      1.0  0.26351  0.29471  0.65706  1.0000
  C   C614      1.0  0.00079  0.39691  0.92750  1.0000
  H   H481      1.0  0.14935  0.23521  0.97816  1.0000
  C   C615      1.0  0.40021  0.40786  0.73912  1.0000
  H   H482      1.0  0.23540  0.29770  0.66530  1.0000
  C   C616      1.0  0.38375  0.45808  0.90156  1.0000
  C   C617      1.0  0.33832  0.43847  0.53884  1.0000
  H   H483      1.0  0.31819  0.39014  0.57917  1.0000
  C   C618      1.0  0.25952  0.37697  0.71506  1.0000
  H   H484      1.0  0.04369  0.40032  0.88088  1.0000
  H   H485      1.0  0.19032  0.28127  0.87323  1.0000
  H   H486      1.0  0.25532  0.37313  0.74713  1.0000
  C   C619      1.0  0.29081  0.28959  0.90874  1.0000
  H   H487      1.0  0.23315  0.26852  0.96728  1.0000
  C   C620      1.0  0.06552  0.34605  0.99677  1.0000
  C   C621      1.0  0.26969  0.36743  0.69355  1.0000
  H   H488      1.0  0.26518  0.34614  0.96210  1.0000
  H   H489      1.0  0.07176  0.40805  0.01210  1.0000
  Fe  Fe44      1.0  0.35825  0.38636  0.02263  1.0000
  C   C622      1.0  0.28063  0.35732  0.56864  1.0000
  C   C623      1.0  0.40240  0.41537  0.92165  1.0000
  H   H490      1.0  0.09731  0.29754  0.57570  1.0000
  C   C624      1.0  0.31813  0.29651  0.55546  1.0000
  H   H491      1.0  0.33699  0.28895  0.89403  1.0000
  C   C625      1.0  0.00271  0.31498  0.60818  1.0000
  C   C626      1.0  0.07510  0.30802  0.55248  1.0000
  H   H492      1.0  0.14691  0.36802  0.60639  1.0000
  H   H493      1.0  0.41809  0.39412  0.76981  1.0000
  H   H494      1.0  0.38302  0.42413  0.71650  1.0000
  C   C627      1.0  0.06408  0.31953  0.56049  1.0000
  C   C628      1.0  0.45298  0.47231  0.00253  1.0000
  H   H495      1.0  0.30885  0.35682  0.54831  1.0000
  C   C629      1.0  0.03640  0.43573  0.99672  1.0000
  H   H496      1.0  0.97632  0.37036  0.93966  1.0000
  H   H497      1.0  0.10964  0.34818  0.56789  1.0000
  H   H498      1.0  0.33327  0.29063  0.02711  1.0000
  H   H499      1.0  0.39709  0.46936  0.91288  1.0000
  C   C630      1.0  0.06862  0.43373  0.98875  1.0000
  C   C631      1.0  0.26167  0.31912  0.99282  1.0000
  C   C632      1.0  0.15839  0.24523  0.95525  1.0000
  H   H500      1.0  0.03217  0.28060  0.54413  1.0000
  C   C633      1.0  0.10455  0.37315  0.54596  1.0000
  C   C634      1.0  0.27172  0.30848  0.01243  1.0000
  H   H501      1.0  0.22580  0.36750  0.02144  1.0000
  H   H502      1.0  0.96618  0.29999  0.71709  1.0000
  H   H503      1.0  0.26570  0.31707  0.56025  1.0000
  H   H504      1.0  0.20575  0.24390  0.58648  1.0000
  C   C635      1.0  0.30275  0.33559  0.00597  1.0000
  C   C636      1.0  0.18611  0.36884  0.53532  1.0000
  C   C637      1.0  0.43313  0.47403  0.81096  1.0000
  C   C638      1.0  0.19241  0.23916  0.56742  1.0000
  H   H505      1.0  0.27979  0.29190  0.55669  1.0000
  C   C639      1.0  0.34424  0.33521  0.55338  1.0000
  H   H506      1.0  0.21494  0.24096  0.78783  1.0000
  H   H507      1.0  0.31858  0.34208  0.01109  1.0000
  H   H508      1.0  0.30825  0.28155  0.55577  1.0000
  H   H509      1.0  0.96711  0.25611  0.00188  1.0000
  C   C640      1.0  0.96783  0.24661  0.93956  1.0000
  C   C641      1.0  0.16983  0.23947  0.92744  1.0000
  H   H510      1.0  0.23035  0.30952  0.54178  1.0000
  C   C642      1.0  0.43552  0.46893  0.53251  1.0000
  H   H511      1.0  0.98124  0.24374  0.94534  1.0000
  H   H512      1.0  0.96600  0.23926  0.87452  1.0000
  H   H513      1.0  0.36705  0.43631  0.54445  1.0000
  H   H514      1.0  0.35455  0.35002  0.55264  1.0000
  H   H515      1.0  0.26381  0.29375  0.02224  1.0000
  C   C643      1.0  0.25661  0.30291  0.54920  1.0000
  C   C644      1.0  0.01386  0.29161  0.02998  1.0000
  C   C645      1.0  0.01398  0.31033  0.02977  1.0000
  C   C646      1.0  0.04717  0.37013  0.02778  1.0000
  C   C647      1.0  0.25301  0.27029  0.53243  1.0000
  H   H516      1.0  0.25961  0.25953  0.53161  1.0000
  C   C648      1.0  0.29720  0.23348  0.88140  1.0000
  C   C649      1.0  0.17667  0.30805  0.03075  1.0000
  H   H517      1.0  0.01785  0.64474  0.34812  1.0000
  S   S87       1.0  0.98427  0.57864  0.06959  1.0000
  H   H518      1.0  0.98575  0.63599  0.10844  1.0000
  C   C650      1.0  0.45120  0.49493  0.48303  1.0000
  H   H519      1.0  0.97609  0.59033  0.38864  1.0000
  H   H520      1.0  0.98906  0.67544  0.20684  1.0000
  C   C651      1.0  0.96620  0.60368  0.33774  1.0000
  Fe  Fe45      1.0  0.02531  0.71551  0.40722  1.0000
  S   S88       1.0  0.00027  0.72117  0.43654  1.0000
  S   S89       1.0  0.02927  0.68714  0.40061  1.0000
  S   S90       1.0  0.99011  0.60657  0.49117  1.0000
  H   H521      1.0  0.96672  0.49555  0.24760  1.0000
  H   H522      1.0  0.39730  0.51678  0.39599  1.0000
  H   H523      1.0  0.43791  0.49024  0.42159  1.0000
  C   C652      1.0  0.01723  0.66596  0.42961  1.0000
  C   C653      1.0  0.99648  0.65748  0.43329  1.0000
  C   C654      1.0  0.98765  0.63909  0.45198  1.0000
  C   C655      1.0  0.99965  0.62947  0.46748  1.0000
  C   C656      1.0  0.02027  0.63828  0.46471  1.0000
  C   C657      1.0  0.02895  0.65615  0.44506  1.0000
  H   H524      1.0  0.98727  0.66481  0.42091  1.0000
  H   H525      1.0  0.02961  0.63095  0.47667  1.0000
  H   H526      1.0  0.04490  0.66239  0.44166  1.0000
  H   H527      1.0  0.98483  0.56873  0.27795  1.0000
  C   C658      1.0  0.42157  0.52995  0.43870  1.0000
  H   H528      1.0  0.97172  0.63233  0.45423  1.0000
  C   C659      1.0  0.98433  0.68993  0.05053  1.0000
  C   C660      1.0  0.98892  0.66158  0.19695  1.0000
  C   C661      1.0  0.98110  0.67563  0.33483  1.0000
  H   H529      1.0  0.99504  0.67905  0.35147  1.0000
  H   H530      1.0  0.01515  0.69709  0.29285  1.0000
  H   H531      1.0  0.32171  0.53217  0.41309  1.0000
  C   C662      1.0  0.00371  0.63304  0.34342  1.0000
  H   H532      1.0  0.98944  0.54566  0.15480  1.0000
  H   H533      1.0  0.99607  0.68040  0.49778  1.0000
  C   C663      1.0  0.41775  0.51647  0.50824  1.0000
  H   H534      1.0  0.98538  0.66720  0.13201  1.0000
  C   C664      1.0  0.98694  0.65706  0.15460  1.0000
  H   H535      1.0  0.44369  0.54001  0.48760  1.0000
  C   C665      1.0  0.98718  0.63946  0.14124  1.0000
  C   C666      1.0  0.98800  0.68510  0.52044  1.0000
  C   C667      1.0  0.99888  0.61690  0.36948  1.0000
  H   H536      1.0  0.98609  0.72671  0.18050  1.0000
  H   H537      1.0  0.07652  0.70412  0.29585  1.0000
  S   S91       1.0  0.97701  0.57448  0.19184  1.0000
  C   C668      1.0  0.39906  0.50302  0.49706  1.0000
  C   C669      1.0  0.98001  0.60243  0.36726  1.0000
  C   C670      1.0  0.34739  0.50879  0.46516  1.0000
  C   C671      1.0  0.02630  0.69083  0.29030  1.0000
  C   C672      1.0  0.97039  0.67144  0.04242  1.0000
  C   C673      1.0  0.02085  0.67099  0.28386  1.0000
  H   H538      1.0  0.43045  0.54030  0.41614  1.0000
  C   C674      1.0  0.97019  0.71591  0.27664  1.0000
  C   C675      1.0  0.33622  0.52031  0.45857  1.0000
  C   C676      1.0  0.39169  0.50262  0.45616  1.0000
  H   H539      1.0  0.98555  0.71810  0.28318  1.0000
  H   H540      1.0  0.00954  0.61588  0.39248  1.0000
  C   C677      1.0  0.34706  0.50332  0.39085  1.0000
  C   C678      1.0  0.42900  0.52989  0.47908  1.0000
  H   H541      1.0  0.39057  0.49307  0.52054  1.0000
  C   C679      1.0  0.99131  0.63073  0.21261  1.0000
  C   C680      1.0  0.04481  0.71554  0.18912  1.0000
  C   C681      1.0  0.04025  0.73206  0.19161  1.0000
  H   H542      1.0  0.98986  0.61280  0.15961  1.0000
  C   C682      1.0  0.96487  0.69255  0.10887  1.0000
  H   H543      1.0  0.03936  0.68900  0.15652  1.0000
  C   C683      1.0  0.01732  0.72103  0.13272  1.0000
  C   C684      1.0  0.40291  0.51650  0.42736  1.0000
  H   H544      1.0  0.99334  0.62040  0.23435  1.0000
  C   C685      1.0  0.45914  0.50291  0.12121  1.0000
  C   C686      1.0  0.02235  0.70467  0.12998  1.0000
  C   C687      1.0  0.04636  0.70271  0.29463  1.0000
  H   H545      1.0  0.03183  0.64830  0.27240  1.0000
  H   H546      1.0  0.97332  0.49429  0.08152  1.0000
  P   P23       1.0  0.36748  0.48561  0.44076  1.0000
  C   C688      1.0  0.97082  0.50188  0.10808  1.0000
  H   H547      1.0  0.06713  0.66938  0.28010  1.0000
  H   H548      1.0  0.05056  0.71787  0.30149  1.0000
  H   H549      1.0  0.43504  0.49402  0.16418  1.0000
  C   C689      1.0  0.06105  0.69497  0.29131  1.0000
  C   C690      1.0  0.05576  0.67541  0.28269  1.0000
  C   C691      1.0  0.03574  0.66349  0.27860  1.0000
  C   C692      1.0  0.98149  0.70084  0.08347  1.0000
  C   C693      1.0  0.97985  0.53081  0.14922  1.0000
  C   C694      1.0  0.97750  0.66509  0.29772  1.0000
  P   P24       1.0  0.99513  0.65508  0.28025  1.0000
  H   H550      1.0  0.46153  0.49647  0.30910  1.0000
  C   C695      1.0  0.33039  0.52326  0.41819  1.0000
  H   H551      1.0  0.33146  0.51723  0.35302  1.0000
  C   C696      1.0  0.35259  0.49994  0.43143  1.0000
  H   H552      1.0  0.99501  0.52833  0.09379  1.0000
  C   C697      1.0  0.98942  0.62635  0.17017  1.0000
  C   C698      1.0  0.99082  0.64832  0.22630  1.0000
  P   P25       1.0  0.99978  0.72447  0.09580  1.0000
  C   C699      1.0  0.03587  0.70186  0.15833  1.0000
  S   S92       1.0  0.02432  0.73142  0.34810  1.0000
  H   H553      1.0  0.35137  0.49718  0.36413  1.0000
  C   C700      1.0  0.97146  0.61908  0.30969  1.0000
  C   C701      1.0  0.99010  0.63405  0.31276  1.0000
  H   H554      1.0  0.45802  0.51672  0.11482  1.0000
  C   C702      1.0  0.33586  0.51483  0.38436  1.0000
  H   H555      1.0  0.35197  0.50672  0.49658  1.0000
  H   H556      1.0  0.33213  0.52698  0.48478  1.0000
  H   H557      1.0  0.01584  0.69398  0.10608  1.0000
  C   C703      1.0  0.98310  0.52103  0.11507  1.0000
  H   H558      1.0  0.96979  0.69035  0.37897  1.0000
  H   H559      1.0  0.97804  0.50534  0.31982  1.0000
  H   H560      1.0  0.45420  0.48971  0.23429  1.0000
  H   H561      1.0  0.05528  0.71332  0.21102  1.0000
  Fe  Fe46      1.0  0.96712  0.59630  0.04494  1.0000
  C   C704      1.0  0.44616  0.49000  0.14910  1.0000
  H   H562      1.0  0.96806  0.69871  0.22191  1.0000
  C   C705      1.0  0.96906  0.56543  0.27443  1.0000
  C   C706      1.0  0.96665  0.68169  0.35097  1.0000
  C   C707      1.0  0.43735  0.48430  0.45257  1.0000
  C   C708      1.0  0.45006  0.48718  0.52315  1.0000
  H   H563      1.0  0.03113  0.66575  0.52965  1.0000
  H   H564      1.0  0.99741  0.69546  0.03144  1.0000
  H   H565      1.0  0.06034  0.72510  0.60350  1.0000
  H   H566      1.0  0.96850  0.70791  0.79778  1.0000
  Fe  Fe47      1.0  0.02541  0.70485  0.83468  1.0000
  C   C709      1.0  0.98712  0.54453  0.73941  1.0000
  S   S93       1.0  0.01028  0.67268  0.85131  1.0000
  H   H567      1.0  0.96834  0.72451  0.70125  1.0000
  C   C710      1.0  0.97842  0.62844  0.68689  1.0000
  S   S94       1.0  0.01090  0.71183  0.77749  1.0000
  S   S95       1.0  0.05624  0.72006  0.80928  1.0000
  C   C711      1.0  0.44822  0.50225  0.99089  1.0000
  C   C712      1.0  0.96748  0.72945  0.63464  1.0000
  S   S96       1.0  0.05111  0.72571  0.68940  1.0000
  S   S97       1.0  0.02643  0.73117  0.86977  1.0000
  H   H568      1.0  0.00001  0.56108  0.68477  1.0000
  H   H569      1.0  0.97342  0.53136  0.79612  1.0000
  C   C713      1.0  0.97484  0.57221  0.87260  1.0000
  C   C714      1.0  0.00934  0.64922  0.57400  1.0000
  C   C715      1.0  0.00302  0.66052  0.89981  1.0000
  C   C716      1.0  0.00878  0.66989  0.93804  1.0000
  C   C717      1.0  0.00299  0.65947  0.97559  1.0000
  C   C718      1.0  0.99093  0.63972  0.97554  1.0000
  C   C719      1.0  0.98502  0.63040  0.93734  1.0000
  C   C720      1.0  0.99127  0.64069  0.89981  1.0000
  H   H570      1.0  0.01800  0.68506  0.93864  1.0000
  H   H571      1.0  0.44621  0.64024  0.96152  1.0000
  H   H572      1.0  0.01037  0.48598  0.70025  1.0000
  H   H573      1.0  0.98701  0.63316  0.87064  1.0000
  H   H574      1.0  0.01259  0.60230  0.95690  1.0000
  H   H575      1.0  0.97241  0.66313  0.01679  1.0000
  H   H576      1.0  0.01690  0.61260  0.88290  1.0000
  C   C721      1.0  0.97657  0.54375  0.77585  1.0000
  C   C722      1.0  0.02367  0.66607  0.55835  1.0000
  C   C723      1.0  0.99168  0.56043  0.71277  1.0000
  C   C724      1.0  0.96769  0.69743  0.58023  1.0000
  H   H577      1.0  0.45903  0.64698  0.86784  1.0000
  S   S98       1.0  0.98288  0.62780  0.02401  1.0000
  H   H578      1.0  0.45276  0.49728  0.77379  1.0000
  H   H579      1.0  0.02162  0.69755  0.63197  1.0000
  S   S99       1.0  0.96615  0.53024  0.00255  1.0000
  H   H580      1.0  0.00554  0.64665  0.77525  1.0000
  H   H581      1.0  0.97567  0.61527  0.93669  1.0000
  C   C725      1.0  0.00216  0.59389  0.93334  1.0000
  C   C726      1.0  0.97239  0.69455  0.88406  1.0000
  H   H582      1.0  0.45342  0.55279  0.81213  1.0000
  C   C727      1.0  0.97339  0.57176  0.61112  1.0000
  C   C728      1.0  0.99989  0.64957  0.61156  1.0000
  H   H583      1.0  0.02336  0.59137  0.59842  1.0000
  C   C729      1.0  0.97419  0.62969  0.77333  1.0000
  H   H584      1.0  0.41782  0.50031  0.99298  1.0000
  H   H585      1.0  0.45671  0.56603  0.74015  1.0000
  H   H586      1.0  0.97066  0.58676  0.76588  1.0000
  C   C730      1.0  0.99102  0.58885  0.86133  1.0000
  C   C731      1.0  0.98715  0.70905  0.56964  1.0000
  Fe  Fe48      1.0  0.04146  0.72887  0.75483  1.0000
  C   C732      1.0  0.00848  0.59053  0.60515  1.0000
  H   H587      1.0  0.00561  0.63597  0.55666  1.0000
  C   C733      1.0  0.97136  0.68977  0.68497  1.0000
  C   C734      1.0  0.98602  0.57751  0.94484  1.0000
  H   H588      1.0  0.98997  0.72282  0.00570  1.0000
  C   C735      1.0  0.97499  0.57477  0.75869  1.0000
  H   H589      1.0  0.97239  0.63077  0.80645  1.0000
  H   H590      1.0  0.99499  0.55998  0.59352  1.0000
  H   H591      1.0  0.00788  0.66679  0.00496  1.0000
  C   C736      1.0  0.98565  0.57556  0.72247  1.0000
  P   P26       1.0  0.98097  0.62799  0.63115  1.0000
  H   H592      1.0  0.00960  0.64498  0.69935  1.0000
  C   C737      1.0  0.46212  0.67098  0.96201  1.0000
  C   C738      1.0  0.00406  0.66722  0.63173  1.0000
  C   C739      1.0  0.98576  0.60644  0.62106  1.0000
  C   C740      1.0  0.45045  0.49745  0.87930  1.0000
  H   H593      1.0  0.01769  0.62080  0.61671  1.0000
  H   H594      1.0  0.97098  0.53178  0.88150  1.0000
  H   H595      1.0  0.45743  0.50642  0.90581  1.0000
  C   C741      1.0  0.00516  0.60725  0.61493  1.0000
  H   H596      1.0  0.45416  0.51756  0.98452  1.0000
  H   H597      1.0  0.98554  0.70046  0.67584  1.0000
  C   C742      1.0  0.97070  0.67740  0.71841  1.0000
  H   H598      1.0  0.99473  0.72271  0.58476  1.0000
  H   H599      1.0  0.45332  0.67370  0.93693  1.0000
  C   C743      1.0  0.99256  0.57284  0.60262  1.0000
  C   C744      1.0  0.45661  0.50394  0.83909  1.0000
  C   C745      1.0  0.45813  0.65215  0.97584  1.0000
  C   C746      1.0  0.99283  0.63873  0.75562  1.0000
  H   H600      1.0  0.98943  0.58801  0.70209  1.0000
  C   C747      1.0  0.46104  0.49221  0.99379  1.0000
  H   H601      1.0  0.99181  0.53281  0.73185  1.0000
  H   H602      1.0  0.98421  0.57297  0.97714  1.0000
  C   C748      1.0  0.99711  0.70301  0.53938  1.0000
  C   C749      1.0  0.44792  0.49225  0.80495  1.0000
  C   C750      1.0  0.97221  0.56689  0.91484  1.0000
  H   H603      1.0  0.97851  0.48868  0.71739  1.0000
  C   C751      1.0  0.01835  0.68404  0.61595  1.0000
  C   C752      1.0  0.02828  0.68344  0.57944  1.0000
  H   H604      1.0  0.45490  0.50032  0.62293  1.0000
  H   H605      1.0  0.99627  0.66810  0.65950  1.0000
  C   C753      1.0  0.00458  0.59964  0.89162  1.0000
  C   C754      1.0  0.99502  0.63793  0.71255  1.0000
  H   H606      1.0  0.03928  0.69646  0.56697  1.0000
  H   H607      1.0  0.46051  0.49529  0.54678  1.0000
  C   C755      1.0  0.97026  0.55880  0.78564  1.0000
  H   H608      1.0  0.98423  0.67847  0.73482  1.0000
  H   H609      1.0  0.97677  0.72062  0.91675  1.0000
  H   H610      1.0  0.99324  0.59368  0.82934  1.0000
  C   C756      1.0  0.96995  0.58850  0.62021  1.0000
  C   C757      1.0  0.42760  0.49241  0.99579  1.0000
  H   H611      1.0  0.98805  0.69690  0.88397  1.0000
  H   H612      1.0  0.97298  0.49726  0.97195  1.0000
  C   C758      1.0  0.96870  0.67332  0.53110  1.0000
  H   H613      1.0  0.01202  0.71217  0.53078  1.0000
  C   C759      1.0  0.96591  0.70794  0.90271  1.0000
  C   C760      1.0  0.05082  0.73323  0.60582  1.0000
  H   H614      1.0  0.46309  0.51646  0.69150  1.0000
  H   H615      1.0  0.42372  0.51631  0.53934  1.0000
  C   C761      1.0  0.46340  0.56744  0.80600  1.0000
  Fe  Fe49      1.0  0.19056  0.88536  0.25064  1.0000
  S   S100      1.0  0.16877  0.89573  0.28192  1.0000
  S   S101      1.0  0.19046  0.87508  0.18392  1.0000
  Fe  Fe50      1.0  0.21421  0.88680  0.33181  1.0000
  S   S102      1.0  0.19368  0.89624  0.36853  1.0000
  S   S103      1.0  0.24166  0.88369  0.36104  1.0000
  Fe  Fe51      1.0  0.16848  0.87443  0.33265  1.0000
  S   S104      1.0  0.14095  0.85745  0.37055  1.0000
  Fe  Fe52      1.0  0.19586  0.91644  0.31530  1.0000
  S   S105      1.0  0.20570  0.94724  0.33684  1.0000
  S   S106      1.0  0.18899  0.86309  0.29998  1.0000
  S   S107      1.0  0.21754  0.90792  0.27988  1.0000
  H   H616      1.0  0.29223  0.96804  0.40135  1.0000
  S   S108      1.0  0.29447  0.94753  0.48921  1.0000
  C   C762      1.0  0.25142  0.98004  0.20278  1.0000
  Fe  Fe53      1.0  0.04675  0.75747  0.37960  1.0000
  S   S109      1.0  0.02296  0.76630  0.40634  1.0000
  S   S110      1.0  0.07296  0.77462  0.33851  1.0000
  H   H617      1.0  0.03849  0.75577  0.08711  1.0000
  C   C763      1.0  0.02675  0.73495  0.16322  1.0000
  C   C764      1.0  0.30509  0.97449  0.07008  1.0000
  H   H618      1.0  0.12348  0.82406  0.51030  1.0000
  C   C765      1.0  0.17711  0.89971  0.06003  1.0000
  H   H619      1.0  0.16784  0.84044  0.12503  1.0000
  H   H620      1.0  0.18866  0.80379  0.19915  1.0000
  C   C766      1.0  0.27267  0.97082  0.25023  1.0000
  C   C767      1.0  0.21206  0.96548  0.29891  1.0000
  C   C768      1.0  0.20048  0.96340  0.26278  1.0000
  H   H621      1.0  0.27071  0.96495  0.14579  1.0000
  H   H622      1.0  0.23991  0.92196  0.50984  1.0000
  H   H623      1.0  0.18806  0.95006  0.25709  1.0000
  C   C769      1.0  0.12395  0.79457  0.04468  1.0000
  C   C770      1.0  0.16828  0.82631  0.13026  1.0000
  C   C771      1.0  0.12270  0.83403  0.36167  1.0000
  C   C772      1.0  0.10694  0.82663  0.38976  1.0000
  C   C773      1.0  0.09172  0.80843  0.38342  1.0000
  C   C774      1.0  0.09208  0.79738  0.34880  1.0000
  C   C775      1.0  0.10787  0.80473  0.32078  1.0000
  C   C776      1.0  0.12313  0.82292  0.32716  1.0000
  H   H624      1.0  0.10641  0.83511  0.41645  1.0000
  H   H625      1.0  0.07963  0.80304  0.40510  1.0000
  H   H626      1.0  0.10828  0.79630  0.29394  1.0000
  H   H627      1.0  0.13507  0.82844  0.30519  1.0000
  C   C777      1.0  0.25693  0.90202  0.39492  1.0000
  C   C778      1.0  0.25204  0.91785  0.40484  1.0000
  C   C779      1.0  0.26381  0.93165  0.43355  1.0000
  C   C780      1.0  0.28077  0.93000  0.45216  1.0000
  C   C781      1.0  0.28603  0.91447  0.44142  1.0000
  C   C782      1.0  0.27407  0.90049  0.41307  1.0000
  H   H628      1.0  0.23892  0.91925  0.39110  1.0000
  H   H629      1.0  0.25960  0.94360  0.44164  1.0000
  H   H630      1.0  0.29903  0.91302  0.45556  1.0000
  H   H631      1.0  0.27796  0.88829  0.40553  1.0000
  C   C783      1.0  0.13435  0.84217  0.09153  1.0000
  C   C784      1.0  0.23010  0.94519  0.09644  1.0000
  C   C785      1.0  0.08473  0.81644  0.06108  1.0000
  C   C786      1.0  0.09733  0.79812  0.51079  1.0000
  H   H632      1.0  0.26040  0.86684  0.06567  1.0000
  C   C787      1.0  0.18937  0.88431  0.47286  1.0000
  C   C788      1.0  0.98157  0.75151  0.09379  1.0000
  C   C789      1.0  0.19020  0.87890  0.09894  1.0000
  C   C790      1.0  0.18506  0.88488  0.13686  1.0000
  C   C791      1.0  0.17544  0.89797  0.13617  1.0000
  C   C792      1.0  0.17165  0.90548  0.09791  1.0000
  H   H633      1.0  0.19763  0.86876  0.09908  1.0000
  H   H634      1.0  0.17114  0.90247  0.16509  1.0000
  H   H635      1.0  0.16453  0.91586  0.09763  1.0000
  Fe  Fe54      1.0  0.36951  0.95966  0.52249  1.0000
  C   C793      1.0  0.18608  0.88613  0.06073  1.0000
  H   H636      1.0  0.12156  0.78164  0.10600  1.0000
  H   H637      1.0  0.37959  0.96520  0.41569  1.0000
  C   C794      1.0  0.27904  0.96224  0.12070  1.0000
  C   C795      1.0  0.27181  0.92834  0.20242  1.0000
  H   H638      1.0  0.00417  0.76582  0.24386  1.0000
  H   H639      1.0  0.04711  0.74254  0.21581  1.0000
  C   C796      1.0  0.17858  0.82350  0.16536  1.0000
  C   C797      1.0  0.32951  0.96115  0.34979  1.0000
  C   C798      1.0  0.26309  0.90348  0.25568  1.0000
  C   C799      1.0  0.07865  0.84356  0.08923  1.0000
  C   C800      1.0  0.17216  0.79087  0.14352  1.0000
  H   H640      1.0  0.08718  0.79577  0.10529  1.0000
  H   H641      1.0  0.06724  0.78233  0.25551  1.0000
  H   H642      1.0  0.23897  0.87705  0.24018  1.0000
  H   H643      1.0  0.18542  0.83523  0.18704  1.0000
  C   C801      1.0  0.98714  0.73870  0.11856  1.0000
  H   H644      1.0  0.26507  0.89872  0.28689  1.0000
  C   C802      1.0  0.24629  0.90431  0.08857  1.0000
  H   H645      1.0  0.24143  0.95437  0.24062  1.0000
  H   H646      1.0  0.34062  0.95485  0.35446  1.0000
  H   H647      1.0  0.28568  0.93157  0.26350  1.0000
  C   C803      1.0  0.33043  0.96129  0.17245  1.0000
  H   H648      1.0  0.19343  0.95672  0.13916  1.0000
  C   C804      1.0  0.20710  0.93853  0.16797  1.0000
  C   C805      1.0  0.16482  0.95653  0.44347  1.0000
  C   C806      1.0  0.27395  0.94354  0.10494  1.0000
  H   H649      1.0  0.35704  0.90793  0.36708  1.0000
  H   H650      1.0  0.27436  0.96048  0.27228  1.0000
  H   H651      1.0  0.19810  0.93580  0.19555  1.0000
  C   C807      1.0  0.37837  0.95564  0.38986  1.0000
  C   C808      1.0  0.43254  0.95806  0.47624  1.0000
  H   H652      1.0  0.17658  0.90470  0.49007  1.0000
  H   H653      1.0  0.26551  0.89170  0.11901  1.0000
  H   H654      1.0  0.28074  0.94282  0.19284  1.0000
  C   C809      1.0  0.45310  0.96908  0.47568  1.0000
  H   H655      1.0  0.23698  0.97727  0.18861  1.0000
  C   C810      1.0  0.09896  0.76345  0.18170  1.0000
  C   C811      1.0  0.11873  0.77092  0.19551  1.0000
  C   C812      1.0  0.12763  0.79035  0.20619  1.0000
  C   C813      1.0  0.11676  0.80231  0.20354  1.0000
  C   C814      1.0  0.09677  0.79487  0.19037  1.0000
  C   C815      1.0  0.08807  0.77541  0.17877  1.0000
  P   P27       1.0  0.08223  0.80994  0.18813  1.0000
  C   C816      1.0  0.09313  0.83008  0.22321  1.0000
  C   C817      1.0  0.08190  0.81905  0.13589  1.0000
  C   C818      1.0  0.07863  0.83625  0.12951  1.0000
  H   H656      1.0  0.11893  0.87247  0.29963  1.0000
  C   C819      1.0  0.08476  0.80909  0.10133  1.0000
  C   C820      1.0  0.08531  0.83014  0.26290  1.0000
  C   C821      1.0  0.09443  0.84557  0.28996  1.0000
  C   C822      1.0  0.11147  0.86093  0.27787  1.0000
  C   C823      1.0  0.11925  0.86106  0.23837  1.0000
  C   C824      1.0  0.11011  0.84574  0.21114  1.0000
  C   C825      1.0  0.05730  0.79558  0.20428  1.0000
  C   C826      1.0  0.04061  0.79670  0.18333  1.0000
  C   C827      1.0  0.02148  0.78581  0.19725  1.0000
  C   C828      1.0  0.01892  0.77388  0.23227  1.0000
  C   C829      1.0  0.05454  0.78328  0.23881  1.0000
  H   H657      1.0  0.09203  0.74835  0.17377  1.0000
  H   H658      1.0  0.12714  0.76164  0.19833  1.0000
  H   H659      1.0  0.14287  0.79613  0.21745  1.0000
  H   H660      1.0  0.12397  0.81716  0.21296  1.0000
  H   H661      1.0  0.07277  0.76942  0.16810  1.0000
  H   H662      1.0  0.07620  0.84410  0.15566  1.0000
  C   C830      1.0  0.23384  0.95696  0.51929  1.0000
  C   C831      1.0  0.24843  0.89122  0.22928  1.0000
  H   H663      1.0  0.07255  0.81821  0.27384  1.0000
  H   H664      1.0  0.08876  0.84524  0.32109  1.0000
  H   H665      1.0  0.34616  0.97147  0.11526  1.0000
  H   H666      1.0  0.13263  0.87285  0.22922  1.0000
  H   H667      1.0  0.11666  0.84585  0.18115  1.0000
  H   H668      1.0  0.04227  0.80615  0.15675  1.0000
  H   H669      1.0  0.00863  0.78689  0.18143  1.0000
  C   C832      1.0  0.16182  0.79363  0.10841  1.0000
  C   C833      1.0  0.37548  0.92987  0.32542  1.0000
  H   H670      1.0  0.17544  0.87396  0.46092  1.0000
  C   C834      1.0  0.19013  0.90185  0.48914  1.0000
  H   H671      1.0  0.46398  0.87766  0.45281  1.0000
  C   C835      1.0  0.36718  0.93603  0.39504  1.0000
  H   H672      1.0  0.32811  0.94635  0.16670  1.0000
  H   H673      1.0  0.31756  0.95354  0.41127  1.0000
  H   H674      1.0  0.21363  0.96242  0.07545  1.0000
  H   H675      1.0  0.19523  0.97739  0.20729  1.0000
  C   C836      1.0  0.41907  0.96568  0.49210  1.0000
  H   H676      1.0  0.42704  0.94348  0.46450  1.0000
  H   H677      1.0  0.13340  0.83447  0.12061  1.0000
  C   C837      1.0  0.21585  0.95348  0.10030  1.0000
  C   C838      1.0  0.20443  0.95024  0.13615  1.0000
  Fe  Fe55      1.0  0.02435  0.74789  0.46175  1.0000
  H   H678      1.0  0.15438  0.96056  0.42488  1.0000
  C   C839      1.0  0.22559  0.91158  0.50048  1.0000
  H   H679      1.0  0.07647  0.85701  0.08452  1.0000
  C   C840      1.0  0.18047  0.80579  0.17210  1.0000
  C   C841      1.0  0.20831  0.91577  0.50260  1.0000
  P   P28       1.0  0.25251  0.92413  0.12462  1.0000
  H   H680      1.0  0.15852  0.96776  0.50057  1.0000
  C   C842      1.0  0.31652  0.96040  0.38188  1.0000
  H   H681      1.0  0.45298  0.90251  0.48200  1.0000
  H   H682      1.0  0.39471  0.95435  0.29145  1.0000
  C   C843      1.0  0.96617  0.75968  0.15322  1.0000
  C   C844      1.0  0.17616  0.94744  0.42463  1.0000
  C   C845      1.0  0.16722  0.96062  0.48602  1.0000
  C   C846      1.0  0.28467  0.94052  0.07152  1.0000
  C   C847      1.0  0.19209  0.94611  0.49115  1.0000
  H   H683      1.0  0.46326  0.96298  0.46352  1.0000
  C   C848      1.0  0.25567  0.89097  0.09282  1.0000
  C   C849      1.0  0.03187  0.75215  0.05637  1.0000
  H   H684      1.0  0.36003  0.93082  0.42454  1.0000
  C   C850      1.0  0.30009  0.95596  0.05410  1.0000
  H   H685      1.0  0.31464  0.95518  0.22987  1.0000
  C   C851      1.0  0.18990  0.94242  0.44818  1.0000
  C   C852      1.0  0.25713  0.91608  0.17566  1.0000
  C   C853      1.0  0.22109  0.92994  0.16392  1.0000
  C   C854      1.0  0.03547  0.77263  0.25298  1.0000
  H   H686      1.0  0.23903  0.94814  0.06870  1.0000
  H   H687      1.0  0.02362  0.74796  0.16537  1.0000
  S   S111      1.0  0.39333  0.95102  0.49286  1.0000
  H   H688      1.0  0.09707  0.79619  0.47730  1.0000
  C   C855      1.0  0.23284  0.93333  0.12824  1.0000
  P   P29       1.0  0.20912  0.93872  0.52196  1.0000
  C   C856      1.0  0.09824  0.76428  0.06511  1.0000
  H   H689      1.0  0.23344  0.88805  0.17007  1.0000
  C   C857      1.0  0.22475  0.89400  0.48431  1.0000
  H   H690      1.0  0.17443  0.94440  0.39154  1.0000
  C   C858      1.0  0.38809  0.96259  0.35224  1.0000
  S   S112      1.0  0.04954  0.74084  0.43660  1.0000
  H   H691      1.0  0.33877  0.97105  0.28804  1.0000
  C   C859      1.0  0.27471  0.92204  0.24236  1.0000
  H   H692      1.0  0.37452  0.91981  0.30068  1.0000
  H   H693      1.0  0.03361  0.76372  0.28068  1.0000
  C   C860      1.0  0.25400  0.96713  0.23192  1.0000
  H   H694      1.0  0.12674  0.86461  0.11938  1.0000
  H   H695      1.0  0.22257  0.92067  0.18871  1.0000
  C   C861      1.0  0.43576  0.97818  0.36145  1.0000
  C   C862      1.0  0.15933  0.81121  0.10204  1.0000
  C   C863      1.0  0.20440  0.97892  0.23495  1.0000
  C   C864      1.0  0.30222  0.96859  0.37621  1.0000
  C   C865      1.0  0.38680  0.94949  0.32023  1.0000
  H   H696      1.0  0.17404  0.77729  0.14823  1.0000
  H   H697      1.0  0.19874  0.93561  0.43271  1.0000
  C   C866      1.0  0.24533  0.89753  0.18958  1.0000
  C   C867      1.0  0.36564  0.92315  0.36279  1.0000
  C   C868      1.0  0.14020  0.83574  0.05496  1.0000
  C   C869      1.0  0.29461  0.97765  0.10341  1.0000
  Fe  Fe56      1.0  0.00082  0.73884  0.37898  1.0000
  H   H698      1.0  0.37220  0.97638  0.27986  1.0000
  Fe  Fe57      1.0  0.32528  0.95491  0.51833  1.0000
  C   C870      1.0  0.18082  0.95549  0.50981  1.0000
  C   C871      1.0  0.11524  0.78037  0.07494  1.0000
  H   H699      1.0  0.23826  0.89116  0.48132  1.0000
  H   H700      1.0  0.96691  0.77184  0.09193  1.0000
  C   C872      1.0  0.20671  0.88046  0.47013  1.0000
  H   H701      1.0  0.42675  0.96380  0.35116  1.0000
  H   H702      1.0  0.22761  0.91401  0.04809  1.0000
  C   C873      1.0  0.30084  0.97750  0.33840  1.0000
  H   H703      1.0  0.98493  0.75322  0.06096  1.0000
  C   C874      1.0  0.13016  0.85898  0.09091  1.0000
  C   C875      1.0  0.34055  0.97541  0.14340  1.0000
  H   H704      1.0  0.09186  0.75309  0.08815  1.0000
  C   C876      1.0  0.32286  0.96637  0.20827  1.0000
  C   C877      1.0  0.08179  0.83370  0.05504  1.0000
  H   H705      1.0  0.20627  0.86719  0.45607  1.0000
  H   H706      1.0  0.15600  0.78213  0.08588  1.0000
  H   H707      1.0  0.22665  0.97418  0.47150  1.0000
  C   C878      1.0  0.23789  0.97292  0.49260  1.0000
  C   C879      1.0  0.31372  0.97812  0.30581  1.0000
  C   C880      1.0  0.32825  0.97013  0.31203  1.0000
  C   C881      1.0  0.01319  0.73731  0.05091  1.0000
  C   C882      1.0  0.98216  0.73662  0.16087  1.0000
  P   P30       1.0  0.14678  0.81470  0.05528  1.0000
  S   S113      1.0  0.02289  0.75858  0.52739  1.0000
  C   C883      1.0  0.25298  0.87695  0.06247  1.0000
  S   S114      1.0  0.97166  0.73718  0.34808  1.0000
  H   H708      1.0  0.07145  0.77249  0.52090  1.0000
  H   H709      1.0  0.28104  0.92642  0.05795  1.0000
  C   C884      1.0  0.23465  0.90369  0.05285  1.0000
  H   H710      1.0  0.96738  0.74488  0.21051  1.0000
  S   S115      1.0  0.35276  0.97510  0.48706  1.0000
  H   H711      1.0  0.46149  0.97084  0.37258  1.0000
  C   C885      1.0  0.13095  0.86897  0.05358  1.0000
  C   C886      1.0  0.97127  0.76205  0.11119  1.0000
  C   C887      1.0  0.45551  0.98211  0.37329  1.0000
  C   C888      1.0  0.11217  0.81387  0.52945  1.0000
  H   H712      1.0  0.12840  0.88236  0.05325  1.0000
  C   C889      1.0  0.97161  0.74695  0.17802  1.0000
  H   H713      1.0  0.40152  0.94268  0.04475  1.0000
  H   H714      1.0  0.46423  0.96904  0.14979  1.0000
  C   C890      1.0  0.22782  0.98298  0.30679  1.0000
  H   H715      1.0  0.18316  0.84619  0.03303  1.0000
  H   H716      1.0  0.18998  0.88137  0.03174  1.0000
  H   H717      1.0  0.08727  0.80894  0.03447  1.0000
  C   C891      1.0  0.40802  0.93212  0.94458  1.0000
  H   H718      1.0  0.01774  0.76317  0.61421  1.0000
  S   S116      1.0  0.08299  0.76749  0.87723  1.0000
  Fe  Fe58      1.0  0.18134  0.90138  0.95008  1.0000
  S   S117      1.0  0.17885  0.87140  0.93415  1.0000
  S   S118      1.0  0.17205  0.90935  0.01244  1.0000
  Fe  Fe59      1.0  0.19911  0.91831  0.86427  1.0000
  S   S119      1.0  0.19718  0.88908  0.84255  1.0000
  S   S120      1.0  0.21925  0.94560  0.82961  1.0000
  Fe  Fe60      1.0  0.16693  0.87675  0.87219  1.0000
  S   S121      1.0  0.13949  0.85522  0.83837  1.0000
  Fe  Fe61      1.0  0.20910  0.88614  0.90613  1.0000
  S   S122      1.0  0.23363  0.87452  0.91427  1.0000
  S   S123      1.0  0.16786  0.90644  0.88923  1.0000
  S   S124      1.0  0.21238  0.91553  0.92701  1.0000
  H   H719      1.0  0.99732  0.79580  0.90282  1.0000
  C   C892      1.0  0.43992  0.96157  0.78223  1.0000
  H   H720      1.0  0.29481  0.92273  0.56822  1.0000
  C   C893      1.0  0.20971  0.95231  0.60264  1.0000
  H   H721      1.0  0.13691  0.87021  0.98801  1.0000
  H   H722      1.0  0.98295  0.77403  0.58969  1.0000
  Fe  Fe62      1.0  0.34694  0.95822  0.60290  1.0000
  S   S125      1.0  0.34200  0.94655  0.66906  1.0000
  C   C894      1.0  0.25701  0.95675  0.91505  1.0000
  S   S126      1.0  0.04315  0.75662  0.78367  1.0000
  S   S127      1.0  0.32198  0.92643  0.96838  1.0000
  H   H723      1.0  0.25606  0.94274  0.97450  1.0000
  H   H724      1.0  0.20996  0.96321  0.66418  1.0000
  C   C895      1.0  0.17521  0.80538  0.95309  1.0000
  C   C896      1.0  0.23210  0.88970  0.02244  1.0000
  H   H725      1.0  0.39725  0.96786  0.67858  1.0000
  C   C897      1.0  0.40717  0.87981  0.87542  1.0000
  H   H726      1.0  0.18246  0.95883  0.54267  1.0000
  C   C898      1.0  0.26795  0.97362  0.98021  1.0000
  C   C899      1.0  0.39220  0.94648  0.63127  1.0000
  C   C900      1.0  0.38932  0.95976  0.77989  1.0000
  C   C901      1.0  0.34735  0.96190  0.71275  1.0000
  C   C902      1.0  0.34146  0.95394  0.75246  1.0000
  C   C903      1.0  0.34705  0.96553  0.78833  1.0000
  H   H727      1.0  0.07216  0.77653  0.59727  1.0000
  C   C904      1.0  0.98423  0.76863  0.65558  1.0000
  C   C905      1.0  0.08293  0.78473  0.53536  1.0000
  H   H728      1.0  0.33287  0.93869  0.75560  1.0000
  H   H729      1.0  0.34284  0.95923  0.81882  1.0000
  C   C906      1.0  0.40112  0.97727  0.79792  1.0000
  C   C907      1.0  0.25800  0.88982  0.92884  1.0000
  C   C908      1.0  0.26361  0.90979  0.93280  1.0000
  C   C909      1.0  0.28327  0.92144  0.94453  1.0000
  C   C910      1.0  0.29726  0.91300  0.95271  1.0000
  C   C911      1.0  0.29145  0.89300  0.94944  1.0000
  C   C912      1.0  0.27204  0.88152  0.93716  1.0000
  H   H730      1.0  0.25277  0.91614  0.92664  1.0000
  H   H731      1.0  0.28756  0.93684  0.94773  1.0000
  H   H732      1.0  0.30211  0.88634  0.95602  1.0000
  H   H733      1.0  0.26786  0.86611  0.93445  1.0000
  C   C913      1.0  0.21887  0.96212  0.78940  1.0000
  H   H734      1.0  0.25090  0.94355  0.89740  1.0000
  C   C914      1.0  0.11241  0.81643  0.57263  1.0000
  C   C915      1.0  0.20127  0.96192  0.77055  1.0000
  S   S128      1.0  0.98877  0.74967  0.81212  1.0000
  H   H735      1.0  0.18722  0.95131  0.78018  1.0000
  H   H736      1.0  0.14960  0.78882  0.98799  1.0000
  C   C916      1.0  0.09892  0.79165  0.86471  1.0000
  C   C917      1.0  0.09444  0.80222  0.83254  1.0000
  C   C918      1.0  0.10706  0.82153  0.82489  1.0000
  C   C919      1.0  0.12427  0.83068  0.84942  1.0000
  C   C920      1.0  0.12886  0.82005  0.88138  1.0000
  C   C921      1.0  0.11634  0.80067  0.88868  1.0000
  H   H737      1.0  0.08114  0.79556  0.81385  1.0000
  H   H738      1.0  0.10335  0.82953  0.80003  1.0000
  H   H739      1.0  0.14215  0.82671  0.90015  1.0000
  H   H740      1.0  0.12030  0.79250  0.91274  1.0000
  C   C922      1.0  0.00470  0.73356  0.01072  1.0000
  H   H741      1.0  0.97301  0.74467  0.97721  1.0000
  H   H742      1.0  0.30805  0.89943  0.59969  1.0000
  C   C923      1.0  0.04436  0.73991  0.56939  1.0000
  C   C924      1.0  0.98658  0.77118  0.94383  1.0000
  C   C925      1.0  0.32390  0.91183  0.85956  1.0000
  C   C926      1.0  0.31486  0.89178  0.85870  1.0000
  C   C927      1.0  0.32645  0.88051  0.86214  1.0000
  C   C928      1.0  0.34711  0.88930  0.86647  1.0000
  C   C929      1.0  0.35630  0.90947  0.86697  1.0000
  C   C930      1.0  0.34450  0.92066  0.86380  1.0000
  P   P31       1.0  0.38279  0.92113  0.87507  1.0000
  C   C931      1.0  0.38839  0.92668  0.92960  1.0000
  C   C932      1.0  0.39505  0.90535  0.85890  1.0000
  H   H743      1.0  0.09037  0.74566  0.72611  1.0000
  C   C933      1.0  0.09770  0.77696  0.99569  1.0000
  C   C934      1.0  0.41143  0.89370  0.80619  1.0000
  C   C935      1.0  0.40192  0.90598  0.81808  1.0000
  C   C936      1.0  0.41264  0.93751  0.98620  1.0000
  C   C937      1.0  0.37345  0.92628  0.95713  1.0000
  C   C938      1.0  0.39104  0.94300  0.84423  1.0000
  C   C939      1.0  0.38399  0.94273  0.80311  1.0000
  Fe  Fe63      1.0  0.05617  0.74720  0.83971  1.0000
  C   C940      1.0  0.02689  0.75474  0.61178  1.0000
  C   C941      1.0  0.97141  0.74368  0.60354  1.0000
  C   C942      1.0  0.40332  0.96064  0.86174  1.0000
  H   H744      1.0  0.31491  0.92056  0.85817  1.0000
  H   H745      1.0  0.29882  0.88501  0.85631  1.0000
  H   H746      1.0  0.31936  0.86496  0.86212  1.0000
  H   H747      1.0  0.35577  0.88033  0.86981  1.0000
  H   H748      1.0  0.35115  0.93621  0.86551  1.0000
  C   C943      1.0  0.19417  0.83739  0.97859  1.0000
  C   C944      1.0  0.43267  0.96430  0.61431  1.0000
  H   H749      1.0  0.39994  0.91583  0.79524  1.0000
  H   H750      1.0  0.41986  0.93272  0.92390  1.0000
  H   H751      1.0  0.35821  0.92215  0.94662  1.0000
  H   H752      1.0  0.37388  0.92947  0.78934  1.0000
  H   H753      1.0  0.98401  0.75879  0.71894  1.0000
  H   H754      1.0  0.14965  0.78175  0.69210  1.0000
  C   C945      1.0  0.18006  0.91862  0.63122  1.0000
  H   H755      1.0  0.40856  0.96146  0.89359  1.0000
  C   C946      1.0  0.21497  0.91727  0.73445  1.0000
  C   C947      1.0  0.20620  0.90400  0.70285  1.0000
  C   C948      1.0  0.21756  0.90247  0.66937  1.0000
  C   C949      1.0  0.23784  0.91374  0.66823  1.0000
  C   C950      1.0  0.24694  0.92656  0.70082  1.0000
  C   C951      1.0  0.23521  0.92862  0.73332  1.0000
  P   P32       1.0  0.27349  0.93981  0.70216  1.0000
  C   C952      1.0  0.28184  0.94110  0.75593  1.0000
  C   C953      1.0  0.28509  0.92738  0.67030  1.0000
  C   C954      1.0  0.29246  0.91408  0.68786  1.0000
  C   C955      1.0  0.30061  0.90395  0.66237  1.0000
  C   C956      1.0  0.14042  0.84562  0.01737  1.0000
  C   C957      1.0  0.42440  0.97145  0.64629  1.0000
  C   C958      1.0  0.28601  0.93040  0.62697  1.0000
  C   C959      1.0  0.29550  0.95837  0.77254  1.0000
  C   C960      1.0  0.30038  0.95973  0.81499  1.0000
  C   C961      1.0  0.29180  0.94390  0.84118  1.0000
  C   C962      1.0  0.27845  0.92657  0.82494  1.0000
  C   C963      1.0  0.27351  0.92514  0.78249  1.0000
  C   C964      1.0  0.27978  0.96387  0.68186  1.0000
  C   C965      1.0  0.26564  0.97250  0.68019  1.0000
  C   C966      1.0  0.37817  0.93196  0.99853  1.0000
  H   H756      1.0  0.40918  0.86966  0.89765  1.0000
  C   C967      1.0  0.01517  0.74385  0.97643  1.0000
  C   C968      1.0  0.29936  0.97452  0.66977  1.0000
  H   H757      1.0  0.20617  0.91862  0.76029  1.0000
  H   H758      1.0  0.19059  0.89500  0.70428  1.0000
  H   H759      1.0  0.21070  0.89237  0.64453  1.0000
  H   H760      1.0  0.24636  0.91203  0.64238  1.0000
  H   H761      1.0  0.24178  0.93863  0.75849  1.0000
  H   H762      1.0  0.29221  0.91167  0.72112  1.0000
  H   H763      1.0  0.12638  0.75203  0.72556  1.0000
  H   H764      1.0  0.28040  0.94057  0.61264  1.0000
  H   H765      1.0  0.30236  0.97092  0.75320  1.0000
  H   H766      1.0  0.22084  0.96573  0.59213  1.0000
  C   C969      1.0  0.98044  0.75458  0.68669  1.0000
  H   H767      1.0  0.27170  0.91431  0.84535  1.0000
  H   H768      1.0  0.26282  0.91172  0.77061  1.0000
  H   H769      1.0  0.25048  0.96467  0.68951  1.0000
  C   C970      1.0  0.13585  0.86217  0.01678  1.0000
  C   C971      1.0  0.25990  0.95636  0.95819  1.0000
  H   H770      1.0  0.42566  0.95544  0.72227  1.0000
  H   H771      1.0  0.31055  0.96812  0.67103  1.0000
  C   C972      1.0  0.10057  0.75878  0.71207  1.0000
  H   H772      1.0  0.04200  0.76616  0.95525  1.0000
  C   C973      1.0  0.13394  0.77909  0.69281  1.0000
  C   C974      1.0  0.12674  0.79238  0.67491  1.0000
  C   C975      1.0  0.10643  0.78915  0.67633  1.0000
  C   C976      1.0  0.09331  0.77200  0.69409  1.0000
  P   P33       1.0  0.09740  0.80644  0.65308  1.0000
  C   C977      1.0  0.07299  0.80279  0.67198  1.0000
  C   C978      1.0  0.11235  0.83052  0.66995  1.0000
  C   C979      1.0  0.12366  0.83353  0.70703  1.0000
  C   C980      1.0  0.13429  0.85223  0.72113  1.0000
  C   C981      1.0  0.13341  0.86805  0.69892  1.0000
  C   C982      1.0  0.12184  0.86518  0.66249  1.0000
  C   C983      1.0  0.11121  0.84648  0.64823  1.0000
  C   C984      1.0  0.05744  0.80218  0.64465  1.0000
  C   C985      1.0  0.03879  0.79972  0.66023  1.0000
  C   C986      1.0  0.03560  0.79819  0.70314  1.0000
  C   C987      1.0  0.05118  0.79943  0.73055  1.0000
  C   C988      1.0  0.06980  0.80174  0.71508  1.0000
  C   C989      1.0  0.09759  0.80334  0.59736  1.0000
  C   C990      1.0  0.96964  0.77482  0.88069  1.0000
  H   H773      1.0  0.13701  0.80525  0.66022  1.0000
  H   H774      1.0  0.07745  0.76866  0.69404  1.0000
  H   H775      1.0  0.12395  0.82153  0.72583  1.0000
  H   H776      1.0  0.14285  0.85442  0.74996  1.0000
  H   H777      1.0  0.14133  0.88247  0.71061  1.0000
  H   H778      1.0  0.12079  0.87742  0.64577  1.0000
  H   H779      1.0  0.10183  0.84443  0.62067  1.0000
  H   H780      1.0  0.05955  0.80358  0.61135  1.0000
  H   H781      1.0  0.02680  0.79889  0.63882  1.0000
  H   H782      1.0  0.02111  0.79607  0.71527  1.0000
  H   H783      1.0  0.04879  0.79844  0.76385  1.0000
  H   H784      1.0  0.08172  0.80262  0.73675  1.0000
  Fe  Fe64      1.0  0.33845  0.95830  0.95729  1.0000
  H   H785      1.0  0.12423  0.82852  0.58650  1.0000
  C   C991      1.0  0.18663  0.91969  0.59020  1.0000
  H   H786      1.0  0.42788  0.94218  0.99734  1.0000
  H   H787      1.0  0.05639  0.77420  0.02643  1.0000
  S   S129      1.0  0.36882  0.96801  0.92901  1.0000
  C   C992      1.0  0.20155  0.93656  0.57564  1.0000
  H   H788      1.0  0.44819  0.97111  0.60654  1.0000
  H   H789      1.0  0.99063  0.78373  0.66369  1.0000
  C   C993      1.0  0.20186  0.97567  0.73956  1.0000
  C   C994      1.0  0.20335  0.95106  0.64366  1.0000
  H   H790      1.0  0.18814  0.97537  0.72528  1.0000
  C   C995      1.0  0.29407  0.92021  0.60160  1.0000
  H   H791      1.0  0.99911  0.77665  0.96520  1.0000
  C   C996      1.0  0.43565  0.96657  0.74207  1.0000
  H   H792      1.0  0.30672  0.89405  0.67613  1.0000
  C   C997      1.0  0.12086  0.76235  0.71162  1.0000
  H   H793      1.0  0.20154  0.82531  0.92383  1.0000
  C   C998      1.0  0.30143  0.90702  0.61929  1.0000
  H   H794      1.0  0.39220  0.89108  0.91888  1.0000
  C   C999      1.0  0.40408  0.96237  0.65470  1.0000
  S   S130      1.0  0.34143  0.93761  0.54908  1.0000
  H   H795      1.0  0.20652  0.85097  0.97544  1.0000
  C   C1000     1.0  0.44528  0.98215  0.95551  1.0000
  H   H796      1.0  0.17303  0.79411  0.93046  1.0000
  H   H797      1.0  0.17989  0.90746  0.56991  1.0000
  H   H798      1.0  0.27072  0.97344  0.01343  1.0000
  C   C1001     1.0  0.16182  0.80254  0.98560  1.0000
  H   H799      1.0  0.16852  0.90561  0.64234  1.0000
  C   C1002     1.0  0.96516  0.73528  0.79210  1.0000
  H   H800      1.0  0.24595  0.94412  0.56810  1.0000
  H   H801      1.0  0.09099  0.77561  0.96483  1.0000
  C   C1003     1.0  0.97180  0.73506  0.67641  1.0000
  Fe  Fe65      1.0  0.01363  0.73863  0.81100  1.0000
  H   H802      1.0  0.39108  0.92788  0.57973  1.0000
  H   H803      1.0  0.44760  0.98021  0.92298  1.0000
  C   C1004     1.0  0.41410  0.88066  0.83486  1.0000
  C   C1005     1.0  0.40046  0.93967  0.59906  1.0000
  H   H804      1.0  0.12078  0.80417  0.98210  1.0000
  C   C1006     1.0  0.40815  0.97771  0.83878  1.0000
  H   H805      1.0  0.02807  0.75032  0.67833  1.0000
  H   H806      1.0  0.43311  0.94684  0.79307  1.0000
  C   C1007     1.0  0.39762  0.89205  0.88738  1.0000
  H   H807      1.0  0.22330  0.88942  0.99466  1.0000
  C   C1008     1.0  0.42069  0.94850  0.59077  1.0000
  H   H808      1.0  0.25073  0.97641  0.79048  1.0000
  C   C1009     1.0  0.23699  0.97614  0.77648  1.0000
  H   H809      1.0  0.37643  0.93983  0.63722  1.0000
  C   C1010     1.0  0.98557  0.78201  0.90878  1.0000
  C   C1011     1.0  0.04460  0.73651  0.64521  1.0000
  H   H810      1.0  0.41668  0.89424  0.77465  1.0000
  S   S131      1.0  0.37592  0.97876  0.57841  1.0000
  C   C1012     1.0  0.35832  0.98164  0.70898  1.0000
  C   C1013     1.0  0.19130  0.82288  0.94939  1.0000
  C   C1014     1.0  0.26758  0.97086  0.54703  1.0000
  H   H811      1.0  0.29555  0.94509  0.87406  1.0000
  C   C1015     1.0  0.45905  0.98092  0.98561  1.0000
  H   H812      1.0  0.38341  0.95952  0.74862  1.0000
  C   C1016     1.0  0.18848  0.93430  0.65799  1.0000
  S   S132      1.0  0.34871  0.97789  0.01237  1.0000
  C   C1017     1.0  0.04209  0.76266  0.02207  1.0000
  C   C1018     1.0  0.08325  0.78716  0.57854  1.0000
  H   H813      1.0  0.04880  0.73681  0.53918  1.0000
  H   H814      1.0  0.08217  0.83957  0.02389  1.0000
  H   H815      1.0  0.18362  0.93348  0.68994  1.0000
  H   H816      1.0  0.14447  0.84083  0.98843  1.0000
  C   C1019     1.0  0.03219  0.75058  0.57222  1.0000
  H   H817      1.0  0.31086  0.97311  0.82761  1.0000
  H   H818      1.0  0.42149  0.87116  0.82565  1.0000
  H   H819      1.0  0.23958  0.86576  0.00330  1.0000
  C   C1020     1.0  0.18079  0.83467  0.01095  1.0000
  H   H820      1.0  0.42692  0.94346  0.56508  1.0000
  C   C1021     1.0  0.39777  0.93771  0.01301  1.0000
  C   C1022     1.0  0.97974  0.76318  0.61400  1.0000
  C   C1023     1.0  0.11466  0.79306  0.00546  1.0000
  C   C1024     1.0  0.24122  0.87633  0.02730  1.0000
  C   C1025     1.0  0.03280  0.74752  0.64815  1.0000
  C   C1026     1.0  0.26176  0.97429  0.89416  1.0000
  C   C1027     1.0  0.97171  0.75309  0.95060  1.0000
  C   C1028     1.0  0.03390  0.75830  0.98203  1.0000
  C   C1029     1.0  0.16422  0.81742  0.01407  1.0000
  C   C1030     1.0  0.24882  0.95611  0.54671  1.0000
  H   H821      1.0  0.36661  0.93233  0.01903  1.0000
  H   H822      1.0  0.30789  0.95349  0.02765  1.0000
  H   H823      1.0  0.00876  0.74075  0.94536  1.0000
  S   S133      1.0  0.32866  0.97864  0.91969  1.0000
  H   H824      1.0  0.14827  0.98319  0.60020  1.0000
  H   H825      1.0  0.27920  0.97002  0.56772  1.0000
  S   S134      1.0  0.32889  0.97389  0.57434  1.0000
  H   H826      1.0  0.25939  0.97426  0.86081  1.0000
  H   H827      1.0  0.17924  0.98114  0.63013  1.0000
  H   H828      1.0  0.96805  0.73970  0.57113  1.0000
  H   H829      1.0  0.96919  0.78291  0.85276  1.0000
  H   H830      1.0  0.07682  0.74974  0.01714  1.0000
  C   C1031     1.0  0.45266  0.97562  0.80877  1.0000
  H   H831      1.0  0.45570  0.97176  0.84011  1.0000
  C   C1032     1.0  0.45589  0.98339  0.02762  1.0000
  C   C1033     1.0  0.08968  0.76242  0.02527  1.0000
  Fe  Fe66      1.0  0.69234  0.04627  0.07500  1.0000
  S   S135      1.0  0.69912  0.07764  0.08559  1.0000
  Fe  Fe67      1.0  0.67838  0.03495  0.16567  1.0000
  S   S136      1.0  0.68430  0.06588  0.18178  1.0000
  S   S137      1.0  0.65954  0.01281  0.21318  1.0000
  Fe  Fe68      1.0  0.67027  0.06725  0.11970  1.0000
  S   S138      1.0  0.64924  0.08287  0.11212  1.0000
  Fe  Fe69      1.0  0.71283  0.07389  0.14671  1.0000
  S   S139      1.0  0.74274  0.09444  0.17375  1.0000
  S   S140      1.0  0.66253  0.03617  0.10546  1.0000
  S   S141      1.0  0.70801  0.04260  0.13434  1.0000
  Fe  Fe70      1.0  0.81728  0.20940  0.19514  1.0000
  C   C1034     1.0  0.71181  0.06012  0.47421  1.0000
  S   S142      1.0  0.78700  0.18664  0.17451  1.0000
  C   C1035     1.0  0.47918  0.99990  0.14951  1.0000
  H   H832      1.0  0.72644  0.13347  0.29075  1.0000
  S   S143      1.0  0.83746  0.20712  0.24758  1.0000
  S   S144      1.0  0.84766  0.20040  0.49819  1.0000
  H   H833      1.0  0.68828  0.99353  0.21921  1.0000
  C   C1036     1.0  0.50774  0.03974  0.06258  1.0000
  S   S145      1.0  0.55152  0.01013  0.33004  1.0000
  C   C1037     1.0  0.79449  0.13253  0.49030  1.0000
  H   H834      1.0  0.59719  0.01905  0.27710  1.0000
  C   C1038     1.0  0.75757  0.16147  0.03919  1.0000
  H   H835      1.0  0.52826  0.07977  0.16353  1.0000
  H   H836      1.0  0.73721  0.12735  0.40413  1.0000
  S   S146      1.0  0.48623  0.00264  0.48989  1.0000
  H   H837      1.0  0.86610  0.16845  0.27337  1.0000
  S   S147      1.0  0.54133  0.01517  0.45083  1.0000
  Fe  Fe71      1.0  0.55276  0.99484  0.48507  1.0000
  C   C1039     1.0  0.79107  0.17466  0.06762  1.0000
  S   S148      1.0  0.51369  0.99716  0.07212  1.0000
  C   C1040     1.0  0.46841  0.03251  0.03871  1.0000
  H   H838      1.0  0.85219  0.19525  0.41147  1.0000
  C   C1041     1.0  0.54805  0.00543  0.24488  1.0000
  H   H839      1.0  0.54475  0.00221  0.17788  1.0000
  H   H840      1.0  0.55755  0.02051  0.24336  1.0000
  H   H841      1.0  0.59478  0.00098  0.34717  1.0000
  C   C1042     1.0  0.58526  0.98825  0.16341  1.0000
  C   C1043     1.0  0.74620  0.13937  0.46518  1.0000
  C   C1044     1.0  0.84657  0.20668  0.41401  1.0000
  C   C1045     1.0  0.84317  0.21253  0.45365  1.0000
  H   H842      1.0  0.75564  0.08444  0.09694  1.0000
  H   H843      1.0  0.75357  0.11493  0.07297  1.0000
  C   C1046     1.0  0.80555  0.15178  0.48081  1.0000
  C   C1047     1.0  0.68273  0.13681  0.25200  1.0000
  C   C1048     1.0  0.66791  0.13184  0.28200  1.0000
  C   C1049     1.0  0.62511  0.07057  0.09174  1.0000
  C   C1050     1.0  0.61681  0.05045  0.08753  1.0000
  C   C1051     1.0  0.59701  0.04134  0.07331  1.0000
  H   H844      1.0  0.59250  0.98934  0.04643  1.0000
  H   H845      1.0  0.61990  0.09693  0.08456  1.0000
  C   C1052     1.0  0.84320  0.21576  0.37765  1.0000
  H   H846      1.0  0.62545  0.04189  0.09581  1.0000
  S   S149      1.0  0.56071  0.04203  0.04588  1.0000
  C   C1053     1.0  0.75505  0.14235  0.32142  1.0000
  C   C1054     1.0  0.54080  0.99513  0.20772  1.0000
  C   C1055     1.0  0.75498  0.12009  0.17144  1.0000
  C   C1056     1.0  0.77507  0.12851  0.18406  1.0000
  C   C1057     1.0  0.78517  0.14874  0.18464  1.0000
  C   C1058     1.0  0.77525  0.16092  0.17319  1.0000
  C   C1059     1.0  0.75521  0.15248  0.16012  1.0000
  C   C1060     1.0  0.74515  0.13225  0.15911  1.0000
  H   H847      1.0  0.78292  0.11932  0.19343  1.0000
  H   H848      1.0  0.80066  0.15491  0.19368  1.0000
  H   H849      1.0  0.74739  0.16171  0.15082  1.0000
  H   H850      1.0  0.72974  0.12610  0.14938  1.0000
  C   C1061     1.0  0.65936  0.99151  0.23860  1.0000
  C   C1062     1.0  0.72676  0.10164  0.49499  1.0000
  H   H851      1.0  0.83431  0.16267  0.38687  1.0000
  H   H852      1.0  0.74675  0.05656  0.04918  1.0000
  C   C1063     1.0  0.60189  0.00520  0.37739  1.0000
  C   C1064     1.0  0.75915  0.11102  0.28159  1.0000
  H   H853      1.0  0.61399  0.01109  0.17104  1.0000
  H   H854      1.0  0.46655  0.05820  0.26329  1.0000
  C   C1065     1.0  0.70944  0.03464  0.40887  1.0000
  C   C1066     1.0  0.54268  0.99648  0.28395  1.0000
  C   C1067     1.0  0.69312  0.12149  0.05892  1.0000
  H   H855      1.0  0.68982  0.99683  0.13148  1.0000
  C   C1068     1.0  0.81634  0.15868  0.33045  1.0000
  H   H856      1.0  0.67434  0.04601  0.51355  1.0000
  H   H857      1.0  0.73511  0.03151  0.43755  1.0000
  H   H858      1.0  0.46899  0.02904  0.40077  1.0000
  H   H859      1.0  0.78287  0.22733  0.34998  1.0000
  C   C1069     1.0  0.47394  0.03471  0.08085  1.0000
  H   H860      1.0  0.76091  0.09925  0.26485  1.0000
  H   H861      1.0  0.81451  0.16142  0.50479  1.0000
  H   H862      1.0  0.60215  0.03365  0.45937  1.0000
  H   H863      1.0  0.58770  0.02535  0.38820  1.0000
  Fe  Fe72      1.0  0.51051  0.99334  0.46423  1.0000
  C   C1070     1.0  0.61428  0.99629  0.39398  1.0000
  H   H864      1.0  0.72020  0.09423  0.42979  1.0000
  Fe  Fe73      1.0  0.54428  0.00994  0.04539  1.0000
  H   H865      1.0  0.77434  0.11713  0.39482  1.0000
  H   H866      1.0  0.88950  0.22168  0.45719  1.0000
  H   H867      1.0  0.68078  0.00664  0.46660  1.0000
  C   C1071     1.0  0.79386  0.14645  0.40876  1.0000
  Fe  Fe74      1.0  0.53981  0.99726  0.39348  1.0000
  C   C1072     1.0  0.61846  0.01485  0.45720  1.0000
  C   C1073     1.0  0.80532  0.15868  0.44026  1.0000
  C   C1074     1.0  0.74184  0.11481  0.27570  1.0000
  H   H868      1.0  0.62631  0.03799  0.32038  1.0000
  H   H869      1.0  0.68821  0.15115  0.23849  1.0000
  C   C1075     1.0  0.61365  0.08143  0.08126  1.0000
  C   C1076     1.0  0.85188  0.16569  0.33277  1.0000
  C   C1077     1.0  0.60607  0.02371  0.44051  1.0000
  H   H870      1.0  0.49302  0.07398  0.12045  1.0000
  C   C1078     1.0  0.62281  0.00116  0.43394  1.0000
  H   H871      1.0  0.70856  0.02480  0.38372  1.0000
  P   P34       1.0  0.79335  0.15551  0.35631  1.0000
  C   C1079     1.0  0.72443  0.03845  0.43919  1.0000
  H   H872      1.0  0.77490  0.10516  0.46634  1.0000
  H   H873      1.0  0.66189  0.14237  0.29171  1.0000
  C   C1080     1.0  0.77452  0.12296  0.30714  1.0000
  H   H874      1.0  0.80215  0.18517  0.08708  1.0000
  C   C1081     1.0  0.71362  0.07220  0.32270  1.0000
  C   C1082     1.0  0.71087  0.05415  0.30632  1.0000
  C   C1083     1.0  0.69214  0.04220  0.29173  1.0000
  C   C1084     1.0  0.67612  0.04826  0.29331  1.0000
  C   C1085     1.0  0.67883  0.06656  0.30873  1.0000
  C   C1086     1.0  0.69774  0.07848  0.32355  1.0000
  P   P35       1.0  0.65872  0.07533  0.30737  1.0000
  C   C1087     1.0  0.64929  0.07565  0.35919  1.0000
  C   C1088     1.0  0.66829  0.09952  0.28630  1.0000
  C   C1089     1.0  0.66064  0.11324  0.29903  1.0000
  C   C1090     1.0  0.68315  0.10465  0.25606  1.0000
  C   C1091     1.0  0.66197  0.07930  0.39428  1.0000
  C   C1092     1.0  0.65458  0.07948  0.43418  1.0000
  C   C1093     1.0  0.63449  0.07601  0.43942  1.0000
  C   C1094     1.0  0.62183  0.07276  0.40467  1.0000
  C   C1095     1.0  0.62921  0.07278  0.36472  1.0000
  C   C1096     1.0  0.63869  0.06030  0.27388  1.0000
  C   C1097     1.0  0.63646  0.06605  0.23289  1.0000
  C   C1098     1.0  0.62012  0.05505  0.20842  1.0000
  C   C1099     1.0  0.60590  0.03825  0.22449  1.0000
  C   C1100     1.0  0.62471  0.04295  0.28922  1.0000
  H   H875      1.0  0.72821  0.08151  0.33368  1.0000
  H   H876      1.0  0.72332  0.04953  0.30425  1.0000
  H   H877      1.0  0.69011  0.02842  0.27793  1.0000
  H   H878      1.0  0.66187  0.03885  0.28097  1.0000
  H   H879      1.0  0.70035  0.09285  0.33466  1.0000
  H   H880      1.0  0.64896  0.10960  0.32173  1.0000
  H   H881      1.0  0.68908  0.09427  0.24518  1.0000
  H   H882      1.0  0.67757  0.08217  0.39103  1.0000
  H   H883      1.0  0.66441  0.08242  0.46119  1.0000
  H   H884      1.0  0.62875  0.07601  0.47039  1.0000
  H   H885      1.0  0.60626  0.07024  0.40867  1.0000
  H   H886      1.0  0.61916  0.07059  0.33825  1.0000
  H   H887      1.0  0.64716  0.07903  0.21950  1.0000
  H   H888      1.0  0.61847  0.05965  0.17694  1.0000
  H   H889      1.0  0.59310  0.02997  0.20564  1.0000
  C   C1101     1.0  0.78274  0.20376  0.38940  1.0000
  C   C1102     1.0  0.78440  0.21347  0.35146  1.0000
  C   C1103     1.0  0.78871  0.20563  0.31541  1.0000
  C   C1104     1.0  0.79189  0.18835  0.31736  1.0000
  C   C1105     1.0  0.79058  0.17859  0.35548  1.0000
  C   C1106     1.0  0.78546  0.18622  0.39135  1.0000
  C   C1107     1.0  0.85220  0.16538  0.28932  1.0000
  C   C1108     1.0  0.69031  0.12319  0.23897  1.0000
  C   C1109     1.0  0.59783  0.01894  0.40060  1.0000
  H   H890      1.0  0.65551  0.00826  0.38023  1.0000
  H   H891      1.0  0.86555  0.16889  0.35056  1.0000
  H   H892      1.0  0.89779  0.22235  0.28227  1.0000
  C   C1110     1.0  0.48724  0.07033  0.15161  1.0000
  C   C1111     1.0  0.73970  0.13034  0.29595  1.0000
  C   C1112     1.0  0.62420  0.00142  0.04096  1.0000
  H   H893      1.0  0.90938  0.22954  0.39279  1.0000
  H   H894      1.0  0.81416  0.17362  0.43359  1.0000
  H   H895      1.0  0.78364  0.17890  0.42095  1.0000
  C   C1113     1.0  0.83464  0.16147  0.26635  1.0000
  C   C1114     1.0  0.81683  0.15828  0.28675  1.0000
  H   H896      1.0  0.77967  0.21001  0.41740  1.0000
  C   C1115     1.0  0.87447  0.22477  0.05729  1.0000
  H   H897      1.0  0.79016  0.21325  0.28603  1.0000
  H   H898      1.0  0.79526  0.18269  0.28887  1.0000
  H   H899      1.0  0.78805  0.12012  0.31047  1.0000
  H   H900      1.0  0.69401  0.99992  0.05489  1.0000
  H   H901      1.0  0.59059  0.02586  0.07043  1.0000
  C   C1116     1.0  0.83404  0.16223  0.35330  1.0000
  H   H902      1.0  0.62690  0.99530  0.06991  1.0000
  H   H903      1.0  0.48233  0.03809  0.23059  1.0000
  H   H904      1.0  0.75330  0.15461  0.33587  1.0000
  C   C1117     1.0  0.77272  0.13893  0.32671  1.0000
  S   S150      1.0  0.89186  0.22342  0.19298  1.0000
  H   H905      1.0  0.83495  0.16153  0.23260  1.0000
  H   H906      1.0  0.80352  0.15586  0.26828  1.0000
  C   C1118     1.0  0.69566  0.04356  0.41098  1.0000
  H   H907      1.0  0.74297  0.16217  0.03667  1.0000
  C   C1119     1.0  0.49367  0.03831  0.09312  1.0000
  Fe  Fe75      1.0  0.86249  0.22577  0.20695  1.0000
  P   P36       1.0  0.50036  0.03982  0.14785  1.0000
  C   C1120     1.0  0.48887  0.05447  0.17291  1.0000
  C   C1121     1.0  0.49230  0.01603  0.17091  1.0000
  C   C1122     1.0  0.49984  0.01344  0.21016  1.0000
  H   H908      1.0  0.77657  0.22636  0.49076  1.0000
  H   H909      1.0  0.70162  0.12694  0.21527  1.0000
  C   C1123     1.0  0.83653  0.23097  0.38059  1.0000
  H   H910      1.0  0.63252  0.99136  0.15072  1.0000
  C   C1124     1.0  0.67765  0.98878  0.11082  1.0000
  S   S151      1.0  0.84247  0.22572  0.15236  1.0000
  C   C1125     1.0  0.52704  0.05070  0.15410  1.0000
  C   C1126     1.0  0.53850  0.03926  0.15062  1.0000
  C   C1127     1.0  0.55917  0.04749  0.15427  1.0000
  C   C1128     1.0  0.56863  0.06723  0.16118  1.0000
  C   C1129     1.0  0.55737  0.07875  0.16476  1.0000
  C   C1130     1.0  0.53664  0.07055  0.16122  1.0000
  H   H911      1.0  0.73030  0.10592  0.25459  1.0000
  C   C1131     1.0  0.78304  0.12702  0.41844  1.0000
  C   C1132     1.0  0.75121  0.08581  0.06504  1.0000
  H   H912      1.0  0.51042  0.02556  0.22680  1.0000
  H   H913      1.0  0.75382  0.15390  0.45376  1.0000
  C   C1133     1.0  0.72572  0.05123  0.47159  1.0000
  H   H914      1.0  0.52302  0.04239  0.07100  1.0000
  H   H915      1.0  0.76877  0.18638  0.07919  1.0000
  H   H916      1.0  0.50020  0.99316  0.25797  1.0000
  C   C1134     1.0  0.61654  0.98481  0.15124  1.0000
  H   H917      1.0  0.53148  0.02403  0.14403  1.0000
  H   H918      1.0  0.56790  0.03864  0.15019  1.0000
  H   H919      1.0  0.58470  0.07363  0.16284  1.0000
  H   H920      1.0  0.56475  0.09410  0.16961  1.0000
  C   C1135     1.0  0.60827  0.03211  0.26475  1.0000
  C   C1136     1.0  0.67388  0.00749  0.49565  1.0000
  C   C1137     1.0  0.65311  0.00094  0.49893  1.0000
  H   H921      1.0  0.67873  0.00286  0.33127  1.0000
  C   C1138     1.0  0.67526  0.98529  0.23678  1.0000
  H   H922      1.0  0.81008  0.15960  0.05193  1.0000
  C   C1139     1.0  0.72722  0.10557  0.45202  1.0000
  C   C1140     1.0  0.58564  0.05237  0.06292  1.0000
  C   C1141     1.0  0.83643  0.22771  0.45666  1.0000
  C   C1142     1.0  0.74583  0.13558  0.50791  1.0000
  H   H923      1.0  0.58541  0.08101  0.05876  1.0000
  H   H924      1.0  0.84593  0.21112  0.34738  1.0000
  C   C1143     1.0  0.59411  0.07241  0.06667  1.0000
  C   C1144     1.0  0.75005  0.10313  0.05115  1.0000
  C   C1145     1.0  0.71187  0.12223  0.04740  1.0000
  C   C1146     1.0  0.47064  0.07724  0.21054  1.0000
  C   C1147     1.0  0.78333  0.12013  0.45907  1.0000
  C   C1148     1.0  0.73685  0.12439  0.43726  1.0000
  H   H925      1.0  0.86112  0.21434  0.07058  1.0000
  H   H926      1.0  0.57703  0.99708  0.17183  1.0000
  C   C1149     1.0  0.60597  0.99614  0.16284  1.0000
  H   H927      1.0  0.68620  0.06316  0.44452  1.0000
  H   H928      1.0  0.62392  0.01822  0.48877  1.0000
  C   C1150     1.0  0.48131  0.05017  0.21333  1.0000
  C   C1151     1.0  0.74635  0.07015  0.03812  1.0000
  C   C1152     1.0  0.69688  0.05629  0.44341  1.0000
  C   C1153     1.0  0.68000  0.99051  0.06773  1.0000
  H   H929      1.0  0.68410  0.04069  0.38733  1.0000
  C   C1154     1.0  0.73604  0.11684  0.52276  1.0000
  C   C1155     1.0  0.77217  0.17534  0.06310  1.0000
  H   H930      1.0  0.79475  0.12726  0.52180  1.0000
  S   S152      1.0  0.55513  0.98845  0.07463  1.0000
  C   C1156     1.0  0.46747  0.00048  0.38714  1.0000
  H   H931      1.0  0.47348  0.00130  0.11882  1.0000
  C   C1157     1.0  0.49409  0.99508  0.22797  1.0000
  H   H932      1.0  0.72097  0.11844  0.07014  1.0000
  H   H933      1.0  0.73756  0.05406  0.49452  1.0000
  H   H934      1.0  0.68767  0.11665  0.08990  1.0000
  C   C1158     1.0  0.79548  0.16021  0.04795  1.0000
  H   H935      1.0  0.48264  0.00338  0.39722  1.0000
  P   P37       1.0  0.71406  0.07747  0.51473  1.0000
  C   C1159     1.0  0.91134  0.23233  0.26893  1.0000
  H   H936      1.0  0.83393  0.23246  0.48699  1.0000
  C   C1160     1.0  0.65993  0.99608  0.38502  1.0000
  H   H937      1.0  0.63024  0.98530  0.26326  1.0000
  P   P38       1.0  0.63702  0.98803  0.45667  1.0000
  H   H938      1.0  0.66659  0.12578  0.03933  1.0000
  C   C1161     1.0  0.47813  0.08163  0.17035  1.0000
  H   H939      1.0  0.47686  0.09379  0.15361  1.0000
  C   C1162     1.0  0.47227  0.06154  0.23204  1.0000
  C   C1163     1.0  0.67344  0.99337  0.35776  1.0000
  C   C1164     1.0  0.67322  0.05841  0.52847  1.0000
  S   S153      1.0  0.57904  0.99961  0.53017  1.0000
  H   H940      1.0  0.75313  0.14716  0.52964  1.0000
  H   H941      1.0  0.61673  0.98516  0.37626  1.0000
  H   H942      1.0  0.70199  0.01878  0.52861  1.0000
  C   C1165     1.0  0.78429  0.23337  0.51877  1.0000
  C   C1166     1.0  0.47997  0.00154  0.66413  1.0000
  Fe  Fe76      1.0  0.87602  0.21537  0.64488  1.0000
  S   S154      1.0  0.85308  0.21973  0.68453  1.0000
  H   H943      1.0  0.58719  0.01949  0.84485  1.0000
  Fe  Fe77      1.0  0.84923  0.20964  0.56620  1.0000
  S   S155      1.0  0.82475  0.21445  0.60085  1.0000
  H   H944      1.0  0.58680  0.03872  0.97107  1.0000
  Fe  Fe78      1.0  0.83000  0.19510  0.65016  1.0000
  S   S156      1.0  0.80542  0.17435  0.69073  1.0000
  H   H945      1.0  0.64875  0.09146  0.98531  1.0000
  S   S157      1.0  0.85336  0.18903  0.61423  1.0000
  Fe  Fe79      1.0  0.68240  0.06652  0.77308  1.0000
  S   S158      1.0  0.70627  0.06098  0.73725  1.0000
  S   S159      1.0  0.68440  0.07516  0.84175  1.0000
  Fe  Fe80      1.0  0.65595  0.06289  0.69476  1.0000
  S   S160      1.0  0.67818  0.05780  0.65461  1.0000
  S   S161      1.0  0.62709  0.06280  0.66494  1.0000
  Fe  Fe81      1.0  0.68034  0.03802  0.70557  1.0000
  S   S162      1.0  0.67697  0.00904  0.67989  1.0000
  Fe  Fe82      1.0  0.70213  0.08151  0.68926  1.0000
  S   S163      1.0  0.72626  0.10206  0.64701  1.0000
  S   S164      1.0  0.65683  0.04195  0.74461  1.0000
  S   S165      1.0  0.67949  0.08828  0.72627  1.0000
  H   H946      1.0  0.93013  0.19185  0.59932  1.0000
  C   C1167     1.0  0.75197  0.17137  0.62245  1.0000
  C   C1168     1.0  0.48130  0.02241  0.59085  1.0000
  H   H947      1.0  0.68377  0.00250  0.76664  1.0000
  C   C1169     1.0  0.71793  0.05982  0.58933  1.0000
  C   C1170     1.0  0.61324  0.04483  0.62862  1.0000
  C   C1171     1.0  0.61739  0.02824  0.62259  1.0000
  C   C1172     1.0  0.60626  0.01434  0.59336  1.0000
  C   C1173     1.0  0.59134  0.01709  0.56866  1.0000
  C   C1174     1.0  0.58711  0.03365  0.57468  1.0000
  C   C1175     1.0  0.59791  0.04736  0.60479  1.0000
  H   H948      1.0  0.62905  0.02603  0.64082  1.0000
  H   H949      1.0  0.58620  0.00380  0.98094  1.0000
  C   C1176     1.0  0.68122  0.12663  0.03036  1.0000
  H   H950      1.0  0.59457  0.06014  0.60927  1.0000
  C   C1177     1.0  0.78399  0.15367  0.67841  1.0000
  C   C1178     1.0  0.76911  0.14631  0.70845  1.0000
  C   C1179     1.0  0.75165  0.13017  0.69991  1.0000
  C   C1180     1.0  0.74887  0.12112  0.66114  1.0000
  C   C1181     1.0  0.76400  0.12819  0.63148  1.0000
  C   C1182     1.0  0.78144  0.14436  0.63997  1.0000
  H   H951      1.0  0.77099  0.15332  0.73838  1.0000
  H   H952      1.0  0.74019  0.12497  0.72303  1.0000
  H   H953      1.0  0.76231  0.12114  0.60176  1.0000
  H   H954      1.0  0.79288  0.14967  0.61683  1.0000
  C   C1183     1.0  0.92581  0.20260  0.58367  1.0000
  C   C1184     1.0  0.57995  0.02370  0.87001  1.0000
  H   H955      1.0  0.64908  0.03559  0.86619  1.0000
  C   C1185     1.0  0.64374  0.00919  0.83387  1.0000
  H   H956      1.0  0.71217  0.13870  0.94794  1.0000
  C   C1186     1.0  0.67758  0.01482  0.56927  1.0000
  C   C1187     1.0  0.49776  0.00966  0.64253  1.0000
  H   H957      1.0  0.94150  0.22020  0.71867  1.0000
  C   C1188     1.0  0.93896  0.22182  0.58262  1.0000
  C   C1189     1.0  0.69212  0.04555  0.96428  1.0000
  C   C1190     1.0  0.69308  0.03716  0.92572  1.0000
  C   C1191     1.0  0.69071  0.04591  0.88782  1.0000
  C   C1192     1.0  0.68737  0.06318  0.88815  1.0000
  C   C1193     1.0  0.68631  0.07142  0.92674  1.0000
  C   C1194     1.0  0.68858  0.06268  0.96451  1.0000
  H   H958      1.0  0.69580  0.02391  0.92513  1.0000
  H   H959      1.0  0.69163  0.03940  0.85842  1.0000
  H   H960      1.0  0.68378  0.08474  0.92749  1.0000
  H   H961      1.0  0.68775  0.06932  0.99379  1.0000
  C   C1195     1.0  0.56141  0.03613  0.93277  1.0000
  C   C1196     1.0  0.55229  0.03140  0.89361  1.0000
  H   H962      1.0  0.52179  0.98571  0.75053  1.0000
  H   H963      1.0  0.60949  0.01935  0.71195  1.0000
  H   H964      1.0  0.90274  0.23230  0.97094  1.0000
  H   H965      1.0  0.63097  0.00046  0.72308  1.0000
  H   H966      1.0  0.77516  0.08526  0.59652  1.0000
  C   C1197     1.0  0.78092  0.14629  0.02407  1.0000
  C   C1198     1.0  0.81030  0.22037  0.73564  1.0000
  C   C1199     1.0  0.50208  0.03718  0.02054  1.0000
  H   H967      1.0  0.77834  0.19550  0.60745  1.0000
  C   C1200     1.0  0.63420  0.06400  0.88047  1.0000
  H   H968      1.0  0.47790  0.03102  0.97615  1.0000
  H   H969      1.0  0.51199  0.02575  0.58820  1.0000
  C   C1201     1.0  0.90099  0.21133  0.54702  1.0000
  H   H970      1.0  0.66836  0.10096  0.58898  1.0000
  C   C1202     1.0  0.72842  0.05600  0.62294  1.0000
  C   C1203     1.0  0.63067  0.99025  0.82707  1.0000
  H   H971      1.0  0.54444  0.98768  0.58825  1.0000
  H   H972      1.0  0.64192  0.04381  0.54009  1.0000
  H   H973      1.0  0.62990  0.05660  0.98552  1.0000
  C   C1204     1.0  0.75920  0.07796  0.59409  1.0000
  C   C1205     1.0  0.74010  0.19764  0.66471  1.0000
  C   C1206     1.0  0.77563  0.22767  0.55772  1.0000
  H   H974      1.0  0.60917  0.00130  0.59015  1.0000
  H   H975      1.0  0.51295  0.03771  0.99736  1.0000
  C   C1207     1.0  0.74062  0.07189  0.99706  1.0000
  C   C1208     1.0  0.74904  0.06520  0.62551  1.0000
  C   C1209     1.0  0.68810  0.09072  0.55608  1.0000
  H   H976      1.0  0.55431  0.04109  0.95707  1.0000
  C   C1210     1.0  0.79285  0.23312  0.68542  1.0000
  H   H977      1.0  0.57304  0.00334  0.71608  1.0000
  C   C1211     1.0  0.63678  0.02077  0.97957  1.0000
  H   H978      1.0  0.76105  0.21640  0.55924  1.0000
  H   H979      1.0  0.81305  0.20816  0.74877  1.0000
  S   S166      1.0  0.90593  0.21665  0.67190  1.0000
  C   C1212     1.0  0.58901  0.02808  0.90957  1.0000
  H   H980      1.0  0.63002  0.05661  0.85093  1.0000
  H   H981      1.0  0.65806  0.01453  0.81892  1.0000
  C   C1213     1.0  0.64483  0.00190  0.53758  1.0000
  P   P39       1.0  0.74261  0.12754  0.99223  1.0000
  C   C1214     1.0  0.76410  0.19090  0.62265  1.0000
  C   C1215     1.0  0.63851  0.02116  0.86046  1.0000
  C   C1216     1.0  0.49838  0.01994  0.60571  1.0000
  C   C1217     1.0  0.66698  0.98874  0.71222  1.0000
  C   C1218     1.0  0.72819  0.17800  0.66509  1.0000
  H   H982      1.0  0.53808  0.03264  0.88764  1.0000
  H   H983      1.0  0.70198  0.05302  0.58840  1.0000
  C   C1219     1.0  0.57975  0.03458  0.94075  1.0000
  C   C1220     1.0  0.69001  0.07545  0.53381  1.0000
  P   P40       1.0  0.61376  0.02855  0.91812  1.0000
  H   H984      1.0  0.47109  0.00558  0.81577  1.0000
  H   H985      1.0  0.52236  0.98522  0.88420  1.0000
  C   C1221     1.0  0.63424  0.06394  0.95594  1.0000
  C   C1222     1.0  0.74419  0.10503  0.00983  1.0000
  H   H986      1.0  0.47973  0.99300  0.69162  1.0000
  H   H987      1.0  0.59303  0.98935  0.88944  1.0000
  C   C1223     1.0  0.73948  0.08919  0.98294  1.0000
  H   H988      1.0  0.64934  0.02933  0.96097  1.0000
  H   H989      1.0  0.65835  0.10921  0.91817  1.0000
  H   H990      1.0  0.89648  0.18257  0.56770  1.0000
  H   H991      1.0  0.73465  0.08982  0.95120  1.0000
  H   H992      1.0  0.55486  0.02212  0.83145  1.0000
  H   H993      1.0  0.51051  0.99404  0.81697  1.0000
  C   C1224     1.0  0.58222  0.99495  0.72142  1.0000
  H   H994      1.0  0.65514  0.01463  0.02627  1.0000
  H   H995      1.0  0.72513  0.14957  0.64495  1.0000
  C   C1225     1.0  0.52050  0.98631  0.81706  1.0000
  C   C1226     1.0  0.66965  0.08932  0.57096  1.0000
  P   P41       1.0  0.77433  0.22940  0.64456  1.0000
  H   H996      1.0  0.64912  0.09156  0.85134  1.0000
  H   H997      1.0  0.68693  0.01944  0.59680  1.0000
  C   C1227     1.0  0.48241  0.03348  0.00861  1.0000
  S   S167      1.0  0.53556  0.99421  0.98496  1.0000
  C   C1228     1.0  0.65703  0.00891  0.57257  1.0000
  C   C1229     1.0  0.61738  0.01815  0.96679  1.0000
  C   C1230     1.0  0.60706  0.99516  0.87337  1.0000
  C   C1231     1.0  0.68825  0.13292  0.99048  1.0000
  H   H998      1.0  0.75682  0.09158  0.53629  1.0000
  C   C1232     1.0  0.73374  0.12006  0.86597  1.0000
  C   C1233     1.0  0.75142  0.13305  0.84965  1.0000
  C   C1234     1.0  0.76636  0.14468  0.87646  1.0000
  C   C1235     1.0  0.76370  0.14327  0.91963  1.0000
  C   C1236     1.0  0.74597  0.13021  0.93635  1.0000
  C   C1237     1.0  0.73102  0.11867  0.90903  1.0000
  H   H999      1.0  0.57560  0.03594  0.55609  1.0000
  C   C1238     1.0  0.56165  0.02535  0.86213  1.0000
  H   H1000     1.0  0.73531  0.20749  0.68171  1.0000
  H   H1001     1.0  0.88619  0.20726  0.53376  1.0000
  H   H1002     1.0  0.64594  0.99228  0.91890  1.0000
  H   H1003     1.0  0.72048  0.04631  0.64761  1.0000
  H   H1004     1.0  0.63877  0.07156  0.57626  1.0000
  C   C1239     1.0  0.62928  0.05380  0.91815  1.0000
  C   C1240     1.0  0.64999  0.09384  0.91827  1.0000
  H   H1005     1.0  0.75709  0.06267  0.65224  1.0000
  C   C1241     1.0  0.64472  0.08391  0.88059  1.0000
  H   H1006     1.0  0.73652  0.05962  0.97638  1.0000
  H   H1007     1.0  0.65058  0.00915  0.60270  1.0000
  H   H1008     1.0  0.51105  0.00773  0.65388  1.0000
  H   H1009     1.0  0.78814  0.20290  0.69306  1.0000
  C   C1242     1.0  0.65296  0.07262  0.56417  1.0000
  H   H1010     1.0  0.48174  0.03000  0.56169  1.0000
  H   H1011     1.0  0.72217  0.11086  0.84529  1.0000
  H   H1012     1.0  0.75357  0.13400  0.81623  1.0000
  H   H1013     1.0  0.78009  0.15470  0.86371  1.0000
  H   H1014     1.0  0.77553  0.15237  0.93965  1.0000
  H   H1015     1.0  0.71726  0.10842  0.92100  1.0000
  C   C1243     1.0  0.70697  0.13355  0.97877  1.0000
  C   C1244     1.0  0.64471  0.08386  0.95596  1.0000
  H   H1016     1.0  0.70086  0.10354  0.56324  1.0000
  C   C1245     1.0  0.62005  0.01428  0.88010  1.0000
  C   C1246     1.0  0.88059  0.22180  0.01779  1.0000
  C   C1247     1.0  0.60135  0.00663  0.99085  1.0000
  H   H1017     1.0  0.73561  0.11421  0.55603  1.0000
  C   C1248     1.0  0.74871  0.08164  0.56022  1.0000
  C   C1249     1.0  0.72792  0.07279  0.55798  1.0000
  C   C1250     1.0  0.67319  0.98928  0.75375  1.0000
  C   C1251     1.0  0.79622  0.21744  0.70357  1.0000
  C   C1252     1.0  0.71869  0.12765  0.00685  1.0000
  C   C1253     1.0  0.73413  0.16486  0.64397  1.0000
  C   C1254     1.0  0.90683  0.19737  0.56597  1.0000
  H   H1018     1.0  0.75668  0.16118  0.60658  1.0000
  H   H1019     1.0  0.87192  0.20904  0.00035  1.0000
  S   S168      1.0  0.69564  0.03440  0.01140  1.0000
  C   C1255     1.0  0.61498  0.99349  0.72550  1.0000
  C   C1256     1.0  0.75811  0.20427  0.64318  1.0000
  C   C1257     1.0  0.60286  0.00407  0.71905  1.0000
  H   H1020     1.0  0.95343  0.22552  0.59719  1.0000
  C   C1258     1.0  0.65477  0.05707  0.54343  1.0000
  H   H1021     1.0  0.67918  0.13728  0.96860  1.0000
  C   C1259     1.0  0.64013  0.01242  0.01649  1.0000
  C   C1260     1.0  0.93813  0.23278  0.72533  1.0000
  H   H1022     1.0  0.62888  0.99631  0.54097  1.0000
  H   H1023     1.0  0.71446  0.17288  0.68226  1.0000
  C   C1261     1.0  0.91399  0.23059  0.54631  1.0000
  H   H1024     1.0  0.78446  0.13496  0.00965  1.0000
  C   C1262     1.0  0.76179  0.14670  0.01982  1.0000
  C   C1263     1.0  0.60483  0.99833  0.02795  1.0000
  C   C1264     1.0  0.68603  0.01434  0.53080  1.0000
  H   H1025     1.0  0.91062  0.46517  0.13327  1.0000
  S   S169      1.0  0.86371  0.25379  0.23300  1.0000
  C   C1265     1.0  0.94683  0.25774  0.23465  1.0000
  Fe  Fe83      1.0  0.84286  0.25332  0.18019  1.0000
  S   S170      1.0  0.84486  0.28027  0.14195  1.0000
  H   H1026     1.0  0.94571  0.47789  0.12762  1.0000
  S   S171      1.0  0.93284  0.38432  0.50052  1.0000
  C   C1266     1.0  0.94521  0.31094  0.41754  1.0000
  C   C1267     1.0  0.91611  0.37504  0.17063  1.0000
  C   C1268     1.0  0.88510  0.34051  0.24489  1.0000
  C   C1269     1.0  0.90133  0.33979  0.22271  1.0000
  H   H1027     1.0  0.87792  0.24580  0.48794  1.0000
  C   C1270     1.0  0.92599  0.47785  0.03951  1.0000
  C   C1271     1.0  0.83319  0.23691  0.42024  1.0000
  Fe  Fe84      1.0  0.83713  0.23545  0.26939  1.0000
  H   H1028     1.0  0.87821  0.29580  0.51628  1.0000
  H   H1029     1.0  0.92774  0.45971  0.26087  1.0000
  C   C1272     1.0  0.86743  0.28781  0.37207  1.0000
  C   C1273     1.0  0.94616  0.25346  0.27729  1.0000
  C   C1274     1.0  0.93013  0.45522  0.51971  1.0000
  H   H1030     1.0  0.89886  0.40932  0.18677  1.0000
  H   H1031     1.0  0.88396  0.29167  0.20380  1.0000
  C   C1275     1.0  0.96182  0.26717  0.11380  1.0000
  H   H1032     1.0  0.94261  0.42050  0.30054  1.0000
  C   C1276     1.0  0.86463  0.29820  0.11459  1.0000
  C   C1277     1.0  0.88366  0.29766  0.11179  1.0000
  H   H1033     1.0  0.93907  0.30082  0.21721  1.0000
  C   C1278     1.0  0.93030  0.37474  0.33671  1.0000
  C   C1279     1.0  0.87609  0.32821  0.07330  1.0000
  C   C1280     1.0  0.86102  0.31358  0.09506  1.0000
  H   H1034     1.0  0.88673  0.28591  0.12620  1.0000
  H   H1035     1.0  0.91286  0.47252  0.05837  1.0000
  H   H1036     1.0  0.84639  0.31417  0.09682  1.0000
  C   C1281     1.0  0.93379  0.39516  0.26189  1.0000
  H   H1037     1.0  0.93518  0.40341  0.23357  1.0000
  C   C1282     1.0  0.90085  0.32198  0.20838  1.0000
  H   H1038     1.0  0.88508  0.35413  0.25592  1.0000
  H   H1039     1.0  0.90425  0.33227  0.36910  1.0000
  H   H1040     1.0  0.95523  0.32652  0.26914  1.0000
  C   C1283     1.0  0.85390  0.31268  0.36195  1.0000
  H   H1041     1.0  0.94580  0.39675  0.16718  1.0000
  H   H1042     1.0  0.93639  0.24319  0.47912  1.0000
  H   H1043     1.0  0.91779  0.26136  0.35934  1.0000
  H   H1044     1.0  0.94409  0.24662  0.06895  1.0000
  C   C1284     1.0  0.94899  0.27583  0.04943  1.0000
  C   C1285     1.0  0.89291  0.37801  0.11791  1.0000
  C   C1286     1.0  0.89310  0.23564  0.44241  1.0000
  C   C1287     1.0  0.90831  0.28270  0.29891  1.0000
  H   H1045     1.0  0.88125  0.24330  0.11098  1.0000
  H   H1046     1.0  0.85609  0.32423  0.26918  1.0000
  H   H1047     1.0  0.92910  0.34011  0.49837  1.0000
  C   C1288     1.0  0.93292  0.29990  0.24803  1.0000
  H   H1048     1.0  0.94181  0.32453  0.33895  1.0000
  C   C1289     1.0  0.92998  0.24875  0.20902  1.0000
  C   C1290     1.0  0.91787  0.29686  0.32875  1.0000
  H   H1049     1.0  0.82821  0.24879  0.42271  1.0000
  H   H1050     1.0  0.48502  0.47579  0.09097  1.0000
  S   S172      1.0  0.83225  0.24303  0.33578  1.0000
  H   H1051     1.0  0.91291  0.32082  0.19092  1.0000
  C   C1291     1.0  0.93791  0.40496  0.29993  1.0000
  C   C1292     1.0  0.87309  0.32673  0.36308  1.0000
  C   C1293     1.0  0.91169  0.45645  0.15968  1.0000
  C   C1294     1.0  0.92838  0.24069  0.29419  1.0000
  C   C1295     1.0  0.86867  0.32365  0.25251  1.0000
  C   C1296     1.0  0.86832  0.30600  0.23802  1.0000
  H   H1052     1.0  0.85546  0.29293  0.24309  1.0000
  C   C1297     1.0  0.95109  0.26178  0.07642  1.0000
  C   C1298     1.0  0.93347  0.33182  0.47597  1.0000
  C   C1299     1.0  0.88645  0.24919  0.45958  1.0000
  C   C1300     1.0  0.95887  0.32225  0.44697  1.0000
  H   H1053     1.0  0.89770  0.42989  0.12627  1.0000
  C   C1301     1.0  0.95831  0.34354  0.14275  1.0000
  H   H1054     1.0  0.88577  0.35479  0.16172  1.0000
  H   H1055     1.0  0.83629  0.28223  0.36448  1.0000
  C   C1302     1.0  0.90416  0.24002  0.40597  1.0000
  C   C1303     1.0  0.88441  0.30523  0.21601  1.0000
  C   C1304     1.0  0.95804  0.29535  0.06010  1.0000
  C   C1305     1.0  0.95920  0.26726  0.51002  1.0000
  C   C1306     1.0  0.94291  0.34908  0.15540  1.0000
  H   H1056     1.0  0.95673  0.30648  0.03997  1.0000
  C   C1307     1.0  0.92055  0.46563  0.49733  1.0000
  S   S173      1.0  0.92170  0.42994  0.51260  1.0000
  C   C1308     1.0  0.90489  0.42487  0.18974  1.0000
  H   H1057     1.0  0.93073  0.25157  0.17589  1.0000
  C   C1309     1.0  0.92131  0.45347  0.23127  1.0000
  H   H1058     1.0  0.90422  0.40242  0.07651  1.0000
  H   H1059     1.0  0.80968  0.25263  0.48581  1.0000
  H   H1060     1.0  0.92791  0.23699  0.32684  1.0000
  H   H1061     1.0  0.94994  0.30283  0.39516  1.0000
  C   C1310     1.0  0.89881  0.31243  0.09053  1.0000
  C   C1311     1.0  0.94949  0.25606  0.47548  1.0000
  H   H1062     1.0  0.93046  0.34703  0.13428  1.0000
  H   H1063     1.0  0.90882  0.27299  0.23616  1.0000
  H   H1064     1.0  0.87531  0.34181  0.35974  1.0000
  H   H1065     1.0  0.94925  0.25281  0.40859  1.0000
  C   C1312     1.0  0.88667  0.30184  0.37394  1.0000
  H   H1066     1.0  0.87298  0.33984  0.05852  1.0000
  C   C1313     1.0  0.93081  0.39168  0.15450  1.0000
  H   H1067     1.0  0.89508  0.27044  0.30673  1.0000
  C   C1314     1.0  0.91973  0.32049  0.44686  1.0000
  C   C1315     1.0  0.92061  0.46518  0.19724  1.0000
  H   H1068     1.0  0.91346  0.31187  0.08900  1.0000
  H   H1069     1.0  0.93768  0.41469  0.10916  1.0000
  H   H1070     1.0  0.90454  0.31966  0.44830  1.0000
  C   C1316     1.0  0.93608  0.39475  0.33731  1.0000
  H   H1071     1.0  0.84121  0.31682  0.35760  1.0000
  C   C1317     1.0  0.92636  0.40175  0.12135  1.0000
  S   S174      1.0  0.81596  0.23722  0.21892  1.0000
  H   H1072     1.0  0.92911  0.36690  0.36577  1.0000
  C   C1318     1.0  0.94325  0.35659  0.19543  1.0000
  H   H1073     1.0  0.96050  0.26743  0.22122  1.0000
  H   H1074     1.0  0.88509  0.27726  0.45339  1.0000
  C   C1319     1.0  0.88944  0.32131  0.36859  1.0000
  C   C1320     1.0  0.90746  0.39486  0.10292  1.0000
  P   P42       1.0  0.92223  0.36178  0.21253  1.0000
  H   H1075     1.0  0.87844  0.37236  0.10278  1.0000
  C   C1321     1.0  0.92564  0.31031  0.41680  1.0000
  H   H1076     1.0  0.91360  0.42443  0.25405  1.0000
  H   H1077     1.0  0.91157  0.26702  0.08173  1.0000
  C   C1322     1.0  0.89717  0.36812  0.15163  1.0000
  H   H1078     1.0  0.93930  0.40233  0.36680  1.0000
  C   C1323     1.0  0.85110  0.29322  0.36615  1.0000
  C   C1324     1.0  0.91334  0.43339  0.22753  1.0000
  C   C1325     1.0  0.90413  0.43641  0.15578  1.0000
  H   H1079     1.0  0.92256  0.34945  0.29888  1.0000
  C   C1326     1.0  0.92657  0.36494  0.29876  1.0000
  C   C1327     1.0  0.89516  0.32781  0.07109  1.0000
  C   C1328     1.0  0.92805  0.37504  0.26098  1.0000
  C   C1329     1.0  0.90306  0.25451  0.06335  1.0000
  C   C1330     1.0  0.91595  0.28417  0.25881  1.0000
  H   H1080     1.0  0.86503  0.27268  0.37473  1.0000
  C   C1331     1.0  0.94203  0.31437  0.27716  1.0000
  C   C1332     1.0  0.93448  0.31299  0.31722  1.0000
  C   C1333     1.0  0.95965  0.35926  0.22193  1.0000
  H   H1081     1.0  0.90864  0.45814  0.47570  1.0000
  S   S175      1.0  0.91502  0.34601  0.04476  1.0000
  C   C1334     1.0  0.89038  0.26691  0.43973  1.0000
  C   C1335     1.0  0.90118  0.27128  0.40268  1.0000
  C   C1336     1.0  0.90855  0.25794  0.38659  1.0000
  P   P43       1.0  0.90785  0.29500  0.38027  1.0000
  C   C1337     1.0  0.91219  0.23604  0.22608  1.0000
  C   C1338     1.0  0.88573  0.24111  0.08002  1.0000
  C   C1339     1.0  0.95668  0.26145  0.43527  1.0000
  H   H1082     1.0  0.95758  0.33724  0.11228  1.0000
  H   H1083     1.0  0.88636  0.47202  0.19605  1.0000
  H   H1084     1.0  0.96386  0.36870  0.36172  1.0000
  H   H1085     1.0  0.96043  0.36499  0.25301  1.0000
  C   C1340     1.0  0.95291  0.33260  0.47621  1.0000
  H   H1086     1.0  0.96144  0.37022  0.06296  1.0000
  H   H1087     1.0  0.96247  0.37981  0.43388  1.0000
  H   H1088     1.0  0.96341  0.25630  0.13457  1.0000
  C   C1341     1.0  0.80292  0.24818  0.51591  1.0000
  H   H1089     1.0  0.96331  0.34161  0.49868  1.0000
  S   S176      1.0  0.89237  0.33671  0.52717  1.0000
  C   C1342     1.0  0.47434  0.47979  0.10779  1.0000
  Fe  Fe85      1.0  0.92068  0.37260  0.00230  1.0000
  P   P44       1.0  0.94982  0.26089  0.56227  1.0000
  H   H1090     1.0  0.83231  0.24121  0.77421  1.0000
  Fe  Fe86      1.0  0.91786  0.39105  0.91671  1.0000
  S   S177      1.0  0.94122  0.41954  0.93352  1.0000
  S   S178      1.0  0.90344  0.38824  0.85229  1.0000
  C   C1343     1.0  0.94439  0.44997  0.78724  1.0000
  Fe  Fe87      1.0  0.95738  0.40164  0.96046  1.0000
  Fe  Fe88      1.0  0.92648  0.41578  0.99536  1.0000
  Fe  Fe89      1.0  0.91622  0.36403  0.55085  1.0000
  S   S179      1.0  0.93503  0.37331  0.93985  1.0000
  S   S180      1.0  0.90135  0.38808  0.97722  1.0000
  S   S181      1.0  0.85130  0.26779  0.65139  1.0000
  Fe  Fe90      1.0  0.94271  0.38869  0.61993  1.0000
  S   S182      1.0  0.91352  0.38716  0.59165  1.0000
  H   H1091     1.0  0.87882  0.23645  0.77392  1.0000
  H   H1092     1.0  0.75636  0.25123  0.59149  1.0000
  C   C1344     1.0  0.49354  0.47232  0.80720  1.0000
  H   H1093     1.0  0.92129  0.25896  0.91735  1.0000
  H   H1094     1.0  0.95061  0.34176  0.01680  1.0000
  C   C1345     1.0  0.86356  0.28676  0.61702  1.0000
  C   C1346     1.0  0.86704  0.28316  0.57584  1.0000
  C   C1347     1.0  0.48915  0.47397  0.84892  1.0000
  H   H1095     1.0  0.94840  0.32333  0.90672  1.0000
  C   C1348     1.0  0.87893  0.32123  0.60375  1.0000
  C   C1349     1.0  0.86952  0.30580  0.63094  1.0000
  H   H1096     1.0  0.87973  0.41308  0.59410  1.0000
  C   C1350     1.0  0.92962  0.26521  0.74273  1.0000
  H   H1097     1.0  0.88339  0.33592  0.61423  1.0000
  H   H1098     1.0  0.86684  0.30859  0.66278  1.0000
  H   H1099     1.0  0.89771  0.44735  0.57614  1.0000
  C   C1351     1.0  0.87593  0.29860  0.54837  1.0000
  H   H1100     1.0  0.95213  0.29992  0.53734  1.0000
  H   H1101     1.0  0.91029  0.30900  0.61823  1.0000
  S   S183      1.0  0.96021  0.28087  0.79921  1.0000
  C   C1352     1.0  0.94129  0.29450  0.56155  1.0000
  C   C1353     1.0  0.73829  0.26700  0.67428  1.0000
  H   H1102     1.0  0.87525  0.29105  0.74481  1.0000
  H   H1103     1.0  0.90365  0.28669  0.01894  1.0000
  C   C1354     1.0  0.91944  0.43827  0.84047  1.0000
  C   C1355     1.0  0.91753  0.38970  0.80680  1.0000
  C   C1356     1.0  0.90863  0.38901  0.76728  1.0000
  C   C1357     1.0  0.91929  0.38954  0.73066  1.0000
  C   C1358     1.0  0.93884  0.39039  0.73319  1.0000
  C   C1359     1.0  0.94247  0.24853  0.89188  1.0000
  C   C1360     1.0  0.93726  0.39109  0.80929  1.0000
  H   H1104     1.0  0.89337  0.38792  0.76500  1.0000
  H   H1105     1.0  0.91227  0.38886  0.70046  1.0000
  H   H1106     1.0  0.74175  0.26011  0.73853  1.0000
  H   H1107     1.0  0.94436  0.39178  0.83945  1.0000
  C   C1361     1.0  0.88099  0.28257  0.76493  1.0000
  H   H1108     1.0  0.92289  0.33581  0.73707  1.0000
  C   C1362     1.0  0.94606  0.26301  0.76271  1.0000
  H   H1109     1.0  0.48797  0.45825  0.79303  1.0000
  H   H1110     1.0  0.54381  0.47199  0.72679  1.0000
  C   C1363     1.0  0.51211  0.42625  0.70735  1.0000
  Fe  Fe91      1.0  0.84985  0.23841  0.63218  1.0000
  C   C1364     1.0  0.91808  0.44697  0.67261  1.0000
  C   C1365     1.0  0.93667  0.27593  0.57831  1.0000
  C   C1366     1.0  0.74244  0.26442  0.63294  1.0000
  P   P45       1.0  0.90057  0.31614  0.81070  1.0000
  H   H1111     1.0  0.54390  0.43968  0.71401  1.0000
  C   C1367     1.0  0.76013  0.24407  0.65590  1.0000
  C   C1368     1.0  0.48867  0.48186  0.65796  1.0000
  C   C1369     1.0  0.93060  0.45352  0.76047  1.0000
  H   H1112     1.0  0.92030  0.33220  0.92870  1.0000
  C   C1370     1.0  0.93286  0.46469  0.02051  1.0000
  H   H1113     1.0  0.90447  0.25294  0.70072  1.0000
  C   C1371     1.0  0.81286  0.25733  0.55196  1.0000
  P   P46       1.0  0.93713  0.46206  0.70783  1.0000
  C   C1372     1.0  0.91760  0.29979  0.60707  1.0000
  H   H1114     1.0  0.76085  0.23984  0.72268  1.0000
  H   H1115     1.0  0.95933  0.45255  0.77734  1.0000
  H   H1116     1.0  0.47160  0.47848  0.60105  1.0000
  S   S184      1.0  0.94379  0.36376  0.58278  1.0000
  H   H1117     1.0  0.88115  0.35485  0.67320  1.0000
  C   C1373     1.0  0.90099  0.27933  0.82368  1.0000
  C   C1374     1.0  0.91042  0.30994  0.97525  1.0000
  C   C1375     1.0  0.93854  0.31516  0.93091  1.0000
  H   H1118     1.0  0.92612  0.27772  0.74907  1.0000
  H   H1119     1.0  0.90118  0.27600  0.64664  1.0000
  C   C1376     1.0  0.95038  0.24675  0.75355  1.0000
  H   H1120     1.0  0.89861  0.31426  0.98576  1.0000
  C   C1377     1.0  0.90024  0.44191  0.60627  1.0000
  C   C1378     1.0  0.80432  0.25158  0.59094  1.0000
  C   C1379     1.0  0.87546  0.32924  0.76345  1.0000
  C   C1380     1.0  0.82114  0.23897  0.74991  1.0000
  C   C1381     1.0  0.89436  0.32823  0.76684  1.0000
  H   H1121     1.0  0.91498  0.43181  0.87088  1.0000
  C   C1382     1.0  0.87901  0.30365  0.88432  1.0000
  Fe  Fe92      1.0  0.93236  0.40782  0.54336  1.0000
  H   H1122     1.0  0.94737  0.43062  0.67336  1.0000
  H   H1123     1.0  0.88588  0.40036  0.66252  1.0000
  C   C1383     1.0  0.94265  0.25787  0.96435  1.0000
  H   H1124     1.0  0.91107  0.28551  0.84959  1.0000
  C   C1384     1.0  0.92214  0.26935  0.60911  1.0000
  H   H1125     1.0  0.86321  0.29459  0.94183  1.0000
  H   H1126     1.0  0.94649  0.34322  0.66607  1.0000
  H   H1127     1.0  0.95411  0.29608  0.94027  1.0000
  H   H1128     1.0  0.72994  0.27593  0.68138  1.0000
  H   H1129     1.0  0.81237  0.25892  0.61823  1.0000
  C   C1385     1.0  0.95557  0.35468  0.84493  1.0000
  H   H1130     1.0  0.92220  0.46882  0.62470  1.0000
  C   C1386     1.0  0.89360  0.41542  0.65482  1.0000
  H   H1131     1.0  0.89051  0.43802  0.82425  1.0000
  H   H1132     1.0  0.93625  0.24714  0.86058  1.0000
  C   C1387     1.0  0.88271  0.25155  0.78135  1.0000
  C   C1388     1.0  0.95836  0.33889  0.67742  1.0000
  C   C1389     1.0  0.94003  0.31924  0.80430  1.0000
  C   C1390     1.0  0.86957  0.30636  0.92000  1.0000
  H   H1133     1.0  0.86441  0.32275  0.78694  1.0000
  C   C1391     1.0  0.95427  0.31988  0.68994  1.0000
  C   C1392     1.0  0.90822  0.33638  0.73534  1.0000
  C   C1393     1.0  0.94977  0.47185  0.99580  1.0000
  H   H1134     1.0  0.93450  0.30577  0.78766  1.0000
  H   H1135     1.0  0.93923  0.30934  0.68816  1.0000
  S   S185      1.0  0.92011  0.43956  0.02936  1.0000
  C   C1394     1.0  0.89006  0.42257  0.61642  1.0000
  C   C1395     1.0  0.74495  0.25810  0.70646  1.0000
  C   C1396     1.0  0.93505  0.34555  0.83929  1.0000
  H   H1136     1.0  0.87969  0.28968  0.87922  1.0000
  C   C1397     1.0  0.91116  0.44934  0.77422  1.0000
  C   C1398     1.0  0.96048  0.46010  0.69545  1.0000
  H   H1137     1.0  0.80149  0.26414  0.68661  1.0000
  C   C1399     1.0  0.87697  0.33954  0.90014  1.0000
  C   C1400     1.0  0.92706  0.32758  0.81946  1.0000
  H   H1138     1.0  0.93524  0.32063  0.56298  1.0000
  C   C1401     1.0  0.75581  0.24667  0.69736  1.0000
  C   C1402     1.0  0.87073  0.33883  0.72979  1.0000
  H   H1139     1.0  0.96277  0.39166  0.77507  1.0000
  C   C1403     1.0  0.81783  0.25466  0.73223  1.0000
  H   H1140     1.0  0.85626  0.33986  0.72766  1.0000
  H   H1141     1.0  0.91420  0.35233  0.67762  1.0000
  H   H1142     1.0  0.87637  0.35356  0.90622  1.0000
  H   H1143     1.0  0.86191  0.32659  0.95638  1.0000
  C   C1404     1.0  0.88610  0.33678  0.86415  1.0000
  H   H1144     1.0  0.91824  0.25506  0.62246  1.0000
  C   C1405     1.0  0.52981  0.46017  0.72161  1.0000
  C   C1406     1.0  0.91342  0.29433  0.99419  1.0000
  H   H1145     1.0  0.92562  0.35275  0.85002  1.0000
  H   H1146     1.0  0.49634  0.47289  0.64713  1.0000
  C   C1407     1.0  0.92894  0.28890  0.98128  1.0000
  H   H1147     1.0  0.73732  0.27136  0.60799  1.0000
  C   C1408     1.0  0.91260  0.28123  0.62329  1.0000
  C   C1409     1.0  0.86879  0.32437  0.92821  1.0000
  H   H1148     1.0  0.86244  0.26851  0.56485  1.0000
  C   C1410     1.0  0.51180  0.46310  0.72185  1.0000
  H   H1149     1.0  0.82725  0.26892  0.54979  1.0000
  H   H1150     1.0  0.82662  0.26914  0.74246  1.0000
  C   C1411     1.0  0.91423  0.45408  0.63409  1.0000
  H   H1151     1.0  0.89215  0.34862  0.84250  1.0000
  C   C1412     1.0  0.91728  0.25117  0.71506  1.0000
  C   C1413     1.0  0.89544  0.25972  0.81502  1.0000
  C   C1414     1.0  0.90332  0.34570  0.70142  1.0000
  C   C1415     1.0  0.88471  0.34718  0.69898  1.0000
  H   H1152     1.0  0.90142  0.25094  0.83369  1.0000
  P   P47       1.0  0.93274  0.26842  0.00439  1.0000
  H   H1153     1.0  0.91042  0.42166  0.71196  1.0000
  C   C1416     1.0  0.89380  0.29092  0.79867  1.0000
  C   C1417     1.0  0.90755  0.42755  0.68278  1.0000
  C   C1418     1.0  0.88756  0.31895  0.85624  1.0000
  C   C1419     1.0  0.87559  0.26300  0.75628  1.0000
  H   H1154     1.0  0.90017  0.45152  0.75372  1.0000
  C   C1420     1.0  0.93411  0.25527  0.92409  1.0000
  C   C1421     1.0  0.49393  0.44735  0.71498  1.0000
  C   C1422     1.0  0.75329  0.25297  0.62371  1.0000
  H   H1155     1.0  0.51226  0.41206  0.70151  1.0000
  C   C1423     1.0  0.93180  0.30637  0.57603  1.0000
  C   C1424     1.0  0.80369  0.25177  0.70024  1.0000
  S   S186      1.0  0.95263  0.39015  0.68814  1.0000
  H   H1156     1.0  0.47986  0.44927  0.71512  1.0000
  H   H1157     1.0  0.95440  0.26928  0.65248  1.0000
  C   C1425     1.0  0.88196  0.31764  0.56237  1.0000
  C   C1426     1.0  0.52993  0.44181  0.71437  1.0000
  C   C1427     1.0  0.90564  0.44176  0.81409  1.0000
  H   H1158     1.0  0.94928  0.43910  0.84717  1.0000
  C   C1428     1.0  0.92282  0.32022  0.94338  1.0000
  C   C1429     1.0  0.93307  0.23600  0.56414  1.0000
  H   H1159     1.0  0.96297  0.24481  0.76850  1.0000
  C   C1430     1.0  0.92134  0.23477  0.70639  1.0000
  C   C1431     1.0  0.94775  0.39119  0.77270  1.0000
  H   H1160     1.0  0.95305  0.45724  0.56487  1.0000
  H   H1161     1.0  0.48044  0.46131  0.86646  1.0000
  C   C1432     1.0  0.93879  0.44237  0.82706  1.0000
  H   H1162     1.0  0.48031  0.41698  0.70201  1.0000
  C   C1433     1.0  0.49412  0.42902  0.70767  1.0000
  C   C1434     1.0  0.94551  0.46506  0.54759  1.0000
  H   H1163     1.0  0.86605  0.25680  0.72966  1.0000
  C   C1435     1.0  0.94169  0.29966  0.94999  1.0000
  S   S187      1.0  0.87384  0.23525  0.59371  1.0000
  H   H1164     1.0  0.95532  0.46193  0.98117  1.0000
  H   H1165     1.0  0.91926  0.47982  0.88408  1.0000
  C   C1436     1.0  0.78572  0.23657  0.59426  1.0000
  S   S188      1.0  0.94476  0.40017  0.02411  1.0000
  C   C1437     1.0  0.95931  0.24416  0.89965  1.0000
  C   C1438     1.0  0.95966  0.25358  0.97177  1.0000
  C   C1439     1.0  0.89809  0.23510  0.00113  1.0000
  C   C1440     1.0  0.96093  0.44296  0.67901  1.0000
  Fe  Fe93      1.0  0.96037  0.38564  0.53487  1.0000
  S   S189      1.0  0.96153  0.41090  0.57421  1.0000
  H   H1166     1.0  0.96165  0.36855  0.86023  1.0000
  C   C1441     1.0  0.96050  0.32836  0.81024  1.0000
  C   C1442     1.0  0.90948  0.25156  0.02386  1.0000
  H   H1167     1.0  0.90912  0.24132  0.53221  1.0000
  H   H1168     1.0  0.92071  0.67594  0.04718  1.0000
  H   H1169     1.0  0.96312  0.55866  0.33969  1.0000
  S   S190      1.0  0.94227  0.54588  0.09876  1.0000
  Fe  Fe94      1.0  0.56314  0.68624  0.30984  1.0000
  S   S191      1.0  0.58464  0.70925  0.34997  1.0000
  S   S192      1.0  0.54120  0.65629  0.32814  1.0000
  Fe  Fe95      1.0  0.57878  0.70990  0.22930  1.0000
  S   S193      1.0  0.56942  0.70724  0.16099  1.0000
  Fe  Fe96      1.0  0.60685  0.71095  0.30077  1.0000
  S   S194      1.0  0.63576  0.70953  0.32360  1.0000
  S   S195      1.0  0.58586  0.68671  0.26289  1.0000
  S   S196      1.0  0.55424  0.70770  0.27333  1.0000
  S   S197      1.0  0.53545  0.61248  0.50237  1.0000
  S   S198      1.0  0.52417  0.55557  0.48604  1.0000
  Fe  Fe97      1.0  0.86480  0.63513  0.15210  1.0000
  S   S199      1.0  0.89179  0.65345  0.11742  1.0000
  S   S200      1.0  0.85399  0.60358  0.16708  1.0000
  Fe  Fe98      1.0  0.85102  0.66767  0.16732  1.0000
  S   S201      1.0  0.87751  0.68935  0.13479  1.0000
  S   S202      1.0  0.82637  0.67512  0.19636  1.0000
  Fe  Fe99      1.0  0.87187  0.66640  0.08600  1.0000
  Fe  Fe100     1.0  0.89589  0.67509  0.16858  1.0000
  S   S203      1.0  0.92852  0.68770  0.18917  1.0000
  S   S204      1.0  0.84434  0.64597  0.11618  1.0000
  S   S205      1.0  0.87004  0.65556  0.20537  1.0000
  Fe  Fe101     1.0  0.68078  0.64612  0.21452  1.0000
  S   S206      1.0  0.65515  0.62207  0.24218  1.0000
  S   S207      1.0  0.67623  0.67306  0.19370  1.0000
  Fe  Fe102     1.0  0.70704  0.62275  0.21160  1.0000
  S   S208      1.0  0.68275  0.59671  0.23820  1.0000
  S   S209      1.0  0.73522  0.61811  0.19266  1.0000
  Fe  Fe103     1.0  0.66154  0.60357  0.19456  1.0000
  S   S210      1.0  0.63637  0.57948  0.16103  1.0000
  Fe  Fe104     1.0  0.67816  0.61739  0.28334  1.0000
  S   S211      1.0  0.66927  0.60790  0.35000  1.0000
  S   S212      1.0  0.68611  0.62789  0.16438  1.0000
  S   S213      1.0  0.70368  0.64314  0.25957  1.0000
  H   H1170     1.0  0.93014  0.52945  0.18199  1.0000
  Fe  Fe105     1.0  0.91614  0.56839  0.49578  1.0000
  S   S214      1.0  0.89496  0.55330  0.08002  1.0000
  Fe  Fe106     1.0  0.57787  0.73098  0.30969  1.0000
  Fe  Fe107     1.0  0.93083  0.55606  0.41626  1.0000
  H   H1171     1.0  0.85629  0.66073  0.41279  1.0000
  S   S215      1.0  0.92055  0.54955  0.34885  1.0000
  Fe  Fe108     1.0  0.93920  0.54097  0.50052  1.0000
  H   H1172     1.0  0.86864  0.51873  0.16051  1.0000
  C   C1443     1.0  0.50978  0.56706  0.33952  1.0000
  S   S216      1.0  0.91079  0.53929  0.46786  1.0000
  S   S217      1.0  0.93416  0.58495  0.44189  1.0000
  H   H1173     1.0  0.47913  0.58079  0.11172  1.0000
  C   C1444     1.0  0.95901  0.66037  0.27740  1.0000
  C   C1445     1.0  0.68040  0.62238  0.39360  1.0000
  C   C1446     1.0  0.69574  0.64037  0.38937  1.0000
  C   C1447     1.0  0.70442  0.65127  0.42501  1.0000
  C   C1448     1.0  0.69752  0.64449  0.46497  1.0000
  C   C1449     1.0  0.68258  0.62628  0.46922  1.0000
  C   C1450     1.0  0.67419  0.61523  0.43366  1.0000
  H   H1174     1.0  0.70091  0.64588  0.35871  1.0000
  H   H1175     1.0  0.71624  0.66520  0.42157  1.0000
  H   H1176     1.0  0.67728  0.62083  0.49985  1.0000
  H   H1177     1.0  0.66254  0.60121  0.43717  1.0000
  C   C1451     1.0  0.61927  0.58154  0.12250  1.0000
  C   C1452     1.0  0.60302  0.56494  0.11051  1.0000
  C   C1453     1.0  0.58888  0.56593  0.08070  1.0000
  C   C1454     1.0  0.87541  0.49393  0.17831  1.0000
  C   C1455     1.0  0.80321  0.63285  0.36923  1.0000
  C   C1456     1.0  0.62131  0.59917  0.10393  1.0000
  H   H1178     1.0  0.60137  0.55119  0.12433  1.0000
  C   C1457     1.0  0.76468  0.56220  0.48501  1.0000
  H   H1179     1.0  0.63383  0.61204  0.11231  1.0000
  H   H1180     1.0  0.76692  0.59105  0.47092  1.0000
  C   C1458     1.0  0.94016  0.70163  0.23336  1.0000
  C   C1459     1.0  0.83106  0.63353  0.41342  1.0000
  C   C1460     1.0  0.47971  0.68205  0.16191  1.0000
  H   H1181     1.0  0.64894  0.71998  0.50562  1.0000
  C   C1461     1.0  0.86617  0.55908  0.12389  1.0000
  C   C1462     1.0  0.80110  0.65902  0.19572  1.0000
  C   C1463     1.0  0.78638  0.66538  0.21007  1.0000
  C   C1464     1.0  0.76615  0.65311  0.20939  1.0000
  C   C1465     1.0  0.76044  0.63426  0.19460  1.0000
  C   C1466     1.0  0.77518  0.62786  0.18063  1.0000
  C   C1467     1.0  0.79537  0.64014  0.18107  1.0000
  H   H1182     1.0  0.79063  0.67994  0.22146  1.0000
  H   H1183     1.0  0.75499  0.65825  0.22027  1.0000
  H   H1184     1.0  0.77095  0.61329  0.16933  1.0000
  H   H1185     1.0  0.80648  0.63501  0.17006  1.0000
  C   C1468     1.0  0.64661  0.69911  0.28725  1.0000
  C   C1469     1.0  0.64501  0.70214  0.24453  1.0000
  C   C1470     1.0  0.65453  0.69445  0.21606  1.0000
  C   C1471     1.0  0.66505  0.68311  0.23007  1.0000
  C   C1472     1.0  0.66614  0.67960  0.27274  1.0000
  C   C1473     1.0  0.65715  0.68781  0.30125  1.0000
  H   H1186     1.0  0.63690  0.71085  0.23345  1.0000
  H   H1187     1.0  0.65368  0.69725  0.18311  1.0000
  H   H1188     1.0  0.67416  0.67081  0.28377  1.0000
  H   H1189     1.0  0.65818  0.68519  0.33420  1.0000
  C   C1474     1.0  0.58469  0.71730  0.11768  1.0000
  H   H1190     1.0  0.61263  0.72634  0.15105  1.0000
  C   C1475     1.0  0.67068  0.69512  0.51806  1.0000
  Fe  Fe109     1.0  0.96039  0.58328  0.47682  1.0000
  H   H1191     1.0  0.90362  0.54128  0.16376  1.0000
  C   C1476     1.0  0.53998  0.64434  0.37677  1.0000
  C   C1477     1.0  0.54955  0.65412  0.41261  1.0000
  C   C1478     1.0  0.54807  0.64408  0.45059  1.0000
  C   C1479     1.0  0.53719  0.62412  0.45320  1.0000
  C   C1480     1.0  0.52765  0.61430  0.41731  1.0000
  C   C1481     1.0  0.52883  0.62446  0.37952  1.0000
  H   H1192     1.0  0.55756  0.66951  0.41128  1.0000
  H   H1193     1.0  0.55514  0.65187  0.47832  1.0000
  H   H1194     1.0  0.52097  0.61694  0.35224  1.0000
  C   C1482     1.0  0.88462  0.56789  0.10522  1.0000
  C   C1483     1.0  0.53536  0.65668  0.20042  1.0000
  C   C1484     1.0  0.85722  0.57023  0.14369  1.0000
  C   C1485     1.0  0.86638  0.59030  0.14376  1.0000
  C   C1486     1.0  0.88487  0.59921  0.12506  1.0000
  C   C1487     1.0  0.89412  0.58797  0.10607  1.0000
  C   C1488     1.0  0.63646  0.69528  0.46499  1.0000
  H   H1195     1.0  0.84294  0.56331  0.15812  1.0000
  H   H1196     1.0  0.89205  0.61469  0.12528  1.0000
  H   H1197     1.0  0.90832  0.59482  0.09136  1.0000
  C   C1489     1.0  0.94066  0.56264  0.23081  1.0000
  C   C1490     1.0  0.92837  0.55679  0.26577  1.0000
  C   C1491     1.0  0.93641  0.55565  0.30537  1.0000
  C   C1492     1.0  0.59127  0.62691  0.51999  1.0000
  H   H1198     1.0  0.93438  0.56394  0.20068  1.0000
  H   H1199     1.0  0.91261  0.55355  0.26222  1.0000
  H   H1200     1.0  0.93043  0.66298  0.27745  1.0000
  C   C1493     1.0  0.53991  0.66278  0.07610  1.0000
  C   C1494     1.0  0.84341  0.60016  0.43037  1.0000
  C   C1495     1.0  0.49695  0.69495  0.18090  1.0000
  C   C1496     1.0  0.55015  0.59225  0.16478  1.0000
  C   C1497     1.0  0.87132  0.64115  0.50954  1.0000
  C   C1498     1.0  0.60770  0.72880  0.04497  1.0000
  C   C1499     1.0  0.51549  0.69757  0.16465  1.0000
  H   H1201     1.0  0.91224  0.65936  0.42599  1.0000
  C   C1500     1.0  0.48103  0.67165  0.12688  1.0000
  H   H1202     1.0  0.64918  0.65656  0.08404  1.0000
  C   C1501     1.0  0.72985  0.59461  0.39979  1.0000
  H   H1203     1.0  0.61995  0.72954  0.49968  1.0000
  C   C1502     1.0  0.57803  0.63184  0.08270  1.0000
  C   C1503     1.0  0.78225  0.65337  0.08368  1.0000
  C   C1504     1.0  0.69956  0.69742  0.37990  1.0000
  C   C1505     1.0  0.62013  0.64197  0.21936  1.0000
  H   H1204     1.0  0.60981  0.66089  0.25336  1.0000
  H   H1205     1.0  0.63487  0.64783  0.23301  1.0000
  C   C1506     1.0  0.52113  0.58337  0.31680  1.0000
  C   C1507     1.0  0.53987  0.56343  0.36444  1.0000
  C   C1508     1.0  0.55141  0.58033  0.34328  1.0000
  C   C1509     1.0  0.54186  0.59004  0.31878  1.0000
  P   P48       1.0  0.57815  0.58812  0.34334  1.0000
  C   C1510     1.0  0.59057  0.61393  0.34172  1.0000
  C   C1511     1.0  0.58728  0.58099  0.39067  1.0000
  C   C1512     1.0  0.57780  0.58065  0.42853  1.0000
  C   C1513     1.0  0.58423  0.57411  0.46474  1.0000
  C   C1514     1.0  0.60053  0.56847  0.46378  1.0000
  C   C1515     1.0  0.61069  0.56976  0.42661  1.0000
  C   C1516     1.0  0.60421  0.57616  0.39020  1.0000
  C   C1517     1.0  0.61041  0.62206  0.32913  1.0000
  C   C1518     1.0  0.62033  0.64203  0.32861  1.0000
  C   C1519     1.0  0.61055  0.65401  0.34075  1.0000
  C   C1520     1.0  0.59097  0.64603  0.35418  1.0000
  C   C1521     1.0  0.58112  0.62604  0.35554  1.0000
  C   C1522     1.0  0.58402  0.57660  0.29921  1.0000
  C   C1523     1.0  0.58144  0.55706  0.30170  1.0000
  C   C1524     1.0  0.58626  0.54803  0.26798  1.0000
  C   C1525     1.0  0.59345  0.55839  0.23144  1.0000
  C   C1526     1.0  0.59548  0.57764  0.22834  1.0000
  C   C1527     1.0  0.59064  0.58673  0.26190  1.0000
  H   H1206     1.0  0.51389  0.59116  0.29847  1.0000
  H   H1207     1.0  0.54678  0.55518  0.38227  1.0000
  H   H1208     1.0  0.55040  0.60293  0.30165  1.0000
  H   H1209     1.0  0.56523  0.58511  0.43008  1.0000
  H   H1210     1.0  0.57630  0.57314  0.49343  1.0000
  H   H1211     1.0  0.60539  0.56330  0.49193  1.0000
  H   H1212     1.0  0.62366  0.56591  0.42599  1.0000
  H   H1213     1.0  0.61242  0.57729  0.36178  1.0000
  H   H1214     1.0  0.61832  0.61301  0.31997  1.0000
  H   H1215     1.0  0.63560  0.64818  0.31858  1.0000
  H   H1216     1.0  0.61810  0.66949  0.33975  1.0000
  H   H1217     1.0  0.58336  0.65534  0.36333  1.0000
  H   H1218     1.0  0.56620  0.62017  0.36748  1.0000
  H   H1219     1.0  0.57597  0.54887  0.32992  1.0000
  H   H1220     1.0  0.58470  0.53308  0.27032  1.0000
  H   H1221     1.0  0.59767  0.55162  0.20553  1.0000
  H   H1222     1.0  0.60108  0.58552  0.19989  1.0000
  H   H1223     1.0  0.59218  0.60163  0.25861  1.0000
  C   C1528     1.0  0.73741  0.61438  0.07756  1.0000
  C   C1529     1.0  0.83785  0.56282  0.03527  1.0000
  C   C1530     1.0  0.96026  0.70501  0.24180  1.0000
  C   C1531     1.0  0.67354  0.69802  0.42582  1.0000
  C   C1532     1.0  0.89992  0.52614  0.17079  1.0000
  P   P49       1.0  0.65737  0.68782  0.46916  1.0000
  C   C1533     1.0  0.64804  0.66181  0.46640  1.0000
  C   C1534     1.0  0.64314  0.65066  0.50294  1.0000
  C   C1535     1.0  0.62009  0.71719  0.48261  1.0000
  C   C1536     1.0  0.63401  0.62148  0.46252  1.0000
  C   C1537     1.0  0.63867  0.63239  0.42596  1.0000
  C   C1538     1.0  0.64560  0.65249  0.42777  1.0000
  C   C1539     1.0  0.69121  0.69938  0.52058  1.0000
  H   H1224     1.0  0.55193  0.59421  0.23175  1.0000
  C   C1540     1.0  0.83318  0.66146  0.37138  1.0000
  S   S218      1.0  0.95875  0.55566  0.44697  1.0000
  C   C1541     1.0  0.90562  0.65878  0.49123  1.0000
  C   C1542     1.0  0.62207  0.68200  0.04607  1.0000
  C   C1543     1.0  0.92603  0.48560  0.50315  1.0000
  C   C1544     1.0  0.86632  0.63671  0.46737  1.0000
  H   H1225     1.0  0.62923  0.60601  0.46118  1.0000
  H   H1226     1.0  0.63760  0.62525  0.39635  1.0000
  H   H1227     1.0  0.64928  0.66069  0.39908  1.0000
  H   H1228     1.0  0.46758  0.66164  0.11253  1.0000
  C   C1545     1.0  0.96106  0.56696  0.23499  1.0000
  H   H1229     1.0  0.62056  0.67330  0.42024  1.0000
  C   C1546     1.0  0.74743  0.59600  0.33523  1.0000
  C   C1547     1.0  0.60413  0.70707  0.45630  1.0000
  C   C1548     1.0  0.96006  0.72357  0.30342  1.0000
  H   H1230     1.0  0.59259  0.67271  0.51306  1.0000
  H   H1231     1.0  0.82865  0.57747  0.08335  1.0000
  H   H1232     1.0  0.78824  0.62536  0.35741  1.0000
  C   C1549     1.0  0.92594  0.50270  0.28268  1.0000
  S   S219      1.0  0.94919  0.59212  0.10371  1.0000
  C   C1550     1.0  0.88018  0.51343  0.16913  1.0000
  C   C1551     1.0  0.94829  0.67692  0.33060  1.0000
  C   C1552     1.0  0.52630  0.66674  0.04990  1.0000
  C   C1553     1.0  0.60543  0.72525  0.12088  1.0000
  C   C1554     1.0  0.95492  0.49263  0.13443  1.0000
  Fe  Fe110     1.0  0.52240  0.58065  0.52140  1.0000
  C   C1555     1.0  0.59081  0.58360  0.06253  1.0000
  H   H1233     1.0  0.95397  0.63844  0.38270  1.0000
  H   H1234     1.0  0.91144  0.50231  0.27303  1.0000
  H   H1235     1.0  0.86047  0.56482  0.45808  1.0000
  C   C1556     1.0  0.49333  0.62118  0.05144  1.0000
  C   C1557     1.0  0.63957  0.66466  0.08325  1.0000
  C   C1558     1.0  0.80900  0.65054  0.04371  1.0000
  H   H1236     1.0  0.80753  0.65849  0.33299  1.0000
  C   C1559     1.0  0.93238  0.50801  0.32361  1.0000
  H   H1237     1.0  0.82912  0.54858  0.04688  1.0000
  C   C1560     1.0  0.94004  0.72042  0.29460  1.0000
  C   C1561     1.0  0.63638  0.71154  0.48639  1.0000
  H   H1238     1.0  0.51111  0.65201  0.24201  1.0000
  H   H1239     1.0  0.70972  0.61103  0.10608  1.0000
  C   C1562     1.0  0.71784  0.60286  0.37889  1.0000
  H   H1240     1.0  0.86007  0.48408  0.17730  1.0000
  C   C1563     1.0  0.95113  0.50251  0.16823  1.0000
  C   C1564     1.0  0.83756  0.57907  0.05582  1.0000
  C   C1565     1.0  0.76390  0.57218  0.12025  1.0000
  C   C1566     1.0  0.90775  0.61505  0.42121  1.0000
  C   C1567     1.0  0.92807  0.62617  0.42076  1.0000
  C   C1568     1.0  0.93812  0.63016  0.38307  1.0000
  C   C1569     1.0  0.92781  0.62326  0.34578  1.0000
  C   C1570     1.0  0.90739  0.61234  0.34576  1.0000
  C   C1571     1.0  0.89740  0.60844  0.38378  1.0000
  P   P50       1.0  0.89360  0.60483  0.29738  1.0000
  C   C1572     1.0  0.88289  0.57895  0.29178  1.0000
  C   C1573     1.0  0.87473  0.61520  0.29587  1.0000
  C   C1574     1.0  0.85620  0.60556  0.27657  1.0000
  C   C1575     1.0  0.84196  0.61401  0.27484  1.0000
  C   C1576     1.0  0.84605  0.63209  0.29249  1.0000
  C   C1577     1.0  0.86446  0.64182  0.31169  1.0000
  C   C1578     1.0  0.87879  0.63347  0.31325  1.0000
  C   C1579     1.0  0.88259  0.56657  0.32513  1.0000
  C   C1580     1.0  0.87502  0.54661  0.31928  1.0000
  C   C1581     1.0  0.86808  0.53887  0.28005  1.0000
  C   C1582     1.0  0.86856  0.55109  0.24658  1.0000
  C   C1583     1.0  0.87596  0.57103  0.25238  1.0000
  C   C1584     1.0  0.90990  0.61326  0.25356  1.0000
  C   C1585     1.0  0.92316  0.60422  0.24424  1.0000
  C   C1586     1.0  0.93539  0.61000  0.20956  1.0000
  C   C1587     1.0  0.93451  0.62489  0.18402  1.0000
  C   C1588     1.0  0.92152  0.63410  0.19340  1.0000
  C   C1589     1.0  0.90912  0.62823  0.22780  1.0000
  H   H1241     1.0  0.90004  0.61145  0.45060  1.0000
  H   H1242     1.0  0.93611  0.63138  0.44962  1.0000
  P   P51       1.0  0.77346  0.61839  0.04184  1.0000
  H   H1243     1.0  0.93580  0.62667  0.31706  1.0000
  H   H1244     1.0  0.88163  0.60027  0.38437  1.0000
  H   H1245     1.0  0.85281  0.59180  0.26164  1.0000
  H   H1246     1.0  0.82802  0.60683  0.25836  1.0000
  H   H1247     1.0  0.83523  0.63888  0.28975  1.0000
  H   H1248     1.0  0.86787  0.65614  0.32400  1.0000
  H   H1249     1.0  0.89319  0.64146  0.32713  1.0000
  H   H1250     1.0  0.88884  0.57212  0.35527  1.0000
  H   H1251     1.0  0.87549  0.53719  0.34484  1.0000
  H   H1252     1.0  0.86286  0.52344  0.27540  1.0000
  H   H1253     1.0  0.86360  0.54520  0.21589  1.0000
  H   H1254     1.0  0.87661  0.58032  0.22587  1.0000
  H   H1255     1.0  0.92392  0.59258  0.26369  1.0000
  H   H1256     1.0  0.94543  0.60279  0.20229  1.0000
  H   H1257     1.0  0.94382  0.62922  0.15689  1.0000
  H   H1258     1.0  0.92086  0.64569  0.17384  1.0000
  H   H1259     1.0  0.89889  0.63532  0.23377  1.0000
  P   P52       1.0  0.72641  0.58922  0.45488  1.0000
  H   H1260     1.0  0.95616  0.51341  0.36858  1.0000
  H   H1261     1.0  0.68372  0.73335  0.35195  1.0000
  C   C1590     1.0  0.92717  0.70490  0.06813  1.0000
  C   C1591     1.0  0.95679  0.55973  0.30947  1.0000
  C   C1592     1.0  0.68722  0.68994  0.41387  1.0000
  C   C1593     1.0  0.90079  0.65436  0.44930  1.0000
  H   H1262     1.0  0.92393  0.70070  0.10044  1.0000
  C   C1594     1.0  0.54125  0.55272  0.17762  1.0000
  C   C1595     1.0  0.84164  0.65257  0.40043  1.0000
  C   C1596     1.0  0.63136  0.66738  0.12050  1.0000
  C   C1597     1.0  0.75691  0.57620  0.47451  1.0000
  H   H1263     1.0  0.82463  0.69282  0.09697  1.0000
  C   C1598     1.0  0.92563  0.69097  0.03826  1.0000
  C   C1599     1.0  0.68507  0.72154  0.36991  1.0000
  H   H1264     1.0  0.60868  0.61394  0.06081  1.0000
  C   C1600     1.0  0.79569  0.60547  0.09756  1.0000
  C   C1601     1.0  0.48882  0.62872  0.12273  1.0000
  H   H1265     1.0  0.55950  0.65742  0.16216  1.0000
  C   C1602     1.0  0.61333  0.68403  0.08325  1.0000
  C   C1603     1.0  0.71746  0.61224  0.07693  1.0000
  H   H1266     1.0  0.74480  0.61475  0.10733  1.0000
  H   H1267     1.0  0.91464  0.70700  0.25371  1.0000
  C   C1604     1.0  0.47320  0.49780  0.10053  1.0000
  C   C1605     1.0  0.75200  0.54299  0.48994  1.0000
  H   H1268     1.0  0.93049  0.50779  0.04923  1.0000
  H   H1269     1.0  0.53142  0.68972  0.11767  1.0000
  H   H1270     1.0  0.76733  0.64761  0.09550  1.0000
  C   C1606     1.0  0.60446  0.69128  0.43395  1.0000
  C   C1607     1.0  0.73633  0.57105  0.46872  1.0000
  H   H1271     1.0  0.63555  0.66228  0.14937  1.0000
  H   H1272     1.0  0.78968  0.67938  0.11945  1.0000
  H   H1273     1.0  0.67917  0.68481  0.05932  1.0000
  C   C1608     1.0  0.58702  0.72183  0.04216  1.0000
  H   H1274     1.0  0.80816  0.61815  0.08888  1.0000
  H   H1275     1.0  0.96178  0.65934  0.51662  1.0000
  H   H1276     1.0  0.71094  0.61375  0.32085  1.0000
  H   H1277     1.0  0.93852  0.66770  0.12098  1.0000
  H   H1278     1.0  0.84948  0.61002  0.05855  1.0000
  H   H1279     1.0  0.69013  0.56626  0.40817  1.0000
  C   C1609     1.0  0.74815  0.64514  0.49485  1.0000
  H   H1280     1.0  0.73302  0.63009  0.44050  1.0000
  C   C1610     1.0  0.57560  0.71612  0.07830  1.0000
  H   H1281     1.0  0.59235  0.68363  0.41290  1.0000
  H   H1282     1.0  0.85779  0.59428  0.48583  1.0000
  H   H1283     1.0  0.70976  0.69079  0.37033  1.0000
  C   C1611     1.0  0.83910  0.57757  0.37360  1.0000
  C   C1612     1.0  0.83733  0.59424  0.38927  1.0000
  H   H1284     1.0  0.74796  0.65885  0.48401  1.0000
  C   C1613     1.0  0.96346  0.50449  0.30945  1.0000
  H   H1285     1.0  0.70635  0.60558  0.39536  1.0000
  H   H1286     1.0  0.49601  0.70301  0.20811  1.0000
  H   H1287     1.0  0.94339  0.64890  0.06188  1.0000
  C   C1614     1.0  0.48311  0.59582  0.10337  1.0000
  H   H1288     1.0  0.90166  0.69873  0.51661  1.0000
  C   C1615     1.0  0.63571  0.67276  0.04602  1.0000
  H   H1289     1.0  0.83441  0.57307  0.34190  1.0000
  C   C1616     1.0  0.85218  0.58963  0.45466  1.0000
  C   C1617     1.0  0.74484  0.59135  0.37767  1.0000
  H   H1290     1.0  0.93212  0.72642  0.31497  1.0000
  P   P53       1.0  0.55806  0.61800  0.15750  1.0000
  H   H1291     1.0  0.60301  0.69134  0.08318  1.0000
  H   H1292     1.0  0.84142  0.67610  0.36113  1.0000
  H   H1293     1.0  0.87783  0.63943  0.40499  1.0000
  H   H1294     1.0  0.83146  0.60248  0.36889  1.0000
  C   C1618     1.0  0.62052  0.68541  0.43823  1.0000
  C   C1619     1.0  0.95128  0.67389  0.10121  1.0000
  H   H1295     1.0  0.48956  0.63892  0.14690  1.0000
  C   C1620     1.0  0.60597  0.64935  0.23081  1.0000
  C   C1621     1.0  0.91498  0.51934  0.18073  1.0000
  C   C1622     1.0  0.93824  0.49820  0.25479  1.0000
  H   H1296     1.0  0.54352  0.55935  0.24310  1.0000
  C   C1623     1.0  0.51686  0.68722  0.12964  1.0000
  C   C1624     1.0  0.93007  0.70940  0.25993  1.0000
  H   H1297     1.0  0.95143  0.59265  0.33651  1.0000
  C   C1625     1.0  0.69845  0.71320  0.35783  1.0000
  C   C1626     1.0  0.78263  0.57623  0.13856  1.0000
  C   C1627     1.0  0.79854  0.59283  0.12704  1.0000
  C   C1628     1.0  0.59650  0.62012  0.17158  1.0000
  H   H1298     1.0  0.70781  0.54731  0.46929  1.0000
  C   C1629     1.0  0.61690  0.73103  0.08457  1.0000
  H   H1299     1.0  0.57018  0.66549  0.08566  1.0000
  H   H1300     1.0  0.62644  0.62169  0.18057  1.0000
  C   C1630     1.0  0.54425  0.56500  0.21170  1.0000
  C   C1631     1.0  0.85380  0.57292  0.43898  1.0000
  C   C1632     1.0  0.61540  0.62732  0.18982  1.0000
  H   H1301     1.0  0.51906  0.59900  0.41886  1.0000
  H   H1302     1.0  0.59127  0.61520  0.50045  1.0000
  Fe  Fe111     1.0  0.92799  0.56554  0.07288  1.0000
  C   C1633     1.0  0.51915  0.55706  0.36323  1.0000
  C   C1634     1.0  0.72048  0.60754  0.33663  1.0000
  C   C1635     1.0  0.73964  0.62872  0.47021  1.0000
  C   C1636     1.0  0.81162  0.62389  0.39822  1.0000
  C   C1637     1.0  0.49964  0.67399  0.11076  1.0000
  C   C1638     1.0  0.54185  0.62823  0.18125  1.0000
  H   H1303     1.0  0.68813  0.67772  0.43075  1.0000
  C   C1639     1.0  0.58695  0.64198  0.21306  1.0000
  C   C1640     1.0  0.81464  0.67912  0.08474  1.0000
  C   C1641     1.0  0.91045  0.49973  0.18886  1.0000
  H   H1304     1.0  0.59405  0.64633  0.46854  1.0000
  C   C1642     1.0  0.61822  0.67705  0.12061  1.0000
  P   P54       1.0  0.50100  0.65982  0.06653  1.0000
  H   H1305     1.0  0.96089  0.61951  0.28601  1.0000
  C   C1643     1.0  0.76103  0.58482  0.09071  1.0000
  C   C1644     1.0  0.67268  0.71403  0.40383  1.0000
  H   H1306     1.0  0.57620  0.64759  0.22384  1.0000
  C   C1645     1.0  0.58224  0.62764  0.18233  1.0000
  H   H1307     1.0  0.53957  0.67220  0.19967  1.0000
  H   H1308     1.0  0.51036  0.54441  0.38097  1.0000
  H   H1309     1.0  0.70761  0.71868  0.33079  1.0000
  C   C1646     1.0  0.78918  0.64265  0.05676  1.0000
  C   C1647     1.0  0.60710  0.60018  0.07440  1.0000
  H   H1310     1.0  0.55960  0.71026  0.07546  1.0000
  C   C1648     1.0  0.67405  0.57755  0.51622  1.0000
  H   H1311     1.0  0.75443  0.58509  0.39275  1.0000
  C   C1649     1.0  0.95115  0.50902  0.33695  1.0000
  H   H1312     1.0  0.75880  0.59328  0.31801  1.0000
  H   H1313     1.0  0.66209  0.72044  0.41177  1.0000
  C   C1650     1.0  0.77687  0.60179  0.07972  1.0000
  C   C1651     1.0  0.70029  0.58055  0.46732  1.0000
  H   H1314     1.0  0.93732  0.68208  0.34253  1.0000
  H   H1315     1.0  0.49373  0.56220  0.33898  1.0000
  H   H1316     1.0  0.92080  0.66724  0.50037  1.0000
  H   H1317     1.0  0.52893  0.70765  0.17912  1.0000
  H   H1318     1.0  0.48795  0.59141  0.03887  1.0000
  H   H1319     1.0  0.54905  0.58520  0.09901  1.0000
  H   H1320     1.0  0.78482  0.56654  0.16171  1.0000
  C   C1652     1.0  0.54728  0.57982  0.13069  1.0000
  C   C1653     1.0  0.72370  0.55170  0.47357  1.0000
  H   H1321     1.0  0.57650  0.55304  0.07183  1.0000
  C   C1654     1.0  0.54280  0.56015  0.13715  1.0000
  H   H1322     1.0  0.54100  0.55078  0.11058  1.0000
  C   C1655     1.0  0.55962  0.62353  0.10242  1.0000
  C   C1656     1.0  0.79492  0.67153  0.09741  1.0000
  H   H1323     1.0  0.93457  0.61181  0.51120  1.0000
  C   C1657     1.0  0.84933  0.59745  0.04182  1.0000
  C   C1658     1.0  0.73896  0.61074  0.48485  1.0000
  C   C1659     1.0  0.84711  0.56680  0.39862  1.0000
  C   C1660     1.0  0.51926  0.64528  0.22409  1.0000
  C   C1661     1.0  0.54886  0.58471  0.20527  1.0000
  H   H1324     1.0  0.53518  0.65587  0.10570  1.0000
  H   H1325     1.0  0.52102  0.60133  0.20583  1.0000
  H   H1326     1.0  0.59300  0.60873  0.14877  1.0000
  H   H1327     1.0  0.53810  0.53752  0.18250  1.0000
  C   C1662     1.0  0.59203  0.65932  0.52710  1.0000
  C   C1663     1.0  0.74767  0.61582  0.04024  1.0000
  S   S220      1.0  0.89229  0.57844  0.52045  1.0000
  H   H1328     1.0  0.84849  0.55388  0.38654  1.0000
  H   H1329     1.0  0.69947  0.69853  0.49353  1.0000
  C   C1664     1.0  0.94447  0.66625  0.29384  1.0000
  C   C1665     1.0  0.48360  0.60930  0.13359  1.0000
  C   C1666     1.0  0.88127  0.64316  0.43746  1.0000
  C   C1667     1.0  0.89045  0.48711  0.18847  1.0000
  H   H1330     1.0  0.59183  0.63619  0.10008  1.0000
  H   H1331     1.0  0.50175  0.61660  0.24452  1.0000
  C   C1668     1.0  0.81404  0.65157  0.35561  1.0000
  H   H1332     1.0  0.61193  0.67924  0.14961  1.0000
  H   H1333     1.0  0.85874  0.54359  0.12289  1.0000
  C   C1669     1.0  0.54660  0.64821  0.17909  1.0000
  H   H1334     1.0  0.52783  0.61145  0.09272  1.0000
  C   C1670     1.0  0.89090  0.65215  0.52133  1.0000
  C   C1671     1.0  0.52523  0.61677  0.20403  1.0000
  C   C1672     1.0  0.51410  0.62533  0.22567  1.0000
  H   H1335     1.0  0.81308  0.59603  0.14123  1.0000
  P   P55       1.0  0.84136  0.62167  0.45148  1.0000
  C   C1673     1.0  0.95701  0.49902  0.26856  1.0000
  H   H1336     1.0  0.59162  0.71157  0.45268  1.0000
  C   C1674     1.0  0.81844  0.59882  0.51609  1.0000
  C   C1675     1.0  0.55965  0.66798  0.06451  1.0000
  H   H1337     1.0  0.64423  0.56135  0.49522  1.0000
  C   C1676     1.0  0.65982  0.56661  0.48735  1.0000
  C   C1677     1.0  0.73525  0.60411  0.31472  1.0000
  C   C1678     1.0  0.69419  0.58448  0.50633  1.0000
  H   H1338     1.0  0.92293  0.51167  0.34492  1.0000
  H   H1339     1.0  0.69196  0.60965  0.03870  1.0000
  C   C1679     1.0  0.54211  0.61810  0.07821  1.0000
  H   H1340     1.0  0.75153  0.55933  0.12921  1.0000
  C   C1680     1.0  0.66572  0.56260  0.44846  1.0000
  C   C1681     1.0  0.81976  0.63162  0.51130  1.0000
  H   H1341     1.0  0.70909  0.67754  0.07338  1.0000
  H   H1342     1.0  0.74644  0.58133  0.07673  1.0000
  C   C1682     1.0  0.59281  0.64447  0.50202  1.0000
  H   H1343     1.0  0.73717  0.60768  0.28181  1.0000
  C   C1683     1.0  0.69941  0.67073  0.04730  1.0000
  C   C1684     1.0  0.68586  0.56949  0.43847  1.0000
  H   H1344     1.0  0.80296  0.60943  0.40879  1.0000
  C   C1685     1.0  0.74664  0.60942  0.52474  1.0000
  Fe  Fe112     1.0  0.95998  0.55298  0.04055  1.0000
  H   H1345     1.0  0.65468  0.55431  0.42583  1.0000
  Fe  Fe113     1.0  0.49400  0.53803  0.51252  1.0000
  H   H1346     1.0  0.96176  0.52957  0.20192  1.0000
  C   C1686     1.0  0.63631  0.63059  0.50097  1.0000
  S   S221      1.0  0.70751  0.65935  0.50867  1.0000
  H   H1347     1.0  0.82230  0.58709  0.50512  1.0000
  S   S222      1.0  0.46955  0.51780  0.46966  1.0000
  C   C1687     1.0  0.48802  0.60178  0.06232  1.0000
  C   C1688     1.0  0.49334  0.63473  0.08127  1.0000
  C   C1689     1.0  0.82523  0.61682  0.49591  1.0000
  C   C1690     1.0  0.70750  0.61148  0.03899  1.0000
  H   H1348     1.0  0.95560  0.65187  0.24930  1.0000
  H   H1349     1.0  0.91830  0.49334  0.48621  1.0000
  H   H1350     1.0  0.78053  0.56623  0.48942  1.0000
  C   C1691     1.0  0.93222  0.72411  0.05611  1.0000
  C   C1692     1.0  0.82163  0.66869  0.05764  1.0000
  C   C1693     1.0  0.54300  0.62068  0.03495  1.0000
  C   C1694     1.0  0.73153  0.53775  0.48422  1.0000
  H   H1351     1.0  0.48004  0.60473  0.16554  1.0000
  H   H1352     1.0  0.72168  0.52286  0.48812  1.0000
  H   H1353     1.0  0.48298  0.50763  0.07820  1.0000
  C   C1695     1.0  0.93595  0.49790  0.03422  1.0000
  P   P56       1.0  0.93010  0.49116  0.20187  1.0000
  C   C1696     1.0  0.57884  0.63453  0.03954  1.0000
  C   C1697     1.0  0.68229  0.67466  0.03950  1.0000
  C   C1698     1.0  0.95396  0.66336  0.06787  1.0000
  H   H1354     1.0  0.82491  0.64568  0.49653  1.0000
  H   H1355     1.0  0.75801  0.53214  0.49826  1.0000
  H   H1356     1.0  0.83705  0.67445  0.04838  1.0000
  H   H1357     1.0  0.96232  0.70027  0.13496  1.0000
  C   C1699     1.0  0.96401  0.52161  0.17578  1.0000
  H   H1358     1.0  0.46533  0.68012  0.17440  1.0000
  Fe  Fe114     1.0  0.96469  0.57282  0.12581  1.0000
  H   H1359     1.0  0.70487  0.59297  0.52926  1.0000
  H   H1360     1.0  0.63297  0.62207  0.52935  1.0000
  C   C1700     1.0  0.59173  0.57195  0.57472  1.0000
  H   H1361     1.0  0.92743  0.68505  0.97384  1.0000
  S   S223      1.0  0.53670  0.57442  0.58000  1.0000
  H   H1362     1.0  0.50722  0.69451  0.81628  1.0000
  Fe  Fe115     1.0  0.50599  0.55564  0.59935  1.0000
  S   S224      1.0  0.49325  0.55436  0.66404  1.0000
  H   H1363     1.0  0.87035  0.59808  0.56111  1.0000
  S   S225      1.0  0.50661  0.52884  0.56952  1.0000
  C   C1701     1.0  0.47226  0.65238  0.84918  1.0000
  Fe  Fe116     1.0  0.53145  0.55756  0.89529  1.0000
  S   S226      1.0  0.49935  0.54975  0.91090  1.0000
  S   S227      1.0  0.54377  0.55824  0.83025  1.0000
  Fe  Fe117     1.0  0.54585  0.56810  0.98693  1.0000
  C   C1702     1.0  0.66415  0.72636  0.96071  1.0000
  C   C1703     1.0  0.55835  0.52593  0.66902  1.0000
  Fe  Fe118     1.0  0.50587  0.53486  0.96742  1.0000
  C   C1704     1.0  0.47492  0.57869  0.83836  1.0000
  Fe  Fe119     1.0  0.51073  0.57648  0.95040  1.0000
  S   S228      1.0  0.49520  0.59759  0.94974  1.0000
  S   S229      1.0  0.53771  0.54090  0.94912  1.0000
  S   S230      1.0  0.54216  0.58510  0.93122  1.0000
  Fe  Fe120     1.0  0.60829  0.70089  0.85949  1.0000
  S   S231      1.0  0.58364  0.70726  0.82747  1.0000
  S   S232      1.0  0.61812  0.67715  0.83658  1.0000
  Fe  Fe121     1.0  0.56908  0.70182  0.88969  1.0000
  S   S233      1.0  0.53606  0.68525  0.89482  1.0000
  S   S234      1.0  0.59247  0.69339  0.92064  1.0000
  Fe  Fe122     1.0  0.66869  0.61525  0.62470  1.0000
  S   S235      1.0  0.66644  0.64216  0.59721  1.0000
  S   S236      1.0  0.64740  0.58420  0.62448  1.0000
  Fe  Fe123     1.0  0.71160  0.63566  0.65515  1.0000
  S   S237      1.0  0.71284  0.66417  0.62990  1.0000
  S   S238      1.0  0.73446  0.62893  0.69507  1.0000
  Fe  Fe124     1.0  0.68222  0.65656  0.65619  1.0000
  S   S239      1.0  0.67666  0.68112  0.68833  1.0000
  Fe  Fe125     1.0  0.69702  0.64761  0.57318  1.0000
  S   S240      1.0  0.68207  0.62917  0.68551  1.0000
  S   S241      1.0  0.69822  0.61972  0.59653  1.0000
  Fe  Fe126     1.0  0.88487  0.66983  0.74325  1.0000
  S   S242      1.0  0.88826  0.64596  0.78160  1.0000
  S   S243      1.0  0.90213  0.70182  0.74330  1.0000
  Fe  Fe127     1.0  0.84608  0.64382  0.70196  1.0000
  S   S244      1.0  0.84612  0.61756  0.73664  1.0000
  S   S245      1.0  0.82459  0.64604  0.65165  1.0000
  Fe  Fe128     1.0  0.85561  0.63698  0.79287  1.0000
  S   S246      1.0  0.84151  0.62676  0.85572  1.0000
  Fe  Fe129     1.0  0.87875  0.62840  0.72265  1.0000
  S   S247      1.0  0.89554  0.60917  0.70605  1.0000
  S   S248      1.0  0.85288  0.66223  0.75911  1.0000
  S   S249      1.0  0.87808  0.65320  0.68353  1.0000
  C   C1705     1.0  0.92493  0.70118  0.56151  1.0000
  Fe  Fe130     1.0  0.60724  0.72474  0.93617  1.0000
  C   C1706     1.0  0.88093  0.60282  0.62481  1.0000
  C   C1707     1.0  0.89372  0.59987  0.65490  1.0000
  C   C1708     1.0  0.90557  0.58952  0.64403  1.0000
  C   C1709     1.0  0.90508  0.58262  0.60319  1.0000
  H   H1364     1.0  0.58163  0.57909  0.56740  1.0000
  H   H1365     1.0  0.87165  0.61067  0.63283  1.0000
  H   H1366     1.0  0.91532  0.58697  0.66711  1.0000
  H   H1367     1.0  0.91456  0.57501  0.59503  1.0000
  C   C1710     1.0  0.75944  0.63394  0.68195  1.0000
  C   C1711     1.0  0.77032  0.62516  0.70528  1.0000
  C   C1712     1.0  0.79031  0.62887  0.69640  1.0000
  C   C1713     1.0  0.79959  0.64138  0.66398  1.0000
  C   C1714     1.0  0.78875  0.65023  0.64061  1.0000
  C   C1715     1.0  0.76879  0.64668  0.64987  1.0000
  H   H1368     1.0  0.76315  0.61531  0.73012  1.0000
  H   H1369     1.0  0.79848  0.62188  0.71428  1.0000
  H   H1370     1.0  0.79588  0.66008  0.61570  1.0000
  H   H1371     1.0  0.76060  0.65377  0.63229  1.0000
  C   C1716     1.0  0.63459  0.67860  0.79556  1.0000
  C   C1717     1.0  0.63565  0.66150  0.78005  1.0000
  C   C1718     1.0  0.64857  0.66200  0.74745  1.0000
  C   C1719     1.0  0.66054  0.67962  0.73010  1.0000
  C   C1720     1.0  0.65964  0.69673  0.74593  1.0000
  H   H1372     1.0  0.62639  0.64779  0.79323  1.0000
  H   H1373     1.0  0.64930  0.64878  0.73587  1.0000
  C   C1721     1.0  0.50780  0.62191  0.93504  1.0000
  C   C1722     1.0  0.52807  0.62965  0.92558  1.0000
  C   C1723     1.0  0.53726  0.64925  0.91427  1.0000
  C   C1724     1.0  0.52604  0.66096  0.91134  1.0000
  C   C1725     1.0  0.50596  0.65320  0.92154  1.0000
  C   C1726     1.0  0.49688  0.63383  0.93305  1.0000
  H   H1374     1.0  0.53666  0.62063  0.92682  1.0000
  H   H1375     1.0  0.55290  0.65521  0.90734  1.0000
  H   H1376     1.0  0.49738  0.66230  0.92066  1.0000
  H   H1377     1.0  0.48126  0.62803  0.94028  1.0000
  P   P57       1.0  0.79195  0.67057  0.81851  1.0000
  C   C1727     1.0  0.86740  0.66149  0.97421  1.0000
  C   C1728     1.0  0.87480  0.66884  0.93495  1.0000
  C   C1729     1.0  0.86711  0.65828  0.89848  1.0000
  C   C1730     1.0  0.85195  0.64013  0.90104  1.0000
  C   C1731     1.0  0.84494  0.63246  0.94044  1.0000
  C   C1732     1.0  0.85258  0.64312  0.97693  1.0000
  H   H1378     1.0  0.88650  0.68283  0.93270  1.0000
  H   H1379     1.0  0.87277  0.66429  0.86839  1.0000
  H   H1380     1.0  0.83361  0.61820  0.94282  1.0000
  H   H1381     1.0  0.84687  0.63724  0.00703  1.0000
  C   C1733     1.0  0.62384  0.57288  0.60071  1.0000
  C   C1734     1.0  0.61117  0.58253  0.58979  1.0000
  H   H1382     1.0  0.48753  0.51076  0.73849  1.0000
  H   H1383     1.0  0.49302  0.49325  0.90074  1.0000
  C   C1735     1.0  0.59834  0.54264  0.57875  1.0000
  C   C1736     1.0  0.61728  0.55294  0.59512  1.0000
  C   C1737     1.0  0.82551  0.68747  0.71410  1.0000
  H   H1384     1.0  0.58778  0.66778  0.58863  1.0000
  H   H1385     1.0  0.92584  0.52115  0.74692  1.0000
  H   H1386     1.0  0.62692  0.54537  0.60362  1.0000
  C   C1738     1.0  0.50761  0.55503  0.70957  1.0000
  C   C1739     1.0  0.49846  0.55268  0.74845  1.0000
  C   C1740     1.0  0.50945  0.55418  0.78565  1.0000
  C   C1741     1.0  0.52973  0.55767  0.78426  1.0000
  C   C1742     1.0  0.53886  0.55963  0.74531  1.0000
  C   C1743     1.0  0.52788  0.55839  0.70807  1.0000
  H   H1387     1.0  0.50219  0.55238  0.81534  1.0000
  H   H1388     1.0  0.55449  0.56205  0.74394  1.0000
  H   H1389     1.0  0.53510  0.56010  0.67831  1.0000
  C   C1744     1.0  0.84313  0.70937  0.76899  1.0000
  H   H1390     1.0  0.47669  0.68223  0.85821  1.0000
  C   C1745     1.0  0.53932  0.51311  0.67906  1.0000
  C   C1746     1.0  0.92667  0.71391  0.76132  1.0000
  C   C1747     1.0  0.93930  0.70443  0.77361  1.0000
  C   C1748     1.0  0.95028  0.51644  0.66106  1.0000
  C   C1749     1.0  0.76091  0.61231  0.82250  1.0000
  C   C1750     1.0  0.90935  0.71835  0.86607  1.0000
  H   H1391     1.0  0.93414  0.68892  0.77177  1.0000
  C   C1751     1.0  0.48966  0.64271  0.66594  1.0000
  H   H1392     1.0  0.90226  0.59462  0.79771  1.0000
  H   H1393     1.0  0.72919  0.69431  0.76540  1.0000
  H   H1394     1.0  0.87026  0.61402  0.99700  1.0000
  C   C1752     1.0  0.50762  0.50830  0.84586  1.0000
  C   C1753     1.0  0.80008  0.67571  0.87204  1.0000
  P   P58       1.0  0.64674  0.66997  0.99782  1.0000
  C   C1754     1.0  0.91226  0.58729  0.80540  1.0000
  H   H1395     1.0  0.58181  0.52669  0.76193  1.0000
  C   C1755     1.0  0.55098  0.50987  0.74887  1.0000
  H   H1396     1.0  0.64440  0.69103  0.55399  1.0000
  C   C1756     1.0  0.93571  0.72938  0.01418  1.0000
  C   C1757     1.0  0.47831  0.59374  0.75746  1.0000
  C   C1758     1.0  0.56399  0.64959  0.82408  1.0000
  C   C1759     1.0  0.58539  0.55199  0.56889  1.0000
  H   H1397     1.0  0.58749  0.61046  0.57634  1.0000
  H   H1398     1.0  0.48273  0.54950  0.74971  1.0000
  S   S250      1.0  0.56183  0.53802  0.54790  1.0000
  H   H1399     1.0  0.58326  0.67727  0.75961  1.0000
  C   C1760     1.0  0.91697  0.70395  0.63345  1.0000
  C   C1761     1.0  0.49306  0.49061  0.69732  1.0000
  C   C1762     1.0  0.58919  0.62426  0.56304  1.0000
  H   H1400     1.0  0.71701  0.70669  0.56067  1.0000
  C   C1763     1.0  0.91639  0.60893  0.95904  1.0000
  H   H1401     1.0  0.69505  0.63966  0.96779  1.0000
  H   H1402     1.0  0.94354  0.67051  0.56857  1.0000
  S   S251      1.0  0.87641  0.67627  0.01838  1.0000
  C   C1764     1.0  0.86019  0.59270  0.82068  1.0000
  H   H1403     1.0  0.95727  0.52424  0.63330  1.0000
  C   C1765     1.0  0.78785  0.67919  0.90168  1.0000
  H   H1404     1.0  0.91911  0.64058  0.61192  1.0000
  H   H1405     1.0  0.92212  0.67198  0.65870  1.0000
  C   C1766     1.0  0.93003  0.64373  0.95294  1.0000
  C   C1767     1.0  0.48898  0.68281  0.01266  1.0000
  H   H1406     1.0  0.79289  0.60868  0.59501  1.0000
  H   H1407     1.0  0.86751  0.59934  0.79224  1.0000
  C   C1768     1.0  0.54661  0.61339  0.68265  1.0000
  C   C1769     1.0  0.46977  0.50631  0.68274  1.0000
  C   C1770     1.0  0.57370  0.53064  0.69867  1.0000
  H   H1408     1.0  0.90043  0.49570  0.84262  1.0000
  H   H1409     1.0  0.79768  0.66552  0.73076  1.0000
  C   C1771     1.0  0.95870  0.71517  0.78851  1.0000
  H   H1410     1.0  0.95488  0.58750  0.62528  1.0000
  S   S252      1.0  0.51453  0.56112  0.00867  1.0000
  C   C1772     1.0  0.56914  0.63353  0.81923  1.0000
  H   H1411     1.0  0.77315  0.67862  0.89319  1.0000
  C   C1773     1.0  0.53050  0.63130  0.79895  1.0000
  C   C1774     1.0  0.78098  0.61296  0.99164  1.0000
  C   C1775     1.0  0.78224  0.59497  0.98428  1.0000
  C   C1776     1.0  0.78898  0.59120  0.94606  1.0000
  C   C1777     1.0  0.79440  0.60530  0.91491  1.0000
  C   C1778     1.0  0.79295  0.62312  0.92177  1.0000
  C   C1779     1.0  0.78616  0.62694  0.95987  1.0000
  H   H1412     1.0  0.91851  0.59587  0.96815  1.0000
  C   C1780     1.0  0.95872  0.62689  0.60370  1.0000
  H   H1413     1.0  0.83120  0.58080  0.79176  1.0000
  H   H1414     1.0  0.56212  0.63067  0.98216  1.0000
  H   H1415     1.0  0.89141  0.56575  0.00180  1.0000
  H   H1416     1.0  0.66257  0.69988  0.62104  1.0000
  S   S253      1.0  0.49135  0.56389  0.54374  1.0000
  C   C1781     1.0  0.51200  0.50670  0.80419  1.0000
  H   H1417     1.0  0.74509  0.61633  0.97287  1.0000
  C   C1782     1.0  0.54479  0.64853  0.81404  1.0000
  H   H1418     1.0  0.79028  0.57745  0.94078  1.0000
  H   H1419     1.0  0.80021  0.60261  0.88578  1.0000
  H   H1420     1.0  0.79750  0.63408  0.89774  1.0000
  H   H1421     1.0  0.78528  0.64089  0.96479  1.0000
  H   H1422     1.0  0.91624  0.68556  0.88347  1.0000
  C   C1783     1.0  0.56996  0.52279  0.73873  1.0000
  C   C1784     1.0  0.89853  0.53561  0.93101  1.0000
  H   H1423     1.0  0.47503  0.63005  0.72259  1.0000
  H   H1424     1.0  0.80424  0.64019  0.55908  1.0000
  H   H1425     1.0  0.53956  0.65995  0.65163  1.0000
  C   C1785     1.0  0.53547  0.50493  0.71911  1.0000
  C   C1786     1.0  0.93596  0.58152  0.85248  1.0000
  C   C1787     1.0  0.86190  0.58599  0.89454  1.0000
  H   H1426     1.0  0.80575  0.61161  0.79556  1.0000
  H   H1427     1.0  0.85388  0.71051  0.70649  1.0000
  H   H1428     1.0  0.94331  0.61283  0.76170  1.0000
  P   P59       1.0  0.58226  0.63421  0.64278  1.0000
  C   C1788     1.0  0.59307  0.61754  0.66235  1.0000
  C   C1789     1.0  0.59246  0.65606  0.67304  1.0000
  C   C1790     1.0  0.61040  0.67068  0.66154  1.0000
  C   C1791     1.0  0.61799  0.68778  0.68431  1.0000
  C   C1792     1.0  0.77098  0.69527  0.81725  1.0000
  C   C1793     1.0  0.61297  0.62420  0.67600  1.0000
  C   C1794     1.0  0.62133  0.61118  0.69053  1.0000
  C   C1795     1.0  0.60991  0.59148  0.69176  1.0000
  C   C1796     1.0  0.59013  0.58476  0.67809  1.0000
  C   C1797     1.0  0.58182  0.59766  0.66293  1.0000
  C   C1798     1.0  0.55549  0.62342  0.64648  1.0000
  C   C1799     1.0  0.54335  0.62371  0.61207  1.0000
  C   C1800     1.0  0.52281  0.61387  0.61354  1.0000
  C   C1801     1.0  0.55492  0.61617  0.80529  1.0000
  C   C1802     1.0  0.89575  0.62580  0.93331  1.0000
  C   C1803     1.0  0.93578  0.67400  0.67542  1.0000
  H   H1429     1.0  0.61604  0.59790  0.59459  1.0000
  H   H1430     1.0  0.63202  0.69884  0.67588  1.0000
  H   H1431     1.0  0.62216  0.63938  0.67514  1.0000
  H   H1432     1.0  0.63678  0.61629  0.70032  1.0000
  H   H1433     1.0  0.61659  0.58141  0.70213  1.0000
  H   H1434     1.0  0.58134  0.56951  0.67801  1.0000
  H   H1435     1.0  0.56669  0.59196  0.65116  1.0000
  Fe  Fe131     1.0  0.53641  0.54842  0.54598  1.0000
  C   C1804     1.0  0.65835  0.70968  0.98523  1.0000
  C   C1805     1.0  0.66259  0.70739  0.89926  1.0000
  H   H1436     1.0  0.66379  0.70640  0.86584  1.0000
  H   H1437     1.0  0.75492  0.71444  0.81533  1.0000
  C   C1806     1.0  0.58843  0.63906  0.58850  1.0000
  C   C1807     1.0  0.91350  0.72070  0.90896  1.0000
  H   H1438     1.0  0.77126  0.58941  0.81017  1.0000
  C   C1808     1.0  0.48938  0.60536  0.79016  1.0000
  H   H1439     1.0  0.81464  0.64666  0.79845  1.0000
  H   H1440     1.0  0.76202  0.65640  0.55373  1.0000
  C   C1809     1.0  0.80154  0.61075  0.56689  1.0000
  C   C1810     1.0  0.75558  0.70109  0.80405  1.0000
  H   H1441     1.0  0.59360  0.52725  0.57429  1.0000
  C   C1811     1.0  0.79454  0.61732  0.80328  1.0000
  H   H1442     1.0  0.94241  0.65735  0.95651  1.0000
  C   C1812     1.0  0.94923  0.49759  0.66741  1.0000
  H   H1443     1.0  0.50822  0.65625  0.61402  1.0000
  C   C1813     1.0  0.89065  0.71641  0.85023  1.0000
  C   C1814     1.0  0.49931  0.67914  0.81994  1.0000
  C   C1815     1.0  0.74112  0.68983  0.77583  1.0000
  C   C1816     1.0  0.77173  0.67786  0.80304  1.0000
  C   C1817     1.0  0.51415  0.60386  0.64950  1.0000
  C   C1818     1.0  0.64674  0.69625  0.77855  1.0000
  H   H1444     1.0  0.57491  0.66289  0.83598  1.0000
  H   H1445     1.0  0.47997  0.59886  0.72567  1.0000
  H   H1446     1.0  0.66893  0.71044  0.73281  1.0000
  H   H1447     1.0  0.52262  0.67893  0.99009  1.0000
  C   C1819     1.0  0.71759  0.61301  0.00161  1.0000
  C   C1820     1.0  0.70130  0.70405  0.55880  1.0000
  H   H1448     1.0  0.76073  0.62460  0.58012  1.0000
  H   H1449     1.0  0.65375  0.67696  0.90860  1.0000
  C   C1821     1.0  0.50669  0.66630  0.80189  1.0000
  H   H1450     1.0  0.83930  0.67884  0.93586  1.0000
  C   C1822     1.0  0.53263  0.67569  0.01135  1.0000
  H   H1451     1.0  0.90946  0.65657  0.93123  1.0000
  C   C1823     1.0  0.95295  0.50507  0.00980  1.0000
  H   H1452     1.0  0.64614  0.70949  0.79043  1.0000
  C   C1824     1.0  0.62781  0.65046  0.97107  1.0000
  C   C1825     1.0  0.93443  0.71544  0.98405  1.0000
  C   C1826     1.0  0.60790  0.69032  0.71899  1.0000
  C   C1827     1.0  0.65675  0.69068  0.92364  1.0000
  H   H1453     1.0  0.69882  0.70781  0.62453  1.0000
  H   H1454     1.0  0.55873  0.60351  0.80254  1.0000
  C   C1828     1.0  0.92850  0.56581  0.78520  1.0000
  H   H1455     1.0  0.47182  0.62427  0.83665  1.0000
  H   H1456     1.0  0.75471  0.63777  0.83296  1.0000
  H   H1457     1.0  0.94384  0.58430  0.88215  1.0000
  C   C1829     1.0  0.91509  0.57480  0.77645  1.0000
  P   P60       1.0  0.95487  0.70450  0.62062  1.0000
  H   H1458     1.0  0.77828  0.58388  0.00806  1.0000
  H   H1459     1.0  0.95562  0.49112  0.64464  1.0000
  P   P61       1.0  0.51147  0.48679  0.73093  1.0000
  H   H1460     1.0  0.52503  0.60142  0.78434  1.0000
  C   C1830     1.0  0.47750  0.68631  0.98051  1.0000
  C   C1831     1.0  0.95474  0.61896  0.56366  1.0000
  H   H1461     1.0  0.94251  0.53951  0.68443  1.0000
  H   H1462     1.0  0.66945  0.58077  0.54632  1.0000
  H   H1463     1.0  0.89230  0.53593  0.86527  1.0000
  P   P62       1.0  0.95724  0.55830  0.83342  1.0000
  C   C1832     1.0  0.95258  0.66370  0.73092  1.0000
  H   H1464     1.0  0.54127  0.66117  0.81870  1.0000
  C   C1833     1.0  0.87596  0.71699  0.87707  1.0000
  C   C1834     1.0  0.59052  0.67556  0.73160  1.0000
  C   C1835     1.0  0.50520  0.48870  0.78458  1.0000
  H   H1465     1.0  0.92060  0.60044  0.86582  1.0000
  C   C1836     1.0  0.81847  0.67511  0.88489  1.0000
  H   H1466     1.0  0.82774  0.67145  0.86306  1.0000
  C   C1837     1.0  0.82794  0.69965  0.79666  1.0000
  H   H1467     1.0  0.58413  0.63453  0.82661  1.0000
  H   H1468     1.0  0.92799  0.66267  0.84890  1.0000
  H   H1469     1.0  0.61840  0.68792  0.01754  1.0000
  C   C1838     1.0  0.81323  0.68367  0.95492  1.0000
  C   C1839     1.0  0.86128  0.59962  0.00701  1.0000
  H   H1470     1.0  0.52779  0.50960  0.65526  1.0000
  C   C1840     1.0  0.52603  0.60371  0.68407  1.0000
  H   H1471     1.0  0.87741  0.69903  0.56995  1.0000
  H   H1472     1.0  0.51370  0.61360  0.58624  1.0000
  H   H1473     1.0  0.95203  0.65453  0.75750  1.0000
  H   H1474     1.0  0.51328  0.52225  0.86084  1.0000
  C   C1841     1.0  0.89785  0.70235  0.62133  1.0000
  C   C1842     1.0  0.94185  0.52495  0.68970  1.0000
  H   H1475     1.0  0.49683  0.60603  0.85580  1.0000
  C   C1843     1.0  0.67057  0.70016  0.59271  1.0000
  C   C1844     1.0  0.75522  0.62587  0.54915  1.0000
  C   C1845     1.0  0.53572  0.61506  0.79512  1.0000
  H   H1476     1.0  0.51980  0.67203  0.78295  1.0000
  H   H1477     1.0  0.92131  0.70606  0.66602  1.0000
  H   H1478     1.0  0.91659  0.52960  0.82079  1.0000
  H   H1479     1.0  0.58106  0.68050  0.01646  1.0000
  C   C1846     1.0  0.80669  0.59586  0.55154  1.0000
  H   H1480     1.0  0.59304  0.64063  0.02445  1.0000
  H   H1481     1.0  0.55722  0.68767  0.97003  1.0000
  H   H1482     1.0  0.82877  0.70503  0.82800  1.0000
  H   H1483     1.0  0.80185  0.58212  0.56767  1.0000
  C   C1847     1.0  0.82505  0.67920  0.92615  1.0000
  H   H1484     1.0  0.92051  0.71769  0.84494  1.0000
  H   H1485     1.0  0.86142  0.71525  0.86486  1.0000
  H   H1486     1.0  0.81442  0.56578  0.85689  1.0000
  H   H1487     1.0  0.81851  0.68724  0.98662  1.0000
  C   C1848     1.0  0.92269  0.59066  0.84340  1.0000
  C   C1849     1.0  0.92533  0.62680  0.55833  1.0000
  C   C1850     1.0  0.93858  0.67523  0.86424  1.0000
  C   C1851     1.0  0.93912  0.56916  0.82324  1.0000
  H   H1488     1.0  0.61394  0.70340  0.73720  1.0000
  H   H1489     1.0  0.95440  0.49800  0.90332  1.0000
  H   H1490     1.0  0.49828  0.59581  0.65024  1.0000
  S   S254      1.0  0.94746  0.52017  0.54246  1.0000
  C   C1852     1.0  0.84200  0.70316  0.72781  1.0000
  H   H1491     1.0  0.93076  0.55643  0.76206  1.0000
  C   C1853     1.0  0.89873  0.72163  0.93566  1.0000
  H   H1492     1.0  0.91203  0.62600  0.54137  1.0000
  H   H1493     1.0  0.90285  0.53858  0.99756  1.0000
  H   H1494     1.0  0.53876  0.64835  0.72377  1.0000
  C   C1854     1.0  0.48213  0.67220  0.84365  1.0000
  H   H1495     1.0  0.47599  0.64139  0.64976  1.0000
  C   C1855     1.0  0.84979  0.56492  0.00045  1.0000
  C   C1856     1.0  0.77519  0.60485  0.81184  1.0000
  C   C1857     1.0  0.66628  0.72523  0.91778  1.0000
  C   C1858     1.0  0.58951  0.65654  0.57008  1.0000
  H   H1496     1.0  0.54960  0.63095  0.58339  1.0000
  H   H1497     1.0  0.83379  0.56852  0.92193  1.0000
  C   C1859     1.0  0.92641  0.49471  0.87421  1.0000
  C   C1860     1.0  0.87118  0.59485  0.85773  1.0000
  C   C1861     1.0  0.92933  0.69620  0.99647  1.0000
  H   H1498     1.0  0.86858  0.71992  0.94066  1.0000
  H   H1499     1.0  0.88747  0.70287  0.64474  1.0000
  C   C1862     1.0  0.93238  0.62651  0.96331  1.0000
  H   H1500     1.0  0.61873  0.66877  0.63545  1.0000
  C   C1863     1.0  0.66037  0.69525  0.55463  1.0000
  C   C1864     1.0  0.83029  0.57374  0.85711  1.0000
  H   H1501     1.0  0.90712  0.57246  0.74680  1.0000
  P   P63       1.0  0.93728  0.72175  0.92941  1.0000
  H   H1502     1.0  0.96398  0.66809  0.84988  1.0000
  H   H1503     1.0  0.94946  0.64234  0.65029  1.0000
  H   H1504     1.0  0.88045  0.56257  0.86933  1.0000
  C   C1865     1.0  0.74221  0.67288  0.76039  1.0000
  C   C1866     1.0  0.93246  0.51460  0.72486  1.0000
  C   C1867     1.0  0.91583  0.50370  0.85098  1.0000
  C   C1868     1.0  0.61473  0.65427  0.94282  1.0000
  C   C1869     1.0  0.75754  0.66703  0.77358  1.0000
  H   H1505     1.0  0.56118  0.53212  0.63802  1.0000
  H   H1506     1.0  0.94655  0.62678  0.97526  1.0000
  H   H1507     1.0  0.58850  0.54038  0.69052  1.0000
  C   C1870     1.0  0.50781  0.65119  0.64588  1.0000
  C   C1871     1.0  0.91163  0.64334  0.93830  1.0000
  C   C1872     1.0  0.65429  0.69166  0.96674  1.0000
  C   C1873     1.0  0.88484  0.56604  0.93628  1.0000
  C   C1874     1.0  0.75595  0.64373  0.53428  1.0000
  C   C1875     1.0  0.47978  0.63949  0.83168  1.0000
  C   C1876     1.0  0.84133  0.57550  0.89405  1.0000
  C   C1877     1.0  0.78518  0.64487  0.81440  1.0000
  C   C1878     1.0  0.89793  0.60845  0.94386  1.0000
  H   H1508     1.0  0.78521  0.68640  0.96559  1.0000
  C   C1879     1.0  0.48792  0.59751  0.83043  1.0000
  C   C1880     1.0  0.48370  0.50308  0.70928  1.0000
  H   H1509     1.0  0.47390  0.57289  0.86973  1.0000
  H   H1510     1.0  0.54847  0.50366  0.77986  1.0000
  C   C1881     1.0  0.60975  0.61618  0.96120  1.0000
  C   C1882     1.0  0.80798  0.62857  0.54662  1.0000
  H   H1511     1.0  0.90386  0.52388  0.92924  1.0000
  C   C1883     1.0  0.52546  0.65324  0.66701  1.0000
  C   C1884     1.0  0.94564  0.70497  0.90277  1.0000
  H   H1512     1.0  0.66471  0.64633  0.95408  1.0000
  S   S255      1.0  0.94412  0.57110  0.01204  1.0000
  S   S256      1.0  0.48713  0.50373  0.98656  1.0000
  C   C1885     1.0  0.49726  0.64635  0.80828  1.0000
  H   H1513     1.0  0.51926  0.59553  0.71145  1.0000
  H   H1514     1.0  0.74587  0.60266  0.82899  1.0000
  C   C1886     1.0  0.58290  0.65843  0.70898  1.0000
  H   H1515     1.0  0.70981  0.61227  0.97219  1.0000
  H   H1516     1.0  0.96105  0.55804  0.60867  1.0000
  H   H1517     1.0  0.60747  0.60137  0.96900  1.0000
  C   C1887     1.0  0.79954  0.63725  0.80465  1.0000
  C   C1888     1.0  0.50677  0.63743  0.72786  1.0000
  C   C1889     1.0  0.88532  0.55760  0.89762  1.0000
  C   C1890     1.0  0.89212  0.54244  0.89509  1.0000
  H   H1518     1.0  0.73126  0.66429  0.73779  1.0000
  C   C1891     1.0  0.88017  0.59560  0.58417  1.0000
  H   H1519     1.0  0.49756  0.62565  0.01971  1.0000
  C   C1892     1.0  0.95975  0.49191  0.99057  1.0000
  C   C1893     1.0  0.89803  0.54390  0.96950  1.0000
  C   C1894     1.0  0.73763  0.61527  0.00216  1.0000
  H   H1520     1.0  0.61624  0.66891  0.93564  1.0000
  C   C1895     1.0  0.81183  0.68323  0.78361  1.0000
  H   H1521     1.0  0.55562  0.61247  0.70924  1.0000
  H   H1522     1.0  0.56986  0.64699  0.72021  1.0000
  C   C1896     1.0  0.92928  0.63488  0.59808  1.0000
  C   C1897     1.0  0.76592  0.63225  0.82425  1.0000
  H   H1523     1.0  0.58942  0.64225  0.90191  1.0000
  C   C1898     1.0  0.89223  0.70018  0.57928  1.0000
  C   C1899     1.0  0.93040  0.70268  0.60387  1.0000
  C   C1900     1.0  0.59942  0.63913  0.92362  1.0000
  C   C1901     1.0  0.94498  0.53347  0.84991  1.0000
  H   H1524     1.0  0.75838  0.65413  0.76024  1.0000
  P   P64       1.0  0.87673  0.58607  0.94032  1.0000
  H   H1525     1.0  0.88754  0.71426  0.81711  1.0000
  C   C1902     1.0  0.89244  0.58571  0.57296  1.0000
  H   H1526     1.0  0.88694  0.60317  0.85748  1.0000
  C   C1903     1.0  0.48915  0.63611  0.70699  1.0000
  H   H1527     1.0  0.89463  0.65547  0.55395  1.0000
  C   C1904     1.0  0.95381  0.68846  0.66383  1.0000
  H   H1528     1.0  0.88159  0.62580  0.92215  1.0000
  C   C1905     1.0  0.52495  0.64644  0.70785  1.0000
  C   C1906     1.0  0.93518  0.66179  0.70904  1.0000
  H   H1529     1.0  0.58510  0.60831  0.91782  1.0000
  H   H1530     1.0  0.92384  0.48792  0.75845  1.0000
  C   C1907     1.0  0.79453  0.68338  0.94289  1.0000
  C   C1908     1.0  0.59699  0.62008  0.93259  1.0000
  C   C1909     1.0  0.94623  0.63543  0.62022  1.0000
  C   C1910     1.0  0.69103  0.70458  0.59477  1.0000
  C   C1911     1.0  0.83975  0.58217  0.82037  1.0000
  H   H1531     1.0  0.52092  0.51951  0.78740  1.0000
  C   C1912     1.0  0.89139  0.55917  0.97201  1.0000
  C   C1913     1.0  0.81045  0.67757  0.74185  1.0000
  H   H1532     1.0  0.82449  0.68280  0.68202  1.0000
  H   H1533     1.0  0.78237  0.70443  0.83815  1.0000
  C   C1914     1.0  0.93956  0.48694  0.70224  1.0000
  H   H1534     1.0  0.84985  0.55214  0.98504  1.0000
  C   C1915     1.0  0.93199  0.68842  0.88353  1.0000
  C   C1916     1.0  0.86162  0.58336  0.98597  1.0000
  P   P65       1.0  0.50611  0.62996  0.78165  1.0000
  C   C1917     1.0  0.62498  0.63129  0.98077  1.0000
  H   H1535     1.0  0.92120  0.65081  0.71805  1.0000
  C   C1918     1.0  0.95780  0.61958  0.74816  1.0000
  H   H1536     1.0  0.96448  0.61277  0.54984  1.0000
  C   C1919     1.0  0.93129  0.49566  0.73118  1.0000
  C   C1920     1.0  0.95852  0.67955  0.56069  1.0000
  H   H1537     1.0  0.71719  0.65492  0.02798  1.0000
  C   C1921     1.0  0.94624  0.50495  0.88503  1.0000
  C   C1922     1.0  0.55231  0.68050  0.99946  1.0000
  C   C1923     1.0  0.95554  0.52418  0.87280  1.0000
  H   H1538     1.0  0.94702  0.61087  0.68622  1.0000
  C   C1924     1.0  0.92506  0.52299  0.83882  1.0000
  C   C1925     1.0  0.95876  0.67824  0.86474  1.0000
  H   H1539     1.0  0.90125  0.72317  0.96894  1.0000
  H   H1540     1.0  0.85581  0.72173  0.77931  1.0000
  H   H1541     1.0  0.52951  0.61613  0.01619  1.0000
  C   C1926     1.0  0.95993  0.61874  0.70518  1.0000
  H   H1542     1.0  0.74543  0.59563  0.53775  1.0000
  C   C1927     1.0  0.88003  0.71969  0.91972  1.0000
  C   C1928     1.0  0.56137  0.62886  0.01565  1.0000
  C   C1929     1.0  0.90585  0.69987  0.54932  1.0000
  C   C1930     1.0  0.93803  0.61878  0.54124  1.0000
  H   H1543     1.0  0.64472  0.65734  0.53312  1.0000
  H   H1544     1.0  0.63430  0.62798  0.00385  1.0000
  C   C1931     1.0  0.56578  0.67647  0.02573  1.0000
  H   H1545     1.0  0.46625  0.63390  0.01793  1.0000
  C   C1932     1.0  0.70393  0.65797  0.02174  1.0000
  C   C1933     1.0  0.67414  0.65302  0.98054  1.0000
  H   H1546     1.0  0.57981  0.72047  0.01196  1.0000
  H   H1547     1.0  0.93542  0.70135  0.53785  1.0000
  C   C1934     1.0  0.49626  0.49195  0.86831  1.0000
  C   C1935     1.0  0.95104  0.48507  0.55328  1.0000
  H   H1548     1.0  0.95961  0.55450  0.92497  1.0000
  H   H1549     1.0  0.46829  0.51794  0.83450  1.0000
  C   C1936     1.0  0.46514  0.57496  0.76555  1.0000
  H   H1550     1.0  0.81498  0.64247  0.02388  1.0000
  S   S257      1.0  0.62514  0.73184  0.87714  1.0000
  C   C1937     1.0  0.94116  0.49538  0.53152  1.0000
  C   C1938     1.0  0.69142  0.64929  0.98808  1.0000
  C   C1939     1.0  0.46965  0.64859  0.00788  1.0000
  S   S258      1.0  0.58250  0.73287  0.90970  1.0000
  S   S259      1.0  0.94270  0.56876  0.53225  1.0000
  C   C1940     1.0  0.66916  0.66531  0.00694  1.0000
  H   H1551     1.0  0.65676  0.71095  0.01841  1.0000
  H   H1552     1.0  0.96312  0.49262  0.57438  1.0000
  C   C1941     1.0  0.47472  0.48510  0.63156  1.0000
  H   H1553     1.0  0.86028  0.63601  0.53359  1.0000
  H   H1554     1.0  0.48072  0.70092  0.96971  1.0000
  C   C1942     1.0  0.46527  0.49734  0.64391  1.0000
  S   S260      1.0  0.57338  0.58603  0.02539  1.0000
  H   H1555     1.0  0.50099  0.69482  0.02650  1.0000
  C   C1943     1.0  0.48540  0.66389  0.02605  1.0000
  Fe  Fe132     1.0  0.59156  0.89005  0.37356  1.0000
  S   S261      1.0  0.61458  0.91744  0.39862  1.0000
  S   S262      1.0  0.55892  0.88225  0.36184  1.0000
  Fe  Fe133     1.0  0.62012  0.86952  0.36253  1.0000
  S   S263      1.0  0.64555  0.89526  0.38687  1.0000
  S   S264      1.0  0.62685  0.84402  0.33898  1.0000
  Fe  Fe134     1.0  0.62460  0.89687  0.43585  1.0000
  H   H1556     1.0  0.64576  0.80844  0.39811  1.0000
  Fe  Fe135     1.0  0.63381  0.91382  0.34736  1.0000
  S   S265      1.0  0.65774  0.93685  0.30929  1.0000
  S   S266      1.0  0.60010  0.86978  0.41467  1.0000
  S   S267      1.0  0.60976  0.88780  0.31958  1.0000
  H   H1557     1.0  0.58646  0.82360  0.36948  1.0000
  P   P66       1.0  0.54029  0.90684  0.23965  1.0000
  S   S268      1.0  0.57034  0.75505  0.33889  1.0000
  S   S269      1.0  0.50911  0.92783  0.43525  1.0000
  C   C1944     1.0  0.53845  0.91411  0.09660  1.0000
  H   H1558     1.0  0.56129  0.79982  0.51097  1.0000
  C   C1945     1.0  0.57641  0.96256  0.26433  1.0000
  H   H1559     1.0  0.63292  0.73657  0.08706  1.0000
  S   S270      1.0  0.51783  0.96243  0.16351  1.0000
  H   H1560     1.0  0.52227  0.93237  0.10934  1.0000
  H   H1561     1.0  0.93278  0.73473  0.07923  1.0000
  C   C1946     1.0  0.56195  0.94621  0.24676  1.0000
  C   C1947     1.0  0.49938  0.89787  0.24097  1.0000
  H   H1562     1.0  0.55531  0.89058  0.16934  1.0000
  H   H1563     1.0  0.65783  0.97573  0.16069  1.0000
  C   C1948     1.0  0.60620  0.91467  0.08597  1.0000
  C   C1949     1.0  0.52312  0.96669  0.24830  1.0000
  C   C1950     1.0  0.64596  0.96853  0.05783  1.0000
  C   C1951     1.0  0.67219  0.96509  0.39661  1.0000
  H   H1564     1.0  0.51341  0.95168  0.24985  1.0000
  C   C1952     1.0  0.54512  0.85702  0.46633  1.0000
  H   H1565     1.0  0.55164  0.94811  0.22410  1.0000
  C   C1953     1.0  0.62745  0.95654  0.51039  1.0000
  C   C1954     1.0  0.65846  0.96755  0.42357  1.0000
  H   H1566     1.0  0.55124  0.84933  0.44568  1.0000
  C   C1955     1.0  0.54597  0.89580  0.38202  1.0000
  C   C1956     1.0  0.52536  0.88696  0.38504  1.0000
  C   C1957     1.0  0.51434  0.89693  0.40179  1.0000
  C   C1958     1.0  0.52375  0.91603  0.41457  1.0000
  C   C1959     1.0  0.54436  0.92513  0.41067  1.0000
  C   C1960     1.0  0.55556  0.91491  0.39499  1.0000
  H   H1567     1.0  0.51791  0.87222  0.37496  1.0000
  H   H1568     1.0  0.49842  0.88989  0.40424  1.0000
  H   H1569     1.0  0.55168  0.93990  0.42027  1.0000
  H   H1570     1.0  0.57149  0.92179  0.39267  1.0000
  C   C1961     1.0  0.65752  0.95738  0.28101  1.0000
  C   C1962     1.0  0.60572  0.93329  0.08533  1.0000
  H   H1571     1.0  0.52287  0.92801  0.18520  1.0000
  C   C1963     1.0  0.64171  0.96369  0.28293  1.0000
  C   C1964     1.0  0.54592  0.88717  0.49449  1.0000
  C   C1965     1.0  0.52996  0.92082  0.16570  1.0000
  H   H1572     1.0  0.63397  0.85638  0.43316  1.0000
  C   C1966     1.0  0.61030  0.81956  0.33713  1.0000
  C   C1967     1.0  0.61660  0.80594  0.31851  1.0000
  C   C1968     1.0  0.60445  0.78621  0.31831  1.0000
  C   C1969     1.0  0.58580  0.77987  0.33672  1.0000
  C   C1970     1.0  0.57934  0.79355  0.35476  1.0000
  C   C1971     1.0  0.59151  0.81329  0.35504  1.0000
  H   H1573     1.0  0.63106  0.81066  0.30441  1.0000
  H   H1574     1.0  0.60960  0.77589  0.30419  1.0000
  H   H1575     1.0  0.56487  0.78883  0.36879  1.0000
  C   C1972     1.0  0.57514  0.96895  0.15283  1.0000
  C   C1973     1.0  0.48259  0.90842  0.29438  1.0000
  H   H1576     1.0  0.59455  0.96405  0.44182  1.0000
  C   C1974     1.0  0.54350  0.88462  0.25339  1.0000
  C   C1975     1.0  0.56170  0.88263  0.24661  1.0000
  C   C1976     1.0  0.56420  0.86545  0.25684  1.0000
  C   C1977     1.0  0.54859  0.85014  0.27422  1.0000
  C   C1978     1.0  0.53042  0.85197  0.28114  1.0000
  C   C1979     1.0  0.52786  0.86912  0.27082  1.0000
  C   C1980     1.0  0.58756  0.79490  0.49380  1.0000
  H   H1577     1.0  0.65713  0.87043  0.49210  1.0000
  H   H1578     1.0  0.57398  0.89440  0.23359  1.0000
  H   H1579     1.0  0.57836  0.86409  0.25216  1.0000
  H   H1580     1.0  0.55072  0.83702  0.28314  1.0000
  H   H1581     1.0  0.51850  0.84025  0.29553  1.0000
  H   H1582     1.0  0.51380  0.87029  0.27736  1.0000
  H   H1583     1.0  0.65694  0.79579  0.33731  1.0000
  H   H1584     1.0  0.49865  0.89018  0.21222  1.0000
  S   S271      1.0  0.50830  0.97740  0.40423  1.0000
  H   H1585     1.0  0.61551  0.91079  0.10802  1.0000
  S   S272      1.0  0.55361  0.97871  0.42659  1.0000
  H   H1586     1.0  0.53813  0.91611  0.06312  1.0000
  C   C1981     1.0  0.54760  0.90226  0.11392  1.0000
  H   H1587     1.0  0.57757  0.94260  0.13357  1.0000
  H   H1588     1.0  0.57165  0.91190  0.30337  1.0000
  C   C1982     1.0  0.47148  0.88575  0.47998  1.0000
  P   P67       1.0  0.62019  0.95112  0.12283  1.0000
  H   H1589     1.0  0.62896  0.95561  0.30117  1.0000
  S   S273      1.0  0.52216  0.97424  0.50190  1.0000
  H   H1590     1.0  0.63443  0.90604  0.25342  1.0000
  C   C1983     1.0  0.64458  0.89591  0.06626  1.0000
  C   C1984     1.0  0.62555  0.93862  0.16681  1.0000
  C   C1985     1.0  0.52922  0.87733  0.51847  1.0000
  C   C1986     1.0  0.58799  0.94007  0.48350  1.0000
  H   H1591     1.0  0.52621  0.96984  0.31525  1.0000
  H   H1592     1.0  0.55905  0.96290  0.15314  1.0000
  H   H1593     1.0  0.59344  0.88160  0.50324  1.0000
  H   H1594     1.0  0.67676  0.94241  0.07488  1.0000
  C   C1987     1.0  0.64519  0.92150  0.19697  1.0000
  H   H1595     1.0  0.65267  0.93807  0.14099  1.0000
  H   H1596     1.0  0.59304  0.95202  0.05408  1.0000
  H   H1597     1.0  0.63928  0.88253  0.08380  1.0000
  C   C1988     1.0  0.59540  0.78388  0.46974  1.0000
  C   C1989     1.0  0.57307  0.92587  0.29140  1.0000
  H   H1598     1.0  0.53193  0.92368  0.31630  1.0000
  C   C1990     1.0  0.48193  0.89856  0.25730  1.0000
  C   C1991     1.0  0.51766  0.90715  0.26157  1.0000
  C   C1992     1.0  0.58569  0.95754  0.14141  1.0000
  C   C1993     1.0  0.64352  0.96664  0.10098  1.0000
  C   C1994     1.0  0.50068  0.91749  0.31527  1.0000
  H   H1599     1.0  0.64274  0.96256  0.52123  1.0000
  C   C1995     1.0  0.54815  0.89986  0.15712  1.0000
  H   H1600     1.0  0.65815  0.91762  0.19669  1.0000
  C   C1996     1.0  0.65584  0.84280  0.51562  1.0000
  C   C1997     1.0  0.60055  0.95731  0.46558  1.0000
  C   C1998     1.0  0.59438  0.90064  0.05825  1.0000
  C   C1999     1.0  0.52956  0.92330  0.12255  1.0000
  H   H1601     1.0  0.59466  0.88626  0.05918  1.0000
  C   C2000     1.0  0.65951  0.97688  0.12733  1.0000
  H   H1602     1.0  0.59718  0.80647  0.51324  1.0000
  C   C2001     1.0  0.51814  0.91676  0.29917  1.0000
  H   H1603     1.0  0.56707  0.88475  0.45105  1.0000
  C   C2002     1.0  0.64215  0.93329  0.16591  1.0000
  H   H1604     1.0  0.60568  0.91630  0.25747  1.0000
  C   C2003     1.0  0.65237  0.98320  0.41825  1.0000
  H   H1605     1.0  0.49273  0.87220  0.48336  1.0000
  C   C2004     1.0  0.53939  0.90922  0.18351  1.0000
  C   C2005     1.0  0.63169  0.91493  0.22915  1.0000
  C   C2006     1.0  0.56040  0.92770  0.25955  1.0000
  H   H1606     1.0  0.61544  0.75031  0.44247  1.0000
  C   C2007     1.0  0.67426  0.96825  0.25765  1.0000
  C   C2008     1.0  0.55404  0.87703  0.46919  1.0000
  C   C2009     1.0  0.58745  0.94222  0.30909  1.0000
  H   H1607     1.0  0.55418  0.89482  0.09387  1.0000
  H   H1608     1.0  0.59940  0.93631  0.20152  1.0000
  H   H1609     1.0  0.63372  0.96110  0.03725  1.0000
  C   C2010     1.0  0.55447  0.77633  0.46780  1.0000
  H   H1610     1.0  0.59702  0.94060  0.33392  1.0000
  C   C2011     1.0  0.63117  0.75332  0.38541  1.0000
  C   C2012     1.0  0.60651  0.96550  0.13978  1.0000
  C   C2013     1.0  0.61222  0.93229  0.19981  1.0000
  H   H1611     1.0  0.50120  0.92504  0.34418  1.0000
  C   C2014     1.0  0.59511  0.93108  0.51467  1.0000
  C   C2015     1.0  0.61547  0.92065  0.23116  1.0000
  Fe  Fe136     1.0  0.52233  0.95999  0.44099  1.0000
  C   C2016     1.0  0.52814  0.97575  0.20927  1.0000
  H   H1612     1.0  0.66451  0.91174  0.11506  1.0000
  H   H1613     1.0  0.67650  0.95274  0.40020  1.0000
  C   C2017     1.0  0.65878  0.91238  0.08391  1.0000
  H   H1614     1.0  0.46789  0.89150  0.24114  1.0000
  C   C2018     1.0  0.58924  0.96056  0.29530  1.0000
  C   C2019     1.0  0.63765  0.84703  0.45498  1.0000
  C   C2020     1.0  0.62046  0.96564  0.47877  1.0000
  C   C2021     1.0  0.66571  0.92961  0.06126  1.0000
  H   H1615     1.0  0.60040  0.97320  0.30893  1.0000
  C   C2022     1.0  0.56213  0.76528  0.44396  1.0000
  C   C2023     1.0  0.64284  0.76607  0.35568  1.0000
  H   H1616     1.0  0.46911  0.90899  0.30711  1.0000
  C   C2024     1.0  0.62921  0.82709  0.44974  1.0000
  H   H1617     1.0  0.68664  0.96356  0.25613  1.0000
  H   H1618     1.0  0.46637  0.98238  0.05097  1.0000
  C   C2025     1.0  0.65083  0.85491  0.48805  1.0000
  H   H1619     1.0  0.61882  0.82125  0.42418  1.0000
  C   C2026     1.0  0.64167  0.79304  0.39540  1.0000
  P   P68       1.0  0.62181  0.78901  0.47137  1.0000
  C   C2027     1.0  0.59356  0.93773  0.05574  1.0000
  C   C2028     1.0  0.62979  0.78029  0.42530  1.0000
  H   H1620     1.0  0.64753  0.76051  0.32845  1.0000
  C   C2029     1.0  0.63405  0.81479  0.47730  1.0000
  C   C2030     1.0  0.52032  0.85718  0.51567  1.0000
  C   C2031     1.0  0.64816  0.78591  0.36077  1.0000
  H   H1621     1.0  0.53873  0.77354  0.46643  1.0000
  C   C2032     1.0  0.53033  0.97699  0.28545  1.0000
  C   C2033     1.0  0.62469  0.76039  0.42005  1.0000
  C   C2034     1.0  0.52822  0.84708  0.48949  1.0000
  H   H1622     1.0  0.65530  0.77743  0.49036  1.0000
  H   H1623     1.0  0.58797  0.76063  0.42491  1.0000
  H   H1624     1.0  0.52880  0.92872  0.51646  1.0000
  C   C2035     1.0  0.48786  0.88270  0.49746  1.0000
  S   S274      1.0  0.63619  0.90208  0.50231  1.0000
  H   H1625     1.0  0.55267  0.90267  0.49508  1.0000
  H   H1626     1.0  0.65281  0.95723  0.44853  1.0000
  H   H1627     1.0  0.57263  0.93383  0.47368  1.0000
  C   C2036     1.0  0.58249  0.76905  0.44479  1.0000
  C   C2037     1.0  0.66414  0.98041  0.04121  1.0000
  C   C2038     1.0  0.48123  0.97909  0.20627  1.0000
  S   S275      1.0  0.60192  0.73450  0.26343  1.0000
  C   C2039     1.0  0.62761  0.77683  0.51568  1.0000
  H   H1628     1.0  0.55240  0.75411  0.42365  1.0000
  C   C2040     1.0  0.56719  0.79113  0.49275  1.0000
  H   H1629     1.0  0.52126  0.83156  0.48710  1.0000
  C   C2041     1.0  0.67986  0.97811  0.36407  1.0000
  H   H1630     1.0  0.62697  0.73793  0.38119  1.0000
  C   C2042     1.0  0.64261  0.98061  0.26175  1.0000
  C   C2043     1.0  0.64521  0.77310  0.51631  1.0000
  S   S276      1.0  0.51357  0.95520  0.04083  1.0000
  H   H1631     1.0  0.47756  0.96478  0.21927  1.0000
  Fe  Fe137     1.0  0.52406  0.97437  0.09751  1.0000
  H   H1632     1.0  0.69011  0.97579  0.34264  1.0000
  H   H1633     1.0  0.95785  0.76755  0.16659  1.0000
  H   H1634     1.0  0.57735  0.97676  0.25445  1.0000
  C   C2044     1.0  0.47379  0.98150  0.16707  1.0000
  C   C2045     1.0  0.64750  0.82278  0.51032  1.0000
  H   H1635     1.0  0.58541  0.91773  0.52859  1.0000
  C   C2046     1.0  0.46528  0.89977  0.49640  1.0000
  H   H1636     1.0  0.55532  0.96005  0.52959  1.0000
  C   C2047     1.0  0.61476  0.93947  0.52844  1.0000
  C   C2048     1.0  0.47534  0.91065  0.53063  1.0000
  H   H1637     1.0  0.63901  0.84885  0.83681  1.0000
  H   H1638     1.0  0.64111  0.90825  0.59028  1.0000
  H   H1639     1.0  0.49947  0.91631  0.57452  1.0000
  H   H1640     1.0  0.94291  0.75131  0.86456  1.0000
  S   S277      1.0  0.60228  0.76161  0.80146  1.0000
  C   C2049     1.0  0.63025  0.96604  0.95228  1.0000
  Fe  Fe138     1.0  0.58555  0.88562  0.71584  1.0000
  S   S278      1.0  0.61329  0.88291  0.74279  1.0000
  S   S279      1.0  0.57439  0.87931  0.64937  1.0000
  Fe  Fe139     1.0  0.57253  0.89631  0.79863  1.0000
  S   S280      1.0  0.59897  0.89426  0.83117  1.0000
  S   S281      1.0  0.54825  0.90226  0.83279  1.0000
  Fe  Fe140     1.0  0.61628  0.91013  0.77638  1.0000
  S   S282      1.0  0.64501  0.93445  0.79296  1.0000
  Fe  Fe141     1.0  0.59356  0.86707  0.79534  1.0000
  S   S283      1.0  0.59546  0.84278  0.83675  1.0000
  S   S284      1.0  0.59006  0.91406  0.74561  1.0000
  S   S285      1.0  0.56555  0.86797  0.76617  1.0000
  H   H1641     1.0  0.55816  0.93695  0.68100  1.0000
  S   S286      1.0  0.56570  0.96071  0.98382  1.0000
  C   C2050     1.0  0.52719  0.98139  0.85496  1.0000
  C   C2051     1.0  0.55325  0.91964  0.87257  1.0000
  C   C2052     1.0  0.53737  0.92125  0.89451  1.0000
  C   C2053     1.0  0.54086  0.93415  0.92804  1.0000
  C   C2054     1.0  0.56031  0.94559  0.93968  1.0000
  C   C2055     1.0  0.57614  0.94430  0.91704  1.0000
  C   C2056     1.0  0.57266  0.93144  0.88354  1.0000
  H   H1642     1.0  0.52230  0.91218  0.88610  1.0000
  H   H1643     1.0  0.52854  0.93497  0.94531  1.0000
  H   H1644     1.0  0.59117  0.95319  0.92565  1.0000
  H   H1645     1.0  0.58500  0.93038  0.86672  1.0000
  C   C2057     1.0  0.59878  0.78343  0.81176  1.0000
  C   C2058     1.0  0.59723  0.79509  0.77820  1.0000
  C   C2059     1.0  0.59546  0.81298  0.78516  1.0000
  C   C2060     1.0  0.59563  0.81958  0.82581  1.0000
  C   C2061     1.0  0.59690  0.80780  0.85932  1.0000
  C   C2062     1.0  0.59835  0.78979  0.85240  1.0000
  H   H1646     1.0  0.59753  0.79030  0.74667  1.0000
  H   H1647     1.0  0.59424  0.82175  0.75919  1.0000
  H   H1648     1.0  0.59701  0.81272  0.89090  1.0000
  H   H1649     1.0  0.59954  0.78100  0.87850  1.0000
  H   H1650     1.0  0.56946  0.87311  0.56116  1.0000
  H   H1651     1.0  0.50827  0.89722  0.78150  1.0000
  C   C2063     1.0  0.64394  0.97729  0.92351  1.0000
  C   C2064     1.0  0.65291  0.95520  0.76149  1.0000
  H   H1652     1.0  0.64446  0.86664  0.77053  1.0000
  C   C2065     1.0  0.64633  0.95472  0.72020  1.0000
  H   H1653     1.0  0.64163  0.81679  0.84085  1.0000
  H   H1654     1.0  0.63592  0.94144  0.70721  1.0000
  H   H1655     1.0  0.47806  0.86328  0.67725  1.0000
  H   H1656     1.0  0.58435  0.84115  0.59389  1.0000
  C   C2066     1.0  0.58508  0.88081  0.56767  1.0000
  C   C2067     1.0  0.59170  0.88586  0.60880  1.0000
  C   C2068     1.0  0.61192  0.89578  0.61689  1.0000
  C   C2069     1.0  0.62548  0.90043  0.58401  1.0000
  H   H1657     1.0  0.61707  0.89986  0.64847  1.0000
  H   H1658     1.0  0.47079  0.92180  0.54274  1.0000
  S   S287      1.0  0.47965  0.97566  0.96964  1.0000
  H   H1659     1.0  0.61670  0.85330  0.55801  1.0000
  C   C2070     1.0  0.53940  0.97096  0.77953  1.0000
  H   H1660     1.0  0.92375  0.74140  0.75474  1.0000
  C   C2071     1.0  0.53477  0.96838  0.68597  1.0000
  C   C2072     1.0  0.65395  0.90744  0.91656  1.0000
  Fe  Fe142     1.0  0.59916  0.73788  0.84958  1.0000
  C   C2073     1.0  0.54640  0.96646  0.81776  1.0000
  C   C2074     1.0  0.61887  0.89536  0.54290  1.0000
  H   H1661     1.0  0.66618  0.84898  0.54105  1.0000
  C   C2075     1.0  0.67807  0.89516  0.86586  1.0000
  P   P69       1.0  0.63738  0.91425  0.94848  1.0000
  H   H1662     1.0  0.64082  0.75093  0.61085  1.0000
  C   C2076     1.0  0.53969  0.92982  0.54077  1.0000
  C   C2077     1.0  0.57357  0.97511  0.72993  1.0000
  Fe  Fe143     1.0  0.50567  0.97944  0.01378  1.0000
  C   C2078     1.0  0.52770  0.89720  0.73178  1.0000
  H   H1663     1.0  0.60986  0.75766  0.61048  1.0000
  H   H1664     1.0  0.52427  0.88185  0.73381  1.0000
  H   H1665     1.0  0.66642  0.74011  0.97497  1.0000
  C   C2079     1.0  0.51873  0.90591  0.75880  1.0000
  H   H1666     1.0  0.58328  0.83670  0.67051  1.0000
  H   H1667     1.0  0.57206  0.92688  0.00592  1.0000
  H   H1668     1.0  0.55630  0.95859  0.81866  1.0000
  H   H1669     1.0  0.62146  0.97229  0.96965  1.0000
  H   H1670     1.0  0.62026  0.93271  0.55301  1.0000
  H   H1671     1.0  0.66475  0.94359  0.00314  1.0000
  C   C2080     1.0  0.57474  0.86844  0.92314  1.0000
  C   C2081     1.0  0.65010  0.90491  0.87373  1.0000
  H   H1672     1.0  0.67206  0.97269  0.80948  1.0000
  H   H1673     1.0  0.71144  0.84004  0.59066  1.0000
  H   H1674     1.0  0.51779  0.93236  0.78121  1.0000
  C   C2082     1.0  0.49164  0.90756  0.54837  1.0000
  H   H1675     1.0  0.61782  0.93847  0.98232  1.0000
  H   H1676     1.0  0.50731  0.84930  0.53369  1.0000
  C   C2083     1.0  0.58200  0.90504  0.02965  1.0000
  C   C2084     1.0  0.93340  0.73397  0.76419  1.0000
  H   H1677     1.0  0.54881  0.90154  0.68300  1.0000
  C   C2085     1.0  0.63909  0.93853  0.93611  1.0000
  C   C2086     1.0  0.61971  0.76194  0.58409  1.0000
  C   C2087     1.0  0.64655  0.85307  0.77189  1.0000
  H   H1678     1.0  0.93876  0.74418  0.00513  1.0000
  C   C2088     1.0  0.52447  0.92593  0.75897  1.0000
  H   H1679     1.0  0.64985  0.80256  0.77815  1.0000
  H   H1680     1.0  0.54587  0.96835  0.88467  1.0000
  H   H1681     1.0  0.58914  0.84799  0.92578  1.0000
  H   H1682     1.0  0.67037  0.73813  0.89877  1.0000
  H   H1683     1.0  0.68195  0.93833  0.72947  1.0000
  C   C2089     1.0  0.60649  0.97394  0.73567  1.0000
  C   C2090     1.0  0.68209  0.89763  0.90863  1.0000
  H   H1684     1.0  0.62241  0.87240  0.93905  1.0000
  C   C2091     1.0  0.50422  0.96476  0.64828  1.0000
  H   H1685     1.0  0.58161  0.96332  0.58240  1.0000
  C   C2092     1.0  0.59103  0.86300  0.92888  1.0000
  H   H1686     1.0  0.64896  0.97092  0.66309  1.0000
  H   H1687     1.0  0.65240  0.82552  0.63623  1.0000
  H   H1688     1.0  0.69444  0.89469  0.92220  1.0000
  H   H1689     1.0  0.65649  0.82050  0.71188  1.0000
  C   C2093     1.0  0.53909  0.93736  0.73160  1.0000
  C   C2094     1.0  0.95238  0.74454  0.77999  1.0000
  H   H1690     1.0  0.50523  0.95387  0.71008  1.0000
  C   C2095     1.0  0.54172  0.90839  0.70346  1.0000
  C   C2096     1.0  0.51520  0.97434  0.61398  1.0000
  C   C2097     1.0  0.55485  0.94768  0.54790  1.0000
  H   H1691     1.0  0.63785  0.90779  0.85987  1.0000
  C   C2098     1.0  0.66655  0.97241  0.77796  1.0000
  C   C2099     1.0  0.49811  0.89363  0.53175  1.0000
  H   H1692     1.0  0.69602  0.91716  0.76726  1.0000
  C   C2100     1.0  0.59615  0.90185  0.93316  1.0000
  C   C2101     1.0  0.60991  0.87695  0.93628  1.0000
  P   P70       1.0  0.54689  0.96327  0.73170  1.0000
  C   C2102     1.0  0.58592  0.96485  0.73862  1.0000
  H   H1693     1.0  0.68536  0.88273  0.74849  1.0000
  H   H1694     1.0  0.66563  0.97801  0.87828  1.0000
  C   C2103     1.0  0.64991  0.76374  0.55045  1.0000
  C   C2104     1.0  0.64452  0.91375  0.00254  1.0000
  H   H1695     1.0  0.57980  0.94986  0.74786  1.0000
  H   H1696     1.0  0.67642  0.81732  0.59468  1.0000
  C   C2105     1.0  0.64345  0.84302  0.80967  1.0000
  C   C2106     1.0  0.67011  0.90378  0.93397  1.0000
  C   C2107     1.0  0.61267  0.89653  0.93888  1.0000
  H   H1697     1.0  0.59765  0.91671  0.93315  1.0000
  H   H1698     1.0  0.64684  0.89103  0.65277  1.0000
  H   H1699     1.0  0.69888  0.87926  0.67119  1.0000
  H   H1700     1.0  0.72247  0.87096  0.62897  1.0000
  C   C2108     1.0  0.59863  0.88552  0.53481  1.0000
  C   C2109     1.0  0.56959  0.93323  0.59971  1.0000
  C   C2110     1.0  0.56971  0.94946  0.57759  1.0000
  H   H1701     1.0  0.68728  0.89034  0.84627  1.0000
  C   C2111     1.0  0.95473  0.75679  0.88748  1.0000
  C   C2112     1.0  0.53893  0.91360  0.56420  1.0000
  C   C2113     1.0  0.55432  0.91535  0.59290  1.0000
  P   P71       1.0  0.51973  0.89033  0.55381  1.0000
  H   H1702     1.0  0.63486  0.98090  0.80704  1.0000
  C   C2114     1.0  0.54717  0.92840  0.70287  1.0000
  H   H1703     1.0  0.64784  0.86097  0.59846  1.0000
  H   H1704     1.0  0.61424  0.84383  0.71128  1.0000
  C   C2115     1.0  0.51394  0.96166  0.68402  1.0000
  H   H1705     1.0  0.56028  0.85766  0.91564  1.0000
  H   H1706     1.0  0.66346  0.76082  0.55064  1.0000
  C   C2116     1.0  0.65259  0.94990  0.90661  1.0000
  H   H1707     1.0  0.65143  0.81367  0.53220  1.0000
  C   C2117     1.0  0.51319  0.87664  0.60174  1.0000
  C   C2118     1.0  0.49622  0.87536  0.62391  1.0000
  C   C2119     1.0  0.49117  0.86424  0.66031  1.0000
  C   C2120     1.0  0.50302  0.85440  0.67493  1.0000
  C   C2121     1.0  0.52003  0.85581  0.65337  1.0000
  C   C2122     1.0  0.52500  0.86674  0.61682  1.0000
  H   H1708     1.0  0.58152  0.93437  0.62159  1.0000
  C   C2123     1.0  0.66211  0.89890  0.84842  1.0000
  H   H1709     1.0  0.61587  0.96582  0.74169  1.0000
  H   H1710     1.0  0.60133  0.77400  0.55051  1.0000
  H   H1711     1.0  0.55482  0.90289  0.60944  1.0000
  H   H1712     1.0  0.65770  0.92523  0.67178  1.0000
  H   H1713     1.0  0.60231  0.96848  0.84176  1.0000
  C   C2124     1.0  0.57730  0.88784  0.92528  1.0000
  H   H1714     1.0  0.56473  0.89207  0.91944  1.0000
  H   H1715     1.0  0.65893  0.89725  0.81527  1.0000
  H   H1716     1.0  0.48677  0.88276  0.61322  1.0000
  C   C2125     1.0  0.65505  0.96922  0.90063  1.0000
  H   H1717     1.0  0.49920  0.84589  0.70326  1.0000
  H   H1718     1.0  0.52956  0.84857  0.66505  1.0000
  H   H1719     1.0  0.53817  0.86749  0.60041  1.0000
  H   H1720     1.0  0.66144  0.94409  0.88840  1.0000
  C   C2126     1.0  0.63716  0.75816  0.58433  1.0000
  H   H1721     1.0  0.67345  0.90547  0.96698  1.0000
  C   C2127     1.0  0.62804  0.94684  0.95897  1.0000
  C   C2128     1.0  0.59737  0.84131  0.65471  1.0000
  C   C2129     1.0  0.59797  0.84381  0.61150  1.0000
  C   C2130     1.0  0.61620  0.85064  0.59133  1.0000
  C   C2131     1.0  0.63383  0.85493  0.61438  1.0000
  C   C2132     1.0  0.63333  0.85207  0.65776  1.0000
  C   C2133     1.0  0.61498  0.84543  0.67778  1.0000
  P   P72       1.0  0.65619  0.85879  0.68769  1.0000
  C   C2134     1.0  0.67387  0.85291  0.65727  1.0000
  C   C2135     1.0  0.66523  0.88426  0.69923  1.0000
  C   C2136     1.0  0.67935  0.89190  0.73129  1.0000
  C   C2137     1.0  0.68545  0.91137  0.74197  1.0000
  C   C2138     1.0  0.67760  0.92335  0.72060  1.0000
  C   C2139     1.0  0.66385  0.91594  0.68818  1.0000
  C   C2140     1.0  0.65771  0.89650  0.67748  1.0000
  C   C2141     1.0  0.66769  0.83552  0.63505  1.0000
  C   C2142     1.0  0.68123  0.83085  0.61133  1.0000
  C   C2143     1.0  0.70096  0.84362  0.60913  1.0000
  C   C2144     1.0  0.70718  0.86103  0.63079  1.0000
  C   C2145     1.0  0.69372  0.86568  0.65482  1.0000
  C   C2146     1.0  0.65177  0.84539  0.73623  1.0000
  C   C2147     1.0  0.65308  0.82713  0.73880  1.0000
  C   C2148     1.0  0.64954  0.81693  0.77650  1.0000
  C   C2149     1.0  0.64490  0.82495  0.81197  1.0000
  H   H1722     1.0  0.95725  0.76003  0.78244  1.0000
  C   C2150     1.0  0.65365  0.97141  0.69537  1.0000
  H   H1723     1.0  0.56164  0.98183  0.65011  1.0000
  C   C2151     1.0  0.95556  0.74581  0.92265  1.0000
  H   H1724     1.0  0.50765  0.97684  0.58637  1.0000
  H   H1725     1.0  0.48816  0.95966  0.64698  1.0000
  C   C2152     1.0  0.54040  0.97178  0.85525  1.0000
  C   C2153     1.0  0.61492  0.77124  0.54994  1.0000
  C   C2154     1.0  0.54566  0.97743  0.65077  1.0000
  H   H1726     1.0  0.57250  0.89404  0.00881  1.0000
  C   C2155     1.0  0.52680  0.98138  0.77941  1.0000
  H   H1727     1.0  0.62680  0.88350  0.01253  1.0000
  C   C2156     1.0  0.65870  0.93028  0.02067  1.0000
  C   C2157     1.0  0.53589  0.98057  0.61516  1.0000
  Fe  Fe144     1.0  0.54404  0.97137  0.01572  1.0000
  C   C2158     1.0  0.63748  0.89655  0.02572  1.0000
  C   C2159     1.0  0.58168  0.92357  0.02824  1.0000
  H   H1728     1.0  0.66593  0.98218  0.00779  1.0000
  C   C2160     1.0  0.61230  0.98325  0.84668  1.0000
  S   S288      1.0  0.62226  0.73386  0.99951  1.0000
