data_image0
_chemical_formula_structural       FeS2FeS2FeCFeHS2FeS2FeS2FeSFeS3FeS2H2SH2FeCS2C6H4C6H6C7H2CHC6H4CPC2HFeH3C2HC2H4CH2CH3C11PC8HCHC7H11CH7C6H2CH3CH2SHCHCHCH4CH3CHPC2H4C3H2C2HC2HCHC7PC9HC5HC2H5CHC4SH4C2HC2HC3SCHC3HC2HCHC3H2C2HC4FeC2HCHCSPH3C2HC2HC2H4CH5CHCH3FeCH2CH2C2H3CHC2H2FeS2FeS2FeCFeS3FeS2FeS2FeSFeS3FeS2H2S2HFeSFeSC6H4C6H4C2H4CHCHCHC7H7C4H3C8PC9HC8H11C2H7C6PC3HC11HC2H6C2H8CH2C2HC3PC21H5SH12CHCHCH2C5HC3PCHC2HC4HC4HCHC2H2CH4CPH6C2HC2HCH3CHSC6PC3HC4HC3HCH5CH4CHC2HCHC3HC5H3CH4C2H2CSC2H2C3HCH2C2H2C2FeS2FeS2FeCFeS3FeS2FeSCFeSFeS3C7H7C2HC3HC2H3C6H4CHCHC2H4C2HC2H6C3H2CH2C2HCH3CH2C3HPHCH5C3HC2H2C2HC4HC4H2C3HC3HCHC3H2PC3H3C2H3C2HC4HC5HC2HC4HCHC2HC3SCHCH5CHC3H2CHCH2C2HC5HC3HCHPCH2CH3CH5FeS2FeS2FeHFeCS2FeSCFeS2FeSFeS3C7HCH3CHCH2C2H3CHCHC6H5CHCHCH2C6PC3H2C2H3CHC6H3CHCH3C4HC5HCHC3HCH2CH2CH3CH2CPCHC2HCHSH4CHC4HC2HC2H2C7H2CH3C6HCH3CH3C2H2C2HC3H4C2HC6PC8HCHC2H3C2HC3HC3HCHPH3CH5CHC3HC3H2C2HCHCH4C2H2CH2FeSHFeSCFeSFeSCSFeS2FeSHFeSCS2CFeS2FeSFeSFeS3C6H4C6H4C4HCH3CHC8H4C4H3C4H4C3HC6PC18H2CH15CHC2HPCH3C8HCHCPH7CH4CH2CHC7HC2H2C3HC3HCH3CHCH2CH2C2HC2HCH2C3HSC7HPH10SCH4C4HCH4CH3C2HC3HSC6PC18H8CH4CH5FeHCHCHSH2C4H2C2H3CHC2HCH2CHC3HCHC3HFeSHFeSCFeSFeS3FeS2FeS2FeSC2SHFeSHFeSFeSFeS3C6H4C6H4C4H3C4H2C6H2CHC3HCHCH2CH2CH5C2SC5SHC2HC2HC11H2C2HCH4C2HCPHC2HCH3CHC2HPHC2HC2H4C3H6CHCH2C2H2CHCHCHCSCHCFeCH2CP2C2HC2H2CSHC7HSC2H2CH2CH9CH2C4H2CHC6HCHC4HC2H4C2PHC7PHC6SHC6H4C2H4CHC3HCH2CHC2HCH2PC2H4CH2C2HCHCH2C2H4C2H2CH3CHC3H2FeS2FeS2FeSFeS3CH2FeS2FePFeS3FeS2FeS2FeSFeHS2HCHCHCHCH4C3HCHC2HC7H4C2H2C6H4C6H4C2HCHCHC2HC4H2CH2C2SHPCH2CHC2PHCH4CH2C2SCH6CHC3H2C7PC2H3C11H5C2H3C2H6C3HC2H2PHCHCH3CSC10HC9H6C6PC14H3CH2CH13CSCH3C2H3C2H3C2HC2HCH2C2HC3HCHC2H2C2SH3CH2C2H2C3HC3H3CFeS2FeS2FeSFeS3H2SFeS2FeCFeCS2FeS2FeS2FeHFeS3C2H3C3FeH2CHC2H3C2HC7H4CHCHC6H4C6H4C6PC3HC12H7C3HCH6SC2H2CHC2SCHC2HCHC2H2CHSCH3C4FeC4H3C3H3CH2C3H2CPCH2C2HC2PCH4CHCH2C2H3CHC2H3PHC4HPC18HC2H14CHCH5CH3CHC2H2C2HC7HC3HC2H2CHCH5CH2C4HCH3C4H4C3HCSC5HC3HCHCFeS2FeS2FeCFeS3FeS2FeS2FeHFeHS2CH3SHCHCHCH2C7H4C9H3C7H2C7H2SHC4H5CH2PC3HC5H2C2SHC2H3C2PCH3C2HCH2C6PC5HC8H6CHCHC2H2C2HC6PC7HCHC8H12CH7CSC3HC6HC2H2SHCH3PH2CH4CHC2HC5HCHC6PC4H7C2H3C2HCHCHCH2CHC3H4CHCHC5H2C4HCH3C3H3C3SHCFeS2FeS2FeHFeCS2FeS2FeS2FeCFeCS2C4HPC3HCH2C7H6CHCHC4H3C7H2C6H2CHCHC2HS2CH2C3H3CH2CHSH5C2H3CHC2HCH2C5HC2SC5H4C2HCHCHCHSH7C2HC2H2PCH2SCH2CHC4HC3HCHC8HC4HPH3C3H2CH4CHC3H2C7HC2H5C3H4C6HCPHCHC2H2CH2CSHCHC3H3CH2C3SCHCHC4SHC2HC3HCH3C3H2C4HFeS2FeS2FeSCS2HFeS2FeS2FeCFeS3FeS2FeS2FeCFeHS2C3H3C2HCH2CH5C3HC7H4C3HC6H4C6H4C2HCHC2PH3SCH3CH2C10H2CH2CH2C2H8CHC2H2CHC2HPC2H2CHC3H3CSCHC2HC3H4CH3C2H2CH2C2H2C2H2C2PHCHCHC4H8C2H2CH3CH2C11HC2HC2H4C2HC3HCPC3HCHC11H3CHC3H7C6PC13H3CHCHC3HCSC4HC3H4PH4C3H2C2HCHCH2C3FeS2FeSCFeSCS2CFeS2FeS2FeHFeS3FeS2FeS2FeHFeS3C4HC5H2C2PHC2HC3HC6H4CHC8H4C6H5CHC3HCHCHCH5CHCH2C2HFeHCH6C3H2SC4PCHC8HCH11C4HC3PC4HC4HCSC2H5C5H5CHCHC7FeC2H2CHCH2CHCHCHCHCHCHC2H3C4HCHCH6CH5CHCHCPC3H3C6PC4HSC2H2CHC4HCH7C2H4C2H2CHSC2H2C4H3C3PH5C3HC2HC4HCHC2H5C6FeS2H2SFePFeS3FeS2FeS2FeCFeS3FeS2FeS2FeCFeHS2C2HCHCHC3H3CHC6H4C6H4C6H4C3HC3H4CHCHC3HCHC5PC2H2C9H5CH4C4H2C7H6CHPC16HCH3CH5CHC3HFeCH7C8PC18H17CH3CHC2HPC5H2CHCHCH2CHCH3C2SCH2C5PHC4HCHCH6CH2PC2H6C2H3C5H2C4HCH3CHCH3CSC2H6C3H3CH2C3FeC4HC3HC5HSC3HCH3SC2HFeS2HS2FeHFeS3FeS2FeS2FeHFeS3FeS2FeS2FeHFeCS2H3CH2CHC2H5C6H4C6H4C6H6C4HCHCHC2HC3HC8PC18H18CH2CHC5HSCHCH4CHPC4HC3H2CHCH2C4HCHCH2C2HCHCH2CHC2PC3H2C2HC2H2C3HCHC4SCHPCHCH3PC2HCHCHCHCH3CH2CH2C4HC9H3C5HCH4CHC2HCH2CH6CHC2HCH3CHC2SHSCHC3HC2HCHCH2CH3C2SFeS2FeS2FeCFeCS2FeHSFeS2FeHFeCS2CH5C6H7CHCHC6H4C3H3CHCHC2HCHC3HC3H2C2H4C2H2CHC2H5CH2C2HC4HC2HC3HC3H2C2H2CHCPH2CH2C3H2C3HC4HSPHCHCH2CHC2H4CHC3H2CH2FeS2FeS2FeCFeCS2FeS2FeS2FeSFeCS2C2HC2HC6H6C2HC9H2CHC3H5C3PHC2PCH3CH2C2HPC3H2PHC4H2PC3HCHCH2C9H3C2HC2H3C2H6PH9C7H3C2HC2H2C3HCHC2HCH4C3H2CHC2HC3HC5H2CHCHCHCHC3H2C3HC2SC2HCHC8HC2HC4HCHCHCHC2HC2H2C4H2C3HC3HCH4CHCH2CH2CHC2HC3H2CH4CH2CHPCHC2HCH2CH2C2H2C6FeS2FeS2FeSFeS3FeSCFeSCSFeSCSFeS2FeS2FeHFeCS2C5H3C2HCHC6H4C6H4C6H4CH3CSC5H2C2HC3H15C8HCHCHC8PC3H2C12H12CH3C6PC18H21C2PC18H18C3HC4H3C2H2PC2SH2CH2CH2C2HC2FeHCHC2H3C2HCSC4HC3HCPHCHC2HPC2HC2H3CH3CH2FeCHCHC2HSC2H4CHC2HCPHCHCH2C3H2CHSHCH2CHCHC6FeS2FeS2FeSFeS3HSCFeSHSFeSHSFeS2FeS2FeHFeHS2C5H2CHPHC8H4C6H4C6H5CH2C6HC8PC13HC2HCH16C2HCH2CSHC2FeC2H3CH2CHC3H2SHCHCHCHC6PC2H2C4HC11H5CH4CH4C3HC4SH2C2HC4HC4H4C3HC2H4CH3C2HCH5C3HCHPHC6HC3HC2H4C3H3CH2CHPFeS2FeS2C2FeSHSFeS2FeS2FeSFeS3FeS2FeS2FeCFeCS2H2C3HC3H6CSHC6H5C2HC7H4C6H4CHC5HCSCHC8PC3HC4SHC8H7C2H2CHCH4CHC6PC5HC12H7C2H4CH6CHCH5C3PCH2CHC3HC2H3PH2CHCFeCHCH2PC3HSCHC3HC3H2CHC2HSHC4H3CHCHC4HC2H5CH4CHC2HC5HCH3C2H2C3H2C3HC3H4CHC2HCH3C3H3CHC3H2CHC2H5CHC2FeS2FeSCHCFeSHSFeS2FeSHFeSFeS3FeS2FeS2FeCFeCS2C2H2CPC3H2CHC2HCHC6H6C2HC6H4C6H3C7PC18H20C2HCHC4H2SHCH2C2HSHCH2FeC3H2CH4C4HCPHC2HC3HCH3CHC4H2CHCPCSC2HCH4CHC4H2C2HPC2H2C3H2CH5CH2CHCH2C2HC5H2C6H2CH2C2HCHCH4CHCH2CHSH2CHCHCHC2HCHC3HCHC4SHC3FeS2FeSCFeSFeS3FeSHFeSHFeSFeS3C6HCHCH2CH4C2HCHC6H4C2HCH2CPHC2H4PC5SHC7PC18H17PH2C3H3C3HC3HC4H3CHC2HCH5CH2C2H2C2H2CSH4C4H2CH3CH2CHCHCHC4PCH2C4HCSC2HC2HC4HC8PC8HCH3CH2CH5C4HC2H3C3H2CHCHC4HCSC2H3C5HC2H6C2HC5H2SPHCH2CHSFeS2FeSCFeSFeS3FeSHFeSCFeSFeS3C6H4C3HCH2C2H2C7H4C2PC4H3C3HC2HC5H4C3HCHC2HC2HCSHC2HCHC2HCHSC2HCH5CH2C3H2C2HC4S2CPHCH2CH2CHC2HC2HC2HPH2CHC2HC3PC6HSH2CHCHCHCHCHC2H2CHCH3C3HC4H2CHC9HC3H5CH7CHCHCH4CH4CHSCH2C6HCH2C2H3C2FeS2FeSHFeSFeS3FeS2FeS2FeSFeS3FeSCFeSCFeSCS2HCSH2C9H4C6H5C6H4C3H2CHC3H2C2H2C2HCH6PC4HCHC6HCH4CH3CHCHCHCH2CH2C5PC20H18C2HCHSCH2SCH2C2HC2HC10H4CH2CH6CHPHFeH2C5H6PHC3HC4HC2PC6HCHCHC2H2CH5CH4CHC3HC6PC18H7CH2CHC2HC2HCHCH2CHC2HSH2C3HC3HSFeSHFeSHFeSFeS3FeS2FeS2FeSFeS3FeSHFeSHFeSHCSCHCH2SH2C6H4C6H5C6H4C4H2C4H3CH2CHC7H4C7PC3HCPCHCHFeH5C4HCSH2C6H5CHCHC4PC7HCHCHCHC3HCHC3H3C3HCH2C2HC2HSC3PC3H3C7HC6HCHCHSCH5CH2CH2C2H2C3H2C5HCH4CH4C3HC3H4CHCHC2H2CPCHCH4C2H2C3HCHCHCH2C2HCHCHCH2C4H2SCH3CH2C3H2
_chemical_formula_sum              "Fe256 S512 C3840 H3072 P128"
_cell_length_a       78.4829
_cell_length_b       78.6218
_cell_length_c       47.8823
_cell_angle_alpha    89.4581
_cell_angle_beta     89.5503
_cell_angle_gamma    87.89

_space_group_name_H-M_alt    "P 1"
_space_group_IT_number       1

loop_
  _space_group_symop_operation_xyz
  'x, y, z'

loop_
  _atom_site_type_symbol
  _atom_site_label
  _atom_site_symmetry_multiplicity
  _atom_site_fract_x
  _atom_site_fract_y
  _atom_site_fract_z
  _atom_site_occupancy
  Fe  Fe1       1.0  0.03684  0.08018  0.30904  1.0000
  S   S1        1.0  0.00816  0.08484  0.30852  1.0000
  S   S2        1.0  0.05194  0.10496  0.30372  1.0000
  Fe  Fe2       1.0  0.03220  0.04177  0.31985  1.0000
  S   S3        1.0  0.00373  0.04441  0.32004  1.0000
  S   S4        1.0  0.04605  0.01576  0.32471  1.0000
  Fe  Fe3       1.0  0.00684  0.06137  0.28226  1.0000
  C   C1        1.0  0.07978  0.19561  0.44416  1.0000
  Fe  Fe4       1.0  0.00713  0.06755  0.34632  1.0000
  H   H1        1.0  0.22631  0.13556  0.13762  1.0000
  S   S5        1.0  0.03544  0.05748  0.28036  1.0000
  S   S6        1.0  0.03574  0.06415  0.34857  1.0000
  Fe  Fe5       1.0  0.17229  0.17747  0.25488  1.0000
  S   S7        1.0  0.16171  0.20354  0.24339  1.0000
  S   S8        1.0  0.20039  0.16984  0.26160  1.0000
  Fe  Fe6       1.0  0.13616  0.16294  0.26405  1.0000
  S   S9        1.0  0.12331  0.18819  0.25321  1.0000
  S   S10       1.0  0.12442  0.13682  0.27297  1.0000
  Fe  Fe7       1.0  0.14249  0.18994  0.21797  1.0000
  S   S11       1.0  0.13341  0.19482  0.17317  1.0000
  Fe  Fe8       1.0  0.14356  0.19988  0.27975  1.0000
  S   S12       1.0  0.13914  0.22255  0.30892  1.0000
  S   S13       1.0  0.15429  0.16397  0.22727  1.0000
  S   S14       1.0  0.15522  0.17465  0.29267  1.0000
  Fe  Fe9       1.0  0.15032  0.25844  0.04224  1.0000
  S   S15       1.0  0.15173  0.28613  0.02896  1.0000
  S   S16       1.0  0.15857  0.25147  0.08686  1.0000
  H   H2        1.0  0.19788  0.14119  0.32974  1.0000
  H   H3        1.0  0.01072  0.00642  0.33520  1.0000
  S   S17       1.0  0.13722  0.22961  0.44197  1.0000
  H   H4        1.0  0.99647  0.01313  0.46020  1.0000
  H   H5        1.0  0.16295  0.12892  0.26530  1.0000
  Fe  Fe10      1.0  0.12657  0.28222  0.00765  1.0000
  C   C2        1.0  0.99037  0.02842  0.13868  1.0000
  S   S18       1.0  0.16505  0.24872  0.00462  1.0000
  S   S19       1.0  0.12482  0.25488  0.02254  1.0000
  C   C3        1.0  0.14990  0.23675  0.11124  1.0000
  C   C4        1.0  0.15620  0.23616  0.13868  1.0000
  C   C5        1.0  0.15124  0.22354  0.15792  1.0000
  C   C6        1.0  0.13963  0.21142  0.15007  1.0000
  C   C7        1.0  0.13292  0.21227  0.12287  1.0000
  C   C8        1.0  0.13793  0.22489  0.10360  1.0000
  H   H6        1.0  0.16502  0.24556  0.14513  1.0000
  H   H7        1.0  0.15641  0.22320  0.17879  1.0000
  H   H8        1.0  0.12387  0.20302  0.11658  1.0000
  H   H9        1.0  0.13284  0.22520  0.08267  1.0000
  C   C9        1.0  0.13985  0.22408  0.34600  1.0000
  C   C10       1.0  0.13907  0.24033  0.35815  1.0000
  C   C11       1.0  0.13886  0.24230  0.38743  1.0000
  C   C12       1.0  0.13915  0.22798  0.40498  1.0000
  C   C13       1.0  0.13999  0.21171  0.39285  1.0000
  C   C14       1.0  0.14052  0.20974  0.36356  1.0000
  H   H10       1.0  0.13853  0.25152  0.34480  1.0000
  H   H11       1.0  0.13812  0.25489  0.39639  1.0000
  H   H12       1.0  0.14017  0.20056  0.40624  1.0000
  H   H13       1.0  0.14113  0.19715  0.35459  1.0000
  H   H14       1.0  0.00717  0.12692  0.13334  1.0000
  H   H15       1.0  0.07404  0.19145  0.46358  1.0000
  C   C15       1.0  0.20921  0.13144  0.20276  1.0000
  C   C16       1.0  0.02076  0.00089  0.46883  1.0000
  C   C17       1.0  0.21831  0.13081  0.15429  1.0000
  C   C18       1.0  0.20383  0.25518  0.05182  1.0000
  C   C19       1.0  0.03629  0.09389  0.13017  1.0000
  C   C20       1.0  0.21670  0.18069  0.21310  1.0000
  C   C21       1.0  0.21827  0.17313  0.23954  1.0000
  H   H16       1.0  0.17839  0.08703  0.27343  1.0000
  H   H17       1.0  0.20425  0.18506  0.20595  1.0000
  C   C22       1.0  0.07554  0.30895  0.40295  1.0000
  H   H18       1.0  0.03005  0.14666  0.28343  1.0000
  C   C23       1.0  0.10410  0.12842  0.28188  1.0000
  C   C24       1.0  0.08950  0.13876  0.28702  1.0000
  C   C25       1.0  0.07379  0.13135  0.29376  1.0000
  C   C26       1.0  0.07228  0.11352  0.29523  1.0000
  C   C27       1.0  0.08691  0.10323  0.29029  1.0000
  C   C28       1.0  0.10264  0.11063  0.28372  1.0000
  H   H19       1.0  0.09027  0.15245  0.28572  1.0000
  H   H20       1.0  0.06272  0.13951  0.29803  1.0000
  H   H21       1.0  0.08614  0.08955  0.29178  1.0000
  H   H22       1.0  0.11380  0.10244  0.28018  1.0000
  C   C29       1.0  0.01872  0.99734  0.24486  1.0000
  P   P1        1.0  0.98972  0.00002  0.17391  1.0000
  C   C30       1.0  0.20045  0.23755  0.15781  1.0000
  C   C31       1.0  0.00413  0.00522  0.20166  1.0000
  H   H23       1.0  0.16868  0.14179  0.31067  1.0000
  Fe  Fe11      1.0  0.14175  0.25153  0.47220  1.0000
  H   H24       1.0  0.22340  0.20985  0.26992  1.0000
  H   H25       1.0  0.00757  0.07613  0.20967  1.0000
  H   H26       1.0  0.01409  0.10104  0.10585  1.0000
  C   C32       1.0  0.03661  0.99657  0.33608  1.0000
  C   C33       1.0  0.01898  0.99548  0.33981  1.0000
  H   H27       1.0  0.21602  0.11260  0.25898  1.0000
  C   C34       1.0  0.17895  0.13542  0.29931  1.0000
  C   C35       1.0  0.21174  0.28147  0.07315  1.0000
  H   H28       1.0  0.21005  0.13727  0.22305  1.0000
  H   H29       1.0  0.22154  0.12648  0.30387  1.0000
  H   H30       1.0  0.08314  0.12780  0.23214  1.0000
  H   H31       1.0  0.19408  0.24723  0.04364  1.0000
  C   C36       1.0  0.21937  0.13758  0.18104  1.0000
  H   H32       1.0  0.15440  0.09093  0.24187  1.0000
  H   H33       1.0  0.05684  0.08920  0.15864  1.0000
  C   C37       1.0  0.19958  0.05286  0.24507  1.0000
  H   H34       1.0  0.11503  0.11967  0.19941  1.0000
  H   H35       1.0  0.19764  0.25343  0.12102  1.0000
  H   H36       1.0  0.13000  0.19332  0.46910  1.0000
  C   C38       1.0  0.98887  0.00916  0.99736  1.0000
  C   C39       1.0  0.22175  0.18728  0.09355  1.0000
  C   C40       1.0  0.19923  0.27115  0.06257  1.0000
  C   C41       1.0  0.00889  0.99296  0.22195  1.0000
  C   C42       1.0  0.01381  0.12706  0.26942  1.0000
  C   C43       1.0  0.06842  0.12885  0.36398  1.0000
  C   C44       1.0  0.05132  0.13275  0.37016  1.0000
  C   C45       1.0  0.04611  0.14947  0.37643  1.0000
  C   C46       1.0  0.05798  0.16234  0.37619  1.0000
  C   C47       1.0  0.07522  0.15854  0.36987  1.0000
  C   C48       1.0  0.08033  0.14165  0.36370  1.0000
  P   P2        1.0  0.09003  0.17563  0.36662  1.0000
  C   C49       1.0  0.08768  0.19021  0.39565  1.0000
  C   C50       1.0  0.11173  0.16713  0.36687  1.0000
  C   C51       1.0  0.11843  0.15881  0.34322  1.0000
  C   C52       1.0  0.13493  0.15155  0.34356  1.0000
  C   C53       1.0  0.14516  0.15313  0.36705  1.0000
  C   C54       1.0  0.13873  0.16169  0.39053  1.0000
  C   C55       1.0  0.12201  0.16852  0.39060  1.0000
  C   C56       1.0  0.08026  0.18489  0.42097  1.0000
  H   H37       1.0  0.00768  0.98943  0.12174  1.0000
  C   C57       1.0  0.21839  0.21169  0.29076  1.0000
  H   H38       1.0  0.23171  0.23415  0.10089  1.0000
  C   C58       1.0  0.09494  0.20629  0.39431  1.0000
  C   C59       1.0  0.08657  0.18656  0.33355  1.0000
  C   C60       1.0  0.07204  0.18367  0.31746  1.0000
  C   C61       1.0  0.06944  0.19230  0.29207  1.0000
  C   C62       1.0  0.08122  0.20397  0.28261  1.0000
  C   C63       1.0  0.09575  0.20679  0.29829  1.0000
  C   C64       1.0  0.09863  0.19784  0.32327  1.0000
  H   H39       1.0  0.07232  0.11591  0.35848  1.0000
  H   H40       1.0  0.04209  0.12280  0.36959  1.0000
  H   H41       1.0  0.03279  0.15246  0.38098  1.0000
  H   H42       1.0  0.05364  0.17532  0.38029  1.0000
  H   H43       1.0  0.09335  0.13824  0.35804  1.0000
  H   H44       1.0  0.11082  0.15767  0.32461  1.0000
  H   H45       1.0  0.13974  0.14476  0.32542  1.0000
  H   H46       1.0  0.15808  0.14777  0.36701  1.0000
  H   H47       1.0  0.14670  0.16308  0.40868  1.0000
  H   H48       1.0  0.11731  0.17498  0.40912  1.0000
  H   H49       1.0  0.07521  0.17232  0.42313  1.0000
  C   C65       1.0  0.18662  0.19439  0.01447  1.0000
  H   H50       1.0  0.15276  0.21762  0.04047  1.0000
  H   H51       1.0  0.10134  0.21063  0.37569  1.0000
  H   H52       1.0  0.06274  0.17465  0.32407  1.0000
  H   H53       1.0  0.05831  0.18991  0.27968  1.0000
  H   H54       1.0  0.07927  0.21068  0.26295  1.0000
  H   H55       1.0  0.10501  0.21570  0.29080  1.0000
  H   H56       1.0  0.11038  0.19971  0.33431  1.0000
  C   C66       1.0  0.20428  0.21534  0.34425  1.0000
  C   C67       1.0  0.19362  0.21382  0.32125  1.0000
  C   C68       1.0  0.20071  0.21184  0.29460  1.0000
  C   C69       1.0  0.01921  0.02632  0.22766  1.0000
  C   C70       1.0  0.09045  0.31266  0.44640  1.0000
  C   C71       1.0  0.22201  0.21501  0.34056  1.0000
  H   H57       1.0  0.08637  0.10302  0.17836  1.0000
  H   H58       1.0  0.05148  0.09076  0.24519  1.0000
  C   C72       1.0  0.21371  0.26656  0.46697  1.0000
  H   H59       1.0  0.18581  0.05691  0.28366  1.0000
  H   H60       1.0  0.16455  0.20688  0.99549  1.0000
  H   H61       1.0  0.00179  0.08652  0.16120  1.0000
  C   C73       1.0  0.01833  0.11901  0.13854  1.0000
  H   H62       1.0  0.00055  0.10640  0.25120  1.0000
  H   H63       1.0  0.00165  0.04179  0.46577  1.0000
  S   S20       1.0  0.98788  0.07555  0.38048  1.0000
  H   H64       1.0  0.23018  0.25091  0.44061  1.0000
  C   C74       1.0  0.98449  0.06778  0.41514  1.0000
  H   H65       1.0  0.07531  0.16871  0.15340  1.0000
  C   C75       1.0  0.08831  0.30370  0.42170  1.0000
  H   H66       1.0  0.09654  0.29267  0.41720  1.0000
  C   C76       1.0  0.99523  0.01116  0.14202  1.0000
  H   H67       1.0  0.17986  0.21406  0.32405  1.0000
  H   H68       1.0  0.19248  0.21022  0.27685  1.0000
  H   H69       1.0  0.99107  0.27632  0.29781  1.0000
  H   H70       1.0  0.07016  0.06635  0.25843  1.0000
  C   C77       1.0  0.09471  0.21681  0.41769  1.0000
  H   H71       1.0  0.02489  0.13415  0.17365  1.0000
  H   H72       1.0  0.22555  0.20541  0.05990  1.0000
  H   H73       1.0  0.20098  0.24817  0.17198  1.0000
  C   C78       1.0  0.18780  0.17464  0.11124  1.0000
  H   H74       1.0  0.10254  0.15164  0.22653  1.0000
  P   P3        1.0  0.19928  0.19235  0.09750  1.0000
  C   C79       1.0  0.03008  0.98545  0.47080  1.0000
  C   C80       1.0  0.18995  0.06258  0.26415  1.0000
  H   H75       1.0  0.09879  0.17209  0.18708  1.0000
  H   H76       1.0  0.12415  0.09588  0.23070  1.0000
  H   H77       1.0  0.19874  0.21673  0.36496  1.0000
  H   H78       1.0  0.99046  0.05046  0.11170  1.0000
  C   C81       1.0  0.20081  0.07732  0.21401  1.0000
  C   C82       1.0  0.08715  0.21150  0.44259  1.0000
  C   C83       1.0  0.20507  0.06025  0.22008  1.0000
  H   H79       1.0  0.20684  0.18290  0.03886  1.0000
  H   H80       1.0  0.02192  0.10142  0.21396  1.0000
  C   C84       1.0  0.19866  0.24051  0.12913  1.0000
  C   C85       1.0  0.00934  0.02199  0.20479  1.0000
  H   H81       1.0  0.05149  0.14195  0.24621  1.0000
  C   C86       1.0  0.22999  0.17601  0.11241  1.0000
  C   C87       1.0  0.99580  0.05608  0.42813  1.0000
  H   H82       1.0  0.10024  0.30852  0.46113  1.0000
  C   C88       1.0  0.19752  0.22682  0.11089  1.0000
  H   H83       1.0  0.05571  0.14502  0.15877  1.0000
  C   C89       1.0  0.00342  0.00104  0.46240  1.0000
  C   C90       1.0  0.09323  0.08107  0.20344  1.0000
  C   C91       1.0  0.08869  0.07069  0.22595  1.0000
  C   C92       1.0  0.07357  0.07424  0.24070  1.0000
  C   C93       1.0  0.06297  0.08817  0.23307  1.0000
  C   C94       1.0  0.06747  0.09870  0.21056  1.0000
  C   C95       1.0  0.08269  0.09504  0.19579  1.0000
  P   P4        1.0  0.05410  0.11688  0.20032  1.0000
  C   C96       1.0  0.03827  0.12136  0.22713  1.0000
  C   C97       1.0  0.06791  0.13465  0.19599  1.0000
  C   C98       1.0  0.08127  0.13667  0.21490  1.0000
  C   C99       1.0  0.09230  0.15014  0.21175  1.0000
  C   C100      1.0  0.09016  0.16166  0.18956  1.0000
  C   C101      1.0  0.07692  0.15974  0.17059  1.0000
  C   C102      1.0  0.06581  0.14629  0.17375  1.0000
  C   C103      1.0  0.04033  0.13429  0.24668  1.0000
  C   C104      1.0  0.02813  0.13710  0.26777  1.0000
  H   H84       1.0  0.20815  0.29393  0.08119  1.0000
  C   C105      1.0  0.18891  0.19739  0.06480  1.0000
  C   C106      1.0  0.02372  0.11151  0.22872  1.0000
  C   C107      1.0  0.04249  0.11247  0.16885  1.0000
  C   C108      1.0  0.18915  0.11992  0.25854  1.0000
  C   C109      1.0  0.20874  0.12670  0.29560  1.0000
  H   H85       1.0  0.16092  0.13668  0.13605  1.0000
  C   C110      1.0  0.12845  0.11728  0.20359  1.0000
  C   C111      1.0  0.17339  0.20676  0.06496  1.0000
  H   H86       1.0  0.10494  0.07831  0.19198  1.0000
  H   H87       1.0  0.09687  0.05991  0.23207  1.0000
  H   H88       1.0  0.16801  0.21134  0.08442  1.0000
  H   H89       1.0  0.03909  0.08241  0.11839  1.0000
  H   H90       1.0  0.20099  0.19434  0.15822  1.0000
  C   C112      1.0  0.02225  0.10443  0.12298  1.0000
  H   H91       1.0  0.00709  0.05151  0.41703  1.0000
  C   C113      1.0  0.19542  0.13494  0.31021  1.0000
  C   C114      1.0  0.00296  0.02871  0.09236  1.0000
  C   C115      1.0  0.99253  0.07898  0.17195  1.0000
  C   C116      1.0  0.20558  0.11901  0.27005  1.0000
  S   S21       1.0  0.14348  0.28025  0.47007  1.0000
  H   H92       1.0  0.04360  0.98535  0.47524  1.0000
  H   H93       1.0  0.99666  0.99731  0.40122  1.0000
  H   H94       1.0  0.20156  0.15603  0.08587  1.0000
  H   H95       1.0  0.10085  0.22896  0.41669  1.0000
  C   C117      1.0  0.19147  0.15821  0.10112  1.0000
  C   C118      1.0  0.00777  0.01150  0.09536  1.0000
  H   H96       1.0  0.19164  0.18953  0.99485  1.0000
  C   C119      1.0  0.99433  0.03715  0.11406  1.0000
  C   C120      1.0  0.04637  0.09785  0.15304  1.0000
  H   H97       1.0  0.18443  0.13198  0.10174  1.0000
  C   C121      1.0  0.16849  0.14722  0.12928  1.0000
  C   C122      1.0  0.16314  0.11190  0.21639  1.0000
  C   C123      1.0  0.99580  0.07325  0.19953  1.0000
  S   S22       1.0  0.10127  0.29858  0.00733  1.0000
  C   C124      1.0  0.22088  0.24939  0.05196  1.0000
  H   H98       1.0  0.15415  0.16577  0.15374  1.0000
  C   C125      1.0  0.02839  0.12304  0.16136  1.0000
  C   C126      1.0  0.01155  0.11434  0.24977  1.0000
  C   C127      1.0  0.20019  0.20718  0.14995  1.0000
  H   H99       1.0  0.20556  0.08272  0.19481  1.0000
  C   C128      1.0  0.17412  0.17729  0.12997  1.0000
  C   C129      1.0  0.16467  0.21017  0.04010  1.0000
  H   H100      1.0  0.22816  0.14755  0.18506  1.0000
  C   C130      1.0  0.20690  0.11801  0.14911  1.0000
  H   H101      1.0  0.20291  0.03964  0.24974  1.0000
  C   C131      1.0  0.17132  0.20409  0.01480  1.0000
  C   C132      1.0  0.19812  0.11814  0.19797  1.0000
  C   C133      1.0  0.22954  0.26158  0.45473  1.0000
  H   H102      1.0  0.00579  0.03552  0.07320  1.0000
  H   H103      1.0  0.18770  0.10209  0.16634  1.0000
  C   C134      1.0  0.19530  0.19086  0.03943  1.0000
  C   C135      1.0  0.23120  0.18207  0.19568  1.0000
  H   H104      1.0  0.02209  0.98790  0.26077  1.0000
  C   C136      1.0  0.18570  0.07965  0.25818  1.0000
  C   C137      1.0  0.19819  0.21006  0.12118  1.0000
  C   C138      1.0  0.02386  0.01404  0.24774  1.0000
  C   C139      1.0  0.19085  0.08713  0.23284  1.0000
  Fe  Fe12      1.0  0.13967  0.24730  0.98357  1.0000
  C   C140      1.0  0.19664  0.11188  0.17073  1.0000
  C   C141      1.0  0.18179  0.14457  0.11005  1.0000
  H   H105      1.0  0.03121  0.01751  0.26581  1.0000
  C   C142      1.0  0.15087  0.10113  0.22761  1.0000
  H   H106      1.0  0.17044  0.18996  0.13709  1.0000
  C   C143      1.0  0.20117  0.22087  0.16823  1.0000
  S   S23       1.0  0.98710  0.05600  0.24862  1.0000
  P   P5        1.0  0.18538  0.10937  0.22597  1.0000
  H   H107      1.0  0.19602  0.22937  0.08884  1.0000
  H   H108      1.0  0.07391  0.30197  0.38381  1.0000
  H   H109      1.0  0.16689  0.13423  0.19051  1.0000
  C   C144      1.0  0.17579  0.12809  0.27345  1.0000
  C   C145      1.0  0.98553  0.02034  0.38398  1.0000
  H   H110      1.0  0.01443  0.00495  0.07849  1.0000
  C   C146      1.0  0.13361  0.10384  0.22120  1.0000
  C   C147      1.0  0.99259  0.05046  0.45572  1.0000
  H   H111      1.0  0.00535  0.03193  0.19025  1.0000
  C   C148      1.0  0.14054  0.12800  0.19224  1.0000
  C   C149      1.0  0.15781  0.12535  0.19862  1.0000
  H   H112      1.0  0.20242  0.21855  0.19049  1.0000
  H   H113      1.0  0.22287  0.16981  0.12883  1.0000
  H   H114      1.0  0.13645  0.13878  0.17934  1.0000
  H   H115      1.0  0.20238  0.25975  0.46224  1.0000
  C   C150      1.0  0.16468  0.16357  0.13925  1.0000
  H   H116      1.0  0.00248  0.00861  0.00109  1.0000
  H   H117      1.0  0.20753  0.29243  0.01132  1.0000
  H   H118      1.0  0.18595  0.27550  0.06265  1.0000
  H   H119      1.0  0.00463  0.12888  0.28626  1.0000
  H   H120      1.0  0.07233  0.24534  0.98584  1.0000
  C   C151      1.0  0.21605  0.28897  0.99429  1.0000
  H   H121      1.0  0.02274  0.03940  0.23024  1.0000
  C   C152      1.0  0.00393  0.00274  0.12007  1.0000
  H   H122      1.0  0.06630  0.31134  0.00543  1.0000
  H   H123      1.0  0.99645  0.02271  0.37074  1.0000
  H   H124      1.0  0.22417  0.23691  0.04373  1.0000
  Fe  Fe13      1.0  0.16469  0.27585  0.98986  1.0000
  C   C153      1.0  0.22923  0.21365  0.31364  1.0000
  H   H125      1.0  0.99098  0.26589  0.24906  1.0000
  H   H126      1.0  0.98929  0.98422  0.05689  1.0000
  C   C154      1.0  0.99522  0.98576  0.45773  1.0000
  H   H127      1.0  0.08731  0.21962  0.46076  1.0000
  H   H128      1.0  0.20604  0.11279  0.12834  1.0000
  C   C155      1.0  0.98562  0.00602  0.40147  1.0000
  C   C156      1.0  0.22885  0.27577  0.07316  1.0000
  H   H129      1.0  0.02701  0.01281  0.47173  1.0000
  H   H130      1.0  0.21273  0.05276  0.20544  1.0000
  H   H131      1.0  0.22999  0.21583  0.35878  1.0000
  C   C157      1.0  0.23151  0.19601  0.07372  1.0000
  H   H132      1.0  0.22986  0.18748  0.17495  1.0000
  C   C158      1.0  0.23379  0.29096  0.99697  1.0000
  C   C159      1.0  0.23355  0.25964  0.06265  1.0000
  H   H133      1.0  0.06072  0.98259  0.33826  1.0000
  H   H134      1.0  0.10483  0.17633  0.48107  1.0000
  Fe  Fe14      1.0  0.04136  0.07438  0.81642  1.0000
  S   S24       1.0  0.01767  0.09105  0.82088  1.0000
  S   S25       1.0  0.06831  0.08504  0.80978  1.0000
  Fe  Fe15      1.0  0.02144  0.04146  0.82943  1.0000
  S   S26       1.0  0.99681  0.05681  0.83436  1.0000
  S   S27       1.0  0.01477  0.01339  0.83515  1.0000
  Fe  Fe16      1.0  0.00473  0.07105  0.79571  1.0000
  C   C160      1.0  0.06554  0.27293  0.84610  1.0000
  Fe  Fe17      1.0  0.01175  0.07508  0.85886  1.0000
  S   S28       1.0  0.00412  0.08773  0.90009  1.0000
  S   S29       1.0  0.02865  0.05496  0.78922  1.0000
  S   S30       1.0  0.03614  0.05928  0.85608  1.0000
  Fe  Fe18      1.0  0.16787  0.17489  0.75498  1.0000
  S   S31       1.0  0.16296  0.20319  0.75506  1.0000
  S   S32       1.0  0.19573  0.16480  0.75737  1.0000
  Fe  Fe19      1.0  0.12948  0.16736  0.76222  1.0000
  S   S33       1.0  0.12287  0.19556  0.76285  1.0000
  S   S34       1.0  0.10458  0.15224  0.76333  1.0000
  Fe  Fe20      1.0  0.14105  0.19815  0.72669  1.0000
  S   S35       1.0  0.13128  0.21701  0.69324  1.0000
  Fe  Fe21      1.0  0.14516  0.19852  0.79125  1.0000
  S   S36       1.0  0.14567  0.21892  0.82525  1.0000
  S   S37       1.0  0.14675  0.16987  0.72419  1.0000
  S   S38       1.0  0.15101  0.17029  0.79301  1.0000
  Fe  Fe22      1.0  0.14895  0.25039  0.53607  1.0000
  S   S39       1.0  0.15097  0.27879  0.53832  1.0000
  S   S40       1.0  0.15698  0.22984  0.56813  1.0000
  H   H135      1.0  0.98951  0.01979  0.89433  1.0000
  H   H136      1.0  0.17331  0.19634  0.84564  1.0000
  S   S41       1.0  0.13393  0.22384  0.95745  1.0000
  S   S42       1.0  0.16547  0.24805  0.49770  1.0000
  H   H137      1.0  0.00548  0.03619  0.60685  1.0000
  Fe  Fe23      1.0  0.12785  0.28089  0.51031  1.0000
  S   S43       1.0  0.10228  0.29561  0.52020  1.0000
  Fe  Fe24      1.0  0.16650  0.27630  0.49840  1.0000
  S   S44       1.0  0.12502  0.25227  0.51063  1.0000
  C   C161      1.0  0.14981  0.22679  0.60304  1.0000
  C   C162      1.0  0.15594  0.21240  0.61804  1.0000
  C   C163      1.0  0.15069  0.20936  0.64581  1.0000
  C   C164      1.0  0.13900  0.22061  0.65879  1.0000
  C   C165      1.0  0.13292  0.23507  0.64384  1.0000
  C   C166      1.0  0.13835  0.23820  0.61616  1.0000
  H   H138      1.0  0.16465  0.20343  0.60800  1.0000
  H   H139      1.0  0.15552  0.19822  0.65703  1.0000
  H   H140      1.0  0.12393  0.24390  0.65375  1.0000
  H   H141      1.0  0.13363  0.24939  0.60494  1.0000
  C   C167      1.0  0.14351  0.21922  0.86233  1.0000
  C   C168      1.0  0.14724  0.23422  0.87644  1.0000
  C   C169      1.0  0.14469  0.23571  0.90550  1.0000
  C   C170      1.0  0.13838  0.22212  0.92098  1.0000
  C   C171      1.0  0.13512  0.20688  0.90704  1.0000
  C   C172      1.0  0.13779  0.20538  0.87791  1.0000
  H   H142      1.0  0.15221  0.24476  0.86476  1.0000
  H   H143      1.0  0.14751  0.24744  0.91585  1.0000
  H   H144      1.0  0.13046  0.19620  0.91882  1.0000
  H   H145      1.0  0.13513  0.19367  0.86744  1.0000
  C   C173      1.0  0.21244  0.18807  0.81681  1.0000
  C   C174      1.0  0.19489  0.21230  0.84949  1.0000
  H   H146      1.0  0.09605  0.14968  0.68285  1.0000
  H   H147      1.0  0.99595  0.10138  0.60712  1.0000
  H   H148      1.0  0.06843  0.30627  0.53802  1.0000
  H   H149      1.0  0.00854  0.00361  0.52366  1.0000
  C   C175      1.0  0.08975  0.19711  0.93590  1.0000
  H   H150      1.0  0.99475  0.09768  0.95589  1.0000
  C   C176      1.0  0.21397  0.16878  0.73604  1.0000
  H   H151      1.0  0.22385  0.21047  0.71767  1.0000
  C   C177      1.0  0.23158  0.20909  0.76066  1.0000
  H   H152      1.0  0.00444  0.13855  0.79363  1.0000
  C   C178      1.0  0.99729  0.00931  0.76388  1.0000
  C   C179      1.0  0.09474  0.13358  0.77703  1.0000
  C   C180      1.0  0.07682  0.13259  0.77616  1.0000
  C   C181      1.0  0.06847  0.11802  0.78618  1.0000
  C   C182      1.0  0.07794  0.10403  0.79700  1.0000
  C   C183      1.0  0.09584  0.10499  0.79764  1.0000
  C   C184      1.0  0.10416  0.11960  0.78785  1.0000
  H   H153      1.0  0.06931  0.14318  0.76765  1.0000
  H   H154      1.0  0.05472  0.11762  0.78553  1.0000
  H   H155      1.0  0.10337  0.09429  0.80578  1.0000
  H   H156      1.0  0.11792  0.11997  0.78841  1.0000
  H   H157      1.0  0.02399  0.98407  0.61299  1.0000
  H   H158      1.0  0.18887  0.17494  0.81640  1.0000
  H   H159      1.0  0.04836  0.02217  0.90036  1.0000
  C   C185      1.0  0.20266  0.24629  0.72042  1.0000
  C   C186      1.0  0.20975  0.26967  0.57400  1.0000
  C   C187      1.0  0.20957  0.20571  0.51156  1.0000
  C   C188      1.0  0.19961  0.22040  0.51690  1.0000
  H   H160      1.0  0.00777  0.06251  0.72243  1.0000
  H   H161      1.0  0.00503  0.05838  0.67118  1.0000
  H   H162      1.0  0.21808  0.22574  0.84967  1.0000
  C   C189      1.0  0.20201  0.21211  0.59558  1.0000
  C   C190      1.0  0.10921  0.18561  0.49568  1.0000
  C   C191      1.0  0.12186  0.12288  0.85087  1.0000
  C   C192      1.0  0.13537  0.13393  0.84905  1.0000
  C   C193      1.0  0.13249  0.15127  0.85404  1.0000
  C   C194      1.0  0.11608  0.15759  0.86057  1.0000
  C   C195      1.0  0.10241  0.14657  0.86259  1.0000
  C   C196      1.0  0.10543  0.12914  0.85750  1.0000
  P   P6        1.0  0.08130  0.15506  0.87127  1.0000
  C   C197      1.0  0.08366  0.17116  0.89763  1.0000
  C   C198      1.0  0.07114  0.16443  0.84078  1.0000
  C   C199      1.0  0.05327  0.16634  0.83986  1.0000
  C   C200      1.0  0.04527  0.17373  0.81648  1.0000
  C   C201      1.0  0.05504  0.17926  0.79386  1.0000
  C   C202      1.0  0.07280  0.17745  0.79468  1.0000
  C   C203      1.0  0.08084  0.17006  0.81801  1.0000
  C   C204      1.0  0.09583  0.16860  0.91878  1.0000
  C   C205      1.0  0.14766  0.28620  0.87406  1.0000
  H   H163      1.0  0.22324  0.24826  0.69129  1.0000
  C   C206      1.0  0.07729  0.19960  0.91543  1.0000
  C   C207      1.0  0.07422  0.18669  0.89635  1.0000
  C   C208      1.0  0.06803  0.13825  0.88385  1.0000
  C   C209      1.0  0.06158  0.12669  0.86476  1.0000
  C   C210      1.0  0.05111  0.11374  0.87393  1.0000
  C   C211      1.0  0.04675  0.11236  0.90217  1.0000
  C   C212      1.0  0.05304  0.12385  0.92132  1.0000
  C   C213      1.0  0.06369  0.13675  0.91226  1.0000
  H   H164      1.0  0.12403  0.10945  0.84660  1.0000
  H   H165      1.0  0.14804  0.12908  0.84347  1.0000
  H   H166      1.0  0.14295  0.15986  0.85258  1.0000
  H   H167      1.0  0.11406  0.17109  0.86397  1.0000
  H   H168      1.0  0.09522  0.12029  0.85833  1.0000
  H   H169      1.0  0.04551  0.16210  0.85721  1.0000
  H   H170      1.0  0.03150  0.17505  0.81586  1.0000
  H   H171      1.0  0.04890  0.18483  0.77559  1.0000
  H   H172      1.0  0.08042  0.18138  0.77691  1.0000
  H   H173      1.0  0.09459  0.16848  0.81782  1.0000
  H   H174      1.0  0.10324  0.15673  0.92024  1.0000
  C   C214      1.0  0.07650  0.24838  0.96479  1.0000
  C   C215      1.0  0.22715  0.20563  0.51582  1.0000
  H   H175      1.0  0.20004  0.17590  0.69909  1.0000
  H   H176      1.0  0.06480  0.18907  0.88029  1.0000
  H   H177      1.0  0.06478  0.12757  0.84276  1.0000
  H   H178      1.0  0.04641  0.10470  0.85910  1.0000
  H   H179      1.0  0.03848  0.10238  0.90914  1.0000
  H   H180      1.0  0.04962  0.12273  0.94321  1.0000
  H   H181      1.0  0.06840  0.14549  0.92743  1.0000
  C   C216      1.0  0.08699  0.12729  0.70341  1.0000
  C   C217      1.0  0.08549  0.14127  0.68529  1.0000
  C   C218      1.0  0.07025  0.14459  0.67100  1.0000
  C   C219      1.0  0.05647  0.13400  0.67501  1.0000
  C   C220      1.0  0.05793  0.11976  0.69297  1.0000
  C   C221      1.0  0.07330  0.11661  0.70733  1.0000
  P   P7        1.0  0.03929  0.10769  0.70119  1.0000
  C   C222      1.0  0.04550  0.08593  0.71021  1.0000
  C   C223      1.0  0.02855  0.11746  0.73082  1.0000
  C   C224      1.0  0.03282  0.13372  0.73987  1.0000
  H   H182      1.0  0.08093  0.28586  0.95696  1.0000
  C   C225      1.0  0.01571  0.99442  0.62043  1.0000
  C   C226      1.0  0.00683  0.11664  0.76716  1.0000
  C   C227      1.0  0.01574  0.10883  0.74508  1.0000
  C   C228      1.0  0.04318  0.07257  0.69141  1.0000
  C   C229      1.0  0.04872  0.05595  0.69823  1.0000
  C   C230      1.0  0.05674  0.05253  0.72371  1.0000
  C   C231      1.0  0.05885  0.06565  0.74265  1.0000
  C   C232      1.0  0.05294  0.08221  0.73621  1.0000
  C   C233      1.0  0.02538  0.10725  0.67121  1.0000
  C   C234      1.0  0.00756  0.10735  0.67454  1.0000
  C   C235      1.0  0.22067  0.27970  0.94682  1.0000
  H   H183      1.0  0.14037  0.21420  0.50271  1.0000
  C   C236      1.0  0.02186  0.10347  0.62119  1.0000
  C   C237      1.0  0.03244  0.10536  0.64428  1.0000
  H   H184      1.0  0.09864  0.12503  0.71516  1.0000
  H   H185      1.0  0.06901  0.15561  0.65731  1.0000
  H   H186      1.0  0.04453  0.13718  0.66468  1.0000
  H   H187      1.0  0.07473  0.10626  0.72222  1.0000
  H   H188      1.0  0.04284  0.14062  0.72974  1.0000
  H   H189      1.0  0.99676  0.03438  0.95819  1.0000
  C   C238      1.0  0.20728  0.23522  0.52553  1.0000
  C   C239      1.0  0.99395  0.00519  0.65272  1.0000
  H   H190      1.0  0.01245  0.09615  0.73889  1.0000
  H   H191      1.0  0.03704  0.07481  0.67152  1.0000
  H   H192      1.0  0.04685  0.04573  0.68367  1.0000
  H   H193      1.0  0.06123  0.03971  0.72898  1.0000
  H   H194      1.0  0.06492  0.06299  0.76257  1.0000
  H   H195      1.0  0.05440  0.09211  0.75145  1.0000
  H   H196      1.0  0.00161  0.10833  0.69489  1.0000
  H   H197      1.0  0.14196  0.29401  0.91609  1.0000
  C   C240      1.0  0.09381  0.24707  0.95792  1.0000
  H   H198      1.0  0.02734  0.10159  0.60057  1.0000
  H   H199      1.0  0.04613  0.10476  0.64125  1.0000
  C   C241      1.0  0.12931  0.20686  0.50789  1.0000
  C   C242      1.0  0.01117  0.13275  0.77611  1.0000
  H   H200      1.0  0.01461  0.01849  0.68939  1.0000
  C   C243      1.0  0.10047  0.18840  0.52094  1.0000
  C   C244      1.0  0.10604  0.20061  0.53971  1.0000
  C   C245      1.0  0.12069  0.20959  0.53318  1.0000
  P   P8        1.0  0.09470  0.20516  0.57195  1.0000
  C   C246      1.0  0.09320  0.22809  0.57511  1.0000
  C   C247      1.0  0.07361  0.19672  0.57076  1.0000
  C   C248      1.0  0.05927  0.20720  0.56427  1.0000
  C   C249      1.0  0.04307  0.20038  0.56340  1.0000
  C   C250      1.0  0.04104  0.18309  0.56899  1.0000
  C   C251      1.0  0.05523  0.17258  0.57550  1.0000
  C   C252      1.0  0.07145  0.17936  0.57641  1.0000
  C   C253      1.0  0.09625  0.23610  0.60060  1.0000
  C   C254      1.0  0.09556  0.25388  0.60226  1.0000
  C   C255      1.0  0.09185  0.26379  0.57855  1.0000
  C   C256      1.0  0.08867  0.25593  0.55320  1.0000
  C   C257      1.0  0.08943  0.23818  0.55141  1.0000
  C   C258      1.0  0.10551  0.19513  0.60132  1.0000
  C   C259      1.0  0.12164  0.18701  0.59810  1.0000
  C   C260      1.0  0.12949  0.17873  0.62084  1.0000
  C   C261      1.0  0.12151  0.17880  0.64703  1.0000
  C   C262      1.0  0.10550  0.18690  0.65043  1.0000
  C   C263      1.0  0.09742  0.19486  0.62760  1.0000
  C   C264      1.0  0.00026  0.99742  0.53846  1.0000
  C   C265      1.0  0.04226  0.99170  0.85037  1.0000
  C   C266      1.0  0.07798  0.29810  0.94721  1.0000
  H   H201      1.0  0.08933  0.18115  0.52550  1.0000
  H   H202      1.0  0.12527  0.21897  0.54747  1.0000
  H   H203      1.0  0.06046  0.22063  0.55997  1.0000
  H   H204      1.0  0.03205  0.20854  0.55841  1.0000
  H   H205      1.0  0.02847  0.17784  0.56827  1.0000
  S   S45       1.0  0.18690  0.28468  0.96253  1.0000
  H   H206      1.0  0.08234  0.17103  0.58139  1.0000
  H   H207      1.0  0.09961  0.22878  0.61909  1.0000
  H   H208      1.0  0.09831  0.25999  0.62182  1.0000
  H   H209      1.0  0.09173  0.27758  0.57956  1.0000
  H   H210      1.0  0.08610  0.26367  0.53473  1.0000
  H   H211      1.0  0.08735  0.23237  0.53136  1.0000
  H   H212      1.0  0.12832  0.18720  0.57826  1.0000
  H   H213      1.0  0.14210  0.17282  0.61843  1.0000
  H   H214      1.0  0.12793  0.17304  0.66491  1.0000
  H   H215      1.0  0.09960  0.18739  0.67096  1.0000
  H   H216      1.0  0.08502  0.20110  0.63057  1.0000
  H   H217      1.0  0.22661  0.30051  0.50347  1.0000
  C   C267      1.0  0.01183  0.01462  0.93681  1.0000
  H   H218      1.0  0.10300  0.24286  0.97355  1.0000
  C   C268      1.0  0.19536  0.18590  0.82399  1.0000
  H   H219      1.0  0.02919  0.99913  0.91128  1.0000
  C   C269      1.0  0.02640  0.01150  0.92011  1.0000
  H   H220      1.0  0.07024  0.21169  0.91404  1.0000
  H   H221      1.0  0.19954  0.24677  0.52884  1.0000
  C   C270      1.0  0.21255  0.17384  0.70803  1.0000
  C   C271      1.0  0.98748  0.00540  0.74071  1.0000
  C   C272      1.0  0.99368  0.00827  0.71353  1.0000
  C   C273      1.0  0.18148  0.26951  0.59442  1.0000
  C   C274      1.0  0.19284  0.27584  0.57463  1.0000
  H   H222      1.0  0.05022  0.00259  0.84845  1.0000
  C   C275      1.0  0.22097  0.20235  0.82603  1.0000
  C   C276      1.0  0.20410  0.25113  0.61378  1.0000
  C   C277      1.0  0.18703  0.25717  0.61381  1.0000
  P   P9        1.0  0.21090  0.23436  0.63779  1.0000
  C   C278      1.0  0.20433  0.21427  0.62434  1.0000
  H   H223      1.0  0.01643  0.05710  0.94744  1.0000
  C   C279      1.0  0.03391  0.04099  0.92394  1.0000
  C   C280      1.0  0.01936  0.04429  0.94022  1.0000
  H   H224      1.0  0.99255  0.00715  0.78491  1.0000
  C   C281      1.0  0.20179  0.20051  0.64261  1.0000
  C   C282      1.0  0.19718  0.18477  0.63223  1.0000
  C   C283      1.0  0.19503  0.18268  0.60355  1.0000
  C   C284      1.0  0.06105  0.30348  0.94284  1.0000
  H   H225      1.0  0.21835  0.27437  0.55810  1.0000
  C   C285      1.0  0.20105  0.23792  0.67170  1.0000
  C   C286      1.0  0.18412  0.23342  0.67633  1.0000
  C   C287      1.0  0.17657  0.23525  0.70270  1.0000
  C   C288      1.0  0.18587  0.24155  0.72482  1.0000
  H   H226      1.0  0.22078  0.20165  0.76659  1.0000
  C   C289      1.0  0.01611  0.01042  0.60745  1.0000
  H   H227      1.0  0.16824  0.27393  0.59441  1.0000
  C   C290      1.0  0.13737  0.28755  0.89789  1.0000
  C   C291      1.0  0.00827  0.03124  0.94645  1.0000
  H   H228      1.0  0.02459  0.01246  0.58986  1.0000
  H   H229      1.0  0.17781  0.25217  0.62831  1.0000
  C   C292      1.0  0.02424  0.14125  0.76257  1.0000
  H   H230      1.0  0.18846  0.28528  0.55939  1.0000
  H   H231      1.0  0.21889  0.17867  0.80375  1.0000
  H   H232      1.0  0.20344  0.20191  0.66490  1.0000
  H   H233      1.0  0.19125  0.17054  0.59557  1.0000
  C   C293      1.0  0.99429  0.06355  0.68302  1.0000
  P   P10       1.0  0.99699  0.99793  0.94354  1.0000
  H   H234      1.0  0.17680  0.22835  0.65956  1.0000
  H   H235      1.0  0.16351  0.23162  0.70604  1.0000
  H   H236      1.0  0.18003  0.24266  0.74536  1.0000
  H   H237      1.0  0.04628  0.31185  0.83437  1.0000
  H   H238      1.0  0.05366  0.15917  0.57980  1.0000
  H   H239      1.0  0.20348  0.22261  0.58112  1.0000
  C   C294      1.0  0.21533  0.25718  0.59322  1.0000
  C   C295      1.0  0.05552  0.30238  0.84206  1.0000
  H   H240      1.0  0.04228  0.05122  0.91869  1.0000
  C   C296      1.0  0.99435  0.02115  0.63946  1.0000
  C   C297      1.0  0.19736  0.19637  0.58527  1.0000
  H   H241      1.0  0.99013  0.02113  0.55503  1.0000
  C   C298      1.0  0.00537  0.02376  0.61692  1.0000
  H   H242      1.0  0.05122  0.25465  0.94994  1.0000
  H   H243      1.0  0.11281  0.24981  0.92600  1.0000
  H   H244      1.0  0.04293  0.28133  0.82384  1.0000
  C   C299      1.0  0.98762  0.08660  0.95101  1.0000
  H   H245      1.0  0.05082  0.29526  0.94875  1.0000
  S   S46       1.0  0.13958  0.27410  0.96731  1.0000
  C   C300      1.0  0.09581  0.22925  0.80977  1.0000
  C   C301      1.0  0.09808  0.21340  0.82289  1.0000
  C   C302      1.0  0.09922  0.21234  0.85191  1.0000
  C   C303      1.0  0.09818  0.22711  0.86793  1.0000
  C   C304      1.0  0.09549  0.24308  0.85503  1.0000
  C   C305      1.0  0.09452  0.24406  0.82575  1.0000
  P   P11       1.0  0.09473  0.26222  0.87572  1.0000
  C   C306      1.0  0.08762  0.25689  0.91067  1.0000
  C   C307      1.0  0.11557  0.27141  0.87529  1.0000
  C   C308      1.0  0.12135  0.28031  0.89847  1.0000
  H   H246      1.0  0.11363  0.28146  0.91717  1.0000
  C   C309      1.0  0.05365  0.28518  0.83610  1.0000
  C   C310      1.0  0.14188  0.27773  0.85066  1.0000
  C   C311      1.0  0.12594  0.27032  0.85126  1.0000
  C   C312      1.0  0.09935  0.25116  0.93095  1.0000
  H   H247      1.0  0.10415  0.30444  0.94460  1.0000
  C   C313      1.0  0.08111  0.29512  0.86817  1.0000
  C   C314      1.0  0.98984  0.07889  0.92475  1.0000
  C   C315      1.0  0.07017  0.25788  0.91760  1.0000
  H   H248      1.0  0.22615  0.17840  0.66933  1.0000
  C   C316      1.0  0.03736  0.02463  0.91374  1.0000
  H   H249      1.0  0.09553  0.23006  0.78717  1.0000
  H   H250      1.0  0.09950  0.20199  0.81052  1.0000
  H   H251      1.0  0.10161  0.20013  0.86196  1.0000
  H   H252      1.0  0.09994  0.22597  0.89026  1.0000
  H   H253      1.0  0.09316  0.25626  0.81517  1.0000
  C   C317      1.0  0.99591  0.06594  0.71208  1.0000
  H   H254      1.0  0.99664  0.11005  0.77757  1.0000
  H   H255      1.0  0.14999  0.27634  0.83234  1.0000
  H   H256      1.0  0.12204  0.26340  0.83313  1.0000
  H   H257      1.0  0.18791  0.22174  0.86189  1.0000
  C   C318      1.0  0.00475  0.99183  0.64315  1.0000
  H   H258      1.0  0.06076  0.26197  0.90233  1.0000
  C   C319      1.0  0.22734  0.17533  0.69125  1.0000
  C   C320      1.0  0.99706  0.10552  0.65139  1.0000
  H   H259      1.0  0.19509  0.19494  0.56318  1.0000
  C   C321      1.0  0.00418  0.10345  0.62479  1.0000
  H   H260      1.0  0.20990  0.25110  0.73763  1.0000
  C   C322      1.0  0.21022  0.24459  0.69396  1.0000
  C   C323      1.0  0.01329  0.01617  0.76005  1.0000
  C   C324      1.0  0.07953  0.27786  0.86183  1.0000
  H   H261      1.0  0.16024  0.29147  0.87396  1.0000
  C   C325      1.0  0.98529  0.99468  0.91178  1.0000
  C   C326      1.0  0.18660  0.19798  0.84034  1.0000
  C   C327      1.0  0.09888  0.18155  0.93774  1.0000
  C   C328      1.0  0.00962  0.01563  0.70995  1.0000
  C   C329      1.0  0.21201  0.21452  0.84237  1.0000
  H   H262      1.0  0.03161  0.02521  0.73044  1.0000
  H   H263      1.0  0.19520  0.17422  0.64648  1.0000
  H   H264      1.0  0.09249  0.20726  0.95021  1.0000
  C   C330      1.0  0.02476  0.99361  0.84527  1.0000
  H   H265      1.0  0.20361  0.19440  0.50422  1.0000
  H   H266      1.0  0.06364  0.25964  0.84181  1.0000
  H   H267      1.0  0.02775  0.15366  0.76964  1.0000
  H   H268      1.0  0.09139  0.29911  0.88115  1.0000
  C   C331      1.0  0.01936  0.01952  0.73317  1.0000
  C   C332      1.0  0.06466  0.25367  0.94458  1.0000
  H   H269      1.0  0.10860  0.17971  0.95357  1.0000
  H   H270      1.0  0.02096  0.01905  0.77798  1.0000
  C   C333      1.0  0.22489  0.23517  0.52986  1.0000
  S   S47       1.0  0.19258  0.28864  0.49841  1.0000
  C   C334      1.0  0.23380  0.23382  0.64177  1.0000
  C   C335      1.0  0.20931  0.28369  0.96896  1.0000
  H   H271      1.0  0.21562  0.27584  0.92700  1.0000
  H   H272      1.0  0.98637  0.03172  0.64686  1.0000
  C   C336      1.0  0.06921  0.30733  0.85818  1.0000
  C   C337      1.0  0.23326  0.21411  0.73274  1.0000
  C   C338      1.0  0.09121  0.30885  0.94047  1.0000
  H   H273      1.0  0.03058  0.31454  0.51828  1.0000
  C   C339      1.0  0.23042  0.16583  0.74716  1.0000
  H   H274      1.0  0.23179  0.16155  0.76857  1.0000
  H   H275      1.0  0.18593  0.22025  0.51431  1.0000
  C   C340      1.0  0.98991  0.00733  0.55624  1.0000
  C   C341      1.0  0.21247  0.28076  0.48440  1.0000
  H   H276      1.0  0.23062  0.24681  0.53619  1.0000
  H   H277      1.0  0.22830  0.25213  0.59163  1.0000
  C   C342      1.0  0.12349  0.19502  0.48900  1.0000
  C   C343      1.0  0.22740  0.28945  0.49018  1.0000
  Fe  Fe25      1.0  0.02159  0.42039  0.05769  1.0000
  S   S48       1.0  0.99581  0.41038  0.06785  1.0000
  S   S49       1.0  0.02321  0.44926  0.05146  1.0000
  Fe  Fe26      1.0  0.03788  0.38370  0.05024  1.0000
  S   S50       1.0  0.01275  0.37177  0.06015  1.0000
  S   S51       1.0  0.06452  0.37020  0.04348  1.0000
  Fe  Fe27      1.0  0.00092  0.39233  0.03206  1.0000
  C   C344      1.0  0.01329  0.63480  0.26277  1.0000
  Fe  Fe28      1.0  0.00965  0.39102  0.09497  1.0000
  S   S52       1.0  0.00373  0.38330  0.14052  1.0000
  S   S53       1.0  0.02607  0.40331  0.02036  1.0000
  S   S54       1.0  0.03539  0.40199  0.08654  1.0000
  Fe  Fe29      1.0  0.01482  0.55821  0.17331  1.0000
  S   S55       1.0  0.04298  0.55485  0.16451  1.0000
  S   S56       1.0  0.00383  0.55073  0.21602  1.0000
  Fe  Fe30      1.0  0.00669  0.56248  0.10982  1.0000
  S   S57       1.0  0.03441  0.55956  0.09740  1.0000
  C   C345      1.0  0.06487  0.32314  0.40891  1.0000
  Fe  Fe31      1.0  0.03559  0.53793  0.12894  1.0000
  S   S58       1.0  0.04684  0.51065  0.12688  1.0000
  Fe  Fe32      1.0  0.03953  0.57686  0.13417  1.0000
  S   S59       1.0  0.05453  0.60176  0.13097  1.0000
  S   S60       1.0  0.00791  0.54019  0.13951  1.0000
  S   S61       1.0  0.01139  0.58094  0.14470  1.0000
  C   C346      1.0  0.07988  0.32687  0.45234  1.0000
  C   C347      1.0  0.07281  0.61115  0.14610  1.0000
  C   C348      1.0  0.07455  0.62893  0.14406  1.0000
  C   C349      1.0  0.08917  0.63685  0.15431  1.0000
  C   C350      1.0  0.10247  0.62707  0.16654  1.0000
  C   C351      1.0  0.10067  0.60932  0.16871  1.0000
  C   C352      1.0  0.08599  0.60143  0.15872  1.0000
  H   H278      1.0  0.06454  0.63664  0.13429  1.0000
  H   H279      1.0  0.11081  0.60154  0.17802  1.0000
  H   H280      1.0  0.08503  0.58777  0.16022  1.0000
  H   H281      1.0  0.02094  0.34116  0.41723  1.0000
  H   H282      1.0  0.07654  0.49172  0.15564  1.0000
  H   H283      1.0  0.05908  0.43970  0.07771  1.0000
  H   H284      1.0  0.07795  0.37945  0.98804  1.0000
  C   C353      1.0  0.06618  0.62452  0.05524  1.0000
  C   C354      1.0  0.99370  0.57917  0.24747  1.0000
  H   H285      1.0  0.99726  0.58684  0.22967  1.0000
  C   C355      1.0  0.07428  0.34998  0.03382  1.0000
  C   C356      1.0  0.06514  0.33682  0.02220  1.0000
  C   C357      1.0  0.07360  0.32131  0.01437  1.0000
  H   H286      1.0  0.14524  0.64028  0.13122  1.0000
  C   C358      1.0  0.00382  0.43454  0.17180  1.0000
  C   C359      1.0  0.09202  0.34725  0.03731  1.0000
  H   H287      1.0  0.05155  0.33861  0.01915  1.0000
  H   H288      1.0  0.05176  0.64247  0.02979  1.0000
  H   H289      1.0  0.09933  0.35726  0.04612  1.0000
  C   C360      1.0  0.02875  0.46612  0.07385  1.0000
  C   C361      1.0  0.03374  0.46342  0.10160  1.0000
  C   C362      1.0  0.03844  0.47727  0.11809  1.0000
  C   C363      1.0  0.03837  0.49394  0.10701  1.0000
  C   C364      1.0  0.03326  0.49660  0.07938  1.0000
  C   C365      1.0  0.02842  0.48281  0.06299  1.0000
  H   H290      1.0  0.03419  0.45066  0.11027  1.0000
  H   H291      1.0  0.04241  0.47501  0.13940  1.0000
  H   H292      1.0  0.03352  0.50925  0.07034  1.0000
  H   H293      1.0  0.02463  0.48510  0.04156  1.0000
  C   C366      1.0  0.08050  0.47583  0.11967  1.0000
  H   H294      1.0  0.05329  0.43528  0.02788  1.0000
  C   C367      1.0  0.07947  0.44837  0.15707  1.0000
  H   H295      1.0  0.05219  0.42805  0.14937  1.0000
  C   C368      1.0  0.06999  0.40892  0.13252  1.0000
  C   C369      1.0  0.08215  0.45917  0.10974  1.0000
  H   H296      1.0  0.03125  0.51794  0.23185  1.0000
  H   H297      1.0  0.01894  0.60405  0.32620  1.0000
  H   H298      1.0  0.03346  0.51065  0.18179  1.0000
  H   H299      1.0  0.06983  0.41350  0.00137  1.0000
  C   C370      1.0  0.00186  0.44206  0.44000  1.0000
  C   C371      1.0  0.99244  0.57025  0.99897  1.0000
  H   H300      1.0  0.99741  0.52806  0.00311  1.0000
  C   C372      1.0  0.09140  0.63519  0.07689  1.0000
  C   C373      1.0  0.04841  0.37106  0.39451  1.0000
  H   H301      1.0  0.15351  0.40657  0.14070  1.0000
  H   H302      1.0  0.07937  0.43788  0.17188  1.0000
  H   H303      1.0  0.00125  0.43459  0.42128  1.0000
  H   H304      1.0  0.99599  0.45095  0.20543  1.0000
  H   H305      1.0  0.04608  0.37996  0.47832  1.0000
  H   H306      1.0  0.09385  0.40455  0.47911  1.0000
  C   C374      1.0  0.08065  0.42168  0.07908  1.0000
  C   C375      1.0  0.09002  0.40931  0.06381  1.0000
  C   C376      1.0  0.99155  0.46605  0.99435  1.0000
  H   H307      1.0  0.06389  0.36619  0.13620  1.0000
  H   H308      1.0  0.08790  0.57898  0.21607  1.0000
  C   C377      1.0  0.00276  0.62316  0.30641  1.0000
  H   H309      1.0  0.00855  0.42447  0.18558  1.0000
  H   H310      1.0  0.10656  0.38221  0.44823  1.0000
  C   C378      1.0  0.14028  0.40981  0.13608  1.0000
  C   C379      1.0  0.07781  0.46505  0.16692  1.0000
  H   H311      1.0  0.03267  0.60863  0.18555  1.0000
  C   C380      1.0  0.04054  0.58933  0.23484  1.0000
  H   H312      1.0  0.02132  0.62091  0.14192  1.0000
  H   H313      1.0  0.98905  0.64199  0.28167  1.0000
  H   H314      1.0  0.08051  0.48653  0.10520  1.0000
  C   C381      1.0  0.06905  0.39374  0.47996  1.0000
  H   H315      1.0  0.02520  0.42918  0.45310  1.0000
  H   H316      1.0  0.00674  0.57127  0.03742  1.0000
  C   C382      1.0  0.99483  0.39251  0.44654  1.0000
  C   C383      1.0  0.09129  0.31848  0.01828  1.0000
  C   C384      1.0  0.02289  0.35479  0.47205  1.0000
  H   H317      1.0  0.04166  0.60541  0.29031  1.0000
  P   P12       1.0  0.05336  0.35055  0.44201  1.0000
  H   H318      1.0  0.00660  0.39541  0.45678  1.0000
  C   C385      1.0  0.11024  0.40772  0.14715  1.0000
  H   H319      1.0  0.00695  0.50816  0.26028  1.0000
  H   H320      1.0  0.00201  0.44080  0.00286  1.0000
  H   H321      1.0  0.08359  0.38670  0.11588  1.0000
  H   H322      1.0  0.06057  0.37642  0.39906  1.0000
  H   H323      1.0  0.99933  0.37430  0.19827  1.0000
  C   C386      1.0  0.06371  0.42823  0.03784  1.0000
  C   C387      1.0  0.04442  0.40283  0.15919  1.0000
  C   C388      1.0  0.99200  0.44830  0.99251  1.0000
  H   H324      1.0  0.01115  0.49432  0.15946  1.0000
  C   C389      1.0  0.02308  0.37110  0.36588  1.0000
  C   C390      1.0  0.98924  0.46212  0.16531  1.0000
  H   H325      1.0  0.08412  0.45728  0.08760  1.0000
  H   H326      1.0  0.03303  0.40712  0.17029  1.0000
  C   C391      1.0  0.03032  0.61359  0.28823  1.0000
  C   C392      1.0  0.10601  0.41801  0.12391  1.0000
  H   H327      1.0  0.01123  0.64321  0.24506  1.0000
  C   C393      1.0  0.11910  0.42450  0.10724  1.0000
  C   C394      1.0  0.03560  0.63303  0.20550  1.0000
  C   C395      1.0  0.05916  0.38037  0.47121  1.0000
  C   C396      1.0  0.07825  0.47877  0.14820  1.0000
  H   H328      1.0  0.01549  0.37650  0.34891  1.0000
  C   C397      1.0  0.98606  0.56878  0.47720  1.0000
  C   C398      1.0  0.05194  0.60263  0.23231  1.0000
  C   C399      1.0  0.02438  0.62927  0.15892  1.0000
  C   C400      1.0  0.07318  0.41603  0.02276  1.0000
  H   H329      1.0  0.10199  0.63283  0.09081  1.0000
  H   H330      1.0  0.08915  0.35894  0.43187  1.0000
  C   C401      1.0  0.99071  0.55166  0.26938  1.0000
  C   C402      1.0  0.09330  0.38175  0.45453  1.0000
  C   C403      1.0  0.02617  0.35128  0.40468  1.0000
  H   H331      1.0  0.07817  0.60864  0.22284  1.0000
  C   C404      1.0  0.02231  0.64689  0.15561  1.0000
  C   C405      1.0  0.07472  0.58184  0.22170  1.0000
  C   C406      1.0  0.02822  0.62444  0.26492  1.0000
  H   H332      1.0  0.09326  0.39660  0.02448  1.0000
  C   C407      1.0  0.00065  0.63417  0.28351  1.0000
  H   H333      1.0  0.01041  0.42084  0.13419  1.0000
  C   C408      1.0  0.07293  0.39137  0.12851  1.0000
  C   C409      1.0  0.04196  0.35801  0.41134  1.0000
  C   C410      1.0  0.14268  0.64746  0.11217  1.0000
  H   H334      1.0  0.05503  0.32694  0.39419  1.0000
  H   H335      1.0  0.05753  0.61426  0.05223  1.0000
  P   P13       1.0  0.08409  0.42369  0.11609  1.0000
  C   C411      1.0  0.06718  0.43083  0.06604  1.0000
  C   C412      1.0  0.99458  0.56873  0.02817  1.0000
  C   C413      1.0  0.01012  0.49706  0.18159  1.0000
  H   H336      1.0  0.00417  0.35333  0.37809  1.0000
  H   H337      1.0  0.00540  0.39450  0.40486  1.0000
  H   H338      1.0  0.07607  0.46739  0.18903  1.0000
  C   C414      1.0  0.00478  0.43245  0.14288  1.0000
  C   C415      1.0  0.01757  0.61287  0.30874  1.0000
  H   H339      1.0  0.06764  0.55562  0.22130  1.0000
  H   H340      1.0  0.02720  0.59197  0.23954  1.0000
  H   H341      1.0  0.98660  0.42172  0.34380  1.0000
  C   C416      1.0  0.00788  0.50487  0.23839  1.0000
  C   C417      1.0  0.08340  0.36845  0.44554  1.0000
  H   H342      1.0  0.00686  0.53644  0.04979  1.0000
  C   C418      1.0  0.98908  0.45440  0.44658  1.0000
  C   C419      1.0  0.98940  0.38374  0.19333  1.0000
  C   C420      1.0  0.10043  0.33165  0.02988  1.0000
  C   C421      1.0  0.06198  0.63729  0.24696  1.0000
  H   H343      1.0  0.08264  0.60970  0.08259  1.0000
  C   C422      1.0  0.06629  0.36751  0.45419  1.0000
  C   C423      1.0  0.03791  0.34474  0.46839  1.0000
  C   C424      1.0  0.99408  0.39209  0.41705  1.0000
  C   C425      1.0  0.06332  0.56870  0.22462  1.0000
  C   C426      1.0  0.08122  0.44529  0.12832  1.0000
  H   H344      1.0  0.03870  0.37636  0.16371  1.0000
  C   C427      1.0  0.12732  0.40356  0.15308  1.0000
  C   C428      1.0  0.13617  0.42033  0.11323  1.0000
  H   H345      1.0  0.00027  0.51891  0.09125  1.0000
  C   C429      1.0  0.99598  0.49194  0.19729  1.0000
  C   C430      1.0  0.99619  0.51502  0.07082  1.0000
  C   C431      1.0  0.06909  0.59875  0.22552  1.0000
  C   C432      1.0  0.08638  0.40661  0.03572  1.0000
  H   H346      1.0  0.02056  0.36617  0.45957  1.0000
  C   C433      1.0  0.99476  0.51992  0.02087  1.0000
  H   H347      1.0  0.00148  0.47204  0.00594  1.0000
  C   C434      1.0  0.06449  0.64227  0.27467  1.0000
  C   C435      1.0  0.99512  0.49564  0.22597  1.0000
  H   H348      1.0  0.03731  0.56229  0.23311  1.0000
  C   C436      1.0  1.00000  0.52485  0.04734  1.0000
  C   C437      1.0  0.01670  0.35797  0.38228  1.0000
  C   C438      1.0  0.03899  0.37755  0.37185  1.0000
  S   S62       1.0  0.12174  0.63609  0.17887  1.0000
  C   C439      1.0  0.06699  0.33223  0.43368  1.0000
  H   H349      1.0  0.04386  0.38781  0.35920  1.0000
  C   C440      1.0  0.98848  0.39059  0.16605  1.0000
  H   H350      1.0  0.11607  0.43278  0.08960  1.0000
  H   H351      1.0  0.98624  0.44574  0.30980  1.0000
  H   H352      1.0  0.14621  0.42530  0.10018  1.0000
  H   H353      1.0  0.08162  0.33362  0.47167  1.0000
  H   H354      1.0  0.98553  0.60062  0.27266  1.0000
  C   C441      1.0  0.01553  0.43888  0.45809  1.0000
  H   H355      1.0  0.99951  0.44386  0.10267  1.0000
  C   C442      1.0  0.06293  0.64042  0.04272  1.0000
  C   C443      1.0  0.08614  0.39436  0.47182  1.0000
  C   C444      1.0  0.04624  0.57245  0.23121  1.0000
  H   H356      1.0  0.99273  0.62224  0.32205  1.0000
  H   H357      1.0  0.99216  0.53795  0.26865  1.0000
  C   C445      1.0  0.98697  0.58693  0.27186  1.0000
  H   H358      1.0  0.09973  0.40128  0.07375  1.0000
  C   C446      1.0  0.07336  0.64257  0.22610  1.0000
  H   H359      1.0  0.99900  0.51682  0.46448  1.0000
  H   H360      1.0  0.11400  0.32985  0.03305  1.0000
  C   C447      1.0  0.99840  0.44532  0.12513  1.0000
  C   C448      1.0  0.02167  0.51028  0.22245  1.0000
  H   H361      1.0  0.13052  0.39550  0.17091  1.0000
  C   C449      1.0  0.06181  0.37967  0.14001  1.0000
  C   C450      1.0  0.08042  0.62191  0.07224  1.0000
  C   C451      1.0  0.05543  0.41461  0.14748  1.0000
  C   C452      1.0  0.02285  0.50626  0.19415  1.0000
  C   C453      1.0  0.99641  0.44945  0.18297  1.0000
  H   H362      1.0  0.10040  0.40294  0.16079  1.0000
  C   C454      1.0  0.03090  0.62232  0.18380  1.0000
  C   C455      1.0  0.04761  0.38540  0.15548  1.0000
  C   C456      1.0  0.99569  0.56145  0.24616  1.0000
  H   H363      1.0  0.16887  0.64654  0.09847  1.0000
  C   C457      1.0  0.99081  0.46016  0.13624  1.0000
  H   H364      1.0  0.05592  0.63843  0.29118  1.0000
  P   P14       1.0  0.04434  0.62438  0.23765  1.0000
  C   C458      1.0  0.99015  0.46333  0.47180  1.0000
  H   H365      1.0  0.98632  0.49060  0.42341  1.0000
  H   H366      1.0  0.07170  0.63879  0.20464  1.0000
  C   C459      1.0  0.98738  0.50005  0.06789  1.0000
  H   H367      1.0  0.23305  0.63688  0.32980  1.0000
  H   H368      1.0  0.99054  0.61778  0.17229  1.0000
  H   H369      1.0  0.14243  0.31816  0.99562  1.0000
  C   C460      1.0  0.98590  0.50487  0.01773  1.0000
  H   H370      1.0  0.00306  0.57396  0.98604  1.0000
  H   H371      1.0  0.98811  0.57086  0.45508  1.0000
  H   H372      1.0  0.98463  0.49160  0.23886  1.0000
  H   H373      1.0  0.98643  0.47005  0.12197  1.0000
  H   H374      1.0  0.98473  0.49233  0.08610  1.0000
  Fe  Fe33      1.0  0.02299  0.41804  0.56113  1.0000
  S   S63       1.0  0.99684  0.40815  0.56879  1.0000
  S   S64       1.0  0.02786  0.44653  0.55638  1.0000
  Fe  Fe34      1.0  0.03894  0.38168  0.55007  1.0000
  S   S65       1.0  0.01355  0.36972  0.55699  1.0000
  S   S66       1.0  0.06553  0.36962  0.53895  1.0000
  Fe  Fe35      1.0  0.00222  0.39157  0.53117  1.0000
  H   H375      1.0  0.14788  0.60451  0.61624  1.0000
  Fe  Fe36      1.0  0.01015  0.38738  0.59389  1.0000
  C   C461      1.0  0.01062  0.35014  0.49170  1.0000
  S   S67       1.0  0.02765  0.40257  0.52211  1.0000
  S   S68       1.0  0.03616  0.39816  0.58836  1.0000
  Fe  Fe37      1.0  0.00505  0.56731  0.65667  1.0000
  S   S69       1.0  0.02889  0.55360  0.67131  1.0000
  C   C462      1.0  0.11106  0.32627  0.83837  1.0000
  Fe  Fe38      1.0  0.01661  0.56604  0.59496  1.0000
  S   S70       1.0  0.04130  0.55213  0.60642  1.0000
  S   S71       1.0  0.01381  0.57313  0.54861  1.0000
  Fe  Fe39      1.0  0.02510  0.53625  0.63469  1.0000
  S   S72       1.0  0.02566  0.50755  0.64364  1.0000
  Fe  Fe40      1.0  0.04295  0.57103  0.64172  1.0000
  S   S73       1.0  0.06922  0.58241  0.65118  1.0000
  S   S74       1.0  0.00045  0.54912  0.62150  1.0000
  S   S75       1.0  0.01909  0.58570  0.62872  1.0000
  C   C463      1.0  0.99355  0.52060  0.54476  1.0000
  C   C464      1.0  0.07825  0.60230  0.66056  1.0000
  C   C465      1.0  0.09613  0.60329  0.66199  1.0000
  C   C466      1.0  0.10396  0.61859  0.66927  1.0000
  C   C467      1.0  0.09406  0.63330  0.67532  1.0000
  C   C468      1.0  0.07614  0.63227  0.67415  1.0000
  C   C469      1.0  0.06830  0.61699  0.66668  1.0000
  H   H376      1.0  0.10406  0.59210  0.65743  1.0000
  C   C470      1.0  0.00342  0.61466  0.77225  1.0000
  H   H377      1.0  0.05457  0.61658  0.66563  1.0000
  H   H378      1.0  0.07055  0.32063  0.86312  1.0000
  H   H379      1.0  0.12920  0.45539  0.67895  1.0000
  C   C471      1.0  0.05105  0.63220  0.54829  1.0000
  H   H380      1.0  0.99547  0.54365  0.91763  1.0000
  C   C472      1.0  0.05853  0.61549  0.58938  1.0000
  H   H381      1.0  0.99424  0.51834  0.67589  1.0000
  H   H382      1.0  0.11768  0.61890  0.67059  1.0000
  C   C473      1.0  0.07552  0.34887  0.53423  1.0000
  C   C474      1.0  0.06694  0.33379  0.53888  1.0000
  H   H383      1.0  0.06824  0.64340  0.67912  1.0000
  H   H384      1.0  0.02042  0.53166  0.49214  1.0000
  H   H385      1.0  0.01355  0.47563  0.81242  1.0000
  C   C475      1.0  0.09275  0.34755  0.52555  1.0000
  H   H386      1.0  0.05381  0.33450  0.54590  1.0000
  C   C476      1.0  0.14176  0.32213  0.97391  1.0000
  H   H387      1.0  0.09961  0.35905  0.52188  1.0000
  C   C477      1.0  0.02553  0.46341  0.58076  1.0000
  C   C478      1.0  0.02646  0.48033  0.57111  1.0000
  C   C479      1.0  0.02583  0.49407  0.58991  1.0000
  C   C480      1.0  0.02449  0.49101  0.61866  1.0000
  C   C481      1.0  0.02291  0.47415  0.62817  1.0000
  C   C482      1.0  0.02335  0.46041  0.60937  1.0000
  H   H388      1.0  0.02802  0.48282  0.54900  1.0000
  H   H389      1.0  0.02700  0.50697  0.58222  1.0000
  H   H390      1.0  0.02157  0.47170  0.65029  1.0000
  H   H391      1.0  0.02245  0.44749  0.61704  1.0000
  H   H392      1.0  0.98691  0.48084  0.57299  1.0000
  C   C483      1.0  0.02639  0.61912  0.71519  1.0000
  H   H393      1.0  0.99829  0.61273  0.75170  1.0000
  C   C484      1.0  0.08044  0.42797  0.60731  1.0000
  H   H394      1.0  0.04637  0.45628  0.67120  1.0000
  C   C485      1.0  0.00777  0.52724  0.53141  1.0000
  H   H395      1.0  0.99707  0.45985  0.89396  1.0000
  H   H396      1.0  0.05603  0.60506  0.60368  1.0000
  C   C486      1.0  0.02158  0.51032  0.73170  1.0000
  C   C487      1.0  0.01878  0.49418  0.72109  1.0000
  C   C488      1.0  0.00900  0.48280  0.73635  1.0000
  C   C489      1.0  0.00224  0.48746  0.76241  1.0000
  C   C490      1.0  0.00571  0.50331  0.77388  1.0000
  C   C491      1.0  0.01500  0.51494  0.75791  1.0000
  P   P15       1.0  0.99609  0.50975  0.80674  1.0000
  C   C492      1.0  0.05167  0.55537  0.74268  1.0000
  C   C493      1.0  0.99646  0.49357  0.83383  1.0000
  C   C494      1.0  0.00391  0.46018  0.48976  1.0000
  H   H397      1.0  0.07260  0.60699  0.73316  1.0000
  H   H398      1.0  0.99905  0.35791  0.49431  1.0000
  C   C495      1.0  0.15560  0.32747  0.92955  1.0000
  C   C496      1.0  0.01491  0.50438  0.92358  1.0000
  H   H399      1.0  0.09708  0.62526  0.73685  1.0000
  H   H400      1.0  0.08381  0.35106  0.96861  1.0000
  H   H401      1.0  0.22862  0.64663  0.68460  1.0000
  C   C497      1.0  0.02711  0.61730  0.80388  1.0000
  H   H402      1.0  0.14391  0.63254  0.63910  1.0000
  C   C498      1.0  0.00819  0.52636  0.82183  1.0000
  C   C499      1.0  0.99995  0.54079  0.83331  1.0000
  C   C500      1.0  0.00936  0.55308  0.84660  1.0000
  C   C501      1.0  0.02705  0.55100  0.84864  1.0000
  C   C502      1.0  0.03536  0.53650  0.83758  1.0000
  C   C503      1.0  0.02595  0.52418  0.82432  1.0000
  H   H403      1.0  0.02851  0.51940  0.71920  1.0000
  H   H404      1.0  0.02365  0.49078  0.70053  1.0000
  H   H405      1.0  0.00625  0.47054  0.72766  1.0000
  C   C504      1.0  0.15650  0.32199  0.95737  1.0000
  H   H406      1.0  0.01686  0.52770  0.76534  1.0000
  C   C505      1.0  0.03033  0.63474  0.70260  1.0000
  H   H407      1.0  0.03425  0.56055  0.85905  1.0000
  H   H408      1.0  0.06356  0.40332  0.49378  1.0000
  H   H409      1.0  0.05596  0.43161  0.58730  1.0000
  C   C506      1.0  0.01054  0.62974  0.66525  1.0000
  C   C507      1.0  0.98804  0.52411  0.94650  1.0000
  C   C508      1.0  0.10495  0.39032  0.93530  1.0000
  C   C509      1.0  0.99684  0.56911  0.52527  1.0000
  H   H410      1.0  0.98622  0.54255  0.83227  1.0000
  C   C510      1.0  0.99712  0.46932  0.87733  1.0000
  C   C511      1.0  0.07268  0.62545  0.59341  1.0000
  C   C512      1.0  0.08481  0.62949  0.74537  1.0000
  C   C513      1.0  0.04054  0.33015  0.48522  1.0000
  C   C514      1.0  0.99286  0.57090  0.76915  1.0000
  H   H411      1.0  0.03248  0.51285  0.81626  1.0000
  C   C515      1.0  0.08293  0.64561  0.75721  1.0000
  H   H412      1.0  0.04906  0.53478  0.83950  1.0000
  C   C516      1.0  0.03846  0.57888  0.76822  1.0000
  C   C517      1.0  0.12267  0.64064  0.61337  1.0000
  C   C518      1.0  0.13990  0.33279  0.91810  1.0000
  H   H413      1.0  0.00317  0.38567  0.90730  1.0000
  C   C519      1.0  0.07145  0.47538  0.64904  1.0000
  H   H414      1.0  0.01129  0.59676  0.71153  1.0000
  H   H415      1.0  0.01714  0.53378  0.54344  1.0000
  C   C520      1.0  0.10124  0.33150  0.52155  1.0000
  H   H416      1.0  0.12725  0.43452  0.71795  1.0000
  H   H417      1.0  0.06565  0.48953  0.57182  1.0000
  C   C521      1.0  0.12714  0.60902  0.58751  1.0000
  H   H418      1.0  0.00696  0.56657  0.73058  1.0000
  H   H419      1.0  0.10601  0.42113  0.62156  1.0000
  H   H420      1.0  0.00447  0.63371  0.64588  1.0000
  C   C522      1.0  0.09090  0.43881  0.66323  1.0000
  H   H421      1.0  0.04021  0.55304  0.78350  1.0000
  H   H422      1.0  0.11444  0.33083  0.51488  1.0000
  C   C523      1.0  0.04317  0.56159  0.76643  1.0000
  P   P16       1.0  0.07432  0.44068  0.63733  1.0000
  C   C524      1.0  0.07146  0.46300  0.62804  1.0000
  H   H423      1.0  0.05253  0.59185  0.70424  1.0000
  C   C525      1.0  0.99167  0.38759  0.91962  1.0000
  C   C526      1.0  0.07619  0.63884  0.57486  1.0000
  H   H424      1.0  0.07292  0.47170  0.67075  1.0000
  C   C527      1.0  0.02105  0.61556  0.77654  1.0000
  H   H425      1.0  0.05967  0.40679  0.63736  1.0000
  S   S76       1.0  0.00278  0.37655  0.63676  1.0000
  H   H426      1.0  0.16715  0.32758  0.91698  1.0000
  H   H427      1.0  0.11109  0.40130  0.92653  1.0000
  H   H428      1.0  0.98861  0.43612  0.80924  1.0000
  H   H429      1.0  0.01335  0.45412  0.85019  1.0000
  C   C528      1.0  0.10811  0.37421  0.92379  1.0000
  H   H430      1.0  0.02531  0.49674  0.91469  1.0000
  C   C529      1.0  0.05494  0.43253  0.65226  1.0000
  C   C530      1.0  0.02256  0.63991  0.67757  1.0000
  C   C531      1.0  0.99209  0.61553  0.79490  1.0000
  C   C532      1.0  0.13793  0.61342  0.60916  1.0000
  H   H431      1.0  0.05202  0.32224  0.48340  1.0000
  C   C533      1.0  0.98812  0.48482  0.88069  1.0000
  C   C534      1.0  0.06732  0.49776  0.61440  1.0000
  H   H432      1.0  0.06341  0.41314  0.54730  1.0000
  C   C535      1.0  0.11222  0.32658  0.86748  1.0000
  C   C536      1.0  0.08952  0.36194  0.95865  1.0000
  H   H433      1.0  0.06748  0.34304  0.91657  1.0000
  H   H434      1.0  0.10587  0.61686  0.56192  1.0000
  C   C537      1.0  0.08995  0.42691  0.68521  1.0000
  C   C538      1.0  0.10301  0.42542  0.70489  1.0000
  C   C539      1.0  0.11182  0.63636  0.59159  1.0000
  C   C540      1.0  0.03611  0.40900  0.66013  1.0000
  C   C541      1.0  0.02485  0.41968  0.67511  1.0000
  C   C542      1.0  0.02871  0.43668  0.67919  1.0000
  C   C543      1.0  0.04374  0.44307  0.66796  1.0000
  H   H435      1.0  0.07922  0.41871  0.68714  1.0000
  H   H436      1.0  0.10221  0.41621  0.72179  1.0000
  C   C544      1.0  0.01572  0.61816  0.82648  1.0000
  H   H437      1.0  0.03302  0.39582  0.65683  1.0000
  H   H438      1.0  0.01310  0.41473  0.68342  1.0000
  H   H439      1.0  0.01993  0.44496  0.69073  1.0000
  C   C545      1.0  0.08871  0.40674  0.56191  1.0000
  C   C546      1.0  0.08761  0.32519  0.92962  1.0000
  C   C547      1.0  0.10422  0.33982  0.88272  1.0000
  C   C548      1.0  0.09456  0.35249  0.86845  1.0000
  C   C549      1.0  0.09343  0.35218  0.83931  1.0000
  C   C550      1.0  0.99807  0.53075  0.92507  1.0000
  H   H440      1.0  0.13960  0.33743  0.89678  1.0000
  C   C551      1.0  0.98789  0.49694  0.85916  1.0000
  H   H441      1.0  0.08099  0.62260  0.61092  1.0000
  H   H442      1.0  0.10632  0.45804  0.64394  1.0000
  H   H443      1.0  0.09159  0.40473  0.96718  1.0000
  C   C552      1.0  0.06954  0.46828  0.60008  1.0000
  H   H444      1.0  0.11682  0.37284  0.90624  1.0000
  H   H445      1.0  0.03687  0.61091  0.56349  1.0000
  H   H446      1.0  0.12870  0.59668  0.57779  1.0000
  C   C553      1.0  0.10171  0.33910  0.82427  1.0000
  C   C554      1.0  0.98951  0.38528  0.66377  1.0000
  H   H447      1.0  0.08598  0.36200  0.82838  1.0000
  H   H448      1.0  0.06933  0.45923  0.58330  1.0000
  C   C555      1.0  0.07276  0.41515  0.56335  1.0000
  C   C556      1.0  0.05524  0.56641  0.72056  1.0000
  H   H449      1.0  0.00371  0.56800  0.78233  1.0000
  C   C557      1.0  0.07078  0.61913  0.74330  1.0000
  C   C558      1.0  0.10520  0.44899  0.66102  1.0000
  C   C559      1.0  0.05114  0.41534  0.64889  1.0000
  H   H450      1.0  0.99159  0.44964  0.57033  1.0000
  H   H451      1.0  0.01905  0.52604  0.89670  1.0000
  H   H452      1.0  0.02714  0.44541  0.49694  1.0000
  H   H453      1.0  0.99388  0.36351  0.69083  1.0000
  C   C560      1.0  0.99130  0.50748  0.95656  1.0000
  C   C561      1.0  0.06523  0.64220  0.55228  1.0000
  H   H454      1.0  0.06867  0.50214  0.65852  1.0000
  C   C562      1.0  0.99918  0.57184  0.49639  1.0000
  C   C563      1.0  0.99472  0.57010  0.73981  1.0000
  C   C564      1.0  0.01448  0.60889  0.70241  1.0000
  C   C565      1.0  0.00637  0.61434  0.67786  1.0000
  C   C566      1.0  0.99822  0.61717  0.82200  1.0000
  C   C567      1.0  0.05004  0.58358  0.72189  1.0000
  P   P17       1.0  0.10448  0.33923  0.92041  1.0000
  C   C568      1.0  0.06859  0.42561  0.58604  1.0000
  C   C569      1.0  0.00620  0.46608  0.85259  1.0000
  C   C570      1.0  0.00964  0.52601  0.50247  1.0000
  C   C571      1.0  0.01334  0.33562  0.50830  1.0000
  C   C572      1.0  0.01659  0.44798  0.48287  1.0000
  C   C573      1.0  0.01141  0.52086  0.91344  1.0000
  C   C574      1.0  0.11712  0.43571  0.70271  1.0000
  C   C575      1.0  0.13574  0.62924  0.62198  1.0000
  H   H455      1.0  0.00282  0.56422  0.85541  1.0000
  C   C576      1.0  0.04773  0.61881  0.56677  1.0000
  H   H456      1.0  0.01124  0.57632  0.48878  1.0000
  C   C577      1.0  0.98575  0.50957  0.68605  1.0000
  C   C578      1.0  0.05468  0.62482  0.75323  1.0000
  H   H457      1.0  0.04067  0.61751  0.80783  1.0000
  H   H458      1.0  0.00494  0.38622  0.95916  1.0000
  H   H459      1.0  0.99249  0.52170  0.56722  1.0000
  C   C579      1.0  0.09661  0.41972  0.60545  1.0000
  C   C580      1.0  0.00494  0.49771  0.94514  1.0000
  H   H460      1.0  0.06514  0.51112  0.60924  1.0000
  C   C581      1.0  0.11418  0.62047  0.57865  1.0000
  C   C582      1.0  0.04192  0.59004  0.74594  1.0000
  C   C583      1.0  0.12491  0.33215  0.93427  1.0000
  H   H461      1.0  0.12236  0.64433  0.53801  1.0000
  C   C584      1.0  0.10067  0.40910  0.58286  1.0000
  C   C585      1.0  0.12609  0.32740  0.96250  1.0000
  C   C586      1.0  0.11822  0.44747  0.68075  1.0000
  H   H462      1.0  0.11298  0.40243  0.58178  1.0000
  C   C587      1.0  0.00607  0.47824  0.83101  1.0000
  H   H463      1.0  0.05544  0.54201  0.74129  1.0000
  P   P18       1.0  0.03598  0.61244  0.74792  1.0000
  H   H464      1.0  0.08767  0.36246  0.87977  1.0000
  H   H465      1.0  0.98939  0.61721  0.83955  1.0000
  H   H466      1.0  0.10075  0.33883  0.80169  1.0000
  C   C588      1.0  0.06928  0.49266  0.64223  1.0000
  H   H467      1.0  0.06185  0.56168  0.70205  1.0000
  H   H468      1.0  0.04267  0.63469  0.53072  1.0000
  H   H469      1.0  0.03196  0.58336  0.78690  1.0000
  H   H470      1.0  0.09162  0.39811  0.54482  1.0000
  H   H471      1.0  0.00466  0.46697  0.50932  1.0000
  C   C589      1.0  0.06756  0.48559  0.59335  1.0000
  H   H472      1.0  0.02044  0.61921  0.84758  1.0000
  C   C590      1.0  0.99272  0.38795  0.94903  1.0000
  C   C591      1.0  0.98494  0.49287  0.67655  1.0000
  C   C592      1.0  0.10013  0.35998  0.93505  1.0000
  H   H473      1.0  0.99694  0.60649  0.66845  1.0000
  C   C593      1.0  0.07056  0.33046  0.92495  1.0000
  C   C594      1.0  0.99750  0.51774  0.48690  1.0000
  C   C595      1.0  0.08631  0.37806  0.96998  1.0000
  H   H474      1.0  0.98919  0.42694  0.75973  1.0000
  H   H475      1.0  0.99418  0.47876  0.77345  1.0000
  C   C596      1.0  0.05293  0.64103  0.76530  1.0000
  C   C597      1.0  0.07534  0.31776  0.53451  1.0000
  H   H476      1.0  0.03956  0.64289  0.71168  1.0000
  C   C598      1.0  0.09257  0.31641  0.52588  1.0000
  H   H477      1.0  0.00788  0.48495  0.95274  1.0000
  C   C599      1.0  0.02830  0.32565  0.50508  1.0000
  H   H478      1.0  0.04058  0.64591  0.77242  1.0000
  H   H479      1.0  0.16864  0.31775  0.96620  1.0000
  H   H480      1.0  0.00396  0.33227  0.52394  1.0000
  H   H481      1.0  0.99286  0.48879  0.65902  1.0000
  C   C600      1.0  0.98741  0.37583  0.68862  1.0000
  C   C601      1.0  0.09399  0.39226  0.95828  1.0000
  H   H482      1.0  0.11485  0.32766  0.97571  1.0000
  H   H483      1.0  0.04419  0.32395  0.92862  1.0000
  C   C602      1.0  0.05734  0.31965  0.93162  1.0000
  H   H484      1.0  0.11914  0.31632  0.87812  1.0000
  H   H485      1.0  0.11728  0.31598  0.82679  1.0000
  Fe  Fe41      1.0  0.00896  0.88431  0.34781  1.0000
  S   S77       1.0  0.03343  0.89837  0.34641  1.0000
  H   H486      1.0  0.09019  0.65049  0.15259  1.0000
  Fe  Fe42      1.0  0.00346  0.89089  0.41121  1.0000
  S   S78       1.0  0.02746  0.90554  0.41384  1.0000
  C   C603      1.0  0.99183  0.89952  0.99624  1.0000
  Fe  Fe43      1.0  0.01969  0.91826  0.37313  1.0000
  S   S79       1.0  0.01271  0.94669  0.36659  1.0000
  Fe  Fe44      1.0  0.03949  0.88438  0.38723  1.0000
  S   S80       1.0  0.06642  0.87277  0.39663  1.0000
  C   C604      1.0  0.03340  0.65075  0.20209  1.0000
  S   S81       1.0  0.01576  0.86923  0.38682  1.0000
  Fe  Fe45      1.0  0.12561  0.78396  0.43159  1.0000
  S   S82       1.0  0.12563  0.75541  0.42470  1.0000
  S   S83       1.0  0.09945  0.79822  0.42504  1.0000
  Fe  Fe46      1.0  0.16419  0.78191  0.44472  1.0000
  S   S84       1.0  0.16656  0.75382  0.43844  1.0000
  H   H487      1.0  0.03076  0.84675  0.31222  1.0000
  Fe  Fe47      1.0  0.15001  0.75836  0.40063  1.0000
  S   S85       1.0  0.15919  0.74735  0.35873  1.0000
  C   C605      1.0  0.99559  0.83299  0.40364  1.0000
  S   S86       1.0  0.14538  0.73050  0.01286  1.0000
  S   S87       1.0  0.14922  0.78689  0.40512  1.0000
  C   C606      1.0  0.01612  0.95550  0.98550  1.0000
  Fe  Fe48      1.0  0.16820  0.67972  0.19810  1.0000
  S   S88       1.0  0.15447  0.70433  0.20908  1.0000
  S   S89       1.0  0.19713  0.68306  0.19375  1.0000
  Fe  Fe49      1.0  0.13364  0.66221  0.18653  1.0000
  S   S90       1.0  0.11845  0.68613  0.19702  1.0000
  Fe  Fe50      1.0  0.13817  0.69992  0.17165  1.0000
  S   S91       1.0  0.13201  0.72339  0.14442  1.0000
  Fe  Fe51      1.0  0.13625  0.68858  0.23332  1.0000
  S   S92       1.0  0.12502  0.69527  0.27618  1.0000
  S   S93       1.0  0.15262  0.67602  0.15914  1.0000
  S   S94       1.0  0.15062  0.66384  0.22443  1.0000
  C   C607      1.0  0.14228  0.72924  0.04968  1.0000
  C   C608      1.0  0.13587  0.74298  0.06539  1.0000
  C   C609      1.0  0.13290  0.74099  0.09436  1.0000
  C   C610      1.0  0.13640  0.72531  0.10798  1.0000
  C   C611      1.0  0.14311  0.71166  0.09234  1.0000
  C   C612      1.0  0.14594  0.71362  0.06338  1.0000
  H   H488      1.0  0.13293  0.75504  0.05514  1.0000
  H   H489      1.0  0.12771  0.75163  0.10622  1.0000
  H   H490      1.0  0.14595  0.69953  0.10246  1.0000
  H   H491      1.0  0.15088  0.70290  0.05142  1.0000
  C   C613      1.0  0.14949  0.73243  0.33678  1.0000
  C   C614      1.0  0.13379  0.72540  0.34324  1.0000
  C   C615      1.0  0.12642  0.71402  0.32457  1.0000
  C   C616      1.0  0.13470  0.70947  0.29942  1.0000
  C   C617      1.0  0.15051  0.71624  0.29331  1.0000
  C   C618      1.0  0.15786  0.72763  0.31185  1.0000
  H   H492      1.0  0.12728  0.72878  0.36252  1.0000
  H   H493      1.0  0.11423  0.70874  0.32963  1.0000
  H   H494      1.0  0.15707  0.71247  0.27436  1.0000
  H   H495      1.0  0.17014  0.73269  0.30688  1.0000
  C   C619      1.0  0.10216  0.70195  0.04991  1.0000
  C   C620      1.0  0.21567  0.68026  0.21493  1.0000
  C   C621      1.0  0.21598  0.67020  0.23919  1.0000
  C   C622      1.0  0.98991  0.90676  0.02294  1.0000
  H   H496      1.0  0.21001  0.82439  0.46051  1.0000
  C   C623      1.0  0.22923  0.74202  0.06203  1.0000
  H   H497      1.0  0.05101  0.88515  0.45020  1.0000
  H   H498      1.0  0.10537  0.72679  0.03154  1.0000
  H   H499      1.0  0.17940  0.71188  0.16025  1.0000
  C   C624      1.0  0.10453  0.68993  0.99517  1.0000
  H   H500      1.0  0.17721  0.75149  0.09828  1.0000
  C   C625      1.0  0.16252  0.67288  0.29694  1.0000
  C   C626      1.0  0.02205  0.97016  0.46624  1.0000
  C   C627      1.0  0.07510  0.85200  0.40575  1.0000
  C   C628      1.0  0.09283  0.84979  0.40986  1.0000
  C   C629      1.0  0.10049  0.83358  0.41584  1.0000
  C   C630      1.0  0.09058  0.81915  0.41748  1.0000
  C   C631      1.0  0.07284  0.82133  0.41325  1.0000
  C   C632      1.0  0.06512  0.83760  0.40782  1.0000
  H   H501      1.0  0.10075  0.86074  0.40831  1.0000
  H   H502      1.0  0.11407  0.83226  0.41924  1.0000
  H   H503      1.0  0.02506  0.91813  0.46986  1.0000
  H   H504      1.0  0.05150  0.83895  0.40469  1.0000
  C   C633      1.0  0.02248  0.96561  0.35478  1.0000
  C   C634      1.0  0.04008  0.96655  0.35051  1.0000
  C   C635      1.0  0.00691  0.95077  0.16106  1.0000
  C   C636      1.0  0.01956  0.82210  0.43093  1.0000
  H   H505      1.0  0.04832  0.95549  0.35455  1.0000
  H   H506      1.0  0.04985  0.85176  0.35214  1.0000
  H   H507      1.0  0.09610  0.65609  0.21666  1.0000
  C   C637      1.0  0.21331  0.78726  0.39424  1.0000
  C   C638      1.0  0.21577  0.71356  0.31309  1.0000
  C   C639      1.0  0.20875  0.73006  0.31699  1.0000
  C   C640      1.0  0.07823  0.65234  0.28132  1.0000
  H   H508      1.0  0.99786  0.91708  0.02873  1.0000
  H   H509      1.0  0.18010  0.77270  0.32758  1.0000
  H   H510      1.0  0.06933  0.81387  0.27501  1.0000
  H   H511      1.0  0.16857  0.73518  0.25302  1.0000
  C   C641      1.0  0.08958  0.65741  0.26042  1.0000
  C   C642      1.0  0.99109  0.90278  0.24475  1.0000
  C   C643      1.0  0.22648  0.71036  0.28994  1.0000
  H   H512      1.0  0.01543  0.94995  0.00627  1.0000
  C   C644      1.0  0.13996  0.79174  0.15977  1.0000
  C   C645      1.0  0.14896  0.80674  0.15926  1.0000
  C   C646      1.0  0.15997  0.81025  0.18108  1.0000
  C   C647      1.0  0.16200  0.79876  0.20341  1.0000
  C   C648      1.0  0.15275  0.78379  0.20441  1.0000
  C   C649      1.0  0.14183  0.78031  0.18219  1.0000
  P   P19       1.0  0.15668  0.76842  0.23227  1.0000
  C   C650      1.0  0.17447  0.75436  0.22238  1.0000
  C   C651      1.0  0.16071  0.77925  0.26464  1.0000
  C   C652      1.0  0.17100  0.77145  0.28530  1.0000
  C   C653      1.0  0.17257  0.77905  0.31143  1.0000
  C   C654      1.0  0.16389  0.79446  0.31718  1.0000
  C   C655      1.0  0.15367  0.80236  0.29673  1.0000
  C   C656      1.0  0.15199  0.79474  0.27066  1.0000
  C   C657      1.0  0.18538  0.75847  0.20006  1.0000
  C   C658      1.0  0.19847  0.74698  0.19175  1.0000
  C   C659      1.0  0.21333  0.70835  0.41867  1.0000
  C   C660      1.0  0.00471  0.97029  0.45967  1.0000
  C   C661      1.0  0.99044  0.84349  0.42578  1.0000
  C   C662      1.0  0.13839  0.75541  0.23815  1.0000
  C   C663      1.0  0.13401  0.74342  0.21815  1.0000
  C   C664      1.0  0.12009  0.73313  0.22263  1.0000
  C   C665      1.0  0.11079  0.73425  0.24756  1.0000
  C   C666      1.0  0.11524  0.74588  0.26788  1.0000
  C   C667      1.0  0.12892  0.75647  0.26322  1.0000
  H   H513      1.0  0.13162  0.78886  0.14260  1.0000
  H   H514      1.0  0.19840  0.69278  0.27799  1.0000
  C   C668      1.0  0.17709  0.73274  0.13085  1.0000
  H   H515      1.0  0.17101  0.80145  0.21967  1.0000
  H   H516      1.0  0.13481  0.76877  0.18168  1.0000
  H   H517      1.0  0.17739  0.75927  0.28172  1.0000
  H   H518      1.0  0.16488  0.80011  0.33766  1.0000
  H   H519      1.0  0.14679  0.81423  0.30130  1.0000
  H   H520      1.0  0.14357  0.80072  0.25546  1.0000
  H   H521      1.0  0.18367  0.77032  0.18862  1.0000
  H   H522      1.0  0.20657  0.74998  0.17410  1.0000
  H   H523      1.0  0.00465  0.90244  0.28400  1.0000
  H   H524      1.0  0.14148  0.74178  0.19915  1.0000
  H   H525      1.0  0.11682  0.72395  0.20701  1.0000
  H   H526      1.0  0.10051  0.72569  0.25150  1.0000
  H   H527      1.0  0.10837  0.74630  0.28760  1.0000
  H   H528      1.0  0.13225  0.76503  0.27962  1.0000
  H   H529      1.0  0.01795  0.97485  0.16888  1.0000
  C   C669      1.0  0.18464  0.71775  0.14166  1.0000
  H   H530      1.0  0.00040  0.97723  0.99592  1.0000
  C   C670      1.0  0.10252  0.67849  0.01742  1.0000
  C   C671      1.0  0.19792  0.73267  0.09298  1.0000
  H   H531      1.0  0.17354  0.68043  0.25749  1.0000
  P   P20       1.0  0.20615  0.74156  0.06075  1.0000
  C   C672      1.0  0.12250  0.66258  0.08175  1.0000
  H   H532      1.0  0.22972  0.69664  0.38786  1.0000
  H   H533      1.0  0.16716  0.82176  0.18043  1.0000
  H   H534      1.0  0.10034  0.85278  0.31566  1.0000
  C   C673      1.0  0.19101  0.68738  0.32083  1.0000
  C   C674      1.0  0.19748  0.76288  0.05497  1.0000
  C   C675      1.0  0.18047  0.76531  0.04639  1.0000
  C   C676      1.0  0.17371  0.78171  0.04106  1.0000
  C   C677      1.0  0.18396  0.79576  0.04366  1.0000
  C   C678      1.0  0.20091  0.79344  0.05203  1.0000
  C   C679      1.0  0.20767  0.77707  0.05778  1.0000
  C   C680      1.0  0.02675  0.65763  0.17725  1.0000
  H   H535      1.0  0.02905  0.86365  0.45221  1.0000
  C   C681      1.0  0.02061  0.94756  0.28570  1.0000
  H   H536      1.0  0.03966  0.94050  0.25498  1.0000
  C   C682      1.0  0.22273  0.66254  0.33378  1.0000
  P   P21       1.0  0.10076  0.66926  0.07375  1.0000
  H   H537      1.0  0.18918  0.70858  0.05600  1.0000
  H   H538      1.0  0.10178  0.70698  0.07082  1.0000
  H   H539      1.0  0.17245  0.75451  0.04353  1.0000
  H   H540      1.0  0.16060  0.78345  0.03436  1.0000
  H   H541      1.0  0.17881  0.80840  0.03875  1.0000
  H   H542      1.0  0.20896  0.80430  0.05348  1.0000
  H   H543      1.0  0.99621  0.91464  0.23787  1.0000
  C   C683      1.0  0.21701  0.81255  0.46481  1.0000
  H   H544      1.0  0.20605  0.74837  0.00065  1.0000
  H   H545      1.0  0.08016  0.65618  0.30270  1.0000
  H   H546      1.0  0.98852  0.83343  0.38427  1.0000
  H   H547      1.0  0.99237  0.92842  0.15412  1.0000
  C   C684      1.0  0.22645  0.67981  0.33629  1.0000
  H   H548      1.0  0.06730  0.66617  0.10191  1.0000
  H   H549      1.0  0.99375  0.92172  0.46511  1.0000
  C   C685      1.0  0.21724  0.70244  0.39180  1.0000
  H   H550      1.0  0.19403  0.75147  0.37404  1.0000
  C   C686      1.0  0.16443  0.67271  0.32592  1.0000
  C   C687      1.0  0.18904  0.68736  0.29176  1.0000
  C   C688      1.0  0.19134  0.71373  0.03533  1.0000
  C   C689      1.0  0.01487  0.94464  0.23648  1.0000
  C   C690      1.0  0.99983  0.84334  0.45046  1.0000
  C   C691      1.0  0.21822  0.78186  0.46815  1.0000
  C   C692      1.0  0.19929  0.72931  0.03139  1.0000
  H   H551      1.0  0.14755  0.81552  0.14176  1.0000
  C   C693      1.0  0.20419  0.75969  0.37972  1.0000
  C   C694      1.0  0.22094  0.75314  0.38193  1.0000
  H   H552      1.0  0.19417  0.72045  0.44523  1.0000
  H   H553      1.0  0.21204  0.76985  0.46659  1.0000
  C   C695      1.0  0.00341  0.95180  0.29060  1.0000
  C   C696      1.0  0.99762  0.94886  0.24132  1.0000
  C   C697      1.0  0.18513  0.71742  0.40331  1.0000
  H   H554      1.0  0.21021  0.80035  0.39988  1.0000
  C   C698      1.0  0.22297  0.73976  0.27496  1.0000
  C   C699      1.0  0.00618  0.96828  0.16625  1.0000
  C   C700      1.0  0.17700  0.73869  0.23621  1.0000
  H   H555      1.0  0.21627  0.71140  0.09363  1.0000
  C   C701      1.0  0.21255  0.74315  0.29820  1.0000
  H   H556      1.0  0.22093  0.77557  0.06370  1.0000
  H   H557      1.0  0.11834  0.87183  0.34212  1.0000
  H   H558      1.0  0.12505  0.80945  0.35689  1.0000
  C   C702      1.0  0.19884  0.71021  0.12833  1.0000
  H   H559      1.0  0.98902  0.94925  0.22377  1.0000
  C   C703      1.0  0.10418  0.71332  0.02760  1.0000
  H   H560      1.0  0.14306  0.82865  0.38236  1.0000
  H   H561      1.0  0.23186  0.69772  0.28620  1.0000
  C   C704      1.0  0.01021  0.82240  0.40615  1.0000
  H   H562      1.0  0.01929  0.94157  0.21561  1.0000
  H   H563      1.0  0.17867  0.69324  0.01558  1.0000
  C   C705      1.0  0.13596  0.66603  0.06320  1.0000
  C   C706      1.0  0.05208  0.87484  0.46530  1.0000
  H   H564      1.0  0.02944  0.94693  0.30301  1.0000
  C   C707      1.0  0.98981  0.88018  0.27968  1.0000
  C   C708      1.0  0.01432  0.83245  0.45340  1.0000
  H   H565      1.0  0.21058  0.72221  0.19872  1.0000
  C   C709      1.0  0.02635  0.94396  0.25866  1.0000
  H   H566      1.0  0.02514  0.67130  0.17470  1.0000
  H   H567      1.0  0.15133  0.66759  0.28773  1.0000
  C   C710      1.0  0.10130  0.68440  0.04502  1.0000
  C   C711      1.0  0.06256  0.79352  0.47957  1.0000
  C   C712      1.0  0.20078  0.73135  0.20562  1.0000
  H   H568      1.0  0.12305  0.75942  0.34081  1.0000
  S   S95       1.0  0.14048  0.78094  0.47197  1.0000
  C   C713      1.0  0.09124  0.67910  0.10439  1.0000
  C   C714      1.0  0.10041  0.69068  0.11993  1.0000
  C   C715      1.0  0.09287  0.69872  0.14309  1.0000
  C   C716      1.0  0.07644  0.69473  0.15168  1.0000
  C   C717      1.0  0.06737  0.68291  0.13677  1.0000
  C   C718      1.0  0.07465  0.67523  0.11308  1.0000
  C   C719      1.0  0.20543  0.71758  0.10402  1.0000
  H   H569      1.0  0.07854  0.83794  0.35374  1.0000
  P   P22       1.0  0.20972  0.69622  0.33577  1.0000
  H   H570      1.0  0.11330  0.69370  0.11395  1.0000
  H   H571      1.0  0.09985  0.70801  0.15447  1.0000
  H   H572      1.0  0.07079  0.70079  0.16993  1.0000
  H   H573      1.0  0.05468  0.67968  0.14353  1.0000
  H   H574      1.0  0.03091  0.81392  0.43235  1.0000
  H   H575      1.0  0.12189  0.78653  0.31482  1.0000
  H   H576      1.0  0.06499  0.81033  0.41432  1.0000
  H   H577      1.0  0.17258  0.72306  0.40760  1.0000
  H   H578      1.0  0.19169  0.71495  0.23823  1.0000
  H   H579      1.0  0.10012  0.75261  0.37462  1.0000
  S   S96       1.0  0.99504  0.90458  0.37209  1.0000
  C   C720      1.0  0.20506  0.70401  0.37049  1.0000
  H   H580      1.0  0.16591  0.73840  0.14102  1.0000
  H   H581      1.0  0.22720  0.74477  0.43624  1.0000
  H   H582      1.0  0.22793  0.78907  0.00813  1.0000
  H   H583      1.0  0.17947  0.71326  0.36033  1.0000
  C   C721      1.0  0.18905  0.71172  0.37643  1.0000
  C   C722      1.0  0.04708  0.98195  0.34125  1.0000
  C   C723      1.0  0.08819  0.65129  0.06459  1.0000
  C   C724      1.0  0.18359  0.74013  0.10651  1.0000
  H   H584      1.0  0.01441  0.81454  0.38876  1.0000
  C   C725      1.0  0.98627  0.96027  0.07829  1.0000
  H   H585      1.0  0.01911  0.94389  0.15985  1.0000
  H   H586      1.0  0.07477  0.80072  0.35710  1.0000
  H   H587      1.0  0.07621  0.77349  0.38291  1.0000
  H   H588      1.0  0.16296  0.66326  0.05512  1.0000
  C   C726      1.0  0.20037  0.77672  0.38594  1.0000
  H   H589      1.0  0.13984  0.85989  0.37533  1.0000
  H   H590      1.0  0.10757  0.71618  0.98320  1.0000
  H   H591      1.0  0.22357  0.73978  0.37781  1.0000
  C   C727      1.0  0.19727  0.71586  0.42444  1.0000
  C   C728      1.0  0.18535  0.70491  0.01239  1.0000
  H   H592      1.0  0.18730  0.78166  0.38509  1.0000
  C   C729      1.0  0.23004  0.78072  0.39689  1.0000
  C   C730      1.0  0.19011  0.72725  0.22794  1.0000
  C   C731      1.0  0.15263  0.66036  0.06931  1.0000
  H   H593      1.0  0.04057  0.82767  0.27387  1.0000
  S   S97       1.0  0.99542  0.87090  0.31255  1.0000
  C   C732      1.0  0.10662  0.79549  0.23749  1.0000
  C   C733      1.0  0.11379  0.80895  0.22285  1.0000
  C   C734      1.0  0.11662  0.82424  0.23642  1.0000
  C   C735      1.0  0.11221  0.82613  0.26462  1.0000
  C   C736      1.0  0.10498  0.81268  0.27953  1.0000
  C   C737      1.0  0.10203  0.79740  0.26560  1.0000
  P   P23       1.0  0.09763  0.81567  0.31512  1.0000
  C   C738      1.0  0.07622  0.82505  0.31440  1.0000
  C   C739      1.0  0.09788  0.79539  0.33311  1.0000
  C   C740      1.0  0.11154  0.78361  0.32890  1.0000
  C   C741      1.0  0.11226  0.76821  0.34366  1.0000
  C   C742      1.0  0.09937  0.76442  0.36275  1.0000
  C   C743      1.0  0.08581  0.77612  0.36723  1.0000
  C   C744      1.0  0.08507  0.79160  0.35256  1.0000
  C   C745      1.0  0.07040  0.83559  0.33621  1.0000
  C   C746      1.0  0.05410  0.84338  0.33540  1.0000
  C   C747      1.0  0.04337  0.84056  0.31291  1.0000
  C   C748      1.0  0.04893  0.82984  0.29129  1.0000
  C   C749      1.0  0.06528  0.82207  0.29201  1.0000
  C   C750      1.0  0.11157  0.82957  0.33349  1.0000
  C   C751      1.0  0.12372  0.82295  0.35253  1.0000
  C   C752      1.0  0.13403  0.83385  0.36721  1.0000
  C   C753      1.0  0.13218  0.85145  0.36333  1.0000
  C   C754      1.0  0.12009  0.85816  0.34458  1.0000
  C   C755      1.0  0.10988  0.84729  0.32965  1.0000
  H   H594      1.0  0.10432  0.78366  0.22691  1.0000
  H   H595      1.0  0.11697  0.80762  0.20091  1.0000
  H   H596      1.0  0.12200  0.83474  0.22495  1.0000
  H   H597      1.0  0.11418  0.83819  0.27451  1.0000
  H   H598      1.0  0.09590  0.78703  0.27625  1.0000
  H   H599      1.0  0.22272  0.70700  0.43506  1.0000
  H   H600      1.0  0.07068  0.66620  0.03853  1.0000
  H   H601      1.0  0.15473  0.66721  0.33905  1.0000
  C   C756      1.0  0.17490  0.68013  0.27992  1.0000
  H   H602      1.0  0.23078  0.69570  0.18754  1.0000
  H   H603      1.0  0.99911  0.95446  0.31170  1.0000
  H   H604      1.0  0.18014  0.67920  0.36032  1.0000
  H   H605      1.0  0.22562  0.74981  0.26007  1.0000
  C   C757      1.0  0.99038  0.97725  0.16798  1.0000
  H   H606      1.0  0.99620  0.96234  0.09332  1.0000
  H   H607      1.0  0.20457  0.69850  0.13674  1.0000
  H   H608      1.0  0.20720  0.75587  0.30148  1.0000
  H   H609      1.0  0.20972  0.65863  0.33191  1.0000
  H   H610      1.0  0.02936  0.95822  0.46692  1.0000
  Fe  Fe52      1.0  0.14207  0.75275  0.46326  1.0000
  H   H611      1.0  0.20007  0.73280  0.33412  1.0000
  C   C758      1.0  0.99596  0.89582  0.27088  1.0000
  H   H612      1.0  0.03691  0.65923  0.21862  1.0000
  C   C759      1.0  0.99189  0.94206  0.15763  1.0000
  H   H613      1.0  0.20461  0.66387  0.24578  1.0000
  S   S98       1.0  0.18677  0.79855  0.45345  1.0000
  H   H614      1.0  0.23131  0.65995  0.27307  1.0000
  H   H615      1.0  0.13377  0.67323  0.04414  1.0000
  C   C760      1.0  0.20083  0.73599  0.00421  1.0000
  C   C761      1.0  0.20880  0.79713  0.46257  1.0000
  C   C762      1.0  0.17874  0.67975  0.33787  1.0000
  C   C763      1.0  0.22953  0.78173  0.98926  1.0000
  H   H616      1.0  0.10240  0.66499  0.01315  1.0000
  H   H617      1.0  0.10029  0.66511  0.26559  1.0000
  C   C764      1.0  0.22988  0.72334  0.27078  1.0000
  C   C765      1.0  0.10546  0.70733  0.00029  1.0000
  H   H618      1.0  0.99898  0.95834  0.45516  1.0000
  H   H619      1.0  0.00455  0.98015  0.22065  1.0000
  H   H620      1.0  0.11609  0.65113  0.12155  1.0000
  C   C766      1.0  0.99175  0.95229  0.26855  1.0000
  H   H621      1.0  0.05998  0.81962  0.46668  1.0000
  C   C767      1.0  0.18730  0.71152  0.98542  1.0000
  C   C768      1.0  0.03970  0.86250  0.46641  1.0000
  H   H622      1.0  0.99583  0.85187  0.46712  1.0000
  C   C769      1.0  0.15597  0.65097  0.09369  1.0000
  H   H623      1.0  0.07520  0.79180  0.47042  1.0000
  H   H624      1.0  0.01739  0.65216  0.13617  1.0000
  C   C770      1.0  0.01201  0.98016  0.34927  1.0000
  H   H625      1.0  0.99837  0.97955  0.35204  1.0000
  C   C771      1.0  0.08716  0.65245  0.23284  1.0000
  C   C772      1.0  0.23077  0.68806  0.20644  1.0000
  C   C773      1.0  0.23121  0.66792  0.25456  1.0000
  H   H626      1.0  0.23306  0.74354  0.01708  1.0000
  C   C774      1.0  0.12610  0.65356  0.10655  1.0000
  H   H627      1.0  0.23049  0.74208  0.10728  1.0000
  C   C775      1.0  0.07380  0.65379  0.04751  1.0000
  C   C776      1.0  0.05388  0.80932  0.47753  1.0000
  C   C777      1.0  0.19517  0.72699  0.98132  1.0000
  H   H628      1.0  0.22736  0.72933  0.48076  1.0000
  Fe  Fe53      1.0  0.00688  0.89315  0.86722  1.0000
  S   S99       1.0  0.03423  0.89383  0.85375  1.0000
  H   H629      1.0  0.10734  0.84382  0.95066  1.0000
  Fe  Fe54      1.0  0.01575  0.89997  0.92860  1.0000
  S   S100      1.0  0.04390  0.90121  0.91852  1.0000
  C   C778      1.0  0.01699  0.96885  0.93128  1.0000
  Fe  Fe55      1.0  0.03534  0.91694  0.88109  1.0000
  S   S101      1.0  0.04920  0.94097  0.86825  1.0000
  Fe  Fe56      1.0  0.04077  0.87784  0.89218  1.0000
  S   S102      1.0  0.05800  0.85316  0.88655  1.0000
  S   S103      1.0  0.00762  0.91710  0.89263  1.0000
  S   S104      1.0  0.01288  0.87586  0.90429  1.0000
  Fe  Fe57      1.0  0.13461  0.78272  0.94212  1.0000
  S   S105      1.0  0.12213  0.75749  0.94901  1.0000
  S   S106      1.0  0.12068  0.80941  0.94267  1.0000
  Fe  Fe58      1.0  0.17064  0.76527  0.93671  1.0000
  S   S107      1.0  0.15991  0.73940  0.94176  1.0000
  S   S108      1.0  0.19931  0.76484  0.92639  1.0000
  Fe  Fe59      1.0  0.13892  0.74821  0.91336  1.0000
  S   S109      1.0  0.12817  0.72962  0.88231  1.0000
  C   C779      1.0  0.10253  0.82784  0.83008  1.0000
  C   C780      1.0  0.09875  0.69368  0.62740  1.0000
  S   S110      1.0  0.15049  0.77346  0.90524  1.0000
  H   H630      1.0  0.10065  0.82384  0.85147  1.0000
  Fe  Fe60      1.0  0.16703  0.67243  0.68790  1.0000
  S   S111      1.0  0.16429  0.70069  0.68930  1.0000
  H   H631      1.0  0.18079  0.79278  0.84508  1.0000
  Fe  Fe61      1.0  0.12812  0.66823  0.68736  1.0000
  S   S112      1.0  0.12333  0.69690  0.68961  1.0000
  Fe  Fe62      1.0  0.14390  0.69891  0.65691  1.0000
  S   S113      1.0  0.14243  0.72107  0.62534  1.0000
  Fe  Fe63      1.0  0.14400  0.69706  0.72188  1.0000
  S   S114      1.0  0.14768  0.71790  0.75420  1.0000
  S   S115      1.0  0.14788  0.67053  0.65282  1.0000
  S   S116      1.0  0.14768  0.66837  0.72233  1.0000
  C   C781      1.0  0.14036  0.72748  0.52926  1.0000
  C   C782      1.0  0.14254  0.74145  0.54658  1.0000
  C   C783      1.0  0.14336  0.73917  0.57585  1.0000
  C   C784      1.0  0.14218  0.72291  0.58821  1.0000
  C   C785      1.0  0.14041  0.70888  0.57085  1.0000
  C   C786      1.0  0.13942  0.71119  0.54161  1.0000
  H   H632      1.0  0.14335  0.75405  0.53748  1.0000
  H   H633      1.0  0.14477  0.75011  0.58906  1.0000
  H   H634      1.0  0.13961  0.69630  0.57996  1.0000
  H   H635      1.0  0.13793  0.70026  0.52847  1.0000
  C   C787      1.0  0.13460  0.72610  0.84716  1.0000
  C   C788      1.0  0.14577  0.73675  0.83310  1.0000
  C   C789      1.0  0.14992  0.73380  0.80480  1.0000
  C   C790      1.0  0.14304  0.72015  0.79034  1.0000
  C   C791      1.0  0.13219  0.70930  0.80457  1.0000
  C   C792      1.0  0.12794  0.71233  0.83279  1.0000
  H   H636      1.0  0.15101  0.74738  0.84390  1.0000
  H   H637      1.0  0.15834  0.74228  0.79397  1.0000
  H   H638      1.0  0.12679  0.69879  0.79372  1.0000
  H   H639      1.0  0.11931  0.70402  0.84353  1.0000
  C   C793      1.0  0.18091  0.73549  0.64482  1.0000
  C   C794      1.0  0.21213  0.66558  0.70431  1.0000
  C   C795      1.0  0.21136  0.67854  0.72411  1.0000
  C   C796      1.0  0.02560  0.95342  0.93749  1.0000
  H   H640      1.0  0.10091  0.75546  0.89437  1.0000
  H   H641      1.0  0.19944  0.68555  0.72762  1.0000
  H   H642      1.0  0.00116  0.98050  0.84380  1.0000
  C   C797      1.0  0.11594  0.76679  0.78997  1.0000
  C   C798      1.0  0.04322  0.82733  0.77995  1.0000
  C   C799      1.0  0.18514  0.75139  0.63415  1.0000
  C   C800      1.0  0.19860  0.76638  0.53874  1.0000
  H   H643      1.0  0.12210  0.76980  0.86520  1.0000
  H   H644      1.0  0.19832  0.76494  0.60208  1.0000
  C   C801      1.0  0.07486  0.84102  0.90385  1.0000
  C   C802      1.0  0.07820  0.82391  0.89616  1.0000
  C   C803      1.0  0.09185  0.81400  0.90802  1.0000
  C   C804      1.0  0.10264  0.82105  0.92768  1.0000
  C   C805      1.0  0.09923  0.83812  0.93548  1.0000
  C   C806      1.0  0.08547  0.84798  0.92384  1.0000
  H   H645      1.0  0.07016  0.81826  0.88083  1.0000
  H   H646      1.0  0.09411  0.80093  0.90189  1.0000
  C   C807      1.0  0.01998  0.84125  0.82326  1.0000
  H   H647      1.0  0.08324  0.86106  0.93009  1.0000
  C   C808      1.0  0.03940  0.96117  0.86003  1.0000
  C   C809      1.0  0.02563  0.92984  0.51024  1.0000
  C   C810      1.0  0.99115  0.94918  0.80136  1.0000
  H   H648      1.0  0.08152  0.79959  0.82580  1.0000
  C   C811      1.0  0.99818  0.93944  0.52928  1.0000
  H   H649      1.0  0.21752  0.71424  0.67189  1.0000
  C   C812      1.0  0.11204  0.82246  0.78272  1.0000
  H   H650      1.0  0.09377  0.65376  0.75794  1.0000
  H   H651      1.0  0.22038  0.75175  0.65463  1.0000
  C   C813      1.0  0.20106  0.73762  0.59640  1.0000
  H   H652      1.0  0.99681  0.91387  0.57080  1.0000
  H   H653      1.0  0.17273  0.73462  0.66309  1.0000
  C   C814      1.0  0.99884  0.93929  0.63954  1.0000
  H   H654      1.0  0.08345  0.70180  0.66265  1.0000
  H   H655      1.0  0.09202  0.69853  0.51162  1.0000
  H   H656      1.0  0.04679  0.78408  0.78638  1.0000
  H   H657      1.0  0.15009  0.77933  0.73529  1.0000
  H   H658      1.0  0.19093  0.69098  0.48734  1.0000
  C   C815      1.0  0.10349  0.78633  0.84420  1.0000
  C   C816      1.0  0.02283  0.82995  0.87053  1.0000
  S   S117      1.0  0.98440  0.88833  0.83819  1.0000
  C   C817      1.0  0.18415  0.71167  0.51478  1.0000
  C   C818      1.0  0.13766  0.80025  0.84280  1.0000
  C   C819      1.0  0.22573  0.78797  0.54567  1.0000
  C   C820      1.0  0.07746  0.66593  0.62517  1.0000
  C   C821      1.0  0.23039  0.70282  0.84643  1.0000
  S   S118      1.0  0.10320  0.65301  0.68544  1.0000
  H   H659      1.0  0.99015  0.93745  0.94832  1.0000
  C   C822      1.0  0.22714  0.77111  0.55517  1.0000
  C   C823      1.0  0.08598  0.79019  0.84096  1.0000
  H   H660      1.0  0.22492  0.69177  0.75586  1.0000
  C   C824      1.0  0.07470  0.67847  0.64541  1.0000
  C   C825      1.0  0.16828  0.79789  0.85075  1.0000
  H   H661      1.0  0.00802  0.88423  0.48579  1.0000
  C   C826      1.0  0.19018  0.75871  0.71830  1.0000
  C   C827      1.0  0.18149  0.74487  0.72911  1.0000
  C   C828      1.0  0.18998  0.72905  0.73217  1.0000
  C   C829      1.0  0.20706  0.72700  0.72414  1.0000
  C   C830      1.0  0.21574  0.74064  0.71250  1.0000
  C   C831      1.0  0.20733  0.75668  0.71034  1.0000
  C   C832      1.0  0.01760  0.92423  0.48628  1.0000
  C   C833      1.0  0.09097  0.66716  0.60596  1.0000
  C   C834      1.0  0.07400  0.78199  0.85760  1.0000
  C   C835      1.0  0.09873  0.84975  0.79468  1.0000
  C   C836      1.0  0.09673  0.76528  0.87965  1.0000
  H   H662      1.0  0.02589  0.65180  0.66769  1.0000
  H   H663      1.0  0.22958  0.77012  0.61566  1.0000
  C   C837      1.0  0.00816  0.97800  0.95226  1.0000
  C   C838      1.0  0.16644  0.80840  0.87402  1.0000
  H   H664      1.0  0.21526  0.68463  0.89120  1.0000
  C   C839      1.0  0.21506  0.77793  0.97341  1.0000
  H   H665      1.0  0.08110  0.81835  0.74691  1.0000
  H   H666      1.0  0.18364  0.77103  0.71632  1.0000
  H   H667      1.0  0.16823  0.74633  0.73542  1.0000
  H   H668      1.0  0.18333  0.71835  0.74086  1.0000
  C   C840      1.0  0.05844  0.83003  0.76525  1.0000
  C   C841      1.0  0.98861  0.97168  0.55822  1.0000
  H   H669      1.0  0.21401  0.76760  0.70266  1.0000
  C   C842      1.0  0.14049  0.77592  0.75048  1.0000
  P   P24       1.0  0.98595  0.94892  0.55754  1.0000
  H   H670      1.0  0.06763  0.65238  0.53759  1.0000
  C   C843      1.0  0.06702  0.65134  0.76734  1.0000
  C   C844      1.0  0.99453  0.88400  0.52543  1.0000
  H   H671      1.0  0.22449  0.68633  0.65099  1.0000
  C   C845      1.0  0.02187  0.96316  0.85537  1.0000
  H   H672      1.0  0.02707  0.80826  0.79787  1.0000
  H   H673      1.0  0.10574  0.68531  0.97398  1.0000
  H   H674      1.0  0.10772  0.84318  0.75348  1.0000
  C   C846      1.0  0.06625  0.87352  0.48274  1.0000
  H   H675      1.0  0.20248  0.78229  0.98023  1.0000
  C   C847      1.0  0.06794  0.85999  0.50175  1.0000
  C   C848      1.0  0.98581  0.96273  0.78410  1.0000
  H   H676      1.0  0.00478  0.90613  0.79605  1.0000
  P   P25       1.0  0.02896  0.84500  0.78898  1.0000
  H   H677      1.0  0.00461  0.89914  0.61454  1.0000
  C   C849      1.0  0.13595  0.81033  0.86684  1.0000
  C   C850      1.0  0.12086  0.66523  0.50902  1.0000
  H   H678      1.0  0.14342  0.79830  0.77507  1.0000
  C   C851      1.0  0.98432  0.84089  0.74561  1.0000
  C   C852      1.0  0.99721  0.84594  0.85731  1.0000
  H   H679      1.0  0.99686  0.85641  0.81585  1.0000
  H   H680      1.0  0.02232  0.94172  0.55020  1.0000
  H   H681      1.0  0.12088  0.65256  0.62425  1.0000
  H   H682      1.0  0.01707  0.97348  0.90996  1.0000
  C   C853      1.0  0.01155  0.83501  0.51472  1.0000
  C   C854      1.0  0.01614  0.84426  0.53828  1.0000
  C   C855      1.0  0.99701  0.83883  0.76585  1.0000
  H   H683      1.0  0.00157  0.83512  0.89825  1.0000
  H   H684      1.0  0.18781  0.75848  0.53600  1.0000
  H   H685      1.0  0.00790  0.85436  0.57812  1.0000
  H   H686      1.0  0.18285  0.70835  0.63889  1.0000
  H   H687      1.0  0.10666  0.76270  0.80519  1.0000
  H   H688      1.0  0.01390  0.95229  0.85745  1.0000
  C   C856      1.0  0.19721  0.78329  0.52945  1.0000
  H   H689      1.0  0.04251  0.82783  0.83945  1.0000
  C   C857      1.0  0.21360  0.76008  0.55167  1.0000
  H   H690      1.0  0.00494  0.97953  0.65351  1.0000
  H   H691      1.0  0.10717  0.70430  0.62846  1.0000
  C   C858      1.0  0.00366  0.85634  0.71610  1.0000
  C   C859      1.0  0.10628  0.83887  0.77490  1.0000
  H   H692      1.0  0.05715  0.83714  0.51768  1.0000
  H   H693      1.0  0.18062  0.73158  0.54465  1.0000
  C   C860      1.0  0.20728  0.72333  0.54128  1.0000
  H   H694      1.0  0.17993  0.70795  0.79949  1.0000
  C   C861      1.0  0.11990  0.75610  0.76750  1.0000
  H   H695      1.0  0.02845  0.84989  0.53956  1.0000
  C   C862      1.0  0.00458  0.84673  0.56037  1.0000
  H   H696      1.0  0.06180  0.84275  0.75896  1.0000
  C   C863      1.0  0.18659  0.72067  0.63120  1.0000
  S   S119      1.0  0.19387  0.65995  0.68494  1.0000
  C   C864      1.0  0.19522  0.75250  0.61002  1.0000
  H   H697      1.0  0.03055  0.82363  0.88649  1.0000
  C   C865      1.0  0.00657  0.83657  0.87724  1.0000
  Fe  Fe64      1.0  0.14428  0.75037  0.97729  1.0000
  C   C866      1.0  0.22784  0.65671  0.69983  1.0000
  H   H698      1.0  0.13186  0.66071  0.49704  1.0000
  H   H699      1.0  0.00608  0.86336  0.69697  1.0000
  C   C867      1.0  0.06533  0.79971  0.76628  1.0000
  P   P26       1.0  0.09502  0.65101  0.57989  1.0000
  P   P27       1.0  0.11904  0.79619  0.82196  1.0000
  C   C868      1.0  0.15396  0.79362  0.83540  1.0000
  C   C869      1.0  0.03896  0.81064  0.78709  1.0000
  H   H700      1.0  0.00602  0.88202  0.53750  1.0000
  C   C870      1.0  0.10875  0.77355  0.86324  1.0000
  C   C871      1.0  0.08535  0.69232  0.64656  1.0000
  H   H701      1.0  0.21350  0.71475  0.72705  1.0000
  H   H702      1.0  0.03244  0.94647  0.92120  1.0000
  C   C872      1.0  0.00400  0.84851  0.83060  1.0000
  S   S120      1.0  0.13901  0.72952  0.49218  1.0000
  H   H703      1.0  0.03272  0.77160  0.51529  1.0000
  C   C873      1.0  0.04058  0.86435  0.79160  1.0000
  C   C874      1.0  0.03452  0.87962  0.77913  1.0000
  C   C875      1.0  0.04371  0.89445  0.78134  1.0000
  C   C876      1.0  0.05876  0.89429  0.79673  1.0000
  C   C877      1.0  0.06449  0.87934  0.81023  1.0000
  C   C878      1.0  0.05544  0.86442  0.80770  1.0000
  C   C879      1.0  0.99019  0.93369  0.50521  1.0000
  H   H704      1.0  0.08204  0.68215  0.55248  1.0000
  S   S121      1.0  0.15589  0.77617  0.97329  1.0000
  C   C880      1.0  0.99213  0.90251  0.75656  1.0000
  C   C881      1.0  0.05555  0.84767  0.50306  1.0000
  H   H705      1.0  0.20975  0.80707  0.52523  1.0000
  H   H706      1.0  0.21766  0.66958  0.82474  1.0000
  C   C882      1.0  0.12419  0.78226  0.79285  1.0000
  H   H707      1.0  0.11387  0.74395  0.76581  1.0000
  H   H708      1.0  0.07391  0.78905  0.76111  1.0000
  C   C883      1.0  0.01295  0.84613  0.76185  1.0000
  H   H709      1.0  0.03932  0.92812  0.51228  1.0000
  H   H710      1.0  0.14865  0.82197  0.90103  1.0000
  H   H711      1.0  0.07900  0.85889  0.51511  1.0000
  H   H712      1.0  0.01723  0.79936  0.51168  1.0000
  H   H713      1.0  0.02249  0.88031  0.76835  1.0000
  H   H714      1.0  0.03880  0.90623  0.77203  1.0000
  H   H715      1.0  0.06547  0.90597  0.79949  1.0000
  H   H716      1.0  0.07547  0.87956  0.82379  1.0000
  H   H717      1.0  0.05970  0.85310  0.81911  1.0000
  C   C884      1.0  0.09672  0.84417  0.82223  1.0000
  H   H718      1.0  0.02883  0.85924  0.73203  1.0000
  H   H719      1.0  0.20069  0.71006  0.59667  1.0000
  C   C885      1.0  0.01597  0.93749  0.53164  1.0000
  C   C886      1.0  0.02526  0.94680  0.96460  1.0000
  C   C887      1.0  0.01642  0.85418  0.73620  1.0000
  C   C888      1.0  0.05497  0.77995  0.49325  1.0000
  H   H720      1.0  0.07016  0.76327  0.89006  1.0000
  H   H721      1.0  0.19728  0.67673  0.93149  1.0000
  C   C889      1.0  0.11539  0.65593  0.53229  1.0000
  H   H722      1.0  0.99477  0.97234  0.77828  1.0000
  C   C890      1.0  0.00262  0.92179  0.63953  1.0000
  C   C891      1.0  0.00207  0.91279  0.61458  1.0000
  C   C892      1.0  0.99748  0.92121  0.58977  1.0000
  C   C893      1.0  0.09836  0.68650  0.51717  1.0000
  C   C894      1.0  0.21696  0.76891  0.94843  1.0000
  C   C895      1.0  0.19554  0.69994  0.50234  1.0000
  H   H723      1.0  0.18575  0.78798  0.51893  1.0000
  C   C896      1.0  0.21856  0.71109  0.52923  1.0000
  H   H724      1.0  0.06464  0.67718  0.66078  1.0000
  C   C897      1.0  0.11053  0.81688  0.81059  1.0000
  C   C898      1.0  0.21271  0.69953  0.50977  1.0000
  C   C899      1.0  0.06943  0.81624  0.75842  1.0000
  C   C900      1.0  0.99529  0.82809  0.51387  1.0000
  H   H725      1.0  0.16852  0.68790  0.76588  1.0000
  C   C901      1.0  0.10161  0.68113  0.60728  1.0000
  C   C902      1.0  0.09278  0.67719  0.54031  1.0000
  H   H726      1.0  0.00561  0.91513  0.65892  1.0000
  H   H727      1.0  0.98496  0.85185  0.86287  1.0000
  H   H728      1.0  0.99422  0.83175  0.78471  1.0000
  H   H729      1.0  0.00078  0.91036  0.74494  1.0000
  C   C903      1.0  0.19653  0.72171  0.60701  1.0000
  C   C904      1.0  0.02990  0.79797  0.50277  1.0000
  P   P28       1.0  0.21475  0.73865  0.56608  1.0000
  H   H730      1.0  0.17078  0.71175  0.50938  1.0000
  C   C905      1.0  0.02959  0.83240  0.84374  1.0000
  C   C906      1.0  0.20521  0.74943  0.79612  1.0000
  C   C907      1.0  0.20028  0.76131  0.81647  1.0000
  C   C908      1.0  0.19733  0.75594  0.84395  1.0000
  C   C909      1.0  0.19916  0.73870  0.85104  1.0000
  C   C910      1.0  0.20369  0.72665  0.83056  1.0000
  C   C911      1.0  0.20705  0.73216  0.80317  1.0000
  P   P29       1.0  0.20772  0.70467  0.84013  1.0000
  H   H731      1.0  0.18035  0.76285  0.64437  1.0000
  C   C912      1.0  0.19518  0.69947  0.87052  1.0000
  C   C913      1.0  0.20210  0.68922  0.89208  1.0000
  C   C914      1.0  0.19190  0.68460  0.91484  1.0000
  C   C915      1.0  0.17473  0.68999  0.91599  1.0000
  C   C916      1.0  0.16775  0.70005  0.89448  1.0000
  C   C917      1.0  0.17788  0.70469  0.87172  1.0000
  S   S122      1.0  0.00756  0.90749  0.97305  1.0000
  H   H732      1.0  0.11229  0.68224  0.59300  1.0000
  C   C918      1.0  0.20023  0.69056  0.81376  1.0000
  C   C919      1.0  0.20722  0.67392  0.81153  1.0000
  C   C920      1.0  0.03755  0.81175  0.48938  1.0000
  C   C921      1.0  0.18677  0.66770  0.77576  1.0000
  C   C922      1.0  0.17942  0.68406  0.77847  1.0000
  C   C923      1.0  0.18608  0.69546  0.79738  1.0000
  H   H733      1.0  0.20789  0.75361  0.77499  1.0000
  H   H734      1.0  0.19908  0.77470  0.81109  1.0000
  H   H735      1.0  0.19396  0.76507  0.86011  1.0000
  H   H736      1.0  0.19729  0.73494  0.87266  1.0000
  C   C924      1.0  0.01466  0.97923  0.84780  1.0000
  C   C925      1.0  0.18990  0.72314  0.53446  1.0000
  H   H737      1.0  0.11760  0.81433  0.76684  1.0000
  H   H738      1.0  0.16677  0.68640  0.93351  1.0000
  H   H739      1.0  0.15444  0.70423  0.89534  1.0000
  H   H740      1.0  0.17214  0.71227  0.85502  1.0000
  C   C926      1.0  0.05007  0.79691  0.78053  1.0000
  H   H741      1.0  0.98549  0.94384  0.72334  1.0000
  C   C927      1.0  0.13663  0.78664  0.77300  1.0000
  C   C928      1.0  0.99571  0.88527  0.49606  1.0000
  C   C929      1.0  0.04142  0.84872  0.48518  1.0000
  H   H742      1.0  0.06556  0.66393  0.77627  1.0000
  C   C930      1.0  0.20070  0.66265  0.79224  1.0000
  H   H743      1.0  0.21131  0.72313  0.78741  1.0000
  H   H744      1.0  0.00728  0.97234  0.52456  1.0000
  C   C931      1.0  0.13210  0.76067  0.74772  1.0000
  H   H745      1.0  0.19638  0.73234  0.96047  1.0000
  C   C932      1.0  0.22590  0.68219  0.73984  1.0000
  C   C933      1.0  0.04953  0.97554  0.85753  1.0000
  H   H746      1.0  0.15574  0.78492  0.81825  1.0000
  C   C934      1.0  0.15025  0.81448  0.88220  1.0000
  H   H747      1.0  0.09074  0.85244  0.83780  1.0000
  H   H748      1.0  0.06311  0.97415  0.86108  1.0000
  P   P30       1.0  0.02616  0.83205  0.48562  1.0000
  C   C935      1.0  0.07939  0.76959  0.87703  1.0000
  C   C936      1.0  0.99446  0.90012  0.78558  1.0000
  H   H749      1.0  0.06176  0.76772  0.49479  1.0000
  H   H750      1.0  0.12358  0.81469  0.87443  1.0000
  H   H751      1.0  0.17747  0.81130  0.88638  1.0000
  H   H752      1.0  0.09444  0.86249  0.78862  1.0000
  C   C937      1.0  0.23307  0.75667  0.65471  1.0000
  H   H753      1.0  0.06055  0.78532  0.85559  1.0000
  H   H754      1.0  0.20646  0.65000  0.78997  1.0000
  C   C938      1.0  0.21073  0.79409  0.53303  1.0000
  C   C939      1.0  0.11241  0.68054  0.50155  1.0000
  H   H755      1.0  0.99373  0.97371  0.71913  1.0000
  C   C940      1.0  0.98835  0.84009  0.55909  1.0000
  H   H756      1.0  0.18181  0.65903  0.76060  1.0000
  C   C941      1.0  0.10133  0.66189  0.54821  1.0000
  H   H757      1.0  0.13525  0.75214  0.73060  1.0000
  H   H758      1.0  0.99088  0.96115  0.61569  1.0000
  C   C942      1.0  0.03863  0.78216  0.50480  1.0000
  C   C943      1.0  0.23033  0.70881  0.67397  1.0000
  H   H759      1.0  0.99146  0.82083  0.49602  1.0000
  H   H760      1.0  0.00420  0.94822  0.80864  1.0000
  H   H761      1.0  0.22147  0.69013  0.50066  1.0000
  H   H762      1.0  0.06929  0.65516  0.62505  1.0000
  C   C944      1.0  0.98755  0.84988  0.72094  1.0000
  C   C945      1.0  0.99314  0.93871  0.58968  1.0000
  H   H763      1.0  0.03176  0.93469  0.96923  1.0000
  H   H764      1.0  0.23019  0.72444  0.61822  1.0000
  C   C946      1.0  0.99404  0.94773  0.61480  1.0000
  H   H765      1.0  0.23182  0.71017  0.53496  1.0000
  H   H766      1.0  0.18223  0.70499  0.96776  1.0000
  H   H767      1.0  0.99926  0.94622  0.65891  1.0000
  C   C947      1.0  0.99957  0.97966  0.53924  1.0000
  H   H768      1.0  0.22869  0.71655  0.88543  1.0000
  C   C948      1.0  0.00759  0.97103  0.97942  1.0000
  C   C949      1.0  0.99993  0.92626  0.48366  1.0000
  C   C950      1.0  0.23350  0.76347  0.93996  1.0000
  H   H769      1.0  0.11693  0.68798  0.48397  1.0000
  H   H770      1.0  0.07603  0.88286  0.48115  1.0000
  Fe  Fe65      1.0  0.32086  0.20193  0.16207  1.0000
  S   S123      1.0  0.31273  0.17510  0.15657  1.0000
  S   S124      1.0  0.32606  0.22252  0.12906  1.0000
  Fe  Fe66      1.0  0.31716  0.19977  0.22682  1.0000
  S   S125      1.0  0.30911  0.17249  0.22531  1.0000
  S   S126      1.0  0.31342  0.21935  0.26197  1.0000
  Fe  Fe67      1.0  0.33024  0.16844  0.19273  1.0000
  S   S127      1.0  0.34593  0.14279  0.19356  1.0000
  Fe  Fe68      1.0  0.29252  0.18086  0.18932  1.0000
  S   S128      1.0  0.26461  0.17560  0.18037  1.0000
  S   S129      1.0  0.33937  0.19533  0.19697  1.0000
  S   S130      1.0  0.29952  0.20807  0.19207  1.0000
  C   C951      1.0  0.25560  0.21428  0.25108  1.0000
  H   H771      1.0  0.45583  0.02560  0.31391  1.0000
  H   H772      1.0  0.39086  0.99656  0.09339  1.0000
  Fe  Fe69      1.0  0.32400  0.24845  0.42124  1.0000
  S   S131      1.0  0.31099  0.27404  0.41408  1.0000
  S   S132      1.0  0.33354  0.22813  0.39026  1.0000
  Fe  Fe70      1.0  0.32792  0.28326  0.44867  1.0000
  P   P31       1.0  0.25221  0.21283  0.30897  1.0000
  Fe  Fe71      1.0  0.29252  0.26678  0.44852  1.0000
  S   S133      1.0  0.26367  0.26438  0.44206  1.0000
  S   S134      1.0  0.34177  0.25780  0.45418  1.0000
  S   S135      1.0  0.30475  0.24068  0.45307  1.0000
  Fe  Fe72      1.0  0.42806  0.07919  0.13898  1.0000
  S   S136      1.0  0.45609  0.07994  0.14977  1.0000
  S   S137      1.0  0.41307  0.10519  0.14051  1.0000
  Fe  Fe73      1.0  0.43212  0.04074  0.12421  1.0000
  S   S138      1.0  0.45994  0.03948  0.13448  1.0000
  S   S139      1.0  0.41682  0.01791  0.11077  1.0000
  Fe  Fe74      1.0  0.45267  0.05512  0.17225  1.0000
  S   S140      1.0  0.46258  0.04531  0.21458  1.0000
  Fe  Fe75      1.0  0.46109  0.06434  0.11091  1.0000
  H   H773      1.0  0.32206  0.28082  0.21870  1.0000
  S   S141      1.0  0.42446  0.05494  0.16350  1.0000
  S   S142      1.0  0.43346  0.06505  0.09860  1.0000
  H   H774      1.0  0.41241  0.99389  0.16556  1.0000
  C   C952      1.0  0.47524  0.05469  0.03354  1.0000
  H   H775      1.0  0.25669  0.19999  0.05714  1.0000
  C   C953      1.0  0.25859  0.23741  0.09259  1.0000
  H   H776      1.0  0.46378  0.05091  0.04426  1.0000
  C   C954      1.0  0.45597  0.99960  0.29914  1.0000
  H   H777      1.0  0.23577  0.16137  0.26888  1.0000
  C   C955      1.0  0.47402  0.05573  0.24101  1.0000
  H   H778      1.0  0.28706  0.20110  0.42670  1.0000
  H   H779      1.0  0.26575  0.20761  0.15692  1.0000
  H   H780      1.0  0.26596  0.27039  0.11268  1.0000
  H   H781      1.0  0.24875  0.15087  0.32612  1.0000
  C   C956      1.0  0.45175  0.01710  0.29780  1.0000
  C   C957      1.0  0.41789  0.99607  0.10040  1.0000
  C   C958      1.0  0.42577  0.99135  0.17028  1.0000
  H   H782      1.0  0.24988  0.20198  0.25108  1.0000
  C   C959      1.0  0.27729  0.24011  0.38219  1.0000
  H   H783      1.0  0.27652  0.27121  0.02412  1.0000
  C   C960      1.0  0.45926  0.10017  0.32330  1.0000
  C   C961      1.0  0.44636  0.12388  0.17463  1.0000
  H   H784      1.0  0.25906  0.21444  0.20651  1.0000
  C   C962      1.0  0.35559  0.20380  0.47404  1.0000
  C   C963      1.0  0.36484  0.13272  0.17877  1.0000
  C   C964      1.0  0.37737  0.14179  0.16466  1.0000
  C   C965      1.0  0.39199  0.13317  0.15334  1.0000
  C   C966      1.0  0.39447  0.11536  0.15601  1.0000
  C   C967      1.0  0.38203  0.10633  0.17032  1.0000
  C   C968      1.0  0.36743  0.11494  0.18170  1.0000
  H   H785      1.0  0.37578  0.15545  0.16247  1.0000
  H   H786      1.0  0.40148  0.14036  0.14236  1.0000
  H   H787      1.0  0.38356  0.09265  0.17229  1.0000
  H   H788      1.0  0.35793  0.10771  0.19258  1.0000
  C   C969      1.0  0.26901  0.23681  0.22524  1.0000
  C   C970      1.0  0.24901  0.16893  0.23135  1.0000
  H   H789      1.0  0.44476  0.99098  0.10601  1.0000
  H   H790      1.0  0.26133  0.16406  0.23837  1.0000
  C   C971      1.0  0.31912  0.22128  0.29769  1.0000
  C   C972      1.0  0.31292  0.23562  0.31255  1.0000
  C   C973      1.0  0.31744  0.23810  0.34066  1.0000
  C   C974      1.0  0.32797  0.22605  0.35447  1.0000
  C   C975      1.0  0.33409  0.21165  0.33967  1.0000
  C   C976      1.0  0.32971  0.20926  0.31145  1.0000
  H   H791      1.0  0.30459  0.24491  0.30222  1.0000
  H   H792      1.0  0.31261  0.24922  0.35172  1.0000
  H   H793      1.0  0.34225  0.20226  0.35012  1.0000
  H   H794      1.0  0.33457  0.19818  0.30033  1.0000
  C   C977      1.0  0.32317  0.22385  0.09218  1.0000
  C   C978      1.0  0.32073  0.20953  0.07570  1.0000
  C   C979      1.0  0.31996  0.21120  0.04630  1.0000
  C   C980      1.0  0.32132  0.22719  0.03302  1.0000
  C   C981      1.0  0.32302  0.24156  0.04961  1.0000
  C   C982      1.0  0.32411  0.23985  0.07892  1.0000
  H   H795      1.0  0.31999  0.19712  0.08549  1.0000
  H   H796      1.0  0.31875  0.19997  0.03370  1.0000
  H   H797      1.0  0.32408  0.25393  0.03982  1.0000
  H   H798      1.0  0.32595  0.25103  0.09140  1.0000
  C   C983      1.0  0.27578  0.18689  0.29504  1.0000
  C   C984      1.0  0.44256  0.09461  0.32312  1.0000
  H   H799      1.0  0.24952  0.22935  0.47437  1.0000
  C   C985      1.0  0.28885  0.28980  0.04849  1.0000
  H   H800      1.0  0.35878  0.21968  0.02429  1.0000
  C   C986      1.0  0.46691  0.00303  0.35879  1.0000
  H   H801      1.0  0.44027  0.03759  0.27345  1.0000
  C   C987      1.0  0.33042  0.27560  0.28789  1.0000
  C   C988      1.0  0.24460  0.23094  0.10718  1.0000
  H   H802      1.0  0.46234  0.02853  0.42791  1.0000
  C   C989      1.0  0.26737  0.21578  0.44806  1.0000
  C   C990      1.0  0.35829  0.19821  0.99685  1.0000
  C   C991      1.0  0.27516  0.23312  0.10178  1.0000
  C   C992      1.0  0.44300  0.99616  0.25367  1.0000
  H   H803      1.0  0.43230  0.01904  0.23453  1.0000
  H   H804      1.0  0.29989  0.30671  0.07783  1.0000
  C   C993      1.0  0.43862  0.01354  0.25272  1.0000
  H   H805      1.0  0.27103  0.17986  0.09038  1.0000
  H   H806      1.0  0.28620  0.23823  0.09135  1.0000
  C   C994      1.0  0.44811  0.14943  0.20202  1.0000
  C   C995      1.0  0.45135  0.14065  0.17719  1.0000
  S   S143      1.0  0.32214  0.22839  0.99580  1.0000
  H   H807      1.0  0.26907  0.24501  0.29467  1.0000
  P   P32       1.0  0.25553  0.25182  0.06330  1.0000
  C   C996      1.0  0.33153  0.30021  0.24553  1.0000
  H   H808      1.0  0.29047  0.21896  0.13166  1.0000
  H   H809      1.0  0.35405  0.21143  0.45513  1.0000
  C   C997      1.0  0.35636  0.09179  0.47862  1.0000
  H   H810      1.0  0.28122  0.22496  0.04770  1.0000
  C   C998      1.0  0.33636  0.29181  0.29387  1.0000
  C   C999      1.0  0.26970  0.26912  0.06786  1.0000
  P   P33       1.0  0.34294  0.29656  0.32896  1.0000
  H   H811      1.0  0.33196  0.30973  0.22905  1.0000
  C   C1000     1.0  0.44929  0.01924  0.39180  1.0000
  H   H812      1.0  0.28353  0.19681  0.28626  1.0000
  H   H813      1.0  0.25403  0.16474  0.12592  1.0000
  H   H814      1.0  0.43987  0.00862  0.35397  1.0000
  H   H815      1.0  0.38048  0.29893  0.33006  1.0000
  C   C1001     1.0  0.28140  0.20435  0.44674  1.0000
  H   H816      1.0  0.24249  0.25623  0.00634  1.0000
  H   H817      1.0  0.36884  0.29970  0.40810  1.0000
  C   C1002     1.0  0.27385  0.22855  0.02950  1.0000
  C   C1003     1.0  0.28428  0.22463  0.37270  1.0000
  S   S144      1.0  0.48391  0.07072  0.08292  1.0000
  C   C1004     1.0  0.25990  0.19094  0.30754  1.0000
  H   H818      1.0  0.43088  0.01776  0.17609  1.0000
  H   H819      1.0  0.46895  0.04258  0.99481  1.0000
  H   H820      1.0  0.41880  0.09481  0.30118  1.0000
  H   H821      1.0  0.45184  0.16249  0.20393  1.0000
  H   H822      1.0  0.46161  0.01234  0.18504  1.0000
  H   H823      1.0  0.43967  0.30886  0.04390  1.0000
  C   C1005     1.0  0.26086  0.22131  0.22570  1.0000
  H   H824      1.0  0.35051  0.09340  0.45827  1.0000
  C   C1006     1.0  0.24718  0.22022  0.13033  1.0000
  C   C1007     1.0  0.27178  0.24532  0.25020  1.0000
  C   C1008     1.0  0.26270  0.24730  0.36964  1.0000
  H   H825      1.0  0.30645  0.28876  0.32490  1.0000
  H   H826      1.0  0.24392  0.24489  0.33769  1.0000
  C   C1009     1.0  0.47918  0.01357  0.40139  1.0000
  C   C1010     1.0  0.39102  0.07763  0.22721  1.0000
  C   C1011     1.0  0.40187  0.06317  0.22610  1.0000
  C   C1012     1.0  0.41918  0.06445  0.23200  1.0000
  C   C1013     1.0  0.42568  0.08017  0.23882  1.0000
  C   C1014     1.0  0.41482  0.09475  0.24024  1.0000
  C   C1015     1.0  0.39743  0.09338  0.23425  1.0000
  P   P34       1.0  0.42341  0.11480  0.25028  1.0000
  C   C1016     1.0  0.43725  0.11009  0.27961  1.0000
  C   C1017     1.0  0.43484  0.12451  0.22183  1.0000
  H   H827      1.0  0.29505  0.29536  0.03050  1.0000
  H   H828      1.0  0.23791  0.18064  0.32844  1.0000
  H   H829      1.0  0.38063  0.28912  0.46016  1.0000
  C   C1018     1.0  0.43817  0.11578  0.19685  1.0000
  C   C1019     1.0  0.43980  0.14143  0.22421  1.0000
  C   C1020     1.0  0.45405  0.11566  0.28000  1.0000
  C   C1021     1.0  0.33669  0.30417  0.27256  1.0000
  C   C1022     1.0  0.43159  0.09953  0.30137  1.0000
  C   C1023     1.0  0.40631  0.12978  0.25944  1.0000
  C   C1024     1.0  0.40287  0.13416  0.28734  1.0000
  C   C1025     1.0  0.38949  0.14578  0.29378  1.0000
  C   C1026     1.0  0.37950  0.15308  0.27245  1.0000
  C   C1027     1.0  0.38294  0.14888  0.24465  1.0000
  C   C1028     1.0  0.39634  0.13737  0.23813  1.0000
  H   H830      1.0  0.37765  0.07673  0.22214  1.0000
  H   H831      1.0  0.39695  0.05105  0.22011  1.0000
  H   H832      1.0  0.42767  0.05332  0.23059  1.0000
  H   H833      1.0  0.43919  0.08093  0.24294  1.0000
  H   H834      1.0  0.38873  0.10434  0.23475  1.0000
  C   C1029     1.0  0.25727  0.18172  0.09091  1.0000
  C   C1030     1.0  0.44299  0.02399  0.27477  1.0000
  H   H835      1.0  0.48327  0.00571  0.23477  1.0000
  H   H836      1.0  0.43712  0.14846  0.24319  1.0000
  H   H837      1.0  0.45902  0.12332  0.26318  1.0000
  C   C1031     1.0  0.32532  0.27165  0.26089  1.0000
  C   C1032     1.0  0.47822  0.04997  0.00549  1.0000
  H   H838      1.0  0.41046  0.12871  0.30416  1.0000
  H   H839      1.0  0.38682  0.14911  0.31531  1.0000
  H   H840      1.0  0.36903  0.16197  0.27739  1.0000
  H   H841      1.0  0.37510  0.15443  0.22811  1.0000
  H   H842      1.0  0.39874  0.13417  0.21642  1.0000
  H   H843      1.0  0.27854  0.25708  0.24991  1.0000
  C   C1033     1.0  0.28184  0.16998  0.29381  1.0000
  C   C1034     1.0  0.27212  0.15699  0.30501  1.0000
  C   C1035     1.0  0.25636  0.16093  0.31764  1.0000
  H   H844      1.0  0.28533  0.29409  0.11891  1.0000
  C   C1036     1.0  0.27233  0.27569  0.09462  1.0000
  C   C1037     1.0  0.39829  0.30904  0.00679  1.0000
  H   H845      1.0  0.29406  0.16698  0.28402  1.0000
  H   H846      1.0  0.27679  0.14388  0.30376  1.0000
  P   P35       1.0  0.46940  0.99122  0.32682  1.0000
  H   H847      1.0  0.44840  0.11725  0.15506  1.0000
  C   C1038     1.0  0.30821  0.29651  0.34310  1.0000
  H   H848      1.0  0.38827  0.30597  0.02149  1.0000
  C   C1039     1.0  0.24739  0.17611  0.20463  1.0000
  H   H849      1.0  0.26215  0.22147  0.42912  1.0000
  H   H850      1.0  0.32103  0.25898  0.25641  1.0000
  H   H851      1.0  0.46414  0.99582  0.99563  1.0000
  C   C1040     1.0  0.35439  0.27804  0.34282  1.0000
  S   S145      1.0  0.48091  0.06581  0.44702  1.0000
  C   C1041     1.0  0.26636  0.23838  0.27564  1.0000
  C   C1042     1.0  0.26028  0.22030  0.47391  1.0000
  C   C1043     1.0  0.32591  0.28394  0.23967  1.0000
  C   C1044     1.0  0.46495  0.11078  0.30189  1.0000
  C   C1045     1.0  0.32622  0.31157  0.37465  1.0000
  C   C1046     1.0  0.35357  0.27398  0.37138  1.0000
  C   C1047     1.0  0.36229  0.25946  0.38172  1.0000
  C   C1048     1.0  0.37166  0.24879  0.36370  1.0000
  C   C1049     1.0  0.37277  0.25287  0.33533  1.0000
  C   C1050     1.0  0.36433  0.26753  0.32495  1.0000
  H   H852      1.0  0.28320  0.24655  0.39928  1.0000
  C   C1051     1.0  0.29395  0.30106  0.35951  1.0000
  C   C1052     1.0  0.40256  0.98884  0.09298  1.0000
  C   C1053     1.0  0.43621  0.00486  0.17604  1.0000
  C   C1054     1.0  0.25219  0.24609  0.00621  1.0000
  C   C1055     1.0  0.24442  0.27047  0.46009  1.0000
  C   C1056     1.0  0.45096  0.01009  0.36690  1.0000
  C   C1057     1.0  0.24918  0.19308  0.07223  1.0000
  C   C1058     1.0  0.48089  0.00450  0.37653  1.0000
  C   C1059     1.0  0.25518  0.23908  0.34733  1.0000
  H   H853      1.0  0.34613  0.28187  0.38570  1.0000
  H   H854      1.0  0.36138  0.25613  0.40361  1.0000
  H   H855      1.0  0.37784  0.23722  0.37172  1.0000
  H   H856      1.0  0.37998  0.24455  0.32132  1.0000
  H   H857      1.0  0.36542  0.27053  0.30291  1.0000
  H   H858      1.0  0.47806  0.11466  0.30182  1.0000
  C   C1060     1.0  0.39101  0.11869  0.07934  1.0000
  C   C1061     1.0  0.40495  0.12125  0.06172  1.0000
  C   C1062     1.0  0.40650  0.13685  0.04789  1.0000
  C   C1063     1.0  0.39414  0.14992  0.05179  1.0000
  C   C1064     1.0  0.37997  0.14739  0.06931  1.0000
  C   C1065     1.0  0.37862  0.13169  0.08328  1.0000
  P   P36       1.0  0.36501  0.16495  0.07627  1.0000
  C   C1066     1.0  0.34435  0.15701  0.08561  1.0000
  C   C1067     1.0  0.37262  0.17707  0.10518  1.0000
  C   C1068     1.0  0.38951  0.17488  0.11445  1.0000
  C   C1069     1.0  0.39532  0.18459  0.13653  1.0000
  C   C1070     1.0  0.38441  0.19672  0.14920  1.0000
  C   C1071     1.0  0.36765  0.19902  0.13996  1.0000
  C   C1072     1.0  0.36166  0.18904  0.11840  1.0000
  C   C1073     1.0  0.33065  0.15803  0.06684  1.0000
  C   C1074     1.0  0.31494  0.15134  0.07424  1.0000
  C   C1075     1.0  0.31282  0.14349  0.10029  1.0000
  C   C1076     1.0  0.32634  0.14255  0.11911  1.0000
  C   C1077     1.0  0.34188  0.14961  0.11203  1.0000
  C   C1078     1.0  0.36297  0.17813  0.04521  1.0000
  C   C1079     1.0  0.36218  0.19598  0.04691  1.0000
  H   H859      1.0  0.23640  0.21517  0.14148  1.0000
  H   H860      1.0  0.38275  0.20636  0.47573  1.0000
  H   H861      1.0  0.28281  0.20462  0.34305  1.0000
  C   C1080     1.0  0.36163  0.17046  0.01896  1.0000
  H   H862      1.0  0.39006  0.10672  0.09063  1.0000
  H   H863      1.0  0.41468  0.11121  0.05924  1.0000
  C   C1081     1.0  0.35992  0.20593  0.02278  1.0000
  H   H864      1.0  0.39582  0.16208  0.04152  1.0000
  H   H865      1.0  0.36830  0.12941  0.09771  1.0000
  H   H866      1.0  0.39823  0.16563  0.10491  1.0000
  H   H867      1.0  0.40829  0.18271  0.14379  1.0000
  H   H868      1.0  0.38891  0.20435  0.16615  1.0000
  H   H869      1.0  0.35925  0.20863  0.14941  1.0000
  H   H870      1.0  0.34856  0.19095  0.11168  1.0000
  H   H871      1.0  0.33191  0.16404  0.04658  1.0000
  H   H872      1.0  0.30442  0.15224  0.05975  1.0000
  H   H873      1.0  0.30068  0.13832  0.10610  1.0000
  H   H874      1.0  0.32471  0.13674  0.13957  1.0000
  H   H875      1.0  0.35201  0.14917  0.12720  1.0000
  H   H876      1.0  0.36292  0.20237  0.06671  1.0000
  C   C1082     1.0  0.27686  0.21638  0.35037  1.0000
  S   S146      1.0  0.34138  0.30918  0.44877  1.0000
  C   C1083     1.0  0.27767  0.22230  0.12478  1.0000
  H   H877      1.0  0.36208  0.15672  0.01719  1.0000
  H   H878      1.0  0.28148  0.29673  0.35400  1.0000
  H   H879      1.0  0.43406  0.10292  0.19405  1.0000
  C   C1084     1.0  0.27816  0.27617  0.04488  1.0000
  C   C1085     1.0  0.26371  0.21589  0.13906  1.0000
  H   H880      1.0  0.43828  0.08621  0.33959  1.0000
  H   H881      1.0  0.29574  0.21922  0.38231  1.0000
  H   H882      1.0  0.47074  0.00282  0.09439  1.0000
  C   C1086     1.0  0.24328  0.28433  0.47822  1.0000
  C   C1087     1.0  0.46053  0.98516  0.17960  1.0000
  H   H883      1.0  0.23874  0.29572  0.01630  1.0000
  H   H884      1.0  0.47218  0.08081  0.22267  1.0000
  H   H885      1.0  0.32990  0.26593  0.30409  1.0000
  C   C1088     1.0  0.47682  0.07321  0.24015  1.0000
  C   C1089     1.0  0.45356  0.00177  0.18085  1.0000
  H   H886      1.0  0.28480  0.31419  0.39632  1.0000
  C   C1090     1.0  0.26214  0.22348  0.33762  1.0000
  C   C1091     1.0  0.25813  0.22280  0.27627  1.0000
  H   H887      1.0  0.37025  0.11486  0.47543  1.0000
  C   C1092     1.0  0.32446  0.30186  0.35042  1.0000
  H   H888      1.0  0.41744  0.13888  0.03448  1.0000
  H   H889      1.0  0.23831  0.28404  0.08125  1.0000
  C   C1093     1.0  0.43292  0.98569  0.09978  1.0000
  C   C1094     1.0  0.28836  0.19749  0.47133  1.0000
  H   H890      1.0  0.25722  0.25923  0.37741  1.0000
  C   C1095     1.0  0.38214  0.29554  0.47986  1.0000
  C   C1096     1.0  0.28325  0.28915  0.09822  1.0000
  C   C1097     1.0  0.46345  0.02112  0.40892  1.0000
  H   H891      1.0  0.45753  0.14688  0.15977  1.0000
  C   C1098     1.0  0.29147  0.29624  0.07513  1.0000
  H   H892      1.0  0.43708  0.02500  0.39780  1.0000
  C   C1099     1.0  0.25023  0.17786  0.31890  1.0000
  C   C1100     1.0  0.26059  0.24103  0.03090  1.0000
  H   H893      1.0  0.27356  0.24198  0.20562  1.0000
  H   H894      1.0  0.48177  0.01574  0.05084  1.0000
  C   C1101     1.0  0.24767  0.17318  0.11094  1.0000
  C   C1102     1.0  0.29580  0.31093  0.38334  1.0000
  S   S147      1.0  0.31463  0.27903  0.98481  1.0000
  H   H895      1.0  0.47841  0.03253  0.26466  1.0000
  H   H896      1.0  0.40234  0.31066  0.46451  1.0000
  H   H897      1.0  0.29935  0.18879  0.47028  1.0000
  C   C1103     1.0  0.45181  0.98923  0.27664  1.0000
  H   H898      1.0  0.45449  0.30269  0.08824  1.0000
  H   H899      1.0  0.28862  0.21151  0.00302  1.0000
  C   C1104     1.0  0.37475  0.31164  0.33000  1.0000
  C   C1105     1.0  0.35926  0.18048  0.99490  1.0000
  H   H900      1.0  0.43988  0.98816  0.23625  1.0000
  H   H901      1.0  0.46798  0.09597  0.33967  1.0000
  C   C1106     1.0  0.48024  0.04608  0.26390  1.0000
  C   C1107     1.0  0.37055  0.31265  0.41455  1.0000
  C   C1108     1.0  0.27810  0.22082  0.00408  1.0000
  H   H902      1.0  0.32873  0.20024  0.47883  1.0000
  C   C1109     1.0  0.48267  0.00928  0.09470  1.0000
  C   C1110     1.0  0.35696  0.31433  0.32892  1.0000
  C   C1111     1.0  0.45658  0.31452  0.07718  1.0000
  H   H903      1.0  0.33864  0.31552  0.38120  1.0000
  H   H904      1.0  0.47408  0.98296  0.18240  1.0000
  H   H905      1.0  0.45017  0.98330  0.03701  1.0000
  C   C1112     1.0  0.23449  0.16739  0.24860  1.0000
  Fe  Fe76      1.0  0.31435  0.20592  0.67741  1.0000
  S   S148      1.0  0.30917  0.18088  0.65793  1.0000
  S   S149      1.0  0.31771  0.23074  0.65324  1.0000
  Fe  Fe77      1.0  0.31274  0.19095  0.73702  1.0000
  S   S150      1.0  0.30776  0.16458  0.72108  1.0000
  S   S151      1.0  0.31443  0.19360  0.78447  1.0000
  Fe  Fe78      1.0  0.32826  0.16919  0.68847  1.0000
  S   S152      1.0  0.35286  0.15480  0.67285  1.0000
  Fe  Fe79      1.0  0.28922  0.17850  0.69215  1.0000
  S   S153      1.0  0.26180  0.17335  0.67965  1.0000
  S   S154      1.0  0.33423  0.19473  0.70642  1.0000
  S   S155      1.0  0.29338  0.20437  0.70963  1.0000
  H   H906      1.0  0.40653  0.13729  0.51294  1.0000
  H   H907      1.0  0.36081  0.13937  0.61014  1.0000
  S   S156      1.0  0.32624  0.23237  0.52093  1.0000
  Fe  Fe80      1.0  0.31114  0.26399  0.90845  1.0000
  S   S157      1.0  0.30645  0.29142  0.92140  1.0000
  S   S158      1.0  0.30790  0.25944  0.86157  1.0000
  Fe  Fe81      1.0  0.33019  0.28769  0.94747  1.0000
  C   C1113     1.0  0.24309  0.21823  0.64360  1.0000
  Fe  Fe82      1.0  0.29137  0.28067  0.95732  1.0000
  C   C1114     1.0  0.43256  0.22051  0.78770  1.0000
  S   S159      1.0  0.33552  0.26067  0.93304  1.0000
  S   S160      1.0  0.29445  0.25372  0.94266  1.0000
  Fe  Fe83      1.0  0.42199  0.06917  0.64965  1.0000
  S   S161      1.0  0.44985  0.07587  0.65186  1.0000
  S   S162      1.0  0.39722  0.08430  0.66276  1.0000
  Fe  Fe84      1.0  0.43144  0.03137  0.63552  1.0000
  S   S163      1.0  0.45944  0.03577  0.63702  1.0000
  S   S164      1.0  0.41982  0.00501  0.63484  1.0000
  Fe  Fe85      1.0  0.45407  0.05121  0.67570  1.0000
  H   H908      1.0  0.37358  0.23532  0.69187  1.0000
  Fe  Fe86      1.0  0.45347  0.05989  0.61275  1.0000
  S   S165      1.0  0.47394  0.06707  0.58039  1.0000
  S   S166      1.0  0.42634  0.04532  0.67570  1.0000
  S   S167      1.0  0.42538  0.05472  0.60892  1.0000
  C   C1115     1.0  0.47578  0.06430  0.54346  1.0000
  C   C1116     1.0  0.46160  0.06226  0.52644  1.0000
  H   H909      1.0  0.25409  0.26298  0.84958  1.0000
  H   H910      1.0  0.23662  0.19714  0.56818  1.0000
  H   H911      1.0  0.44915  0.06108  0.53592  1.0000
  C   C1117     1.0  0.37441  0.22459  0.73348  1.0000
  C   C1118     1.0  0.24725  0.22335  0.72415  1.0000
  C   C1119     1.0  0.28134  0.20205  0.49729  1.0000
  Fe  Fe87      1.0  0.32131  0.25165  0.48564  1.0000
  H   H912      1.0  0.34497  0.29189  0.87068  1.0000
  H   H913      1.0  0.27419  0.17384  0.62190  1.0000
  C   C1120     1.0  0.26768  0.25263  0.52166  1.0000
  H   H914      1.0  0.38052  0.04040  0.63819  1.0000
  C   C1121     1.0  0.34908  0.23746  0.71223  1.0000
  C   C1122     1.0  0.23846  0.28117  0.94979  1.0000
  H   H915      1.0  0.38079  0.12132  0.58222  1.0000
  H   H916      1.0  0.33082  0.12098  0.54125  1.0000
  H   H917      1.0  0.27549  0.27814  0.51361  1.0000
  C   C1123     1.0  0.45157  0.99420  0.93655  1.0000
  C   C1124     1.0  0.26911  0.23316  0.65074  1.0000
  H   H918      1.0  0.42986  0.30665  0.59969  1.0000
  C   C1125     1.0  0.24918  0.23775  0.83498  1.0000
  C   C1126     1.0  0.36539  0.13519  0.67231  1.0000
  C   C1127     1.0  0.38198  0.13514  0.66069  1.0000
  C   C1128     1.0  0.39199  0.11986  0.65799  1.0000
  C   C1129     1.0  0.38553  0.10426  0.66667  1.0000
  C   C1130     1.0  0.36901  0.10436  0.67852  1.0000
  C   C1131     1.0  0.35907  0.11966  0.68153  1.0000
  H   H919      1.0  0.38710  0.14701  0.65355  1.0000
  H   H920      1.0  0.40468  0.12015  0.64909  1.0000
  H   H921      1.0  0.36381  0.09246  0.68540  1.0000
  H   H922      1.0  0.34638  0.11936  0.69042  1.0000
  C   C1132     1.0  0.24374  0.17250  0.70242  1.0000
  H   H923      1.0  0.43182  0.10447  0.61298  1.0000
  C   C1133     1.0  0.26715  0.24387  0.57028  1.0000
  H   H924      1.0  0.38339  0.11136  0.52200  1.0000
  C   C1134     1.0  0.31093  0.21181  0.80584  1.0000
  C   C1135     1.0  0.30655  0.22786  0.79464  1.0000
  C   C1136     1.0  0.30539  0.24221  0.81211  1.0000
  C   C1137     1.0  0.30828  0.24067  0.84103  1.0000
  C   C1138     1.0  0.31184  0.22449  0.85240  1.0000
  C   C1139     1.0  0.31330  0.21018  0.83486  1.0000
  H   H925      1.0  0.30442  0.22926  0.77245  1.0000
  H   H926      1.0  0.30242  0.25463  0.80313  1.0000
  H   H927      1.0  0.31389  0.22306  0.87462  1.0000
  H   H928      1.0  0.31658  0.19781  0.84377  1.0000
  C   C1140     1.0  0.31831  0.23115  0.61620  1.0000
  C   C1141     1.0  0.32111  0.21621  0.60109  1.0000
  C   C1142     1.0  0.32303  0.21689  0.57188  1.0000
  C   C1143     1.0  0.32189  0.23248  0.55731  1.0000
  C   C1144     1.0  0.31844  0.24743  0.57226  1.0000
  C   C1145     1.0  0.31680  0.24677  0.60166  1.0000
  H   H929      1.0  0.32264  0.20421  0.61211  1.0000
  H   H930      1.0  0.32578  0.20530  0.56054  1.0000
  H   H931      1.0  0.31754  0.25952  0.56130  1.0000
  H   H932      1.0  0.31463  0.25842  0.61319  1.0000
  C   C1146     1.0  0.38268  0.15801  0.79052  1.0000
  C   C1147     1.0  0.36883  0.15224  0.77555  1.0000
  C   C1148     1.0  0.35664  0.16391  0.76493  1.0000
  C   C1149     1.0  0.35842  0.18135  0.76886  1.0000
  C   C1150     1.0  0.37258  0.18731  0.78293  1.0000
  C   C1151     1.0  0.38449  0.17547  0.79442  1.0000
  P   P37       1.0  0.37507  0.20992  0.78715  1.0000
  C   C1152     1.0  0.47360  0.01964  0.82055  1.0000
  C   C1153     1.0  0.36512  0.22106  0.75793  1.0000
  C   C1154     1.0  0.26266  0.20444  0.55986  1.0000
  H   H933      1.0  0.34824  0.07887  0.59467  1.0000
  C   C1155     1.0  0.34770  0.22574  0.75911  1.0000
  C   C1156     1.0  0.24520  0.16803  0.73068  1.0000
  C   C1157     1.0  0.42648  0.10086  0.59317  1.0000
  C   C1158     1.0  0.40391  0.22656  0.80507  1.0000
  C   C1159     1.0  0.47960  0.01479  0.84690  1.0000
  C   C1160     1.0  0.44584  0.02266  0.91822  1.0000
  C   C1161     1.0  0.36527  0.21689  0.81960  1.0000
  C   C1162     1.0  0.36020  0.23408  0.82315  1.0000
  C   C1163     1.0  0.35307  0.23960  0.84850  1.0000
  C   C1164     1.0  0.35111  0.22807  0.87055  1.0000
  C   C1165     1.0  0.35603  0.21095  0.86716  1.0000
  C   C1166     1.0  0.36307  0.20535  0.84178  1.0000
  H   H934      1.0  0.39201  0.14892  0.79904  1.0000
  H   H935      1.0  0.36747  0.13873  0.77228  1.0000
  H   H936      1.0  0.34576  0.15948  0.75362  1.0000
  H   H937      1.0  0.34868  0.19013  0.76096  1.0000
  H   H938      1.0  0.39521  0.17970  0.80628  1.0000
  H   H939      1.0  0.27556  0.26236  0.59960  1.0000
  H   H940      1.0  0.34018  0.22269  0.77737  1.0000
  C   C1167     1.0  0.35260  0.07772  0.49534  1.0000
  C   C1168     1.0  0.47143  0.99276  0.73062  1.0000
  C   C1169     1.0  0.42135  0.22967  0.80525  1.0000
  H   H941      1.0  0.25578  0.14722  0.85282  1.0000
  C   C1170     1.0  0.39756  0.21422  0.78729  1.0000
  H   H942      1.0  0.36168  0.24321  0.80633  1.0000
  H   H943      1.0  0.34870  0.25275  0.85096  1.0000
  H   H944      1.0  0.41850  0.30638  0.55179  1.0000
  H   H945      1.0  0.35413  0.20197  0.88410  1.0000
  H   H946      1.0  0.36667  0.19201  0.83957  1.0000
  H   H947      1.0  0.37625  0.06983  0.62115  1.0000
  S   S168      1.0  0.26707  0.29183  0.97832  1.0000
  C   C1171     1.0  0.43655  0.99043  0.72113  1.0000
  C   C1172     1.0  0.35119  0.09203  0.59798  1.0000
  H   H948      1.0  0.34377  0.06849  0.48804  1.0000
  H   H949      1.0  0.48214  0.26384  0.55908  1.0000
  C   C1173     1.0  0.37945  0.05991  0.60628  1.0000
  H   H950      1.0  0.24080  0.24238  0.81850  1.0000
  C   C1174     1.0  0.34303  0.18793  0.51213  1.0000
  C   C1175     1.0  0.37172  0.20098  0.48572  1.0000
  S   S169      1.0  0.47159  0.04310  0.71183  1.0000
  C   C1176     1.0  0.33990  0.10237  0.61365  1.0000
  H   H951      1.0  0.46113  0.31191  0.97965  1.0000
  C   C1177     1.0  0.46405  0.00051  0.70705  1.0000
  C   C1178     1.0  0.47955  0.06411  0.48421  1.0000
  H   H952      1.0  0.43688  0.03270  0.91168  1.0000
  C   C1179     1.0  0.36011  0.07561  0.52161  1.0000
  H   H953      1.0  0.44608  0.22288  0.78797  1.0000
  C   C1180     1.0  0.43705  0.09862  0.56978  1.0000
  C   C1181     1.0  0.25951  0.15698  0.83812  1.0000
  H   H954      1.0  0.23686  0.20622  0.64223  1.0000
  H   H955      1.0  0.45827  0.28523  0.56400  1.0000
  C   C1182     1.0  0.24988  0.19544  0.57378  1.0000
  H   H956      1.0  0.45230  0.06146  0.48409  1.0000
  S   S170      1.0  0.34958  0.30896  0.95470  1.0000
  C   C1183     1.0  0.47183  0.00746  0.79979  1.0000
  H   H957      1.0  0.23951  0.17465  0.85079  1.0000
  H   H958      1.0  0.45065  0.10041  0.57140  1.0000
  H   H959      1.0  0.36114  0.28313  0.49953  1.0000
  C   C1184     1.0  0.34338  0.11944  0.61793  1.0000
  C   C1185     1.0  0.41284  0.09004  0.54285  1.0000
  C   C1186     1.0  0.24240  0.24907  0.64456  1.0000
  C   C1187     1.0  0.37110  0.29218  0.50208  1.0000
  Fe  Fe88      1.0  0.31831  0.25248  0.96875  1.0000
  C   C1188     1.0  0.38965  0.03403  0.56944  1.0000
  C   C1189     1.0  0.46916  0.99694  0.93612  1.0000
  C   C1190     1.0  0.43585  0.98841  0.59006  1.0000
  C   C1191     1.0  0.25957  0.22766  0.74348  1.0000
  H   H960      1.0  0.28267  0.23287  0.65451  1.0000
  H   H961      1.0  0.27970  0.22198  0.89385  1.0000
  H   H962      1.0  0.36364  0.29859  0.54408  1.0000
  C   C1192     1.0  0.48197  0.00965  0.50177  1.0000
  C   C1193     1.0  0.38190  0.04319  0.61608  1.0000
  C   C1194     1.0  0.27611  0.27207  0.55751  1.0000
  H   H963      1.0  0.46707  0.01167  0.77963  1.0000
  H   H964      1.0  0.24423  0.17756  0.60681  1.0000
  H   H965      1.0  0.37057  0.30439  0.90323  1.0000
  C   C1195     1.0  0.46331  0.02548  0.91774  1.0000
  H   H966      1.0  0.28075  0.28433  0.56338  1.0000
  H   H967      1.0  0.43504  0.20113  0.75626  1.0000
  C   C1196     1.0  0.46345  0.06243  0.49702  1.0000
  C   C1197     1.0  0.25024  0.17252  0.83677  1.0000
  C   C1198     1.0  0.27952  0.20266  0.56930  1.0000
  H   H968      1.0  0.46791  0.03775  0.91116  1.0000
  H   H969      1.0  0.32623  0.23730  0.73734  1.0000
  C   C1199     1.0  0.33975  0.23398  0.73643  1.0000
  P   P38       1.0  0.25749  0.21943  0.53194  1.0000
  C   C1200     1.0  0.42567  0.98707  0.61403  1.0000
  H   H970      1.0  0.34531  0.23234  0.88999  1.0000
  H   H971      1.0  0.29667  0.19032  0.59861  1.0000
  C   C1201     1.0  0.35810  0.12619  0.60644  1.0000
  C   C1202     1.0  0.32477  0.29730  0.84133  1.0000
  H   H972      1.0  0.30319  0.30551  0.81662  1.0000
  C   C1203     1.0  0.43997  0.00700  0.92753  1.0000
  C   C1204     1.0  0.25649  0.23836  0.98083  1.0000
  P   P39       1.0  0.38040  0.08557  0.56569  1.0000
  C   C1205     1.0  0.26939  0.22566  0.97978  1.0000
  H   H973      1.0  0.25445  0.29155  0.48212  1.0000
  H   H974      1.0  0.35790  0.17452  0.97478  1.0000
  H   H975      1.0  0.39006  0.05358  0.53789  1.0000
  H   H976      1.0  0.32856  0.09712  0.62284  1.0000
  C   C1206     1.0  0.25998  0.24871  0.64915  1.0000
  H   H977      1.0  0.46599  0.07737  0.73573  1.0000
  C   C1207     1.0  0.38726  0.05075  0.55958  1.0000
  H   H978      1.0  0.38924  0.01738  0.60547  1.0000
  H   H979      1.0  0.28939  0.21016  0.55988  1.0000
  C   C1208     1.0  0.36626  0.09864  0.58704  1.0000
  C   C1209     1.0  0.26465  0.24010  0.54198  1.0000
  H   H980      1.0  0.28707  0.19662  0.51588  1.0000
  H   H981      1.0  0.33487  0.12742  0.63059  1.0000
  H   H982      1.0  0.25011  0.24259  0.96186  1.0000
  C   C1210     1.0  0.28368  0.19153  0.59135  1.0000
  H   H983      1.0  0.44087  0.00586  0.68446  1.0000
  C   C1211     1.0  0.36948  0.11587  0.59096  1.0000
  C   C1212     1.0  0.26069  0.21795  0.64798  1.0000
  H   H984      1.0  0.24694  0.27839  0.93238  1.0000
  H   H985      1.0  0.26778  0.20591  0.64991  1.0000
  H   H986      1.0  0.39412  0.02403  0.55547  1.0000
  P   P40       1.0  0.24295  0.20524  0.81569  1.0000
  H   H987      1.0  0.43846  0.09152  0.52653  1.0000
  C   C1213     1.0  0.47387  0.06972  0.74980  1.0000
  C   C1214     1.0  0.42634  0.20827  0.76984  1.0000
  C   C1215     1.0  0.26722  0.21354  0.49882  1.0000
  C   C1216     1.0  0.35921  0.18489  0.52389  1.0000
  H   H988      1.0  0.33167  0.18356  0.52248  1.0000
  P   P41       1.0  0.36143  0.17394  0.55713  1.0000
  C   C1217     1.0  0.34377  0.15995  0.56145  1.0000
  C   C1218     1.0  0.38093  0.16084  0.55715  1.0000
  C   C1219     1.0  0.38692  0.15323  0.53230  1.0000
  C   C1220     1.0  0.40188  0.14299  0.53220  1.0000
  C   C1221     1.0  0.41092  0.14013  0.55691  1.0000
  C   C1222     1.0  0.40501  0.14747  0.58177  1.0000
  C   C1223     1.0  0.39011  0.15781  0.58192  1.0000
  C   C1224     1.0  0.32952  0.16483  0.57787  1.0000
  C   C1225     1.0  0.31603  0.15385  0.58142  1.0000
  C   C1226     1.0  0.31649  0.13808  0.56821  1.0000
  C   C1227     1.0  0.33042  0.13328  0.55133  1.0000
  C   C1228     1.0  0.34398  0.14418  0.54785  1.0000
  C   C1229     1.0  0.36157  0.18929  0.58509  1.0000
  C   C1230     1.0  0.36359  0.20667  0.57934  1.0000
  C   C1231     1.0  0.36305  0.21849  0.60104  1.0000
  C   C1232     1.0  0.36060  0.21307  0.62861  1.0000
  C   C1233     1.0  0.35883  0.19580  0.63453  1.0000
  C   C1234     1.0  0.35921  0.18398  0.61291  1.0000
  H   H989      1.0  0.40430  0.19562  0.75556  1.0000
  C   C1235     1.0  0.25410  0.18435  0.59589  1.0000
  C   C1236     1.0  0.40911  0.09770  0.59141  1.0000
  H   H990      1.0  0.38776  0.22091  0.73167  1.0000
  H   H991      1.0  0.42252  0.13222  0.55682  1.0000
  H   H992      1.0  0.41192  0.14509  0.60103  1.0000
  H   H993      1.0  0.38588  0.16327  0.60151  1.0000
  H   H994      1.0  0.32878  0.17705  0.58807  1.0000
  H   H995      1.0  0.30526  0.15754  0.59462  1.0000
  H   H996      1.0  0.30608  0.12954  0.57121  1.0000
  H   H997      1.0  0.36491  0.21134  0.55814  1.0000
  H   H998      1.0  0.36383  0.23195  0.59633  1.0000
  H   H999      1.0  0.35951  0.22228  0.64527  1.0000
  H   H1000     1.0  0.35680  0.19156  0.65586  1.0000
  H   H1001     1.0  0.35737  0.17072  0.61797  1.0000
  H   H1002     1.0  0.38605  0.19007  0.51990  1.0000
  H   H1003     1.0  0.44077  0.00061  0.58414  1.0000
  C   C1237     1.0  0.27326  0.26856  0.52946  1.0000
  H   H1004     1.0  0.38723  0.29536  0.97306  1.0000
  C   C1238     1.0  0.46143  0.98363  0.74961  1.0000
  H   H1005     1.0  0.26669  0.20116  0.86315  1.0000
  H   H1006     1.0  0.35464  0.14016  0.53480  1.0000
  H   H1007     1.0  0.26580  0.25023  0.49975  1.0000
  H   H1008     1.0  0.40799  0.08510  0.52357  1.0000
  H   H1009     1.0  0.40121  0.09887  0.60992  1.0000
  C   C1239     1.0  0.40892  0.20514  0.76958  1.0000
  H   H1010     1.0  0.26656  0.26047  0.65168  1.0000
  H   H1011     1.0  0.38004  0.15522  0.51295  1.0000
  H   H1012     1.0  0.27305  0.21998  0.96000  1.0000
  C   C1240     1.0  0.25487  0.18515  0.81749  1.0000
  H   H1013     1.0  0.32642  0.28519  0.83083  1.0000
  C   C1241     1.0  0.25804  0.22249  0.77136  1.0000
  C   C1242     1.0  0.24511  0.28724  0.97469  1.0000
  H   H1014     1.0  0.23475  0.19413  0.51169  1.0000
  H   H1015     1.0  0.35594  0.20604  0.97841  1.0000
  C   C1243     1.0  0.47494  0.01265  0.92641  1.0000
  C   C1244     1.0  0.37173  0.08740  0.53104  1.0000
  H   H1016     1.0  0.35675  0.06486  0.53460  1.0000
  C   C1245     1.0  0.27358  0.15404  0.82052  1.0000
  C   C1246     1.0  0.27845  0.16666  0.80167  1.0000
  C   C1247     1.0  0.26918  0.18215  0.80016  1.0000
  C   C1248     1.0  0.25261  0.22021  0.83861  1.0000
  C   C1249     1.0  0.26360  0.21456  0.86008  1.0000
  C   C1250     1.0  0.27095  0.22631  0.87767  1.0000
  C   C1251     1.0  0.26743  0.24372  0.87395  1.0000
  H   H1017     1.0  0.26474  0.23458  0.58652  1.0000
  C   C1252     1.0  0.36750  0.10385  0.48827  1.0000
  C   C1253     1.0  0.36641  0.23277  0.71076  1.0000
  C   C1254     1.0  0.25658  0.24944  0.85259  1.0000
  H   H1018     1.0  0.39551  0.23379  0.81892  1.0000
  C   C1255     1.0  0.37504  0.10176  0.51451  1.0000
  C   C1256     1.0  0.37353  0.19168  0.51066  1.0000
  H   H1019     1.0  0.26809  0.22536  0.78583  1.0000
  H   H1020     1.0  0.27059  0.23456  0.73671  1.0000
  C   C1257     1.0  0.44661  0.99947  0.70242  1.0000
  H   H1021     1.0  0.42617  0.23917  0.81912  1.0000
  C   C1258     1.0  0.27101  0.18227  0.60450  1.0000
  H   H1022     1.0  0.42302  0.98986  0.71740  1.0000
  H   H1023     1.0  0.48017  0.02298  0.50719  1.0000
  H   H1024     1.0  0.28080  0.14204  0.82157  1.0000
  H   H1025     1.0  0.28953  0.16454  0.78828  1.0000
  H   H1026     1.0  0.27338  0.19173  0.78555  1.0000
  C   C1259     1.0  0.47516  0.99705  0.51886  1.0000
  H   H1027     1.0  0.34278  0.24352  0.69446  1.0000
  H   H1028     1.0  0.27341  0.25283  0.88724  1.0000
  C   C1260     1.0  0.31168  0.30880  0.83330  1.0000
  C   C1261     1.0  0.38693  0.03025  0.59766  1.0000
  C   C1262     1.0  0.38186  0.06378  0.57787  1.0000
  C   C1263     1.0  0.27308  0.25971  0.57791  1.0000
  H   H1029     1.0  0.42641  0.00488  0.92815  1.0000
  C   C1264     1.0  0.40215  0.09223  0.56632  1.0000
  H   H1030     1.0  0.25769  0.16559  0.73958  1.0000
  H   H1031     1.0  0.47028  0.03291  0.81622  1.0000
  H   H1032     1.0  0.24871  0.22693  0.70244  1.0000
  C   C1265     1.0  0.43017  0.09348  0.54451  1.0000
  C   C1266     1.0  0.37249  0.30096  0.52713  1.0000
  C   C1267     1.0  0.33526  0.30109  0.86369  1.0000
  C   C1268     1.0  0.34128  0.19729  0.48726  1.0000
  H   H1033     1.0  0.47651  0.08987  0.77973  1.0000
  H   H1034     1.0  0.47177  0.00780  0.69275  1.0000
  H   H1035     1.0  0.40927  0.30351  0.93860  1.0000
  H   H1036     1.0  0.48111  0.02434  0.86276  1.0000
  C   C1269     1.0  0.47818  0.05281  0.74315  1.0000
  C   C1270     1.0  0.47133  0.28920  0.56474  1.0000
  C   C1271     1.0  0.47475  0.30638  0.56826  1.0000
  H   H1037     1.0  0.46798  0.00060  0.53749  1.0000
  C   C1272     1.0  0.38490  0.31315  0.52995  1.0000
  S   S171      1.0  0.30833  0.27766  0.48284  1.0000
  C   C1273     1.0  0.47581  0.99019  0.80544  1.0000
  C   C1274     1.0  0.47986  0.07677  0.77477  1.0000
  C   C1275     1.0  0.24402  0.21315  0.78019  1.0000
  C   C1276     1.0  0.41016  0.30758  0.96008  1.0000
  C   C1277     1.0  0.48148  0.98539  0.83225  1.0000
  H   H1038     1.0  0.23544  0.26123  0.64373  1.0000
  C   C1278     1.0  0.23486  0.22022  0.52568  1.0000
  C   C1279     1.0  0.48351  0.99768  0.85279  1.0000
  C   C1280     1.0  0.39449  0.30779  0.48250  1.0000
  H   H1039     1.0  0.46864  0.31186  0.48181  1.0000
  C   C1281     1.0  0.44392  0.98235  0.74452  1.0000
  H   H1040     1.0  0.46426  0.31566  0.56996  1.0000
  C   C1282     1.0  0.39771  0.30303  0.97948  1.0000
  Fe  Fe89      1.0  0.42095  0.57894  0.32321  1.0000
  S   S172      1.0  0.44883  0.57932  0.31073  1.0000
  S   S173      1.0  0.40336  0.60325  0.32678  1.0000
  Fe  Fe90      1.0  0.42397  0.54000  0.33614  1.0000
  S   S174      1.0  0.45152  0.53801  0.32394  1.0000
  S   S175      1.0  0.40749  0.51780  0.34882  1.0000
  Fe  Fe91      1.0  0.45392  0.56222  0.34832  1.0000
  C   C1283     1.0  0.47830  0.56301  0.41253  1.0000
  Fe  Fe92      1.0  0.44429  0.55513  0.28754  1.0000
  S   S176      1.0  0.45093  0.54710  0.24280  1.0000
  S   S177      1.0  0.42654  0.56340  0.36252  1.0000
  S   S178      1.0  0.41620  0.55556  0.29819  1.0000
  Fe  Fe93      1.0  0.41920  0.37502  0.39953  1.0000
  S   S179      1.0  0.44650  0.37298  0.41464  1.0000
  S   S180      1.0  0.40428  0.35006  0.39553  1.0000
  Fe  Fe94      1.0  0.42246  0.41409  0.38879  1.0000
  S   S181      1.0  0.44934  0.41432  0.40404  1.0000
  S   S182      1.0  0.40721  0.43761  0.37345  1.0000
  Fe  Fe95      1.0  0.45300  0.39043  0.37853  1.0000
  H   H1041     1.0  0.45264  0.43775  0.00783  1.0000
  Fe  Fe96      1.0  0.44062  0.39697  0.43856  1.0000
  H   H1042     1.0  0.44918  0.39444  0.00265  1.0000
  S   S183      1.0  0.42638  0.39091  0.36162  1.0000
  S   S184      1.0  0.41305  0.39838  0.42512  1.0000
  C   C1284     1.0  0.47903  0.38943  0.31597  1.0000
  H   H1043     1.0  0.30064  0.64380  0.34873  1.0000
  H   H1044     1.0  0.26203  0.61067  0.29115  1.0000
  H   H1045     1.0  0.48194  0.51545  0.22941  1.0000
  S   S185      1.0  0.48122  0.38760  0.09021  1.0000
  H   H1046     1.0  0.45455  0.47265  0.11960  1.0000
  C   C1285     1.0  0.46445  0.56225  0.45816  1.0000
  H   H1047     1.0  0.41593  0.61317  0.24923  1.0000
  C   C1286     1.0  0.46478  0.39395  0.29980  1.0000
  H   H1048     1.0  0.47966  0.35022  0.08171  1.0000
  C   C1287     1.0  0.28689  0.61035  0.31019  1.0000
  H   H1049     1.0  0.46666  0.43056  0.45679  1.0000
  H   H1050     1.0  0.45245  0.39564  0.30979  1.0000
  C   C1288     1.0  0.46458  0.60863  0.11857  1.0000
  C   C1289     1.0  0.40942  0.49536  0.35480  1.0000
  C   C1290     1.0  0.39441  0.48639  0.35318  1.0000
  C   C1291     1.0  0.39437  0.46885  0.35850  1.0000
  C   C1292     1.0  0.40927  0.45975  0.36616  1.0000
  C   C1293     1.0  0.42453  0.46858  0.36806  1.0000
  C   C1294     1.0  0.42464  0.48637  0.36211  1.0000
  H   H1051     1.0  0.38258  0.49309  0.34775  1.0000
  H   H1052     1.0  0.38252  0.46230  0.35702  1.0000
  H   H1053     1.0  0.43611  0.46177  0.37430  1.0000
  H   H1054     1.0  0.43634  0.49314  0.36369  1.0000
  C   C1295     1.0  0.48023  0.43213  0.45887  1.0000
  C   C1296     1.0  0.47756  0.56771  0.22734  1.0000
  C   C1297     1.0  0.46694  0.55464  0.21988  1.0000
  C   C1298     1.0  0.47085  0.52216  0.03230  1.0000
  C   C1299     1.0  0.37895  0.62363  0.18430  1.0000
  C   C1300     1.0  0.47897  0.49336  0.04650  1.0000
  C   C1301     1.0  0.46342  0.56264  0.42878  1.0000
  C   C1302     1.0  0.44020  0.46392  0.45513  1.0000
  C   C1303     1.0  0.41423  0.44997  0.44347  1.0000
  H   H1055     1.0  0.43109  0.61998  0.29222  1.0000
  H   H1056     1.0  0.45112  0.56293  0.41873  1.0000
  H   H1057     1.0  0.28361  0.60065  0.32524  1.0000
  C   C1304     1.0  0.30909  0.59855  0.36296  1.0000
  C   C1305     1.0  0.46298  0.47451  0.13702  1.0000
  C   C1306     1.0  0.48116  0.55321  0.17411  1.0000
  C   C1307     1.0  0.46839  0.48684  0.18218  1.0000
  C   C1308     1.0  0.38692  0.33887  0.41126  1.0000
  C   C1309     1.0  0.37567  0.34630  0.43088  1.0000
  C   C1310     1.0  0.36195  0.33704  0.44204  1.0000
  H   H1058     1.0  0.44802  0.46192  0.04861  1.0000
  H   H1059     1.0  0.37740  0.35929  0.43719  1.0000
  C   C1311     1.0  0.47399  0.49747  0.29273  1.0000
  C   C1312     1.0  0.36390  0.63656  0.27616  1.0000
  C   C1313     1.0  0.37220  0.62223  0.26389  1.0000
  C   C1314     1.0  0.38435  0.61200  0.27878  1.0000
  C   C1315     1.0  0.38844  0.61591  0.30636  1.0000
  C   C1316     1.0  0.38032  0.63037  0.31849  1.0000
  C   C1317     1.0  0.27456  0.61601  0.29092  1.0000
  H   H1060     1.0  0.36903  0.61885  0.24280  1.0000
  H   H1061     1.0  0.39029  0.60091  0.26909  1.0000
  S   S186      1.0  0.47767  0.56444  0.37545  1.0000
  H   H1062     1.0  0.47347  0.60978  0.10123  1.0000
  C   C1318     1.0  0.40946  0.54691  0.44214  1.0000
  C   C1319     1.0  0.41283  0.53688  0.41868  1.0000
  C   C1320     1.0  0.42376  0.52250  0.42064  1.0000
  C   C1321     1.0  0.36816  0.64060  0.30359  1.0000
  H   H1063     1.0  0.40122  0.55821  0.44039  1.0000
  H   H1064     1.0  0.40698  0.54023  0.39885  1.0000
  H   H1065     1.0  0.42637  0.51501  0.40213  1.0000
  H   H1066     1.0  0.39398  0.46617  0.42701  1.0000
  H   H1067     1.0  0.44221  0.44398  0.09020  1.0000
  C   C1322     1.0  0.32561  0.63117  0.35137  1.0000
  H   H1068     1.0  0.46273  0.61848  0.29317  1.0000
  H   H1069     1.0  0.46790  0.50058  0.31251  1.0000
  P   P42       1.0  0.43999  0.33874  0.00540  1.0000
  C   C1323     1.0  0.45059  0.33359  0.03791  1.0000
  C   C1324     1.0  0.30678  0.63006  0.29025  1.0000
  C   C1325     1.0  0.34750  0.64815  0.37179  1.0000
  H   H1070     1.0  0.35202  0.62280  0.35691  1.0000
  C   C1326     1.0  0.46501  0.48423  0.40568  1.0000
  C   C1327     1.0  0.42658  0.33496  0.45831  1.0000
  C   C1328     1.0  0.36075  0.34486  0.33118  1.0000
  C   C1329     1.0  0.46238  0.34487  0.04843  1.0000
  C   C1330     1.0  0.47083  0.34123  0.07349  1.0000
  H   H1071     1.0  0.46138  0.52683  0.41869  1.0000
  H   H1072     1.0  0.46403  0.49475  0.19933  1.0000
  C   C1331     1.0  0.46351  0.39204  0.04111  1.0000
  C   C1332     1.0  0.42827  0.35888  0.00699  1.0000
  S   S187      1.0  0.47755  0.38686  0.35295  1.0000
  H   H1073     1.0  0.43351  0.63128  0.15321  1.0000
  C   C1333     1.0  0.29416  0.57795  0.40392  1.0000
  C   C1334     1.0  0.45732  0.48401  0.16007  1.0000
  H   H1074     1.0  0.29726  0.64557  0.25602  1.0000
  H   H1075     1.0  0.41491  0.34140  0.45135  1.0000
  H   H1076     1.0  0.33641  0.33350  0.32819  1.0000
  C   C1335     1.0  0.47966  0.46769  0.13619  1.0000
  C   C1336     1.0  0.29575  0.59534  0.40861  1.0000
  P   P43       1.0  0.44498  0.49892  0.44862  1.0000
  C   C1337     1.0  0.41974  0.36509  0.98314  1.0000
  H   H1077     1.0  0.46078  0.53718  0.18730  1.0000
  H   H1078     1.0  0.46502  0.35656  0.03733  1.0000
  H   H1079     1.0  0.41512  0.38975  0.05275  1.0000
  C   C1338     1.0  0.46787  0.32611  0.08795  1.0000
  C   C1339     1.0  0.46672  0.49870  0.00087  1.0000
  H   H1080     1.0  0.48209  0.51540  0.07197  1.0000
  C   C1340     1.0  0.41635  0.38284  0.03333  1.0000
  H   H1081     1.0  0.29877  0.55733  0.37518  1.0000
  H   H1082     1.0  0.38343  0.63366  0.33967  1.0000
  C   C1341     1.0  0.41110  0.55693  0.16876  1.0000
  C   C1342     1.0  0.40797  0.54863  0.19410  1.0000
  C   C1343     1.0  0.41074  0.55689  0.21926  1.0000
  C   C1344     1.0  0.41687  0.57338  0.21921  1.0000
  C   C1345     1.0  0.42030  0.58171  0.19384  1.0000
  C   C1346     1.0  0.41710  0.57345  0.16860  1.0000
  P   P44       1.0  0.42754  0.60327  0.19326  1.0000
  C   C1347     1.0  0.34253  0.63295  0.35983  1.0000
  C   C1348     1.0  0.43886  0.60765  0.22500  1.0000
  C   C1349     1.0  0.42971  0.61250  0.24916  1.0000
  C   C1350     1.0  0.43829  0.61651  0.27355  1.0000
  C   C1351     1.0  0.45610  0.61566  0.27409  1.0000
  H   H1083     1.0  0.28861  0.32205  0.98989  1.0000
  C   C1352     1.0  0.45676  0.60672  0.22579  1.0000
  C   C1353     1.0  0.42430  0.32369  0.99566  1.0000
  C   C1354     1.0  0.44191  0.60551  0.16386  1.0000
  C   C1355     1.0  0.45345  0.59207  0.15700  1.0000
  C   C1356     1.0  0.47837  0.56714  0.98891  1.0000
  C   C1357     1.0  0.46532  0.51612  0.00672  1.0000
  C   C1358     1.0  0.48249  0.39438  0.25730  1.0000
  C   C1359     1.0  0.35007  0.33109  0.32905  1.0000
  H   H1084     1.0  0.40902  0.55050  0.14924  1.0000
  H   H1085     1.0  0.40356  0.53573  0.19431  1.0000
  H   H1086     1.0  0.40862  0.55032  0.23886  1.0000
  H   H1087     1.0  0.41927  0.57935  0.23900  1.0000
  H   H1088     1.0  0.41938  0.57971  0.14875  1.0000
  H   H1089     1.0  0.45339  0.63382  0.11323  1.0000
  C   C1360     1.0  0.27830  0.62873  0.27147  1.0000
  H   H1090     1.0  0.46496  0.32091  0.43231  1.0000
  C   C1361     1.0  0.39323  0.61245  0.18345  1.0000
  H   H1091     1.0  0.46424  0.60282  0.20774  1.0000
  C   C1362     1.0  0.45366  0.44429  0.98796  1.0000
  C   C1363     1.0  0.38428  0.32189  0.40348  1.0000
  H   H1092     1.0  0.45400  0.58045  0.16939  1.0000
  H   H1093     1.0  0.47371  0.58329  0.12945  1.0000
  C   C1364     1.0  0.46549  0.51493  0.40910  1.0000
  C   C1365     1.0  0.47235  0.43730  0.28026  1.0000
  H   H1094     1.0  0.34103  0.31680  0.27664  1.0000
  C   C1366     1.0  0.39004  0.44482  0.29318  1.0000
  C   C1367     1.0  0.39021  0.42858  0.30530  1.0000
  C   C1368     1.0  0.40500  0.41815  0.30409  1.0000
  C   C1369     1.0  0.41973  0.42408  0.29129  1.0000
  C   C1370     1.0  0.41977  0.44050  0.27951  1.0000
  C   C1371     1.0  0.40471  0.45074  0.28011  1.0000
  P   P45       1.0  0.43927  0.44842  0.26482  1.0000
  C   C1372     1.0  0.45606  0.44293  0.28944  1.0000
  C   C1373     1.0  0.44408  0.43889  0.23124  1.0000
  C   C1374     1.0  0.45719  0.44519  0.21433  1.0000
  C   C1375     1.0  0.46192  0.43699  0.18950  1.0000
  C   C1376     1.0  0.45357  0.42251  0.18126  1.0000
  C   C1377     1.0  0.44033  0.41633  0.19765  1.0000
  C   C1378     1.0  0.43556  0.42448  0.22251  1.0000
  H   H1095     1.0  0.45254  0.38901  0.05371  1.0000
  C   C1379     1.0  0.35916  0.32015  0.43393  1.0000
  H   H1096     1.0  0.29127  0.60084  0.42812  1.0000
  C   C1380     1.0  0.46518  0.43841  0.33750  1.0000
  C   C1381     1.0  0.45260  0.44340  0.31829  1.0000
  C   C1382     1.0  0.43694  0.47139  0.26251  1.0000
  C   C1383     1.0  0.43506  0.48094  0.28706  1.0000
  C   C1384     1.0  0.43203  0.49855  0.28569  1.0000
  C   C1385     1.0  0.43095  0.50684  0.25985  1.0000
  C   C1386     1.0  0.43268  0.49749  0.23528  1.0000
  C   C1387     1.0  0.43542  0.47980  0.23654  1.0000
  H   H1097     1.0  0.37864  0.45297  0.29450  1.0000
  H   H1098     1.0  0.37902  0.42418  0.31615  1.0000
  H   H1099     1.0  0.40517  0.40565  0.31378  1.0000
  H   H1100     1.0  0.43120  0.41599  0.29108  1.0000
  H   H1101     1.0  0.40429  0.46343  0.27116  1.0000
  H   H1102     1.0  0.46415  0.45608  0.22088  1.0000
  H   H1103     1.0  0.43230  0.36304  0.05119  1.0000
  H   H1104     1.0  0.45779  0.41570  0.16272  1.0000
  H   H1105     1.0  0.43422  0.40481  0.19160  1.0000
  H   H1106     1.0  0.42559  0.41912  0.23514  1.0000
  H   H1107     1.0  0.36647  0.61917  0.17916  1.0000
  H   H1108     1.0  0.26866  0.63341  0.25689  1.0000
  C   C1388     1.0  0.47415  0.45262  0.04397  1.0000
  H   H1109     1.0  0.46220  0.43826  0.35961  1.0000
  H   H1110     1.0  0.43998  0.44698  0.32601  1.0000
  H   H1111     1.0  0.43551  0.47480  0.30733  1.0000
  H   H1112     1.0  0.43048  0.50581  0.30472  1.0000
  H   H1113     1.0  0.42869  0.52051  0.25893  1.0000
  H   H1114     1.0  0.43175  0.50402  0.21530  1.0000
  H   H1115     1.0  0.43600  0.47280  0.21723  1.0000
  C   C1389     1.0  0.39688  0.63476  0.11838  1.0000
  S   S188      1.0  0.48389  0.39878  0.22079  1.0000
  C   C1390     1.0  0.45683  0.31819  0.47524  1.0000
  C   C1391     1.0  0.40945  0.37996  0.98451  1.0000
  C   C1392     1.0  0.48376  0.43208  0.07922  1.0000
  H   H1116     1.0  0.45543  0.40007  0.25848  1.0000
  C   C1393     1.0  0.47955  0.39272  0.05395  1.0000
  C   C1394     1.0  0.45325  0.62213  0.12537  1.0000
  C   C1395     1.0  0.46532  0.61070  0.25026  1.0000
  C   C1396     1.0  0.46759  0.43269  0.09156  1.0000
  C   C1397     1.0  0.43273  0.47981  0.44744  1.0000
  C   C1398     1.0  0.45962  0.49933  0.41918  1.0000
  H   H1117     1.0  0.46056  0.47202  0.41245  1.0000
  C   C1399     1.0  0.29997  0.57083  0.37880  1.0000
  C   C1400     1.0  0.44804  0.31817  0.05213  1.0000
  H   H1118     1.0  0.47535  0.43591  0.25834  1.0000
  H   H1119     1.0  0.40621  0.62450  0.12219  1.0000
  S   S189      1.0  0.48245  0.57554  0.02244  1.0000
  H   H1120     1.0  0.35536  0.35773  0.33217  1.0000
  C   C1401     1.0  0.30739  0.58107  0.35837  1.0000
  H   H1121     1.0  0.47023  0.53572  0.03647  1.0000
  H   H1122     1.0  0.48081  0.47170  0.30477  1.0000
  H   H1123     1.0  0.31181  0.57536  0.33899  1.0000
  P   P46       1.0  0.47784  0.46487  0.01248  1.0000
  H   H1124     1.0  0.40722  0.43844  0.44120  1.0000
  H   H1125     1.0  0.26318  0.64530  0.33217  1.0000
  C   C1402     1.0  0.30317  0.60563  0.38822  1.0000
  H   H1126     1.0  0.47059  0.52265  0.46636  1.0000
  H   H1127     1.0  0.38667  0.35267  0.33538  1.0000
  H   H1128     1.0  0.46505  0.42457  0.10943  1.0000
  H   H1129     1.0  0.28845  0.56998  0.41976  1.0000
  C   C1403     1.0  0.41588  0.48050  0.43758  1.0000
  H   H1130     1.0  0.40979  0.49234  0.43073  1.0000
  C   C1404     1.0  0.36845  0.64426  0.10441  1.0000
  C   C1405     1.0  0.45476  0.44355  0.08062  1.0000
  H   H1131     1.0  0.45284  0.56223  0.47049  1.0000
  C   C1406     1.0  0.48189  0.50035  0.37292  1.0000
  C   C1407     1.0  0.40673  0.46564  0.43558  1.0000
  C   C1408     1.0  0.46652  0.39643  0.27070  1.0000
  C   C1409     1.0  0.42630  0.36772  0.03224  1.0000
  C   C1410     1.0  0.30309  0.61742  0.31007  1.0000
  H   H1132     1.0  0.37726  0.61797  0.10609  1.0000
  C   C1411     1.0  0.43111  0.51776  0.44631  1.0000
  H   H1133     1.0  0.47252  0.44137  0.17715  1.0000
  C   C1412     1.0  0.35153  0.58704  0.28149  1.0000
  C   C1413     1.0  0.36321  0.57873  0.29934  1.0000
  C   C1414     1.0  0.36153  0.58061  0.32819  1.0000
  C   C1415     1.0  0.34807  0.59063  0.33926  1.0000
  C   C1416     1.0  0.33635  0.59915  0.32148  1.0000
  C   C1417     1.0  0.33824  0.59734  0.29245  1.0000
  P   P47       1.0  0.31872  0.61159  0.33634  1.0000
  C   C1418     1.0  0.38060  0.64042  0.19288  1.0000
  C   C1419     1.0  0.40934  0.61803  0.19109  1.0000
  C   C1420     1.0  0.29443  0.63564  0.27103  1.0000
  C   C1421     1.0  0.46468  0.59364  0.13442  1.0000
  H   H1134     1.0  0.35590  0.64112  0.09733  1.0000
  H   H1135     1.0  0.47353  0.35879  0.46625  1.0000
  H   H1136     1.0  0.35309  0.58588  0.25909  1.0000
  H   H1137     1.0  0.37383  0.57119  0.29084  1.0000
  H   H1138     1.0  0.37087  0.57450  0.34193  1.0000
  H   H1139     1.0  0.34690  0.59182  0.36171  1.0000
  H   H1140     1.0  0.32960  0.60385  0.27812  1.0000
  C   C1422     1.0  0.43964  0.33160  0.43893  1.0000
  C   C1423     1.0  0.47390  0.48717  0.02053  1.0000
  H   H1141     1.0  0.30431  0.61904  0.39236  1.0000
  H   H1142     1.0  0.46876  0.52228  0.27477  1.0000
  H   H1143     1.0  0.31916  0.63576  0.28985  1.0000
  C   C1424     1.0  0.47573  0.39900  0.99569  1.0000
  C   C1425     1.0  0.37839  0.34205  0.33281  1.0000
  H   H1144     1.0  0.44447  0.48953  0.16049  1.0000
  C   C1426     1.0  0.46888  0.54736  0.19324  1.0000
  H   H1145     1.0  0.31350  0.32340  0.40984  1.0000
  C   C1427     1.0  0.48130  0.43281  0.32815  1.0000
  H   H1146     1.0  0.35334  0.34308  0.45698  1.0000
  C   C1428     1.0  0.46159  0.39509  0.01218  1.0000
  H   H1147     1.0  0.47913  0.60970  0.25080  1.0000
  H   H1148     1.0  0.48091  0.52754  0.37840  1.0000
  C   C1429     1.0  0.45807  0.45364  0.05708  1.0000
  H   H1149     1.0  0.39152  0.59938  0.17754  1.0000
  C   C1430     1.0  0.44198  0.62062  0.14801  1.0000
  C   C1431     1.0  0.38055  0.63107  0.10932  1.0000
  C   C1432     1.0  0.45481  0.32332  0.44740  1.0000
  H   H1150     1.0  0.42318  0.63959  0.20542  1.0000
  H   H1151     1.0  0.41137  0.32454  0.03576  1.0000
  H   H1152     1.0  0.40011  0.40059  0.01035  1.0000
  H   H1153     1.0  0.39295  0.31581  0.38869  1.0000
  C   C1433     1.0  0.42737  0.52769  0.47000  1.0000
  H   H1154     1.0  0.48002  0.47309  0.37218  1.0000
  C   C1434     1.0  0.40792  0.38896  0.00947  1.0000
  H   H1155     1.0  0.47444  0.32337  0.10741  1.0000
  C   C1435     1.0  0.47749  0.51074  0.05229  1.0000
  C   C1436     1.0  0.48119  0.48122  0.28830  1.0000
  C   C1437     1.0  0.41094  0.63506  0.19905  1.0000
  C   C1438     1.0  0.46497  0.45759  0.98403  1.0000
  C   C1439     1.0  0.41144  0.31946  0.01481  1.0000
  H   H1156     1.0  0.47629  0.57332  0.24782  1.0000
  H   H1157     1.0  0.45328  0.46295  0.46209  1.0000
  C   C1440     1.0  0.48188  0.50572  0.24564  1.0000
  C   C1441     1.0  0.31376  0.64482  0.35514  1.0000
  C   C1442     1.0  0.43090  0.44911  0.45344  1.0000
  C   C1443     1.0  0.38539  0.32547  0.33186  1.0000
  H   H1158     1.0  0.48248  0.54754  0.15367  1.0000
  C   C1444     1.0  0.41674  0.54231  0.46779  1.0000
  H   H1159     1.0  0.48052  0.39367  0.47098  1.0000
  H   H1160     1.0  0.43793  0.33544  0.41727  1.0000
  H   H1161     1.0  0.31890  0.33026  0.98812  1.0000
  C   C1445     1.0  0.47436  0.50968  0.27141  1.0000
  C   C1446     1.0  0.39661  0.64617  0.20004  1.0000
  C   C1447     1.0  0.48030  0.56220  0.47170  1.0000
  H   H1162     1.0  0.43660  0.43687  0.45947  1.0000
  H   H1163     1.0  0.39907  0.32338  0.33357  1.0000
  H   H1164     1.0  0.46024  0.52503  0.99118  1.0000
  C   C1448     1.0  0.47658  0.51541  0.38613  1.0000
  C   C1449     1.0  0.45724  0.50040  0.48038  1.0000
  C   C1450     1.0  0.47607  0.48477  0.38265  1.0000
  S   S190      1.0  0.34837  0.64877  0.25626  1.0000
  H   H1165     1.0  0.36939  0.64884  0.19475  1.0000
  C   C1451     1.0  0.31194  0.31614  0.39093  1.0000
  Fe  Fe97      1.0  0.42304  0.57591  0.82987  1.0000
  S   S191      1.0  0.45180  0.57680  0.83453  1.0000
  S   S192      1.0  0.40833  0.60220  0.82845  1.0000
  Fe  Fe98      1.0  0.42506  0.53687  0.82911  1.0000
  S   S193      1.0  0.45332  0.53548  0.83241  1.0000
  S   S194      1.0  0.40925  0.51326  0.82543  1.0000
  Fe  Fe99      1.0  0.44990  0.55530  0.86570  1.0000
  H   H1166     1.0  0.48280  0.36716  0.94680  1.0000
  Fe  Fe100     1.0  0.45372  0.55684  0.80115  1.0000
  C   C1452     1.0  0.40951  0.36799  0.49632  1.0000
  S   S195      1.0  0.42114  0.55572  0.86396  1.0000
  S   S196      1.0  0.42533  0.55694  0.79471  1.0000
  Fe  Fe101     1.0  0.42650  0.37613  0.89813  1.0000
  S   S197      1.0  0.45533  0.37349  0.90015  1.0000
  S   S198      1.0  0.41008  0.35202  0.89903  1.0000
  Fe  Fe102     1.0  0.42823  0.41464  0.88581  1.0000
  S   S199      1.0  0.45663  0.41440  0.88764  1.0000
  S   S200      1.0  0.41058  0.43765  0.87647  1.0000
  Fe  Fe103     1.0  0.45612  0.39058  0.86210  1.0000
  C   C1453     1.0  0.37124  0.63965  0.88206  1.0000
  Fe  Fe104     1.0  0.45422  0.39749  0.92566  1.0000
  C   C1454     1.0  0.47269  0.35036  0.53608  1.0000
  S   S201      1.0  0.42755  0.39164  0.85799  1.0000
  S   S202      1.0  0.42540  0.39938  0.92579  1.0000
  C   C1455     1.0  0.38916  0.56651  0.75739  1.0000
  C   C1456     1.0  0.46347  0.39871  0.50550  1.0000
  C   C1457     1.0  0.46227  0.40029  0.53471  1.0000
  C   C1458     1.0  0.30662  0.36703  0.84249  1.0000
  H   H1167     1.0  0.44996  0.40296  0.54433  1.0000
  P   P48       1.0  0.41104  0.33344  0.51065  1.0000
  C   C1459     1.0  0.42132  0.61825  0.66312  1.0000
  C   C1460     1.0  0.46563  0.38670  0.74751  1.0000
  C   C1461     1.0  0.46419  0.38704  0.77690  1.0000
  H   H1168     1.0  0.45063  0.55347  0.72897  1.0000
  C   C1462     1.0  0.41972  0.33365  0.54557  1.0000
  H   H1169     1.0  0.45439  0.38480  0.73515  1.0000
  H   H1170     1.0  0.45197  0.38530  0.78694  1.0000
  C   C1463     1.0  0.44683  0.61368  0.87859  1.0000
  C   C1464     1.0  0.41129  0.49239  0.84027  1.0000
  C   C1465     1.0  0.42583  0.48583  0.85435  1.0000
  C   C1466     1.0  0.42631  0.46883  0.86499  1.0000
  C   C1467     1.0  0.41215  0.45851  0.86191  1.0000
  C   C1468     1.0  0.39781  0.46527  0.84795  1.0000
  C   C1469     1.0  0.39747  0.48186  0.83698  1.0000
  H   H1171     1.0  0.43659  0.49383  0.85704  1.0000
  H   H1172     1.0  0.43739  0.46379  0.87590  1.0000
  H   H1173     1.0  0.38675  0.45759  0.84564  1.0000
  H   H1174     1.0  0.38619  0.48668  0.82623  1.0000
  H   H1175     1.0  0.43521  0.36076  0.59372  1.0000
  H   H1176     1.0  0.45228  0.55536  0.67710  1.0000
  C   C1470     1.0  0.38767  0.32547  0.90193  1.0000
  H   H1177     1.0  0.39845  0.63741  0.81809  1.0000
  C   C1471     1.0  0.42474  0.34891  0.55756  1.0000
  H   H1178     1.0  0.48369  0.35061  0.80741  1.0000
  C   C1472     1.0  0.46229  0.56902  0.94517  1.0000
  C   C1473     1.0  0.35059  0.35476  0.87588  1.0000
  C   C1474     1.0  0.45346  0.46244  0.80767  1.0000
  C   C1475     1.0  0.47301  0.36840  0.62545  1.0000
  H   H1179     1.0  0.45248  0.57518  0.93252  1.0000
  H   H1180     1.0  0.28764  0.37003  0.90668  1.0000
  H   H1181     1.0  0.46366  0.41930  0.71053  1.0000
  C   C1476     1.0  0.29381  0.32767  0.97105  1.0000
  C   C1477     1.0  0.47167  0.55504  0.93459  1.0000
  C   C1478     1.0  0.45690  0.45927  0.93509  1.0000
  C   C1479     1.0  0.39313  0.34035  0.91492  1.0000
  C   C1480     1.0  0.38488  0.34543  0.93972  1.0000
  C   C1481     1.0  0.38188  0.55746  0.73587  1.0000
  C   C1482     1.0  0.28330  0.38808  0.84230  1.0000
  H   H1182     1.0  0.38866  0.35683  0.95000  1.0000
  H   H1183     1.0  0.45838  0.58590  0.98020  1.0000
  C   C1483     1.0  0.35926  0.62917  0.79169  1.0000
  C   C1484     1.0  0.36069  0.61125  0.79372  1.0000
  C   C1485     1.0  0.37557  0.60276  0.80438  1.0000
  C   C1486     1.0  0.38936  0.61205  0.81342  1.0000
  C   C1487     1.0  0.38797  0.62997  0.81128  1.0000
  C   C1488     1.0  0.37317  0.63843  0.80035  1.0000
  H   H1184     1.0  0.35013  0.60383  0.78712  1.0000
  H   H1185     1.0  0.37618  0.58904  0.80612  1.0000
  C   C1489     1.0  0.42819  0.61340  0.76608  1.0000
  H   H1186     1.0  0.46765  0.60655  0.79397  1.0000
  C   C1490     1.0  0.47531  0.48336  0.85469  1.0000
  H   H1187     1.0  0.27560  0.39771  0.83137  1.0000
  C   C1491     1.0  0.43680  0.45890  0.80008  1.0000
  C   C1492     1.0  0.45748  0.60660  0.77879  1.0000
  H   H1188     1.0  0.31711  0.36058  0.83158  1.0000
  S   S203      1.0  0.33984  0.63913  0.77839  1.0000
  S   S204      1.0  0.46849  0.54722  0.90040  1.0000
  C   C1493     1.0  0.38222  0.35495  0.50235  1.0000
  H   H1189     1.0  0.39384  0.32134  0.88276  1.0000
  H   H1190     1.0  0.35677  0.63438  0.72329  1.0000
  C   C1494     1.0  0.47060  0.46807  0.71188  1.0000
  C   C1495     1.0  0.43085  0.60580  0.73992  1.0000
  C   C1496     1.0  0.32239  0.64208  0.84718  1.0000
  H   H1191     1.0  0.46412  0.35182  0.55373  1.0000
  H   H1192     1.0  0.36555  0.33984  0.97059  1.0000
  H   H1193     1.0  0.37656  0.36066  0.86565  1.0000
  C   C1497     1.0  0.46269  0.55569  0.71868  1.0000
  H   H1194     1.0  0.37834  0.38288  0.90148  1.0000
  H   H1195     1.0  0.38541  0.32025  0.54917  1.0000
  C   C1498     1.0  0.42843  0.32979  0.48626  1.0000
  H   H1196     1.0  0.44957  0.59220  0.71394  1.0000
  S   S205      1.0  0.47805  0.38722  0.83033  1.0000
  H   H1197     1.0  0.44045  0.50829  0.79508  1.0000
  H   H1198     1.0  0.39497  0.58095  0.68039  1.0000
  H   H1199     1.0  0.43807  0.33382  0.62085  1.0000
  H   H1200     1.0  0.46119  0.36412  0.66551  1.0000
  H   H1201     1.0  0.27072  0.32520  0.94781  1.0000
  C   C1499     1.0  0.46350  0.35484  0.97101  1.0000
  C   C1500     1.0  0.46720  0.35823  0.64736  1.0000
  H   H1202     1.0  0.33104  0.34188  0.94489  1.0000
  H   H1203     1.0  0.45460  0.36209  0.50744  1.0000
  H   H1204     1.0  0.43737  0.44244  0.92238  1.0000
  C   C1501     1.0  0.44239  0.42911  0.81077  1.0000
  H   H1205     1.0  0.47642  0.43043  0.58096  1.0000
  C   C1502     1.0  0.40579  0.63919  0.72404  1.0000
  C   C1503     1.0  0.46698  0.46455  0.95712  1.0000
  H   H1206     1.0  0.41944  0.64071  0.72450  1.0000
  C   C1504     1.0  0.48026  0.45751  0.69378  1.0000
  H   H1207     1.0  0.43932  0.61442  0.85967  1.0000
  H   H1208     1.0  0.46699  0.50592  0.87717  1.0000
  C   C1505     1.0  0.28007  0.38456  0.87048  1.0000
  C   C1506     1.0  0.40151  0.58576  0.72345  1.0000
  C   C1507     1.0  0.35386  0.64020  0.88950  1.0000
  C   C1508     1.0  0.43632  0.60239  0.62671  1.0000
  C   C1509     1.0  0.46564  0.57504  0.97219  1.0000
  H   H1209     1.0  0.42079  0.35826  0.96356  1.0000
  C   C1510     1.0  0.39893  0.58062  0.75125  1.0000
  C   C1511     1.0  0.39914  0.62305  0.71990  1.0000
  S   S206      1.0  0.44461  0.40105  0.48533  1.0000
  C   C1512     1.0  0.34615  0.62507  0.89767  1.0000
  C   C1513     1.0  0.35561  0.60963  0.89802  1.0000
  C   C1514     1.0  0.37283  0.60918  0.89024  1.0000
  C   C1515     1.0  0.38064  0.62419  0.88249  1.0000
  C   C1516     1.0  0.47734  0.55749  0.73465  1.0000
  H   H1210     1.0  0.26991  0.39150  0.88142  1.0000
  H   H1211     1.0  0.34952  0.59793  0.90367  1.0000
  H   H1212     1.0  0.29930  0.38229  0.80662  1.0000
  H   H1213     1.0  0.46540  0.47574  0.86366  1.0000
  C   C1517     1.0  0.42857  0.61755  0.63632  1.0000
  C   C1518     1.0  0.46976  0.34057  0.64638  1.0000
  H   H1214     1.0  0.42482  0.61433  0.90568  1.0000
  C   C1519     1.0  0.44379  0.43887  0.96577  1.0000
  H   H1215     1.0  0.33440  0.63591  0.84106  1.0000
  C   C1520     1.0  0.38414  0.56265  0.70814  1.0000
  H   H1216     1.0  0.43912  0.61946  0.80565  1.0000
  C   C1521     1.0  0.42175  0.60373  0.68047  1.0000
  H   H1217     1.0  0.44491  0.48001  0.50278  1.0000
  S   S207      1.0  0.47428  0.40270  0.95899  1.0000
  H   H1218     1.0  0.33271  0.62515  0.90302  1.0000
  H   H1219     1.0  0.41418  0.55011  0.48599  1.0000
  H   H1220     1.0  0.41575  0.61868  0.77192  1.0000
  H   H1221     1.0  0.38007  0.59716  0.88965  1.0000
  H   H1222     1.0  0.39389  0.62372  0.87584  1.0000
  H   H1223     1.0  0.42987  0.57718  0.68348  1.0000
  H   H1224     1.0  0.37580  0.60922  0.71659  1.0000
  C   C1522     1.0  0.43667  0.58788  0.64373  1.0000
  C   C1523     1.0  0.31079  0.33240  0.97011  1.0000
  H   H1225     1.0  0.46152  0.48286  0.54562  1.0000
  C   C1524     1.0  0.44147  0.61387  0.78533  1.0000
  C   C1525     1.0  0.37163  0.33576  0.95131  1.0000
  H   H1226     1.0  0.46573  0.33279  0.66385  1.0000
  H   H1227     1.0  0.41810  0.43962  0.79713  1.0000
  P   P49       1.0  0.31672  0.34771  0.88876  1.0000
  C   C1526     1.0  0.46026  0.59896  0.75289  1.0000
  H   H1228     1.0  0.42800  0.46916  0.79377  1.0000
  H   H1229     1.0  0.40429  0.58757  0.76830  1.0000
  S   S208      1.0  0.47694  0.55657  0.77171  1.0000
  C   C1527     1.0  0.36656  0.37625  0.89904  1.0000
  H   H1230     1.0  0.44220  0.60188  0.60614  1.0000
  H   H1231     1.0  0.45736  0.47545  0.80652  1.0000
  C   C1528     1.0  0.44519  0.44654  0.93946  1.0000
  H   H1232     1.0  0.36008  0.37149  0.49580  1.0000
  C   C1529     1.0  0.39379  0.57684  0.70193  1.0000
  C   C1530     1.0  0.43862  0.61361  0.90456  1.0000
  C   C1531     1.0  0.45903  0.43263  0.81843  1.0000
  C   C1532     1.0  0.43145  0.34891  0.58454  1.0000
  H   H1233     1.0  0.43522  0.42851  0.96885  1.0000
  C   C1533     1.0  0.47916  0.55997  0.67557  1.0000
  C   C1534     1.0  0.40112  0.38366  0.49098  1.0000
  C   C1535     1.0  0.28369  0.32950  0.94726  1.0000
  H   H1234     1.0  0.42832  0.62880  0.62309  1.0000
  C   C1536     1.0  0.47869  0.38886  0.79324  1.0000
  H   H1235     1.0  0.47163  0.38215  0.62680  1.0000
  C   C1537     1.0  0.29007  0.37223  0.88469  1.0000
  C   C1538     1.0  0.33651  0.35831  0.89345  1.0000
  C   C1539     1.0  0.46603  0.61079  0.92749  1.0000
  C   C1540     1.0  0.47770  0.44002  0.69330  1.0000
  C   C1541     1.0  0.46462  0.44937  0.81751  1.0000
  C   C1542     1.0  0.35254  0.38003  0.91635  1.0000
  C   C1543     1.0  0.33750  0.37120  0.91342  1.0000
  C   C1544     1.0  0.39614  0.31653  0.50774  1.0000
  H   H1236     1.0  0.47308  0.60926  0.94670  1.0000
  C   C1545     1.0  0.47439  0.61065  0.90145  1.0000
  C   C1546     1.0  0.29187  0.64548  0.84074  1.0000
  C   C1547     1.0  0.46463  0.61227  0.87700  1.0000
  C   C1548     1.0  0.46712  0.35601  0.50980  1.0000
  H   H1237     1.0  0.37433  0.54653  0.74077  1.0000
  P   P50       1.0  0.41332  0.60456  0.71574  1.0000
  H   H1238     1.0  0.46526  0.49496  0.77087  1.0000
  H   H1239     1.0  0.45817  0.46498  0.91457  1.0000
  H   H1240     1.0  0.47072  0.61210  0.85663  1.0000
  C   C1549     1.0  0.30321  0.36314  0.87061  1.0000
  C   C1550     1.0  0.36555  0.36370  0.87875  1.0000
  C   C1551     1.0  0.47500  0.49826  0.67644  1.0000
  H   H1241     1.0  0.48386  0.57634  0.87941  1.0000
  H   H1242     1.0  0.47260  0.59307  0.74798  1.0000
  C   C1552     1.0  0.43120  0.44227  0.80193  1.0000
  H   H1243     1.0  0.44654  0.43770  0.74275  1.0000
  H   H1244     1.0  0.34304  0.64618  0.94402  1.0000
  H   H1245     1.0  0.35336  0.38979  0.93204  1.0000
  H   H1246     1.0  0.32667  0.37439  0.92676  1.0000
  C   C1553     1.0  0.47495  0.51118  0.62163  1.0000
  H   H1247     1.0  0.37823  0.55581  0.69148  1.0000
  C   C1554     1.0  0.30750  0.34118  0.92159  1.0000
  C   C1555     1.0  0.44702  0.59847  0.73357  1.0000
  C   C1556     1.0  0.40013  0.35354  0.50253  1.0000
  H   H1248     1.0  0.46741  0.42225  0.82530  1.0000
  H   H1249     1.0  0.44186  0.61194  0.94915  1.0000
  C   C1557     1.0  0.44822  0.61229  0.92900  1.0000
  C   C1558     1.0  0.42933  0.58850  0.67041  1.0000
  C   C1559     1.0  0.46361  0.49136  0.52808  1.0000
  C   C1560     1.0  0.37389  0.37058  0.49641  1.0000
  C   C1561     1.0  0.46553  0.43290  0.71085  1.0000
  C   C1562     1.0  0.45589  0.44328  0.72898  1.0000
  C   C1563     1.0  0.45840  0.46080  0.72956  1.0000
  H   H1250     1.0  0.41554  0.63016  0.67017  1.0000
  C   C1564     1.0  0.38137  0.62145  0.71943  1.0000
  C   C1565     1.0  0.30751  0.63753  0.83372  1.0000
  H   H1251     1.0  0.42348  0.36087  0.54631  1.0000
  H   H1252     1.0  0.38723  0.56263  0.77895  1.0000
  H   H1253     1.0  0.44292  0.57620  0.63638  1.0000
  H   H1254     1.0  0.37454  0.34402  0.50626  1.0000
  H   H1255     1.0  0.44393  0.51119  0.69169  1.0000
  C   C1566     1.0  0.46474  0.49758  0.62869  1.0000
  C   C1567     1.0  0.46481  0.49108  0.65596  1.0000
  C   C1568     1.0  0.31764  0.33907  0.94547  1.0000
  H   H1256     1.0  0.30825  0.62815  0.81724  1.0000
  H   H1257     1.0  0.47730  0.45451  0.61390  1.0000
  H   H1258     1.0  0.41960  0.52496  0.71644  1.0000
  H   H1259     1.0  0.42332  0.36724  0.49564  1.0000
  C   C1569     1.0  0.45629  0.50166  0.72945  1.0000
  C   C1570     1.0  0.45529  0.50128  0.75872  1.0000
  C   C1571     1.0  0.44132  0.50892  0.77250  1.0000
  C   C1572     1.0  0.42840  0.51732  0.75725  1.0000
  C   C1573     1.0  0.42953  0.51822  0.72815  1.0000
  C   C1574     1.0  0.44339  0.51037  0.71422  1.0000
  H   H1260     1.0  0.41751  0.52315  0.76804  1.0000
  C   C1575     1.0  0.33281  0.31649  0.87776  1.0000
  P   P51       1.0  0.47394  0.49072  0.71207  1.0000
  H   H1261     1.0  0.45070  0.46852  0.74369  1.0000
  C   C1576     1.0  0.46364  0.55685  0.68930  1.0000
  H   H1262     1.0  0.43808  0.41620  0.81220  1.0000
  C   C1577     1.0  0.47613  0.50043  0.86234  1.0000
  C   C1578     1.0  0.45443  0.48957  0.50340  1.0000
  H   H1263     1.0  0.45669  0.49218  0.61305  1.0000
  H   H1264     1.0  0.45662  0.48071  0.66122  1.0000
  C   C1579     1.0  0.29662  0.37937  0.82835  1.0000
  H   H1265     1.0  0.29866  0.33270  0.84142  1.0000
  H   H1266     1.0  0.28277  0.33661  0.90393  1.0000
  C   C1580     1.0  0.29055  0.33602  0.92251  1.0000
  S   S209      1.0  0.48059  0.56261  0.50879  1.0000
  H   H1267     1.0  0.47575  0.39944  0.57403  1.0000
  C   C1581     1.0  0.37436  0.31584  0.91346  1.0000
  H   H1268     1.0  0.35013  0.34515  0.85993  1.0000
  C   C1582     1.0  0.32002  0.32831  0.86935  1.0000
  C   C1583     1.0  0.30921  0.32423  0.84736  1.0000
  C   C1584     1.0  0.38333  0.38495  0.49081  1.0000
  H   H1269     1.0  0.45756  0.36681  0.97744  1.0000
  H   H1270     1.0  0.40845  0.39481  0.48665  1.0000
  H   H1271     1.0  0.47476  0.51640  0.60062  1.0000
  C   C1585     1.0  0.47687  0.39831  0.55161  1.0000
  H   H1272     1.0  0.34063  0.31906  0.89562  1.0000
  H   H1273     1.0  0.28042  0.64220  0.82980  1.0000
  C   C1586     1.0  0.46871  0.51357  0.48314  1.0000
  C   C1587     1.0  0.47783  0.35415  0.48651  1.0000
  C   C1588     1.0  0.36618  0.32088  0.93834  1.0000
  S   S210      1.0  0.48262  0.38684  0.69696  1.0000
  C   C1589     1.0  0.48149  0.38846  0.73404  1.0000
  H   H1274     1.0  0.47632  0.47411  0.95318  1.0000
  C   C1590     1.0  0.47789  0.35509  0.95361  1.0000
  H   H1275     1.0  0.43272  0.52434  0.49015  1.0000
  C   C1591     1.0  0.47944  0.39518  0.49334  1.0000
  C   C1592     1.0  0.43318  0.33372  0.59977  1.0000
  C   C1593     1.0  0.42192  0.31837  0.56080  1.0000
  C   C1594     1.0  0.47792  0.33302  0.62327  1.0000
  S   S211      1.0  0.47925  0.56288  0.63873  1.0000
  H   H1276     1.0  0.40258  0.38446  0.96619  1.0000
  C   C1595     1.0  0.42849  0.31844  0.58787  1.0000
  C   C1596     1.0  0.46553  0.32402  0.97206  1.0000
  H   H1277     1.0  0.37689  0.39704  0.48604  1.0000
  C   C1597     1.0  0.37047  0.63573  0.72313  1.0000
  C   C1598     1.0  0.44367  0.32133  0.49462  1.0000
  C   C1599     1.0  0.47521  0.50433  0.53036  1.0000
  H   H1278     1.0  0.47744  0.44937  0.49325  1.0000
  C   C1600     1.0  0.48127  0.36091  0.60243  1.0000
  H   H1279     1.0  0.43214  0.32223  0.95211  1.0000
  H   H1280     1.0  0.48024  0.31937  0.62326  1.0000
  H   H1281     1.0  0.48108  0.43975  0.77066  1.0000
  C   C1601     1.0  0.47761  0.51551  0.50802  1.0000
  C   C1602     1.0  0.47972  0.32431  0.95422  1.0000
  C   C1603     1.0  0.42326  0.31808  0.96796  1.0000
  H   H1282     1.0  0.44549  0.31717  0.51599  1.0000
  H   H1283     1.0  0.48218  0.50593  0.54954  1.0000
  C   C1604     1.0  0.48303  0.45556  0.59331  1.0000
  C   C1605     1.0  0.48346  0.34316  0.60089  1.0000
  C   C1606     1.0  0.48259  0.44198  0.57478  1.0000
  C   C1607     1.0  0.45719  0.33929  0.98029  1.0000
  H   H1284     1.0  0.46234  0.49453  0.98090  1.0000
  Fe  Fe105     1.0  0.32899  0.78736  0.01066  1.0000
  S   S212      1.0  0.34013  0.76048  0.01014  1.0000
  S   S213      1.0  0.34348  0.81263  0.01458  1.0000
  Fe  Fe106     1.0  0.29239  0.77454  0.99952  1.0000
  S   S214      1.0  0.30161  0.74718  0.99807  1.0000
  S   S215      1.0  0.26387  0.78243  0.00101  1.0000
  Fe  Fe107     1.0  0.31720  0.75311  0.03575  1.0000
  S   S216      1.0  0.31736  0.73126  0.06768  1.0000
  C   C1608     1.0  0.46903  0.94732  0.46574  1.0000
  S   S217      1.0  0.31694  0.73133  0.46209  1.0000
  S   S218      1.0  0.30695  0.78010  0.03887  1.0000
  H   H1285     1.0  0.32695  0.81015  0.15851  1.0000
  Fe  Fe108     1.0  0.31778  0.70512  0.23140  1.0000
  S   S219      1.0  0.31119  0.67753  0.22778  1.0000
  S   S220      1.0  0.32171  0.72693  0.20031  1.0000
  Fe  Fe109     1.0  0.31691  0.70389  0.29578  1.0000
  S   S221      1.0  0.31024  0.67621  0.29694  1.0000
  S   S222      1.0  0.31906  0.72438  0.32925  1.0000
  Fe  Fe110     1.0  0.33012  0.67230  0.26285  1.0000
  C   C1609     1.0  0.44122  0.93530  0.47271  1.0000
  Fe  Fe111     1.0  0.29184  0.68300  0.26194  1.0000
  S   S223      1.0  0.26501  0.67261  0.26672  1.0000
  S   S224      1.0  0.33797  0.69967  0.26389  1.0000
  S   S225      1.0  0.29725  0.71076  0.26323  1.0000
  Fe  Fe112     1.0  0.42549  0.87560  0.05681  1.0000
  S   S226      1.0  0.45423  0.87196  0.05452  1.0000
  S   S227      1.0  0.41105  0.85021  0.05474  1.0000
  Fe  Fe113     1.0  0.42903  0.91423  0.06619  1.0000
  S   S228      1.0  0.45740  0.91259  0.06351  1.0000
  S   S229      1.0  0.41444  0.93962  0.07386  1.0000
  Fe  Fe114     1.0  0.45419  0.89519  0.02699  1.0000
  C   C1610     1.0  0.27014  0.72947  0.46895  1.0000
  Fe  Fe115     1.0  0.45569  0.88954  0.09124  1.0000
  H   H1286     1.0  0.36065  0.64946  0.37791  1.0000
  S   S230      1.0  0.42549  0.89836  0.02731  1.0000
  S   S231      1.0  0.42711  0.89168  0.09583  1.0000
  C   C1611     1.0  0.41685  0.96126  0.08411  1.0000
  C   C1612     1.0  0.46567  0.98225  0.99952  1.0000
  C   C1613     1.0  0.43241  0.96833  0.09162  1.0000
  H   H1287     1.0  0.38996  0.96659  0.07932  1.0000
  H   H1288     1.0  0.44395  0.96044  0.09139  1.0000
  H   H1289     1.0  0.45181  0.79416  0.09141  1.0000
  C   C1614     1.0  0.46474  0.88910  0.17699  1.0000
  C   C1615     1.0  0.46276  0.84108  0.10435  1.0000
  H   H1290     1.0  0.23788  0.72058  0.25267  1.0000
  C   C1616     1.0  0.44894  0.94676  0.42743  1.0000
  H   H1291     1.0  0.45217  0.88824  0.16811  1.0000
  H   H1292     1.0  0.30450  0.80552  0.39931  1.0000
  C   C1617     1.0  0.37519  0.68449  0.05258  1.0000
  H   H1293     1.0  0.40595  0.85250  0.12248  1.0000
  H   H1294     1.0  0.24643  0.69753  0.34080  1.0000
  H   H1295     1.0  0.39173  0.78945  0.10218  1.0000
  H   H1296     1.0  0.34933  0.74882  0.06999  1.0000
  H   H1297     1.0  0.27580  0.72205  0.39683  1.0000
  C   C1618     1.0  0.47584  0.82845  0.10477  1.0000
  C   C1619     1.0  0.24629  0.67576  0.24612  1.0000
  C   C1620     1.0  0.24594  0.68595  0.22200  1.0000
  H   H1298     1.0  0.25739  0.69205  0.21515  1.0000
  C   C1621     1.0  0.26063  0.73920  0.37032  1.0000
  C   C1622     1.0  0.36243  0.82270  0.02613  1.0000
  C   C1623     1.0  0.36368  0.84045  0.02256  1.0000
  C   C1624     1.0  0.37836  0.84902  0.03094  1.0000
  C   C1625     1.0  0.39219  0.84002  0.04306  1.0000
  C   C1626     1.0  0.39092  0.82226  0.04678  1.0000
  C   C1627     1.0  0.37623  0.81367  0.03839  1.0000
  H   H1299     1.0  0.35319  0.84768  0.01314  1.0000
  H   H1300     1.0  0.37888  0.86265  0.02820  1.0000
  H   H1301     1.0  0.40137  0.81507  0.05631  1.0000
  H   H1302     1.0  0.37560  0.80005  0.04132  1.0000
  C   C1628     1.0  0.43720  0.93874  0.44478  1.0000
  C   C1629     1.0  0.43787  0.82198  0.01792  1.0000
  C   C1630     1.0  0.33598  0.67016  0.10601  1.0000
  H   H1303     1.0  0.30501  0.66370  0.15504  1.0000
  C   C1631     1.0  0.31679  0.72968  0.42511  1.0000
  C   C1632     1.0  0.31605  0.74402  0.40763  1.0000
  C   C1633     1.0  0.31646  0.74209  0.37838  1.0000
  C   C1634     1.0  0.31738  0.72585  0.36622  1.0000
  C   C1635     1.0  0.31786  0.71150  0.38371  1.0000
  C   C1636     1.0  0.31763  0.71342  0.41299  1.0000
  H   H1304     1.0  0.31536  0.75661  0.41661  1.0000
  H   H1305     1.0  0.31625  0.75326  0.36503  1.0000
  H   H1306     1.0  0.31887  0.69901  0.37462  1.0000
  H   H1307     1.0  0.31828  0.70225  0.42635  1.0000
  C   C1637     1.0  0.31827  0.72797  0.16373  1.0000
  C   C1638     1.0  0.31678  0.71336  0.14772  1.0000
  C   C1639     1.0  0.31594  0.71467  0.11837  1.0000
  C   C1640     1.0  0.31647  0.73059  0.10475  1.0000
  C   C1641     1.0  0.31695  0.74527  0.12088  1.0000
  C   C1642     1.0  0.31801  0.74395  0.15020  1.0000
  H   H1308     1.0  0.31668  0.70108  0.15797  1.0000
  H   H1309     1.0  0.31509  0.70325  0.10615  1.0000
  H   H1310     1.0  0.31652  0.75761  0.11076  1.0000
  H   H1311     1.0  0.31861  0.75537  0.16250  1.0000
  C   C1643     1.0  0.34905  0.76831  0.19465  1.0000
  C   C1644     1.0  0.34883  0.70477  0.02926  1.0000
  H   H1312     1.0  0.33395  0.67416  0.15073  1.0000
  C   C1645     1.0  0.35450  0.84912  0.47939  1.0000
  H   H1313     1.0  0.32443  0.68899  0.99179  1.0000
  C   C1646     1.0  0.35980  0.68700  0.06743  1.0000
  C   C1647     1.0  0.34665  0.69714  0.05545  1.0000
  P   P52       1.0  0.35712  0.67842  0.10235  1.0000
  H   H1314     1.0  0.37928  0.79118  0.47016  1.0000
  H   H1315     1.0  0.33949  0.67347  0.38451  1.0000
  H   H1316     1.0  0.41481  0.86901  0.98367  1.0000
  S   S232      1.0  0.47481  0.89801  0.99326  1.0000
  C   C1648     1.0  0.45904  0.95769  0.02802  1.0000
  H   H1317     1.0  0.34009  0.77255  0.10033  1.0000
  H   H1318     1.0  0.30445  0.65352  0.06707  1.0000
  H   H1319     1.0  0.46506  0.85268  0.99802  1.0000
  C   C1649     1.0  0.38909  0.66486  0.11763  1.0000
  H   H1320     1.0  0.26406  0.74489  0.01932  1.0000
  H   H1321     1.0  0.23992  0.82516  0.47498  1.0000
  C   C1650     1.0  0.47838  0.96008  0.35092  1.0000
  C   C1651     1.0  0.36003  0.69488  0.12787  1.0000
  C   C1652     1.0  0.36324  0.69042  0.15590  1.0000
  C   C1653     1.0  0.36462  0.70305  0.17604  1.0000
  C   C1654     1.0  0.36313  0.72021  0.16831  1.0000
  C   C1655     1.0  0.36031  0.72476  0.14041  1.0000
  C   C1656     1.0  0.35870  0.71218  0.12027  1.0000
  C   C1657     1.0  0.42972  0.87698  0.44387  1.0000
  C   C1658     1.0  0.23897  0.74301  0.03734  1.0000
  C   C1659     1.0  0.47679  0.93260  0.12808  1.0000
  H   H1322     1.0  0.34903  0.74730  0.46165  1.0000
  H   H1323     1.0  0.33476  0.69940  0.06664  1.0000
  C   C1660     1.0  0.37262  0.66126  0.10863  1.0000
  H   H1324     1.0  0.34366  0.80635  0.07267  1.0000
  H   H1325     1.0  0.37938  0.68782  0.42823  1.0000
  C   C1661     1.0  0.40045  0.82776  0.13957  1.0000
  H   H1326     1.0  0.39263  0.67789  0.12079  1.0000
  H   H1327     1.0  0.33578  0.65911  0.98949  1.0000
  C   C1662     1.0  0.23934  0.73162  0.47029  1.0000
  C   C1663     1.0  0.27173  0.71760  0.32701  1.0000
  H   H1328     1.0  0.46223  0.91078  0.43018  1.0000
  H   H1329     1.0  0.46943  0.93358  0.01354  1.0000
  H   H1330     1.0  0.36419  0.67719  0.16238  1.0000
  H   H1331     1.0  0.36639  0.69956  0.19782  1.0000
  H   H1332     1.0  0.36366  0.72995  0.18409  1.0000
  H   H1333     1.0  0.35872  0.73804  0.13450  1.0000
  H   H1334     1.0  0.35589  0.71614  0.09907  1.0000
  H   H1335     1.0  0.41246  0.82635  0.15053  1.0000
  C   C1664     1.0  0.46974  0.89998  0.43792  1.0000
  H   H1336     1.0  0.34463  0.75554  0.19815  1.0000
  C   C1665     1.0  0.40270  0.88106  0.46850  1.0000
  C   C1666     1.0  0.46579  0.96938  0.33610  1.0000
  H   H1337     1.0  0.26982  0.67559  0.33794  1.0000
  H   H1338     1.0  0.40063  0.76605  0.07092  1.0000
  C   C1667     1.0  0.31103  0.65798  0.08527  1.0000
  H   H1339     1.0  0.36279  0.81471  0.18268  1.0000
  C   C1668     1.0  0.28180  0.77277  0.37488  1.0000
  C   C1669     1.0  0.39678  0.84253  0.12397  1.0000
  H   H1340     1.0  0.47374  0.94926  0.27086  1.0000
  P   P53       1.0  0.37457  0.71934  0.45994  1.0000
  C   C1670     1.0  0.48296  0.89116  0.21821  1.0000
  C   C1671     1.0  0.42598  0.82385  0.99642  1.0000
  H   H1341     1.0  0.28213  0.72523  0.47828  1.0000
  H   H1342     1.0  0.35019  0.77393  0.23847  1.0000
  C   C1672     1.0  0.31134  0.66367  0.13481  1.0000
  H   H1343     1.0  0.45877  0.92249  0.35880  1.0000
  C   C1673     1.0  0.28411  0.79363  0.42152  1.0000
  C   C1674     1.0  0.36408  0.70210  0.01449  1.0000
  C   C1675     1.0  0.37372  0.69742  0.41444  1.0000
  H   H1344     1.0  0.27596  0.70918  0.31041  1.0000
  H   H1345     1.0  0.28513  0.70318  0.35879  1.0000
  H   H1346     1.0  0.28492  0.80175  0.43961  1.0000
  C   C1676     1.0  0.46634  0.89340  0.46480  1.0000
  S   S233      1.0  0.31228  0.78257  0.47571  1.0000
  C   C1677     1.0  0.25292  0.65481  0.33421  1.0000
  H   H1347     1.0  0.35612  0.83576  0.47417  1.0000
  C   C1678     1.0  0.46055  0.93566  0.35277  1.0000
  C   C1679     1.0  0.36334  0.91943  0.39319  1.0000
  H   H1348     1.0  0.39780  0.65909  0.20723  1.0000
  C   C1680     1.0  0.45429  0.84443  0.99745  1.0000
  C   C1681     1.0  0.26498  0.74357  0.06421  1.0000
  C   C1682     1.0  0.25543  0.74282  0.08891  1.0000
  H   H1349     1.0  0.35867  0.92572  0.37435  1.0000
  H   H1350     1.0  0.25795  0.73487  0.29967  1.0000
  H   H1351     1.0  0.47085  0.97574  0.12804  1.0000
  H   H1352     1.0  0.28133  0.76477  0.35667  1.0000
  C   C1683     1.0  0.25477  0.74393  0.43125  1.0000
  H   H1353     1.0  0.27876  0.74423  0.06495  1.0000
  H   H1354     1.0  0.26188  0.74286  0.10884  1.0000
  H   H1355     1.0  0.29282  0.82445  0.09205  1.0000
  C   C1684     1.0  0.26131  0.73192  0.32109  1.0000
  C   C1685     1.0  0.46671  0.89026  0.20617  1.0000
  H   H1356     1.0  0.28226  0.74173  0.43432  1.0000
  H   H1357     1.0  0.35933  0.80352  0.23061  1.0000
  C   C1686     1.0  0.27018  0.73877  0.44395  1.0000
  H   H1358     1.0  0.34846  0.76627  0.15021  1.0000
  H   H1359     1.0  0.41494  0.81603  0.99689  1.0000
  C   C1687     1.0  0.29396  0.78533  0.37549  1.0000
  C   C1688     1.0  0.37631  0.74212  0.46286  1.0000
  H   H1360     1.0  0.40667  0.71357  0.42955  1.0000
  H   H1361     1.0  0.39178  0.80336  0.15281  1.0000
  C   C1689     1.0  0.29508  0.79579  0.39878  1.0000
  C   C1690     1.0  0.35208  0.77873  0.21740  1.0000
  H   H1362     1.0  0.30258  0.78687  0.35794  1.0000
  H   H1363     1.0  0.44586  0.94948  0.40581  1.0000
  C   C1691     1.0  0.44591  0.83686  0.09958  1.0000
  C   C1692     1.0  0.44194  0.81998  0.09489  1.0000
  P   P54       1.0  0.25501  0.75429  0.39740  1.0000
  H   H1364     1.0  0.26394  0.77924  0.43918  1.0000
  C   C1693     1.0  0.36971  0.83136  0.11054  1.0000
  H   H1365     1.0  0.45557  0.89023  0.21960  1.0000
  C   C1694     1.0  0.44763  0.94503  0.33893  1.0000
  H   H1366     1.0  0.43571  0.93914  0.33442  1.0000
  C   C1695     1.0  0.48266  0.89262  0.42091  1.0000
  C   C1696     1.0  0.45012  0.96196  0.33098  1.0000
  C   C1697     1.0  0.25568  0.74265  0.34263  1.0000
  C   C1698     1.0  0.30290  0.65790  0.11134  1.0000
  H   H1367     1.0  0.37915  0.85535  0.46382  1.0000
  H   H1368     1.0  0.43597  0.84679  0.09901  1.0000
  H   H1369     1.0  0.42885  0.81691  0.09069  1.0000
  H   H1370     1.0  0.38910  0.68993  0.01466  1.0000
  H   H1371     1.0  0.45247  0.95212  0.04566  1.0000
  H   H1372     1.0  0.36207  0.65161  0.31334  1.0000
  H   H1373     1.0  0.37166  0.89650  0.37199  1.0000
  H   H1374     1.0  0.31548  0.81742  0.05723  1.0000
  C   C1699     1.0  0.23556  0.78232  0.47666  1.0000
  C   C1700     1.0  0.37554  0.90319  0.44192  1.0000
  H   H1375     1.0  0.38195  0.88193  0.41491  1.0000
  H   H1376     1.0  0.46085  0.83115  0.03565  1.0000
  C   C1701     1.0  0.37054  0.69322  0.38668  1.0000
  H   H1377     1.0  0.37951  0.74558  0.05478  1.0000
  H   H1378     1.0  0.42504  0.93516  0.43661  1.0000
  H   H1379     1.0  0.29870  0.82083  0.14270  1.0000
  C   C1702     1.0  0.32783  0.66967  0.13223  1.0000
  H   H1380     1.0  0.47403  0.84495  0.15643  1.0000
  H   H1381     1.0  0.37380  0.68055  0.37914  1.0000
  C   C1703     1.0  0.31876  0.65996  0.36713  1.0000
  C   C1704     1.0  0.47380  0.94645  0.19968  1.0000
  C   C1705     1.0  0.36222  0.72600  0.40586  1.0000
  C   C1706     1.0  0.35914  0.72175  0.37810  1.0000
  C   C1707     1.0  0.36318  0.70537  0.36854  1.0000
  C   C1708     1.0  0.47512  0.96317  0.12161  1.0000
  C   C1709     1.0  0.47178  0.81144  0.10012  1.0000
  C   C1710     1.0  0.23932  0.74049  0.44486  1.0000
  C   C1711     1.0  0.27665  0.71403  0.35444  1.0000
  C   C1712     1.0  0.27123  0.72481  0.37602  1.0000
  C   C1713     1.0  0.40205  0.97174  0.08496  1.0000
  H   H1382     1.0  0.35813  0.83295  0.09854  1.0000
  C   C1714     1.0  0.45487  0.80726  0.09518  1.0000
  C   C1715     1.0  0.40805  0.70777  0.45009  1.0000
  H   H1383     1.0  0.43390  0.69881  0.44211  1.0000
  C   C1716     1.0  0.25672  0.74377  0.03849  1.0000
  C   C1717     1.0  0.47906  0.88860  0.15947  1.0000
  H   H1384     1.0  0.45627  0.89909  0.47756  1.0000
  H   H1385     1.0  0.35864  0.73869  0.41267  1.0000
  H   H1386     1.0  0.35331  0.73112  0.36402  1.0000
  H   H1387     1.0  0.36048  0.70213  0.34708  1.0000
  C   C1718     1.0  0.23763  0.74222  0.08788  1.0000
  C   C1719     1.0  0.36968  0.71390  0.42426  1.0000
  H   H1388     1.0  0.46562  0.85425  0.10766  1.0000
  C   C1720     1.0  0.36176  0.92765  0.41889  1.0000
  C   C1721     1.0  0.38140  0.84434  0.10961  1.0000
  C   C1722     1.0  0.43269  0.97473  0.16898  1.0000
  H   H1389     1.0  0.33871  0.71297  0.02060  1.0000
  C   C1723     1.0  0.46825  0.95087  0.22673  1.0000
  P   P55       1.0  0.45971  0.95034  0.17038  1.0000
  C   C1724     1.0  0.45019  0.97153  0.17350  1.0000
  C   C1725     1.0  0.47143  0.94870  0.13775  1.0000
  C   C1726     1.0  0.45772  0.97523  0.02302  1.0000
  H   H1390     1.0  0.37879  0.85563  0.09691  1.0000
  C   C1727     1.0  0.27215  0.78090  0.42118  1.0000
  H   H1391     1.0  0.47379  0.95725  0.42418  1.0000
  C   C1728     1.0  0.23398  0.76357  0.39083  1.0000
  C   C1729     1.0  0.23405  0.81299  0.47309  1.0000
  C   C1730     1.0  0.46853  0.94721  0.00985  1.0000
  C   C1731     1.0  0.44333  0.93476  0.17035  1.0000
  C   C1732     1.0  0.44001  0.92475  0.19411  1.0000
  C   C1733     1.0  0.42667  0.91342  0.19409  1.0000
  C   C1734     1.0  0.41649  0.91208  0.17046  1.0000
  C   C1735     1.0  0.41976  0.92194  0.14675  1.0000
  C   C1736     1.0  0.43329  0.93298  0.14651  1.0000
  C   C1737     1.0  0.37068  0.90299  0.39184  1.0000
  C   C1738     1.0  0.43471  0.86426  0.46300  1.0000
  H   H1392     1.0  0.41054  0.89574  0.43232  1.0000
  H   H1393     1.0  0.39403  0.89214  0.99515  1.0000
  H   H1394     1.0  0.45584  0.95704  0.22991  1.0000
  C   C1739     1.0  0.36263  0.77029  0.46545  1.0000
  H   H1395     1.0  0.43841  0.88047  0.42723  1.0000
  C   C1740     1.0  0.25667  0.67191  0.33752  1.0000
  C   C1741     1.0  0.46479  0.95109  0.43787  1.0000
  C   C1742     1.0  0.47578  0.87924  0.47488  1.0000
  H   H1396     1.0  0.35578  0.94027  0.42002  1.0000
  H   H1397     1.0  0.42435  0.96464  0.16362  1.0000
  H   H1398     1.0  0.44778  0.92537  0.21258  1.0000
  H   H1399     1.0  0.42433  0.90558  0.21235  1.0000
  H   H1400     1.0  0.40613  0.90334  0.17040  1.0000
  H   H1401     1.0  0.41183  0.92105  0.12841  1.0000
  H   H1402     1.0  0.43570  0.94036  0.12783  1.0000
  C   C1743     1.0  0.31798  0.81575  0.07937  1.0000
  C   C1744     1.0  0.30525  0.81976  0.09900  1.0000
  C   C1745     1.0  0.30858  0.81769  0.12750  1.0000
  C   C1746     1.0  0.32464  0.81157  0.13636  1.0000
  C   C1747     1.0  0.33741  0.80726  0.11666  1.0000
  C   C1748     1.0  0.33396  0.80947  0.08815  1.0000
  P   P56       1.0  0.35830  0.79951  0.12750  1.0000
  C   C1749     1.0  0.35657  0.79112  0.16268  1.0000
  C   C1750     1.0  0.36525  0.78253  0.10431  1.0000
  C   C1751     1.0  0.35340  0.77106  0.09459  1.0000
  C   C1752     1.0  0.35860  0.75764  0.07721  1.0000
  C   C1753     1.0  0.37562  0.75580  0.06873  1.0000
  C   C1754     1.0  0.38748  0.76732  0.07786  1.0000
  C   C1755     1.0  0.38235  0.78061  0.09566  1.0000
  C   C1756     1.0  0.35128  0.77446  0.16741  1.0000
  C   C1757     1.0  0.35721  0.79538  0.21294  1.0000
  C   C1758     1.0  0.35932  0.80161  0.18570  1.0000
  C   C1759     1.0  0.37323  0.81649  0.12628  1.0000
  C   C1760     1.0  0.38872  0.81479  0.14079  1.0000
  C   C1761     1.0  0.27073  0.77051  0.39773  1.0000
  H   H1403     1.0  0.48158  0.80141  0.10008  1.0000
  H   H1404     1.0  0.44721  0.85798  0.46123  1.0000
  H   H1405     1.0  0.36593  0.92589  0.46305  1.0000
  C   C1762     1.0  0.42350  0.69947  0.45715  1.0000
  H   H1406     1.0  0.43583  0.81289  0.03458  1.0000
  C   C1763     1.0  0.45197  0.83230  0.01852  1.0000
  H   H1407     1.0  0.24795  0.75393  0.33755  1.0000
  C   C1764     1.0  0.47834  0.94657  0.24992  1.0000
  C   C1765     1.0  0.41386  0.88553  0.44676  1.0000
  C   C1766     1.0  0.37724  0.69191  0.02610  1.0000
  H   H1408     1.0  0.38563  0.67688  0.06133  1.0000
  C   C1767     1.0  0.36768  0.91950  0.44324  1.0000
  S   S234      1.0  0.47746  0.88594  0.12275  1.0000
  C   C1768     1.0  0.37660  0.89482  0.41616  1.0000
  C   C1769     1.0  0.47646  0.95416  0.98638  1.0000
  C   C1770     1.0  0.36149  0.75267  0.46323  1.0000
  C   C1771     1.0  0.37853  0.77752  0.46790  1.0000
  H   H1409     1.0  0.47379  0.92130  0.13990  1.0000
  C   C1772     1.0  0.39228  0.74948  0.46522  1.0000
  C   C1773     1.0  0.32753  0.66399  0.08260  1.0000
  C   C1774     1.0  0.39335  0.76712  0.46784  1.0000
  H   H1410     1.0  0.29004  0.65344  0.11337  1.0000
  H   H1411     1.0  0.23963  0.78899  0.40456  1.0000
  H   H1412     1.0  0.47898  0.85241  0.20528  1.0000
  H   H1413     1.0  0.43984  0.96918  0.32095  1.0000
  P   P57       1.0  0.38234  0.89213  0.47328  1.0000
  H   H1414     1.0  0.40566  0.77278  0.46987  1.0000
  H   H1415     1.0  0.40394  0.74173  0.46518  1.0000
  H   H1416     1.0  0.36568  0.70805  0.99413  1.0000
  H   H1417     1.0  0.35115  0.77838  0.46568  1.0000
  C   C1775     1.0  0.47582  0.94329  0.35909  1.0000
  C   C1776     1.0  0.33563  0.66166  0.37543  1.0000
  C   C1777     1.0  0.40114  0.65164  0.12256  1.0000
  H   H1418     1.0  0.45574  0.97591  0.27651  1.0000
  H   H1419     1.0  0.34893  0.69291  0.45648  1.0000
  C   C1778     1.0  0.34757  0.69913  0.47644  1.0000
  C   C1779     1.0  0.36762  0.86027  0.47386  1.0000
  H   H1420     1.0  0.41379  0.65451  0.12961  1.0000
  C   C1780     1.0  0.39449  0.70861  0.46942  1.0000
  H   H1421     1.0  0.33359  0.66392  0.06222  1.0000
  C   C1781     1.0  0.24347  0.68432  0.33873  1.0000
  H   H1422     1.0  0.30956  0.67045  0.36970  1.0000
  H   H1423     1.0  0.40007  0.92410  0.47560  1.0000
  C   C1782     1.0  0.24348  0.79803  0.47939  1.0000
  C   C1783     1.0  0.23595  0.65011  0.33266  1.0000
  C   C1784     1.0  0.39048  0.88215  0.98115  1.0000
  Fe  Fe116     1.0  0.32741  0.78761  0.51479  1.0000
  S   S235      1.0  0.32985  0.75959  0.52628  1.0000
  S   S236      1.0  0.35226  0.80261  0.51236  1.0000
  Fe  Fe117     1.0  0.28876  0.78484  0.50320  1.0000
  S   S237      1.0  0.28888  0.75724  0.51445  1.0000
  C   C1785     1.0  0.34306  0.71516  0.52805  1.0000
  Fe  Fe118     1.0  0.30550  0.76387  0.55062  1.0000
  S   S238      1.0  0.29767  0.75447  0.59410  1.0000
  C   C1786     1.0  0.33402  0.66649  0.97046  1.0000
  S   S239      1.0  0.33668  0.74075  0.93793  1.0000
  S   S240      1.0  0.30379  0.79207  0.54111  1.0000
  C   C1787     1.0  0.39794  0.96603  0.71523  1.0000
  Fe  Fe119     1.0  0.32017  0.69386  0.72465  1.0000
  S   S241      1.0  0.31027  0.66723  0.72715  1.0000
  S   S242      1.0  0.33263  0.70438  0.68483  1.0000
  Fe  Fe120     1.0  0.31234  0.70044  0.78714  1.0000
  S   S243      1.0  0.30258  0.67422  0.79288  1.0000
  S   S244      1.0  0.30511  0.71984  0.82098  1.0000
  Fe  Fe121     1.0  0.32534  0.66474  0.76746  1.0000
  H   H1424     1.0  0.27028  0.75432  0.69110  1.0000
  Fe  Fe122     1.0  0.28843  0.67887  0.75262  1.0000
  S   S245      1.0  0.25923  0.67830  0.75668  1.0000
  S   S246      1.0  0.33602  0.69100  0.76387  1.0000
  S   S247      1.0  0.29766  0.70544  0.74748  1.0000
  Fe  Fe123     1.0  0.41619  0.87795  0.56515  1.0000
  S   S248      1.0  0.44052  0.86263  0.57192  1.0000
  S   S249      1.0  0.38954  0.86604  0.56642  1.0000
  Fe  Fe124     1.0  0.43556  0.91200  0.56633  1.0000
  S   S250      1.0  0.46093  0.89833  0.57331  1.0000
  S   S251      1.0  0.43673  0.94064  0.55750  1.0000
  Fe  Fe125     1.0  0.45242  0.88033  0.54045  1.0000
  H   H1425     1.0  0.38649  0.70159  0.51133  1.0000
  Fe  Fe126     1.0  0.44693  0.88215  0.60409  1.0000
  S   S252      1.0  0.45512  0.87257  0.64735  1.0000
  S   S253      1.0  0.42773  0.89467  0.53162  1.0000
  S   S254      1.0  0.42189  0.89683  0.59914  1.0000
  C   C1788     1.0  0.43283  0.95805  0.58044  1.0000
  C   C1789     1.0  0.32547  0.69290  0.94732  1.0000
  C   C1790     1.0  0.42293  0.95663  0.60472  1.0000
  C   C1791     1.0  0.38790  0.75583  0.54949  1.0000
  H   H1426     1.0  0.41788  0.94447  0.61052  1.0000
  C   C1792     1.0  0.46391  0.94214  0.80255  1.0000
  C   C1793     1.0  0.37338  0.76647  0.54641  1.0000
  C   C1794     1.0  0.25474  0.72580  0.48204  1.0000
  C   C1795     1.0  0.44301  0.96496  0.81112  1.0000
  C   C1796     1.0  0.26106  0.75816  0.67531  1.0000
  H   H1427     1.0  0.25924  0.78004  0.61366  1.0000
  H   H1428     1.0  0.36794  0.79873  0.97232  1.0000
  C   C1797     1.0  0.34596  0.81626  0.61471  1.0000
  C   C1798     1.0  0.24254  0.66074  0.71496  1.0000
  P   P58       1.0  0.23804  0.73791  0.70374  1.0000
  H   H1429     1.0  0.27598  0.68847  0.68042  1.0000
  C   C1799     1.0  0.23708  0.71023  0.87037  1.0000
  C   C1800     1.0  0.47053  0.88081  0.67019  1.0000
  H   H1430     1.0  0.32564  0.87679  0.50924  1.0000
  C   C1801     1.0  0.44243  0.84632  0.97593  1.0000
  C   C1802     1.0  0.40131  0.81952  0.94340  1.0000
  C   C1803     1.0  0.35531  0.77340  0.70343  1.0000
  H   H1431     1.0  0.39997  0.66581  0.73141  1.0000
  C   C1804     1.0  0.36257  0.81965  0.52932  1.0000
  C   C1805     1.0  0.37993  0.82223  0.52346  1.0000
  C   C1806     1.0  0.38845  0.83610  0.53487  1.0000
  C   C1807     1.0  0.37968  0.84784  0.55207  1.0000
  C   C1808     1.0  0.36238  0.84511  0.55825  1.0000
  C   C1809     1.0  0.35391  0.83111  0.54710  1.0000
  H   H1432     1.0  0.39287  0.74869  0.53180  1.0000
  H   H1433     1.0  0.40180  0.83772  0.53022  1.0000
  H   H1434     1.0  0.35540  0.85400  0.57154  1.0000
  H   H1435     1.0  0.34055  0.82947  0.55161  1.0000
  C   C1810     1.0  0.36353  0.68620  0.87994  1.0000
  H   H1436     1.0  0.39992  0.86557  0.50565  1.0000
  C   C1811     1.0  0.30602  0.66279  0.87447  1.0000
  C   C1812     1.0  0.39615  0.75471  0.57524  1.0000
  C   C1813     1.0  0.32755  0.73490  0.90568  1.0000
  C   C1814     1.0  0.31070  0.73941  0.89874  1.0000
  C   C1815     1.0  0.30404  0.73453  0.87285  1.0000
  C   C1816     1.0  0.31403  0.72488  0.85377  1.0000
  C   C1817     1.0  0.33080  0.72015  0.86088  1.0000
  C   C1818     1.0  0.33755  0.72528  0.88659  1.0000
  H   H1437     1.0  0.30286  0.74685  0.91314  1.0000
  H   H1438     1.0  0.29108  0.73835  0.86750  1.0000
  H   H1439     1.0  0.33865  0.71288  0.84631  1.0000
  H   H1440     1.0  0.35060  0.72184  0.89176  1.0000
  C   C1819     1.0  0.32263  0.71786  0.65923  1.0000
  C   C1820     1.0  0.30568  0.72368  0.66205  1.0000
  C   C1821     1.0  0.29829  0.73463  0.64168  1.0000
  C   C1822     1.0  0.30772  0.74007  0.61834  1.0000
  C   C1823     1.0  0.32463  0.73409  0.61524  1.0000
  C   C1824     1.0  0.33200  0.72298  0.63554  1.0000
  H   H1441     1.0  0.29829  0.71977  0.67999  1.0000
  H   H1442     1.0  0.28510  0.73874  0.64388  1.0000
  H   H1443     1.0  0.33205  0.73810  0.59740  1.0000
  H   H1444     1.0  0.34508  0.71841  0.63301  1.0000
  H   H1445     1.0  0.36860  0.66264  0.73087  1.0000
  C   C1825     1.0  0.44901  0.84148  0.88570  1.0000
  H   H1446     1.0  0.32070  0.70603  0.94830  1.0000
  C   C1826     1.0  0.43919  0.97403  0.57320  1.0000
  C   C1827     1.0  0.47527  0.96203  0.90202  1.0000
  C   C1828     1.0  0.37379  0.69714  0.86466  1.0000
  H   H1447     1.0  0.42053  0.87067  0.85869  1.0000
  C   C1829     1.0  0.24004  0.72579  0.60260  1.0000
  H   H1448     1.0  0.40447  0.86254  0.90092  1.0000
  C   C1830     1.0  0.33575  0.66870  0.91982  1.0000
  H   H1449     1.0  0.37751  0.65097  0.87510  1.0000
  C   C1831     1.0  0.46236  0.88741  0.94191  1.0000
  H   H1450     1.0  0.40220  0.95482  0.78367  1.0000
  H   H1451     1.0  0.47038  0.89134  0.78824  1.0000
  H   H1452     1.0  0.43589  0.97525  0.75840  1.0000
  H   H1453     1.0  0.25447  0.65372  0.71142  1.0000
  H   H1454     1.0  0.24740  0.74040  0.53650  1.0000
  C   C1832     1.0  0.24946  0.74091  0.73577  1.0000
  H   H1455     1.0  0.33416  0.77489  0.61510  1.0000
  C   C1833     1.0  0.35307  0.67487  0.86614  1.0000
  H   H1456     1.0  0.37258  0.65212  0.79856  1.0000
  H   H1457     1.0  0.40689  0.94304  0.51475  1.0000
  C   C1834     1.0  0.25671  0.72052  0.60941  1.0000
  C   C1835     1.0  0.48065  0.89440  0.66253  1.0000
  H   H1458     1.0  0.26587  0.77223  0.77527  1.0000
  Fe  Fe127     1.0  0.32359  0.75645  0.97253  1.0000
  H   H1459     1.0  0.35592  0.78432  0.56596  1.0000
  C   C1836     1.0  0.33274  0.70181  0.52088  1.0000
  H   H1460     1.0  0.41005  0.95300  0.68083  1.0000
  H   H1461     1.0  0.25957  0.71547  0.62998  1.0000
  H   H1462     1.0  0.39927  0.78473  0.90162  1.0000
  H   H1463     1.0  0.44568  0.82731  0.92372  1.0000
  H   H1464     1.0  0.35678  0.82420  0.61721  1.0000
  H   H1465     1.0  0.41376  0.68703  0.52343  1.0000
  C   C1837     1.0  0.29115  0.65819  0.86096  1.0000
  C   C1838     1.0  0.26308  0.72922  0.77746  1.0000
  C   C1839     1.0  0.25496  0.77260  0.63138  1.0000
  H   H1466     1.0  0.32949  0.84624  0.49710  1.0000
  H   H1467     1.0  0.27671  0.73033  0.54871  1.0000
  S   S255      1.0  0.26484  0.80051  0.49087  1.0000
  C   C1840     1.0  0.35559  0.72059  0.50940  1.0000
  C   C1841     1.0  0.42818  0.83602  0.97520  1.0000
  C   C1842     1.0  0.36402  0.77500  0.65461  1.0000
  C   C1843     1.0  0.35983  0.78303  0.67997  1.0000
  P   P59       1.0  0.36798  0.78784  0.62388  1.0000
  C   C1844     1.0  0.38480  0.80268  0.62848  1.0000
  H   H1468     1.0  0.26925  0.71633  0.70165  1.0000
  C   C1845     1.0  0.38988  0.76425  0.59787  1.0000
  C   C1846     1.0  0.39432  0.80292  0.65320  1.0000
  C   C1847     1.0  0.40746  0.81436  0.65598  1.0000
  C   C1848     1.0  0.41133  0.82547  0.63405  1.0000
  C   C1849     1.0  0.40217  0.82503  0.60920  1.0000
  C   C1850     1.0  0.38908  0.81359  0.60629  1.0000
  C   C1851     1.0  0.39918  0.93205  0.51838  1.0000
  C   C1852     1.0  0.32768  0.68332  0.97181  1.0000
  H   H1469     1.0  0.23518  0.75657  0.92064  1.0000
  C   C1853     1.0  0.33320  0.78867  0.61360  1.0000
  H   H1470     1.0  0.46496  0.86282  0.70298  1.0000
  H   H1471     1.0  0.35977  0.79678  0.68144  1.0000
  H   H1472     1.0  0.39660  0.76355  0.61757  1.0000
  H   H1473     1.0  0.39186  0.79422  0.67024  1.0000
  H   H1474     1.0  0.41478  0.81456  0.67508  1.0000
  H   H1475     1.0  0.42152  0.83433  0.63615  1.0000
  H   H1476     1.0  0.40527  0.83358  0.59213  1.0000
  H   H1477     1.0  0.38222  0.81332  0.58674  1.0000
  H   H1478     1.0  0.34117  0.72148  0.54793  1.0000
  H   H1479     1.0  0.32684  0.68360  0.48943  1.0000
  H   H1480     1.0  0.38437  0.82453  0.97852  1.0000
  C   C1854     1.0  0.36389  0.68517  0.82169  1.0000
  C   C1855     1.0  0.26751  0.74551  0.78537  1.0000
  C   C1856     1.0  0.24277  0.71722  0.68897  1.0000
  C   C1857     1.0  0.23831  0.76689  0.63241  1.0000
  H   H1481     1.0  0.27937  0.77226  0.65155  1.0000
  C   C1858     1.0  0.35464  0.75571  0.70162  1.0000
  C   C1859     1.0  0.46185  0.94964  0.63600  1.0000
  C   C1860     1.0  0.39761  0.85581  0.95679  1.0000
  P   P60       1.0  0.41277  0.83888  0.94752  1.0000
  C   C1861     1.0  0.39482  0.65343  0.72790  1.0000
  C   C1862     1.0  0.43323  0.95381  0.82694  1.0000
  C   C1863     1.0  0.43880  0.93684  0.83058  1.0000
  C   C1864     1.0  0.39614  0.79343  0.91846  1.0000
  H   H1482     1.0  0.26716  0.71832  0.79001  1.0000
  C   C1865     1.0  0.45828  0.95914  0.79836  1.0000
  C   C1866     1.0  0.26253  0.75959  0.76895  1.0000
  C   C1867     1.0  0.25077  0.68583  0.66374  1.0000
  C   C1868     1.0  0.46425  0.88362  0.91322  1.0000
  H   H1483     1.0  0.38095  0.91032  0.57187  1.0000
  C   C1869     1.0  0.42386  0.84431  0.91558  1.0000
  S   S256      1.0  0.31355  0.78374  0.97138  1.0000
  C   C1870     1.0  0.24165  0.69562  0.82646  1.0000
  C   C1871     1.0  0.38262  0.79004  0.93664  1.0000
  H   H1484     1.0  0.38190  0.70512  0.82364  1.0000
  H   H1485     1.0  0.24972  0.76836  0.73174  1.0000
  H   H1486     1.0  0.39750  0.93618  0.56272  1.0000
  H   H1487     1.0  0.47601  0.93743  0.79418  1.0000
  H   H1488     1.0  0.44930  0.85769  0.84926  1.0000
  C   C1872     1.0  0.36698  0.77591  0.56905  1.0000
  C   C1873     1.0  0.44198  0.85367  0.86732  1.0000
  C   C1874     1.0  0.31563  0.81433  0.60688  1.0000
  C   C1875     1.0  0.46930  0.91025  0.75541  1.0000
  C   C1876     1.0  0.34771  0.79843  0.61635  1.0000
  H   H1489     1.0  0.37733  0.84643  0.93129  1.0000
  H   H1490     1.0  0.35660  0.86943  0.94387  1.0000
  H   H1491     1.0  0.44665  0.97531  0.55430  1.0000
  H   H1492     1.0  0.43143  0.92825  0.84327  1.0000
  H   H1493     1.0  0.45965  0.93718  0.50510  1.0000
  C   C1877     1.0  0.31723  0.79662  0.60903  1.0000
  H   H1494     1.0  0.40755  0.74665  0.57759  1.0000
  C   C1878     1.0  0.37404  0.88230  0.97018  1.0000
  H   H1495     1.0  0.36506  0.75072  0.63324  1.0000
  C   C1879     1.0  0.42585  0.86107  0.87281  1.0000
  C   C1880     1.0  0.40548  0.80811  0.92180  1.0000
  C   C1881     1.0  0.43995  0.83670  0.90961  1.0000
  C   C1882     1.0  0.24795  0.76707  0.95605  1.0000
  C   C1883     1.0  0.32943  0.68561  0.92146  1.0000
  C   C1884     1.0  0.26979  0.72186  0.58976  1.0000
  C   C1885     1.0  0.38455  0.91368  0.55069  1.0000
  Fe  Fe128     1.0  0.31310  0.75508  0.48905  1.0000
  C   C1886     1.0  0.26629  0.76830  0.65287  1.0000
  C   C1887     1.0  0.36938  0.86937  0.95227  1.0000
  H   H1496     1.0  0.26056  0.76296  0.94903  1.0000
  H   H1497     1.0  0.32876  0.83789  0.60810  1.0000
  C   C1888     1.0  0.47611  0.89341  0.95689  1.0000
  H   H1498     1.0  0.45352  0.87905  0.90193  1.0000
  C   C1889     1.0  0.46249  0.89767  0.77247  1.0000
  H   H1499     1.0  0.46878  0.95594  0.61945  1.0000
  H   H1500     1.0  0.47919  0.90023  0.64212  1.0000
  C   C1890     1.0  0.47719  0.94847  0.88343  1.0000
  H   H1501     1.0  0.25484  0.71858  0.50139  1.0000
  C   C1891     1.0  0.32998  0.82415  0.60979  1.0000
  H   H1502     1.0  0.43753  0.68552  0.48898  1.0000
  C   C1892     1.0  0.40384  0.95430  0.76120  1.0000
  H   H1503     1.0  0.47197  0.97025  0.52516  1.0000
  C   C1893     1.0  0.35333  0.67442  0.83685  1.0000
  H   H1504     1.0  0.32749  0.69318  0.90266  1.0000
  C   C1894     1.0  0.26637  0.72896  0.56351  1.0000
  H   H1505     1.0  0.30610  0.78899  0.60692  1.0000
  C   C1895     1.0  0.37397  0.69663  0.83553  1.0000
  H   H1506     1.0  0.23705  0.69076  0.80695  1.0000
  C   C1896     1.0  0.24165  0.67352  0.73512  1.0000
  C   C1897     1.0  0.41923  0.97112  0.62119  1.0000
  H   H1507     1.0  0.44429  0.85599  0.96006  1.0000
  H   H1508     1.0  0.30327  0.82042  0.60287  1.0000
  H   H1509     1.0  0.46178  0.97115  0.66348  1.0000
  C   C1898     1.0  0.25346  0.75733  0.74426  1.0000
  C   C1899     1.0  0.24980  0.73461  0.55676  1.0000
  C   C1900     1.0  0.38578  0.90679  0.50131  1.0000
  C   C1901     1.0  0.38049  0.90304  0.52867  1.0000
  H   H1510     1.0  0.34567  0.66559  0.82565  1.0000
  C   C1902     1.0  0.36293  0.75723  0.65283  1.0000
  H   H1511     1.0  0.30508  0.67276  0.88981  1.0000
  C   C1903     1.0  0.26328  0.69424  0.67830  1.0000
  H   H1512     1.0  0.46169  0.83607  0.88166  1.0000
  H   H1513     1.0  0.36384  0.68660  0.90252  1.0000
  H   H1514     1.0  0.35084  0.74822  0.71962  1.0000
  H   H1515     1.0  0.27490  0.74711  0.80418  1.0000
  H   H1516     1.0  0.45026  0.88579  0.95237  1.0000
  H   H1517     1.0  0.25047  0.71417  0.74745  1.0000
  C   C1904     1.0  0.24433  0.75245  0.67653  1.0000
  H   H1518     1.0  0.37524  0.77878  0.93390  1.0000
  H   H1519     1.0  0.38686  0.81349  0.50985  1.0000
  H   H1520     1.0  0.36720  0.76771  0.52632  1.0000
  H   H1521     1.0  0.38155  0.70608  0.87543  1.0000
  H   H1522     1.0  0.27909  0.66468  0.86581  1.0000
  C   C1905     1.0  0.25935  0.70995  0.69065  1.0000
  H   H1523     1.0  0.32284  0.69784  0.53517  1.0000
  C   C1906     1.0  0.45418  0.93106  0.81855  1.0000
  H   H1524     1.0  0.37377  0.89158  0.53330  1.0000
  C   C1907     1.0  0.45786  0.95820  0.66076  1.0000
  P   P61       1.0  0.47150  0.97403  0.78009  1.0000
  C   C1908     1.0  0.25924  0.69510  0.83110  1.0000
  C   C1909     1.0  0.26579  0.70239  0.85505  1.0000
  C   C1910     1.0  0.25472  0.70999  0.87465  1.0000
  H   H1525     1.0  0.26785  0.68957  0.81555  1.0000
  H   H1526     1.0  0.27948  0.70251  0.85801  1.0000
  H   H1527     1.0  0.25984  0.71602  0.89288  1.0000
  C   C1911     1.0  0.41327  0.87977  0.67035  1.0000
  C   C1912     1.0  0.39764  0.88468  0.65846  1.0000
  C   C1913     1.0  0.39134  0.90144  0.66115  1.0000
  C   C1914     1.0  0.40071  0.91332  0.67560  1.0000
  C   C1915     1.0  0.41641  0.90845  0.68774  1.0000
  C   C1916     1.0  0.42264  0.89159  0.68480  1.0000
  P   P62       1.0  0.42950  0.92396  0.70413  1.0000
  C   C1917     1.0  0.41621  0.94052  0.72013  1.0000
  C   C1918     1.0  0.44251  0.91356  0.73066  1.0000
  C   C1919     1.0  0.43560  0.90111  0.74823  1.0000
  C   C1920     1.0  0.44561  0.89313  0.76894  1.0000
  H   H1528     1.0  0.41580  0.81055  0.90737  1.0000
  S   S257      1.0  0.47132  0.86983  0.50787  1.0000
  C   C1921     1.0  0.45947  0.91802  0.73436  1.0000
  C   C1922     1.0  0.41404  0.94128  0.74927  1.0000
  H   H1529     1.0  0.42152  0.95841  0.83686  1.0000
  H   H1530     1.0  0.35203  0.77966  0.72291  1.0000
  C   C1923     1.0  0.39389  0.92819  0.54556  1.0000
  H   H1531     1.0  0.46811  0.94703  0.86683  1.0000
  C   C1924     1.0  0.44276  0.93366  0.67785  1.0000
  C   C1925     1.0  0.44716  0.92500  0.65316  1.0000
  C   C1926     1.0  0.45663  0.93302  0.63232  1.0000
  C   C1927     1.0  0.40224  0.86896  0.97455  1.0000
  H   H1532     1.0  0.44548  0.95701  0.70071  1.0000
  C   C1928     1.0  0.44846  0.95020  0.68170  1.0000
  H   H1533     1.0  0.41852  0.86695  0.66748  1.0000
  H   H1534     1.0  0.39068  0.87561  0.64650  1.0000
  H   H1535     1.0  0.37938  0.90532  0.65146  1.0000
  H   H1536     1.0  0.39572  0.92626  0.67677  1.0000
  H   H1537     1.0  0.43503  0.88764  0.69289  1.0000
  H   H1538     1.0  0.42252  0.89748  0.74576  1.0000
  H   H1539     1.0  0.44038  0.88329  0.78209  1.0000
  C   C1929     1.0  0.41681  0.85644  0.89686  1.0000
  C   C1930     1.0  0.35845  0.74765  0.67636  1.0000
  H   H1540     1.0  0.46530  0.92722  0.72075  1.0000
  H   H1541     1.0  0.42023  0.93197  0.76292  1.0000
  H   H1542     1.0  0.35749  0.73395  0.67496  1.0000
  H   H1543     1.0  0.41120  0.97002  0.63949  1.0000
  C   C1931     1.0  0.25387  0.72692  0.75301  1.0000
  C   C1932     1.0  0.37849  0.80128  0.95829  1.0000
  H   H1544     1.0  0.44327  0.91211  0.64981  1.0000
  H   H1545     1.0  0.45966  0.92648  0.61303  1.0000
  C   C1933     1.0  0.40824  0.95313  0.70328  1.0000
  H   H1546     1.0  0.36434  0.68453  0.79915  1.0000
  S   S258      1.0  0.48187  0.88034  0.86305  1.0000
  C   C1934     1.0  0.37515  0.77478  0.59500  1.0000
  C   C1935     1.0  0.47270  0.87334  0.69682  1.0000
  H   H1547     1.0  0.45884  0.91806  0.82222  1.0000
  H   H1548     1.0  0.36341  0.73101  0.51529  1.0000
  C   C1936     1.0  0.45697  0.93975  0.48326  1.0000
  C   C1937     1.0  0.39575  0.96664  0.74419  1.0000
  C   C1938     1.0  0.38115  0.85627  0.94535  1.0000
  C   C1939     1.0  0.38780  0.81592  0.96169  1.0000
  H   H1549     1.0  0.25371  0.67346  0.65479  1.0000
  H   H1550     1.0  0.28271  0.71777  0.59509  1.0000
  H   H1551     1.0  0.47856  0.95420  0.73004  1.0000
  C   C1940     1.0  0.41216  0.69284  0.50296  1.0000
  C   C1941     1.0  0.47985  0.88581  0.89909  1.0000
  C   C1942     1.0  0.39529  0.92132  0.49634  1.0000
  P   P63       1.0  0.34107  0.65972  0.88604  1.0000
  H   H1552     1.0  0.42810  0.85074  0.50060  1.0000
  H   H1553     1.0  0.46455  0.97089  0.89939  1.0000
  H   H1554     1.0  0.48242  0.91368  0.75800  1.0000
  H   H1555     1.0  0.43228  0.92906  0.48637  1.0000
  H   H1556     1.0  0.38787  0.97674  0.75344  1.0000
  C   C1943     1.0  0.33734  0.87222  0.49926  1.0000
  C   C1944     1.0  0.35037  0.88345  0.49353  1.0000
  C   C1945     1.0  0.33944  0.85505  0.49229  1.0000
  H   H1557     1.0  0.34851  0.89675  0.49882  1.0000
  C   C1946     1.0  0.39667  0.70113  0.49597  1.0000
  C   C1947     1.0  0.40796  0.86851  0.48791  1.0000
  H   H1558     1.0  0.23882  0.76692  0.56534  1.0000
  C   C1948     1.0  0.37717  0.65169  0.72751  1.0000
  C   C1949     1.0  0.42389  0.86011  0.48513  1.0000
  C   C1950     1.0  0.33503  0.69377  0.49514  1.0000
  C   C1951     1.0  0.47753  0.97987  0.51191  1.0000
  H   H1559     1.0  0.36489  0.89239  0.97569  1.0000
  C   C1952     1.0  0.23640  0.73275  0.57606  1.0000
  H   H1560     1.0  0.39187  0.97571  0.70198  1.0000
  C   C1953     1.0  0.33808  0.65918  0.94456  1.0000
  C   C1954     1.0  0.32175  0.65456  0.86801  1.0000
  H   H1561     1.0  0.24266  0.77065  0.48163  1.0000
  H   H1562     1.0  0.23640  0.79626  0.54760  1.0000
  H   H1563     1.0  0.43885  0.97822  0.80926  1.0000
  H   H1564     1.0  0.44682  0.98221  0.94409  1.0000
  H   H1565     1.0  0.48335  0.94555  0.97252  1.0000
  C   C1955     1.0  0.42556  0.69199  0.48356  1.0000
  C   C1956     1.0  0.35783  0.71272  0.48331  1.0000
  C   C1957     1.0  0.47491  0.97173  0.98072  1.0000
  C   C1958     1.0  0.23431  0.69311  0.66159  1.0000
  C   C1959     1.0  0.24609  0.77645  0.98066  1.0000
  C   C1960     1.0  0.36576  0.87748  0.48134  1.0000
  Fe  Fe129     1.0  0.64789  0.19567  0.41203  1.0000
  S   S259      1.0  0.65075  0.16712  0.41619  1.0000
  S   S260      1.0  0.65484  0.21248  0.37471  1.0000
  H   H1566     1.0  0.53106  0.12184  0.03447  1.0000
  H   H1567     1.0  0.66805  0.27806  0.38768  1.0000
  S   S261      1.0  0.62852  0.19598  0.03343  1.0000
  Fe  Fe130     1.0  0.66590  0.17232  0.45513  1.0000
  P   P64       1.0  0.59610  0.28663  0.08783  1.0000
  Fe  Fe131     1.0  0.62729  0.16881  0.44418  1.0000
  S   S262      1.0  0.60217  0.15386  0.44157  1.0000
  S   S263      1.0  0.66461  0.20049  0.44892  1.0000
  S   S264      1.0  0.62389  0.19742  0.43786  1.0000
  Fe  Fe132     1.0  0.64374  0.25772  0.16636  1.0000
  S   S265      1.0  0.65568  0.28190  0.18012  1.0000
  S   S266      1.0  0.64797  0.25361  0.11953  1.0000
  Fe  Fe133     1.0  0.63322  0.24903  0.22693  1.0000
  S   S267      1.0  0.64405  0.27283  0.24367  1.0000
  S   S268      1.0  0.62163  0.22899  0.25558  1.0000
  Fe  Fe134     1.0  0.63167  0.28613  0.20617  1.0000
  C   C1961     1.0  0.72445  0.27673  0.16626  1.0000
  Fe  Fe135     1.0  0.66679  0.26657  0.21605  1.0000
  S   S269      1.0  0.69413  0.25979  0.23023  1.0000
  S   S270      1.0  0.61943  0.26254  0.19113  1.0000
  S   S271      1.0  0.65618  0.24219  0.20059  1.0000
  Fe  Fe136     1.0  0.54041  0.07232  0.39714  1.0000
  S   S272      1.0  0.51483  0.08579  0.39070  1.0000
  S   S273      1.0  0.56637  0.08457  0.40571  1.0000
  Fe  Fe137     1.0  0.52520  0.03685  0.38591  1.0000
  S   S274      1.0  0.49908  0.04870  0.37830  1.0000
  S   S275      1.0  0.52609  0.00775  0.39168  1.0000
  Fe  Fe138     1.0  0.51220  0.06872  0.35333  1.0000
  C   C1962     1.0  0.63427  0.30615  0.35984  1.0000
  Fe  Fe139     1.0  0.50371  0.06445  0.41643  1.0000
  H   H1568     1.0  0.52801  0.08563  0.10172  1.0000
  S   S276      1.0  0.53831  0.05604  0.35842  1.0000
  S   S277      1.0  0.52931  0.05197  0.42504  1.0000
  C   C1963     1.0  0.52957  0.13303  0.47247  1.0000
  C   C1964     1.0  0.52186  0.99800  0.28543  1.0000
  H   H1569     1.0  0.59350  0.26442  0.26665  1.0000
  C   C1965     1.0  0.63674  0.25514  0.39110  1.0000
  H   H1570     1.0  0.58858  0.01205  0.13185  1.0000
  C   C1966     1.0  0.52811  0.10480  0.06933  1.0000
  H   H1571     1.0  0.56737  0.28902  0.12800  1.0000
  C   C1967     1.0  0.57507  0.01422  0.13594  1.0000
  C   C1968     1.0  0.53664  0.11106  0.04584  1.0000
  C   C1969     1.0  0.53032  0.99034  0.36872  1.0000
  H   H1572     1.0  0.54808  0.00298  0.34197  1.0000
  H   H1573     1.0  0.57499  0.24358  0.17705  1.0000
  H   H1574     1.0  0.67309  0.16619  0.03805  1.0000
  C   C1970     1.0  0.67394  0.17411  0.05635  1.0000
  H   H1575     1.0  0.72008  0.17407  0.07686  1.0000
  C   C1971     1.0  0.59247  0.13451  0.43104  1.0000
  C   C1972     1.0  0.60201  0.12004  0.42252  1.0000
  C   C1973     1.0  0.59379  0.10503  0.41491  1.0000
  C   C1974     1.0  0.57587  0.10411  0.41549  1.0000
  C   C1975     1.0  0.56629  0.11856  0.42404  1.0000
  C   C1976     1.0  0.57453  0.13351  0.43201  1.0000
  H   H1576     1.0  0.61576  0.12032  0.42209  1.0000
  H   H1577     1.0  0.60143  0.09401  0.40845  1.0000
  H   H1578     1.0  0.55254  0.11815  0.42484  1.0000
  H   H1579     1.0  0.56693  0.14439  0.43908  1.0000
  C   C1977     1.0  0.64489  0.21708  0.34218  1.0000
  C   C1978     1.0  0.65111  0.23030  0.32541  1.0000
  C   C1979     1.0  0.64412  0.23401  0.29895  1.0000
  C   C1980     1.0  0.63070  0.22462  0.28895  1.0000
  C   C1981     1.0  0.62427  0.21158  0.30595  1.0000
  C   C1982     1.0  0.63140  0.20777  0.33236  1.0000
  H   H1580     1.0  0.66165  0.23750  0.33264  1.0000
  H   H1581     1.0  0.64924  0.24404  0.28619  1.0000
  H   H1582     1.0  0.61386  0.20429  0.29857  1.0000
  H   H1583     1.0  0.62678  0.19743  0.34496  1.0000
  C   C1983     1.0  0.64326  0.23669  0.09680  1.0000
  C   C1984     1.0  0.63214  0.22391  0.10439  1.0000
  C   C1985     1.0  0.62775  0.21156  0.08476  1.0000
  C   C1986     1.0  0.63481  0.21153  0.05764  1.0000
  C   C1987     1.0  0.64634  0.22400  0.05037  1.0000
  C   C1988     1.0  0.65036  0.23661  0.06974  1.0000
  H   H1584     1.0  0.62667  0.22375  0.12516  1.0000
  H   H1585     1.0  0.61886  0.20194  0.09062  1.0000
  H   H1586     1.0  0.65182  0.22416  0.02958  1.0000
  H   H1587     1.0  0.65889  0.24650  0.06363  1.0000
  C   C1989     1.0  0.56315  0.00468  0.12204  1.0000
  C   C1990     1.0  0.71435  0.28795  0.23691  1.0000
  C   C1991     1.0  0.71332  0.27023  0.23740  1.0000
  H   H1588     1.0  0.70583  0.26897  0.32362  1.0000
  C   C1992     1.0  0.68804  0.18419  0.05983  1.0000
  C   C1993     1.0  0.68176  0.24096  0.41333  1.0000
  C   C1994     1.0  0.70589  0.22534  0.39275  1.0000
  H   H1589     1.0  0.69671  0.23060  0.18103  1.0000
  H   H1590     1.0  0.50924  0.13364  0.44239  1.0000
  H   H1591     1.0  0.50261  0.05463  0.12655  1.0000
  H   H1592     1.0  0.62308  0.24836  0.45780  1.0000
  C   C1995     1.0  0.71830  0.17322  0.99692  1.0000
  H   H1593     1.0  0.51573  0.06840  0.22472  1.0000
  C   C1996     1.0  0.49800  0.00925  0.31268  1.0000
  H   H1594     1.0  0.55854  0.27045  0.16659  1.0000
  C   C1997     1.0  0.71297  0.22319  0.41951  1.0000
  C   C1998     1.0  0.50191  0.06909  0.03320  1.0000
  C   C1999     1.0  0.58074  0.15390  0.03792  1.0000
  H   H1595     1.0  0.69807  0.27223  0.37373  1.0000
  C   C2000     1.0  0.70153  0.22563  0.11051  1.0000
  H   H1596     1.0  0.57830  0.16196  0.05584  1.0000
  C   C2001     1.0  0.69263  0.27124  0.32979  1.0000
  C   C2002     1.0  0.69187  0.25019  0.15027  1.0000
  C   C2003     1.0  0.69193  0.25447  0.12188  1.0000
  C   C2004     1.0  0.69672  0.24224  0.10200  1.0000
  C   C2005     1.0  0.57885  0.25170  0.15991  1.0000
  P   P65       1.0  0.70656  0.20916  0.08536  1.0000
  C   C2006     1.0  0.58934  0.27309  0.11623  1.0000
  C   C2007     1.0  0.71015  0.28789  0.16617  1.0000
  H   H1597     1.0  0.70011  0.28637  0.18158  1.0000
  H   H1598     1.0  0.50630  0.10233  0.44306  1.0000
  C   C2008     1.0  0.50389  0.02554  0.07052  1.0000
  C   C2009     1.0  0.60506  0.24734  0.03339  1.0000
  C   C2010     1.0  0.50586  0.07780  0.18542  1.0000
  C   C2011     1.0  0.66153  0.18527  0.09908  1.0000
  C   C2012     1.0  0.67559  0.19545  0.10257  1.0000
  C   C2013     1.0  0.68906  0.19490  0.08303  1.0000
  C   C2014     1.0  0.71535  0.18509  0.39123  1.0000
  C   C2015     1.0  0.63349  0.24653  0.41616  1.0000
  C   C2016     1.0  0.48885  0.05380  0.28590  1.0000
  H   H1599     1.0  0.58621  0.25425  0.06432  1.0000
  H   H1600     1.0  0.51636  0.06793  0.99441  1.0000
  H   H1601     1.0  0.57839  0.20218  0.42481  1.0000
  H   H1602     1.0  0.68759  0.25947  0.16558  1.0000
  H   H1603     1.0  0.68756  0.26709  0.11527  1.0000
  C   C2017     1.0  0.57171  0.05385  0.46313  1.0000
  H   H1604     1.0  0.63955  0.27025  0.01617  1.0000
  H   H1605     1.0  0.62703  0.28903  0.05232  1.0000
  H   H1606     1.0  0.69793  0.18402  0.04395  1.0000
  H   H1607     1.0  0.55550  0.07192  0.08648  1.0000
  C   C2018     1.0  0.72601  0.19797  0.09601  1.0000
  C   C2019     1.0  0.72523  0.21548  0.03642  1.0000
  C   C2020     1.0  0.51593  0.10804  0.45566  1.0000
  C   C2021     1.0  0.50641  0.02018  0.12048  1.0000
  H   H1608     1.0  0.65098  0.18612  0.11376  1.0000
  H   H1609     1.0  0.67548  0.20408  0.11999  1.0000
  C   C2022     1.0  0.68053  0.19806  0.31028  1.0000
  C   C2023     1.0  0.67979  0.21029  0.28893  1.0000
  C   C2024     1.0  0.68976  0.22459  0.29041  1.0000
  C   C2025     1.0  0.70070  0.22653  0.31298  1.0000
  C   C2026     1.0  0.70207  0.21393  0.33400  1.0000
  C   C2027     1.0  0.69156  0.19989  0.33279  1.0000
  C   C2028     1.0  0.55884  0.08909  0.05164  1.0000
  H   H1610     1.0  0.67216  0.18742  0.30983  1.0000
  H   H1611     1.0  0.67095  0.20908  0.27183  1.0000
  H   H1612     1.0  0.68876  0.23435  0.27428  1.0000
  H   H1613     1.0  0.70806  0.23785  0.31382  1.0000
  H   H1614     1.0  0.66948  0.24744  0.41103  1.0000
  H   H1615     1.0  0.68437  0.23592  0.36955  1.0000
  C   C2029     1.0  0.72190  0.30322  0.12694  1.0000
  H   H1616     1.0  0.50841  0.03160  0.05157  1.0000
  P   P66       1.0  0.63669  0.28338  0.35546  1.0000
  C   C2030     1.0  0.63174  0.27234  0.38773  1.0000
  C   C2031     1.0  0.53488  0.09068  0.08393  1.0000
  C   C2032     1.0  0.68876  0.23864  0.43987  1.0000
  C   C2033     1.0  0.73394  0.22931  0.35152  1.0000
  C   C2034     1.0  0.59330  0.24723  0.14401  1.0000
  C   C2035     1.0  0.55030  0.08291  0.07522  1.0000
  C   C2036     1.0  0.69527  0.22400  0.03559  1.0000
  C   C2037     1.0  0.62347  0.28084  0.41001  1.0000
  C   C2038     1.0  0.62032  0.27221  0.43515  1.0000
  C   C2039     1.0  0.62243  0.27744  0.32797  1.0000
  C   C2040     1.0  0.61946  0.28856  0.30518  1.0000
  C   C2041     1.0  0.60546  0.27323  0.06080  1.0000
  C   C2042     1.0  0.60122  0.26823  0.28402  1.0000
  C   C2043     1.0  0.60403  0.25712  0.30660  1.0000
  C   C2044     1.0  0.61462  0.26165  0.32849  1.0000
  C   C2045     1.0  0.51325  0.06541  0.20309  1.0000
  H   H1617     1.0  0.49977  0.98473  0.45098  1.0000
  C   C2046     1.0  0.50225  0.07382  0.15778  1.0000
  H   H1618     1.0  0.70290  0.18950  0.39880  1.0000
  H   H1619     1.0  0.61956  0.29413  0.40828  1.0000
  H   H1620     1.0  0.61406  0.27881  0.45237  1.0000
  C   C2047     1.0  0.51263  0.02736  0.09558  1.0000
  H   H1621     1.0  0.72527  0.26687  0.18208  1.0000
  H   H1622     1.0  0.51600  0.11063  0.07582  1.0000
  H   H1623     1.0  0.59852  0.24469  0.30658  1.0000
  H   H1624     1.0  0.61695  0.25258  0.34523  1.0000
  H   H1625     1.0  0.56742  0.99511  0.10714  1.0000
  C   C2048     1.0  0.70944  0.21732  0.05029  1.0000
  H   H1626     1.0  0.60669  0.30637  0.35828  1.0000
  C   C2049     1.0  0.58723  0.13324  0.99162  1.0000
  C   C2050     1.0  0.71095  0.16790  0.47233  1.0000
  C   C2051     1.0  0.57474  0.27742  0.13215  1.0000
  H   H1627     1.0  0.61725  0.07830  0.99891  1.0000
  Fe  Fe140     1.0  0.64088  0.20025  0.47527  1.0000
  C   C2052     1.0  0.61906  0.29925  0.12637  1.0000
  H   H1628     1.0  0.73216  0.16333  0.03272  1.0000
  H   H1629     1.0  0.59029  0.30062  0.17242  1.0000
  H   H1630     1.0  0.49612  0.01490  0.46420  1.0000
  H   H1631     1.0  0.51868  0.02145  0.99946  1.0000
  H   H1632     1.0  0.63749  0.23324  0.41858  1.0000
  H   H1633     1.0  0.70070  0.19363  0.47351  1.0000
  H   H1634     1.0  0.66135  0.31071  0.36156  1.0000
  C   C2053     1.0  0.67121  0.27636  0.36580  1.0000
  C   C2054     1.0  0.51360  0.01159  0.29917  1.0000
  C   C2055     1.0  0.58218  0.19126  0.27263  1.0000
  C   C2056     1.0  0.59653  0.18719  0.25622  1.0000
  C   C2057     1.0  0.60697  0.17300  0.26301  1.0000
  C   C2058     1.0  0.60320  0.16295  0.28637  1.0000
  C   C2059     1.0  0.58891  0.16706  0.30318  1.0000
  C   C2060     1.0  0.57836  0.18125  0.29601  1.0000
  P   P67       1.0  0.58475  0.15533  0.33506  1.0000
  C   C2061     1.0  0.56647  0.14210  0.33202  1.0000
  C   C2062     1.0  0.60286  0.14141  0.34349  1.0000
  C   C2063     1.0  0.60511  0.12577  0.32973  1.0000
  C   C2064     1.0  0.61881  0.11465  0.33645  1.0000
  C   C2065     1.0  0.63044  0.11911  0.35682  1.0000
  C   C2066     1.0  0.62837  0.13468  0.37045  1.0000
  C   C2067     1.0  0.61462  0.14580  0.36395  1.0000
  C   C2068     1.0  0.56461  0.12834  0.35058  1.0000
  C   C2069     1.0  0.55091  0.11760  0.34810  1.0000
  C   C2070     1.0  0.53892  0.12048  0.32702  1.0000
  C   C2071     1.0  0.54062  0.13417  0.30846  1.0000
  C   C2072     1.0  0.55435  0.14496  0.31089  1.0000
  C   C2073     1.0  0.58164  0.17065  0.36269  1.0000
  C   C2074     1.0  0.57085  0.16741  0.38547  1.0000
  C   C2075     1.0  0.56953  0.17888  0.40763  1.0000
  C   C2076     1.0  0.57897  0.19362  0.40720  1.0000
  C   C2077     1.0  0.58954  0.19705  0.38439  1.0000
  C   C2078     1.0  0.59083  0.18565  0.36221  1.0000
  H   H1635     1.0  0.57432  0.20248  0.26762  1.0000
  H   H1636     1.0  0.59984  0.19533  0.23871  1.0000
  H   H1637     1.0  0.61826  0.17008  0.25053  1.0000
  H   H1638     1.0  0.61175  0.15231  0.29156  1.0000
  H   H1639     1.0  0.56746  0.18484  0.30896  1.0000
  H   H1640     1.0  0.59614  0.12208  0.31401  1.0000
  H   H1641     1.0  0.62031  0.10250  0.32609  1.0000
  H   H1642     1.0  0.64096  0.11044  0.36229  1.0000
  H   H1643     1.0  0.63720  0.13798  0.38661  1.0000
  H   H1644     1.0  0.61313  0.15759  0.37537  1.0000
  H   H1645     1.0  0.57389  0.12579  0.36687  1.0000
  H   H1646     1.0  0.54969  0.10692  0.36241  1.0000
  H   H1647     1.0  0.56102  0.13675  0.04857  1.0000
  H   H1648     1.0  0.53135  0.13632  0.29204  1.0000
  H   H1649     1.0  0.55551  0.15533  0.29611  1.0000
  H   H1650     1.0  0.56383  0.15586  0.38662  1.0000
  H   H1651     1.0  0.56170  0.17603  0.42565  1.0000
  C   C2079     1.0  0.59868  0.25799  0.12254  1.0000
  H   H1652     1.0  0.59708  0.20834  0.38420  1.0000
  H   H1653     1.0  0.59931  0.18834  0.34497  1.0000
  H   H1654     1.0  0.51120  0.07643  0.04382  1.0000
  C   C2080     1.0  0.59773  0.25803  0.05371  1.0000
  H   H1655     1.0  0.65344  0.27679  0.30110  1.0000
  C   C2081     1.0  0.70182  0.22156  0.13917  1.0000
  C   C2082     1.0  0.66296  0.27572  0.31722  1.0000
  H   H1656     1.0  0.68286  0.22491  0.04560  1.0000
  P   P68       1.0  0.51744  0.02338  0.15293  1.0000
  C   C2083     1.0  0.51329  0.04485  0.16538  1.0000
  C   C2084     1.0  0.54005  0.01990  0.14650  1.0000
  C   C2085     1.0  0.55213  0.02941  0.16041  1.0000
  C   C2086     1.0  0.56956  0.02656  0.15512  1.0000
  C   C2087     1.0  0.49052  0.99333  0.31247  1.0000
  H   H1657     1.0  0.51940  0.02388  0.29976  1.0000
  H   H1658     1.0  0.48804  0.09432  0.26092  1.0000
  C   C2088     1.0  0.50590  0.05742  0.14782  1.0000
  H   H1659     1.0  0.57881  0.03395  0.16593  1.0000
  C   C2089     1.0  0.52673  0.09769  0.47216  1.0000
  H   H1660     1.0  0.54744  0.29979  0.02473  1.0000
  C   C2090     1.0  0.51697  0.04901  0.19315  1.0000
  H   H1661     1.0  0.72099  0.31357  0.11188  1.0000
  H   H1662     1.0  0.72498  0.21614  0.42235  1.0000
  C   C2091     1.0  0.70882  0.30106  0.14646  1.0000
  H   H1663     1.0  0.68572  0.23336  0.99604  1.0000
  C   C2092     1.0  0.59375  0.15785  0.01905  1.0000
  H   H1664     1.0  0.62565  0.30064  0.30379  1.0000
  H   H1665     1.0  0.71433  0.16145  0.41412  1.0000
  H   H1666     1.0  0.49025  0.01510  0.41438  1.0000
  C   C2093     1.0  0.69691  0.23380  0.15894  1.0000
  C   C2094     1.0  0.72816  0.26021  0.24301  1.0000
  S   S278      1.0  0.50258  0.08133  0.31256  1.0000
  C   C2095     1.0  0.61132  0.30146  0.10020  1.0000
  H   H1667     1.0  0.49321  0.99883  0.37102  1.0000
  H   H1668     1.0  0.53060  0.09337  0.99233  1.0000
  C   C2096     1.0  0.72590  0.15757  0.47519  1.0000
  C   C2097     1.0  0.49324  0.98790  0.47035  1.0000
  C   C2098     1.0  0.62056  0.27762  0.04698  1.0000
  C   C2099     1.0  0.56961  0.26682  0.15403  1.0000
  C   C2100     1.0  0.51070  0.00841  0.17936  1.0000
  P   P69       1.0  0.56201  0.11040  0.00471  1.0000
  H   H1669     1.0  0.52242  0.03951  0.20731  1.0000
  C   C2101     1.0  0.54572  0.00747  0.12730  1.0000
  C   C2102     1.0  0.68825  0.27316  0.35797  1.0000
  C   C2103     1.0  0.57797  0.29917  0.07508  1.0000
  C   C2104     1.0  0.69684  0.22878  0.00751  1.0000
  H   H1670     1.0  0.52396  0.03483  0.09566  1.0000
  C   C2105     1.0  0.62536  0.25506  0.43824  1.0000
  H   H1671     1.0  0.53415  0.99969  0.27553  1.0000
  C   C2106     1.0  0.66065  0.17469  0.07590  1.0000
  H   H1672     1.0  0.70538  0.20879  0.14615  1.0000
  H   H1673     1.0  0.64331  0.24838  0.37440  1.0000
  H   H1674     1.0  0.64941  0.16739  0.07257  1.0000
  H   H1675     1.0  0.63507  0.31027  0.15718  1.0000
  H   H1676     1.0  0.61021  0.25459  0.11100  1.0000
  H   H1677     1.0  0.69157  0.19047  0.34938  1.0000
  C   C2107     1.0  0.69026  0.23436  0.38982  1.0000
  H   H1678     1.0  0.60067  0.23567  0.14886  1.0000
  H   H1679     1.0  0.70306  0.29585  0.23279  1.0000
  P   P70       1.0  0.71667  0.21613  0.36275  1.0000
  C   C2108     1.0  0.56160  0.04006  0.46947  1.0000
  C   C2109     1.0  0.49166  0.07122  0.28515  1.0000
  H   H1680     1.0  0.52839  0.11200  0.32498  1.0000
  H   H1681     1.0  0.73083  0.30921  0.24066  1.0000
  H   H1682     1.0  0.68186  0.24338  0.45808  1.0000
  H   H1683     1.0  0.70974  0.22783  0.46354  1.0000
  H   H1684     1.0  0.49177  0.01984  0.32339  1.0000
  H   H1685     1.0  0.49344  0.00439  0.99287  1.0000
  C   C2110     1.0  0.65842  0.27767  0.34545  1.0000
  C   C2111     1.0  0.72684  0.22060  0.00851  1.0000
  H   H1686     1.0  0.73209  0.23860  0.15962  1.0000
  H   H1687     1.0  0.69770  0.30967  0.14654  1.0000
  H   H1688     1.0  0.53668  0.99991  0.11635  1.0000
  C   C2112     1.0  0.60883  0.28400  0.28341  1.0000
  C   C2113     1.0  0.50486  0.06438  0.00514  1.0000
  C   C2114     1.0  0.54179  0.99122  0.34627  1.0000
  C   C2115     1.0  0.62000  0.25185  0.01963  1.0000
  C   C2116     1.0  0.50022  0.98530  0.22056  1.0000
  H   H1689     1.0  0.61676  0.28817  0.13924  1.0000
  H   H1690     1.0  0.56452  0.31561  0.15242  1.0000
  C   C2117     1.0  0.70441  0.22982  0.44294  1.0000
  C   C2118     1.0  0.72180  0.16915  0.40005  1.0000
  C   C2119     1.0  0.71262  0.22704  0.99395  1.0000
  C   C2120     1.0  0.67997  0.27241  0.30945  1.0000
  H   H1691     1.0  0.70633  0.16800  0.00334  1.0000
  C   C2121     1.0  0.49292  0.05497  0.99100  1.0000
  H   H1692     1.0  0.60138  0.16890  0.02235  1.0000
  H   H1693     1.0  0.50267  0.09040  0.19331  1.0000
  H   H1694     1.0  0.54826  0.03906  0.17531  1.0000
  C   C2122     1.0  0.62959  0.31170  0.13659  1.0000
  H   H1695     1.0  0.69620  0.24573  0.08014  1.0000
  C   C2123     1.0  0.49792  0.01316  0.19878  1.0000
  H   H1696     1.0  0.59940  0.23534  0.02863  1.0000
  H   H1697     1.0  0.72522  0.14393  0.47290  1.0000
  H   H1698     1.0  0.73185  0.21566  0.19525  1.0000
  C   C2124     1.0  0.62775  0.26697  0.02644  1.0000
  S   S279      1.0  0.69130  0.15823  0.46481  1.0000
  C   C2125     1.0  0.57421  0.12911  0.01052  1.0000
  C   C2126     1.0  0.57098  0.13959  0.03371  1.0000
  H   H1699     1.0  0.68335  0.27091  0.28756  1.0000
  H   H1700     1.0  0.52553  0.08404  0.47151  1.0000
  H   H1701     1.0  0.49628  0.08331  0.14406  1.0000
  H   H1702     1.0  0.57060  0.08269  0.04501  1.0000
  H   H1703     1.0  0.59726  0.10023  0.01800  1.0000
  H   H1704     1.0  0.49344  0.04635  0.30349  1.0000
  C   C2127     1.0  0.55195  0.10308  0.03654  1.0000
  C   C2128     1.0  0.51776  0.99173  0.18023  1.0000
  C   C2129     1.0  0.72493  0.19524  0.37308  1.0000
  H   H1705     1.0  0.62579  0.24340  0.00418  1.0000
  H   H1706     1.0  0.58148  0.05272  0.44705  1.0000
  H   H1707     1.0  0.57257  0.28267  0.04052  1.0000
  C   C2130     1.0  0.57635  0.09385  0.99120  1.0000
  H   H1708     1.0  0.49180  0.02571  0.19799  1.0000
  H   H1709     1.0  0.60690  0.29250  0.26560  1.0000
  C   C2131     1.0  0.59696  0.14751  0.99589  1.0000
  C   C2132     1.0  0.49097  0.00507  0.47751  1.0000
  C   C2133     1.0  0.60433  0.07945  0.99111  1.0000
  Fe  Fe141     1.0  0.64007  0.19176  0.98991  1.0000
  C   C2134     1.0  0.48885  0.01659  0.07010  1.0000
  C   C2135     1.0  0.73013  0.29550  0.24139  1.0000
  C   C2136     1.0  0.56879  0.29408  0.05174  1.0000
  C   C2137     1.0  0.59298  0.09192  0.00178  1.0000
  H   H1710     1.0  0.72753  0.24649  0.24341  1.0000
  C   C2138     1.0  0.55449  0.30376  0.04273  1.0000
  C   C2139     1.0  0.51746  0.12569  0.45555  1.0000
  C   C2140     1.0  0.56880  0.06940  0.47662  1.0000
  H   H1711     1.0  0.56364  0.02815  0.45848  1.0000
  C   C2141     1.0  0.71205  0.18550  0.47546  1.0000
  C   C2142     1.0  0.49144  0.01096  0.11983  1.0000
  C   C2143     1.0  0.72939  0.18103  0.08814  1.0000
  C   C2144     1.0  0.73300  0.17057  0.01352  1.0000
  C   C2145     1.0  0.57268  0.31411  0.08911  1.0000
  H   H1712     1.0  0.57651  0.07994  0.47060  1.0000
  S   S280      1.0  0.61724  0.31231  0.21013  1.0000
  C   C2146     1.0  0.48575  0.08085  0.26198  1.0000
  C   C2147     1.0  0.58762  0.31390  0.17693  1.0000
  C   C2148     1.0  0.48702  0.06441  0.04753  1.0000
  H   H1713     1.0  0.57563  0.10943  0.47763  1.0000
  C   C2149     1.0  0.49294  0.00177  0.21961  1.0000
  H   H1714     1.0  0.48616  0.00562  0.13877  1.0000
  H   H1715     1.0  0.52734  0.98758  0.16518  1.0000
  H   H1716     1.0  0.53079  0.14671  0.47240  1.0000
  S   S281      1.0  0.65537  0.16746  0.98139  1.0000
  C   C2150     1.0  0.51866  0.01209  0.98302  1.0000
  C   C2151     1.0  0.61787  0.31395  0.36024  1.0000
  H   H1717     1.0  0.60705  0.15053  0.98122  1.0000
  Fe  Fe142     1.0  0.64202  0.20318  0.92817  1.0000
  S   S282      1.0  0.65708  0.17960  0.91621  1.0000
  S   S283      1.0  0.63522  0.22535  0.89821  1.0000
  H   H1718     1.0  0.68280  0.17226  0.83549  1.0000
  S   S284      1.0  0.60354  0.29874  0.69505  1.0000
  S   S285      1.0  0.63667  0.22319  0.50404  1.0000
  Fe  Fe143     1.0  0.67235  0.18392  0.95522  1.0000
  H   H1719     1.0  0.54903  0.12871  0.50315  1.0000
  Fe  Fe144     1.0  0.63864  0.16515  0.94331  1.0000
  S   S286      1.0  0.62888  0.13863  0.93187  1.0000
  S   S287      1.0  0.65792  0.20832  0.96605  1.0000
  S   S288      1.0  0.62258  0.18864  0.95321  1.0000
  Fe  Fe145     1.0  0.64879  0.25298  0.66702  1.0000
  S   S289      1.0  0.65018  0.28159  0.66360  1.0000
  S   S290      1.0  0.65139  0.23147  0.63469  1.0000
  Fe  Fe146     1.0  0.64710  0.25371  0.73218  1.0000
  S   S291      1.0  0.64798  0.28241  0.73301  1.0000
  S   S292      1.0  0.65013  0.23313  0.76672  1.0000
  Fe  Fe147     1.0  0.62936  0.28293  0.69674  1.0000
  H   H1720     1.0  0.62336  0.15067  0.72186  1.0000
  Fe  Fe148     1.0  0.66858  0.27929  0.69995  1.0000
  S   S293      1.0  0.69340  0.29379  0.70105  1.0000
  S   S294      1.0  0.62720  0.25411  0.69836  1.0000
  S   S295      1.0  0.66857  0.25089  0.70086  1.0000
  Fe  Fe149     1.0  0.54456  0.07720  0.89655  1.0000
  S   S296      1.0  0.51580  0.08080  0.89820  1.0000
  S   S297      1.0  0.55884  0.10237  0.90203  1.0000
  Fe  Fe150     1.0  0.54117  0.03920  0.88188  1.0000
  S   S298      1.0  0.51259  0.04079  0.88224  1.0000
  S   S299      1.0  0.55659  0.01473  0.87152  1.0000
  Fe  Fe151     1.0  0.51514  0.06546  0.85872  1.0000
  H   H1721     1.0  0.57871  0.06232  0.94273  1.0000
  Fe  Fe152     1.0  0.51530  0.05595  0.92175  1.0000
  C   C2152     1.0  0.73107  0.26328  0.73586  1.0000
  S   S300      1.0  0.54379  0.06312  0.85566  1.0000
  S   S301      1.0  0.54400  0.05299  0.92285  1.0000
  H   H1722     1.0  0.59606  0.18935  0.80304  1.0000
  H   H1723     1.0  0.58310  0.10425  0.84467  1.0000
  H   H1724     1.0  0.63120  0.17992  0.70804  1.0000
  C   C2153     1.0  0.59060  0.20597  0.83741  1.0000
  H   H1725     1.0  0.69545  0.16294  0.52878  1.0000
  H   H1726     1.0  0.62166  0.17668  0.88049  1.0000
  C   C2154     1.0  0.69158  0.20753  0.65001  1.0000
  H   H1727     1.0  0.61890  0.14332  0.77148  1.0000
  C   C2155     1.0  0.53062  0.99161  0.86799  1.0000
  C   C2156     1.0  0.54784  0.99477  0.86329  1.0000
  H   H1728     1.0  0.52226  0.00151  0.87654  1.0000
  H   H1729     1.0  0.71808  0.29267  0.78142  1.0000
  H   H1730     1.0  0.51822  0.30326  0.56521  1.0000
  H   H1731     1.0  0.56933  0.13277  0.85026  1.0000
  H   H1732     1.0  0.54339  0.01846  0.96702  1.0000
  C   C2157     1.0  0.60926  0.12900  0.92294  1.0000
  C   C2158     1.0  0.60905  0.11115  0.92039  1.0000
  C   C2159     1.0  0.59389  0.10281  0.91397  1.0000
  C   C2160     1.0  0.57856  0.11217  0.91006  1.0000
  C   C2161     1.0  0.57883  0.13006  0.91218  1.0000
  C   C2162     1.0  0.59400  0.13842  0.91855  1.0000
  H   H1733     1.0  0.62072  0.10366  0.92356  1.0000
  H   H1734     1.0  0.59412  0.08913  0.91194  1.0000
  H   H1735     1.0  0.56719  0.13755  0.90878  1.0000
  H   H1736     1.0  0.59385  0.15214  0.92019  1.0000
  C   C2163     1.0  0.63982  0.22737  0.86173  1.0000
  C   C2164     1.0  0.63374  0.24200  0.84717  1.0000
  C   C2165     1.0  0.63693  0.24415  0.81826  1.0000
  C   C2166     1.0  0.64627  0.23166  0.80347  1.0000
  C   C2167     1.0  0.65265  0.21719  0.81813  1.0000
  C   C2168     1.0  0.64935  0.21497  0.84698  1.0000
  H   H1737     1.0  0.62643  0.25172  0.85832  1.0000
  H   H1738     1.0  0.63200  0.25539  0.80740  1.0000
  H   H1739     1.0  0.66019  0.20761  0.80705  1.0000
  H   H1740     1.0  0.65426  0.20373  0.85784  1.0000
  C   C2169     1.0  0.64706  0.22962  0.59833  1.0000
  C   C2170     1.0  0.64249  0.24363  0.58143  1.0000
  C   C2171     1.0  0.63945  0.24141  0.55266  1.0000
  C   C2172     1.0  0.64105  0.22522  0.54034  1.0000
  C   C2173     1.0  0.64572  0.21121  0.55721  1.0000
  C   C2174     1.0  0.64857  0.21342  0.58601  1.0000
  H   H1741     1.0  0.64125  0.25616  0.59052  1.0000
  H   H1742     1.0  0.63579  0.25234  0.53987  1.0000
  H   H1743     1.0  0.64686  0.19866  0.54818  1.0000
  H   H1744     1.0  0.65174  0.20246  0.59895  1.0000
  H   H1745     1.0  0.70468  0.26068  0.72431  1.0000
  H   H1746     1.0  0.48806  0.99397  0.87333  1.0000
  C   C2175     1.0  0.71335  0.28560  0.71394  1.0000
  C   C2176     1.0  0.71537  0.26898  0.72433  1.0000
  C   C2177     1.0  0.70102  0.22708  0.84829  1.0000
  C   C2178     1.0  0.65691  0.16170  0.57987  1.0000
  H   H1747     1.0  0.54267  0.99826  0.92771  1.0000
  C   C2179     1.0  0.49194  0.06535  0.53064  1.0000
  H   H1748     1.0  0.56900  0.29254  0.79271  1.0000
  C   C2180     1.0  0.68532  0.17119  0.56889  1.0000
  H   H1749     1.0  0.49168  0.02999  0.75685  1.0000
  C   C2181     1.0  0.63120  0.18904  0.75025  1.0000
  C   C2182     1.0  0.53251  0.01053  0.96460  1.0000
  H   H1750     1.0  0.50208  0.04244  0.80084  1.0000
  C   C2183     1.0  0.64340  0.14835  0.86210  1.0000
  C   C2184     1.0  0.60856  0.14475  0.82772  1.0000
  C   C2185     1.0  0.62867  0.18498  0.77841  1.0000
  H   H1751     1.0  0.51296  0.99548  0.75902  1.0000
  C   C2186     1.0  0.58023  0.10964  0.49882  1.0000
  C   C2187     1.0  0.71717  0.24067  0.62565  1.0000
  C   C2188     1.0  0.51960  0.00593  0.76794  1.0000
  C   C2189     1.0  0.52152  0.00685  0.79684  1.0000
  C   C2190     1.0  0.53032  0.02018  0.80829  1.0000
  C   C2191     1.0  0.53732  0.03254  0.79100  1.0000
  C   C2192     1.0  0.53483  0.03215  0.76201  1.0000
  C   C2193     1.0  0.52618  0.01855  0.75055  1.0000
  P   P71       1.0  0.54415  0.04789  0.73939  1.0000
  C   C2194     1.0  0.54856  0.06689  0.75887  1.0000
  C   C2195     1.0  0.56381  0.03882  0.72522  1.0000
  C   C2196     1.0  0.57270  0.02559  0.73945  1.0000
  C   C2197     1.0  0.58797  0.01868  0.72847  1.0000
  C   C2198     1.0  0.59453  0.02498  0.70336  1.0000
  C   C2199     1.0  0.58585  0.03828  0.68925  1.0000
  C   C2200     1.0  0.57057  0.04523  0.70017  1.0000
  C   C2201     1.0  0.56433  0.07471  0.75618  1.0000
  C   C2202     1.0  0.56774  0.08905  0.77206  1.0000
  C   C2203     1.0  0.55546  0.09572  0.79064  1.0000
  C   C2204     1.0  0.53975  0.08808  0.79332  1.0000
  C   C2205     1.0  0.53636  0.07373  0.77760  1.0000
  C   C2206     1.0  0.52922  0.05286  0.71153  1.0000
  C   C2207     1.0  0.52913  0.04265  0.68756  1.0000
  C   C2208     1.0  0.51710  0.04588  0.66656  1.0000
  C   C2209     1.0  0.71390  0.23063  0.54493  1.0000
  C   C2210     1.0  0.71768  0.19034  0.77092  1.0000
  C   C2211     1.0  0.51703  0.06631  0.71406  1.0000
  H   H1752     1.0  0.68726  0.23022  0.77243  1.0000
  H   H1753     1.0  0.51632  0.99724  0.81045  1.0000
  H   H1754     1.0  0.53170  0.02100  0.83066  1.0000
  H   H1755     1.0  0.54456  0.04237  0.80049  1.0000
  H   H1756     1.0  0.52440  0.01767  0.72826  1.0000
  H   H1757     1.0  0.56794  0.02060  0.75906  1.0000
  H   H1758     1.0  0.59473  0.00842  0.73953  1.0000
  H   H1759     1.0  0.60637  0.01958  0.69492  1.0000
  H   H1760     1.0  0.59100  0.04322  0.66987  1.0000
  H   H1761     1.0  0.56405  0.05563  0.68917  1.0000
  H   H1762     1.0  0.57410  0.06971  0.74217  1.0000
  H   H1763     1.0  0.57997  0.09493  0.77016  1.0000
  H   H1764     1.0  0.55812  0.10671  0.80317  1.0000
  H   H1765     1.0  0.53023  0.09307  0.80795  1.0000
  H   H1766     1.0  0.52426  0.06780  0.78042  1.0000
  H   H1767     1.0  0.53803  0.03189  0.68541  1.0000
  H   H1768     1.0  0.51675  0.03769  0.64852  1.0000
  H   H1769     1.0  0.48604  0.31249  0.94779  1.0000
  C   C2212     1.0  0.68882  0.22137  0.52116  1.0000
  H   H1770     1.0  0.51624  0.07405  0.73256  1.0000
  H   H1771     1.0  0.53856  0.06200  0.60204  1.0000
  C   C2213     1.0  0.60462  0.19862  0.88087  1.0000
  H   H1772     1.0  0.62938  0.12701  0.81745  1.0000
  C   C2214     1.0  0.53466  0.07214  0.58773  1.0000
  C   C2215     1.0  0.59008  0.11549  0.83915  1.0000
  C   C2216     1.0  0.62234  0.15611  0.76592  1.0000
  C   C2217     1.0  0.58230  0.13162  0.84235  1.0000
  C   C2218     1.0  0.49437  0.05012  0.78664  1.0000
  H   H1773     1.0  0.72608  0.30904  0.70623  1.0000
  S   S302      1.0  0.70134  0.18535  0.94914  1.0000
  C   C2219     1.0  0.59246  0.11097  0.55333  1.0000
  H   H1774     1.0  0.68569  0.15181  0.87518  1.0000
  C   C2220     1.0  0.57740  0.10261  0.54792  1.0000
  H   H1775     1.0  0.55870  0.08432  0.96087  1.0000
  H   H1776     1.0  0.73154  0.23293  0.87095  1.0000
  H   H1777     1.0  0.72396  0.21911  0.72966  1.0000
  H   H1778     1.0  0.61306  0.10138  0.82783  1.0000
  C   C2221     1.0  0.61299  0.18469  0.86819  1.0000
  H   H1779     1.0  0.58992  0.12536  0.97358  1.0000
  P   P72       1.0  0.70362  0.18357  0.57649  1.0000
  C   C2222     1.0  0.50162  0.28231  0.56229  1.0000
  C   C2223     1.0  0.68995  0.20588  0.53571  1.0000
  C   C2224     1.0  0.59521  0.11805  0.50429  1.0000
  C   C2225     1.0  0.72207  0.16978  0.56958  1.0000
  H   H1780     1.0  0.71170  0.14844  0.59206  1.0000
  C   C2226     1.0  0.68062  0.27312  0.79185  1.0000
  C   C2227     1.0  0.68486  0.16249  0.54343  1.0000
  C   C2228     1.0  0.48843  0.04310  0.76172  1.0000
  H   H1781     1.0  0.63016  0.19480  0.79384  1.0000
  H   H1782     1.0  0.63461  0.20185  0.74429  1.0000
  C   C2229     1.0  0.70406  0.19047  0.61244  1.0000
  H   H1783     1.0  0.49528  0.06137  0.65358  1.0000
  C   C2230     1.0  0.70078  0.23375  0.52576  1.0000
  H   H1784     1.0  0.68027  0.19674  0.53206  1.0000
  H   H1785     1.0  0.69064  0.24013  0.61386  1.0000
  C   C2231     1.0  0.67134  0.17053  0.58728  1.0000
  C   C2232     1.0  0.70074  0.24779  0.62173  1.0000
  C   C2233     1.0  0.50374  0.99087  0.95690  1.0000
  C   C2234     1.0  0.58610  0.30815  0.76944  1.0000
  H   H1786     1.0  0.53450  0.05877  0.51642  1.0000
  C   C2235     1.0  0.49013  0.06700  0.79337  1.0000
  H   H1787     1.0  0.54459  0.31317  0.78920  1.0000
  C   C2236     1.0  0.72063  0.20330  0.78994  1.0000
  H   H1788     1.0  0.67839  0.22383  0.50675  1.0000
  H   H1789     1.0  0.54163  0.31437  0.72766  1.0000
  C   C2237     1.0  0.53314  0.13190  0.94165  1.0000
  C   C2238     1.0  0.55575  0.07129  0.49671  1.0000
  H   H1790     1.0  0.71375  0.23020  0.97195  1.0000
  C   C2239     1.0  0.57124  0.08296  0.96998  1.0000
  H   H1791     1.0  0.70709  0.28777  0.64490  1.0000
  C   C2240     1.0  0.71000  0.27467  0.63910  1.0000
  H   H1792     1.0  0.67799  0.24801  0.80863  1.0000
  H   H1793     1.0  0.71963  0.22737  0.62095  1.0000
  C   C2241     1.0  0.70379  0.19178  0.75283  1.0000
  H   H1794     1.0  0.48840  0.01530  0.92597  1.0000
  C   C2242     1.0  0.62486  0.16023  0.73770  1.0000
  C   C2243     1.0  0.51952  0.08157  0.59271  1.0000
  P   P73       1.0  0.62110  0.16349  0.82318  1.0000
  C   C2244     1.0  0.70439  0.20159  0.66804  1.0000
  C   C2245     1.0  0.54603  0.12887  0.96131  1.0000
  C   C2246     1.0  0.54003  0.12274  0.48967  1.0000
  H   H1795     1.0  0.72340  0.23256  0.68324  1.0000
  H   H1796     1.0  0.64518  0.14672  0.54831  1.0000
  C   C2247     1.0  0.51432  0.09449  0.57411  1.0000
  C   C2248     1.0  0.68364  0.21649  0.89641  1.0000
  H   H1797     1.0  0.59718  0.11157  0.57448  1.0000
  C   C2249     1.0  0.50507  0.06952  0.69297  1.0000
  C   C2250     1.0  0.73016  0.25051  0.63640  1.0000
  H   H1798     1.0  0.72849  0.20618  0.48432  1.0000
  H   H1799     1.0  0.51205  0.27300  0.55967  1.0000
  C   C2251     1.0  0.67188  0.16531  0.84254  1.0000
  C   C2252     1.0  0.64172  0.15953  0.83915  1.0000
  C   C2253     1.0  0.67352  0.15379  0.86484  1.0000
  H   H1800     1.0  0.52698  0.30592  0.68519  1.0000
  C   C2254     1.0  0.65928  0.14531  0.87459  1.0000
  H   H1801     1.0  0.63243  0.14213  0.87076  1.0000
  C   C2255     1.0  0.59366  0.20940  0.86544  1.0000
  C   C2256     1.0  0.50504  0.05927  0.66930  1.0000
  C   C2257     1.0  0.53208  0.99916  0.94243  1.0000
  C   C2258     1.0  0.71574  0.26744  0.79865  1.0000
  S   S303      1.0  0.64274  0.17198  0.48370  1.0000
  C   C2259     1.0  0.72245  0.15306  0.58027  1.0000
  H   H1802     1.0  0.60704  0.20146  0.90249  1.0000
  P   P74       1.0  0.55135  0.09168  0.51308  1.0000
  C   C2260     1.0  0.53926  0.08835  0.54493  1.0000
  H   H1803     1.0  0.72604  0.17907  0.77049  1.0000
  C   C2261     1.0  0.69152  0.23893  0.86445  1.0000
  H   H1804     1.0  0.67017  0.14724  0.51619  1.0000
  H   H1805     1.0  0.49528  0.07947  0.69560  1.0000
  H   H1806     1.0  0.50971  0.12315  0.92459  1.0000
  P   P75       1.0  0.71262  0.23376  0.81758  1.0000
  C   C2262     1.0  0.54451  0.07550  0.56396  1.0000
  C   C2263     1.0  0.52413  0.09791  0.55032  1.0000
  H   H1807     1.0  0.53406  0.14233  0.92686  1.0000
  C   C2264     1.0  0.59148  0.14622  0.83675  1.0000
  H   H1808     1.0  0.58774  0.22052  0.87522  1.0000
  C   C2265     1.0  0.59870  0.19188  0.82473  1.0000
  H   H1809     1.0  0.70136  0.18167  0.73835  1.0000
  C   C2266     1.0  0.54835  0.04190  0.48897  1.0000
  H   H1810     1.0  0.58532  0.15855  0.84028  1.0000
  C   C2267     1.0  0.68267  0.23356  0.88820  1.0000
  H   H1811     1.0  0.69087  0.25230  0.85893  1.0000
  H   H1812     1.0  0.67134  0.17698  0.60709  1.0000
  H   H1813     1.0  0.65511  0.17726  0.81273  1.0000
  C   C2268     1.0  0.62422  0.16848  0.78653  1.0000
  H   H1814     1.0  0.55605  0.06787  0.56006  1.0000
  H   H1815     1.0  0.51958  0.10773  0.53594  1.0000
  C   C2269     1.0  0.60696  0.11390  0.82979  1.0000
  H   H1816     1.0  0.58213  0.21435  0.82543  1.0000
  H   H1817     1.0  0.68168  0.20723  0.60842  1.0000
  C   C2270     1.0  0.65606  0.16817  0.82972  1.0000
  C   C2271     1.0  0.69714  0.26475  0.62867  1.0000
  C   C2272     1.0  0.54527  0.05749  0.50226  1.0000
  C   C2273     1.0  0.57116  0.10184  0.52054  1.0000
  H   H1818     1.0  0.70436  0.20585  0.68949  1.0000
  C   C2274     1.0  0.67049  0.15358  0.53620  1.0000
  C   C2275     1.0  0.70935  0.28299  0.78791  1.0000
  C   C2276     1.0  0.50433  0.00231  0.97922  1.0000
  C   C2277     1.0  0.70974  0.21789  0.79095  1.0000
  C   C2278     1.0  0.53135  0.10425  0.97847  1.0000
  C   C2279     1.0  0.71928  0.18211  0.97155  1.0000
  C   C2280     1.0  0.60134  0.11871  0.53153  1.0000
  C   C2281     1.0  0.69296  0.20628  0.75356  1.0000
  C   C2282     1.0  0.69597  0.21929  0.77239  1.0000
  H   H1819     1.0  0.68205  0.20749  0.73980  1.0000
  H   H1820     1.0  0.54011  0.03139  0.49311  1.0000
  H   H1821     1.0  0.55670  0.13717  0.96154  1.0000
  C   C2283     1.0  0.62929  0.17668  0.72988  1.0000
  C   C2284     1.0  0.71498  0.21519  0.55966  1.0000
  C   C2285     1.0  0.50508  0.29949  0.56573  1.0000
  C   C2286     1.0  0.61616  0.12846  0.82399  1.0000
  C   C2287     1.0  0.69151  0.20217  0.62225  1.0000
  H   H1822     1.0  0.70949  0.20060  0.84522  1.0000
  C   C2288     1.0  0.61028  0.18137  0.83987  1.0000
  H   H1823     1.0  0.64596  0.16163  0.59379  1.0000
  H   H1824     1.0  0.51157  0.07863  0.61062  1.0000
  H   H1825     1.0  0.68430  0.27015  0.62633  1.0000
  H   H1826     1.0  0.72740  0.17635  0.62348  1.0000
  C   C2289     1.0  0.69330  0.20468  0.88082  1.0000
  H   H1827     1.0  0.50630  0.06596  0.49188  1.0000
  C   C2290     1.0  0.59915  0.06869  0.97000  1.0000
  C   C2291     1.0  0.69184  0.28573  0.78407  1.0000
  H   H1828     1.0  0.66702  0.27517  0.78889  1.0000
  C   C2292     1.0  0.49384  0.06507  0.50129  1.0000
  H   H1829     1.0  0.61292  0.12531  0.53568  1.0000
  H   H1830     1.0  0.72307  0.24029  0.54868  1.0000
  C   C2293     1.0  0.70194  0.20992  0.85680  1.0000
  H   H1831     1.0  0.50233  0.10146  0.57769  1.0000
  H   H1832     1.0  0.67694  0.21239  0.91493  1.0000
  H   H1833     1.0  0.69418  0.19149  0.88766  1.0000
  H   H1834     1.0  0.66035  0.13684  0.89257  1.0000
  H   H1835     1.0  0.73220  0.25063  0.74461  1.0000
  H   H1836     1.0  0.68175  0.21646  0.65749  1.0000
  C   C2294     1.0  0.51774  0.98945  0.93848  1.0000
  H   H1837     1.0  0.57068  0.09696  0.56523  1.0000
  C   C2295     1.0  0.70458  0.25449  0.80579  1.0000
  C   C2296     1.0  0.68693  0.25764  0.80285  1.0000
  H   H1838     1.0  0.67491  0.24259  0.90020  1.0000
  C   C2297     1.0  0.65646  0.15330  0.55430  1.0000
  H   H1839     1.0  0.69973  0.24583  0.51473  1.0000
  H   H1840     1.0  0.72748  0.18616  0.67210  1.0000
  H   H1841     1.0  0.50796  0.09879  0.95767  1.0000
  C   C2298     1.0  0.72644  0.26763  0.64298  1.0000
  H   H1842     1.0  0.56856  0.31133  0.69176  1.0000
  C   C2299     1.0  0.71718  0.18488  0.63056  1.0000
  C   C2300     1.0  0.54527  0.11493  0.97974  1.0000
  S   S304      1.0  0.49768  0.07652  0.82429  1.0000
  H   H1843     1.0  0.68700  0.29751  0.77459  1.0000
  S   S305      1.0  0.49585  0.04884  0.95555  1.0000
  C   C2301     1.0  0.71732  0.19045  0.65825  1.0000
  H   H1844     1.0  0.72499  0.21303  0.57484  1.0000
  C   C2302     1.0  0.70307  0.20266  0.55512  1.0000
  C   C2303     1.0  0.72746  0.29618  0.71433  1.0000
  C   C2304     1.0  0.51942  0.12108  0.94034  1.0000
  H   H1845     1.0  0.57184  0.98393  0.84847  1.0000
  C   C2305     1.0  0.49165  0.31159  0.56927  1.0000
  C   C2306     1.0  0.53877  0.10496  0.48947  1.0000
  H   H1846     1.0  0.60801  0.05918  0.96141  1.0000
  C   C2307     1.0  0.58260  0.07040  0.95956  1.0000
  H   H1847     1.0  0.59663  0.29882  0.77001  1.0000
  C   C2308     1.0  0.57050  0.30462  0.78206  1.0000
  H   H1848     1.0  0.50307  0.06650  0.54350  1.0000
  H   H1849     1.0  0.48490  0.99416  0.73422  1.0000
  C   C2309     1.0  0.51848  0.10732  0.95888  1.0000
  H   H1850     1.0  0.73122  0.20175  0.80424  1.0000
  H   H1851     1.0  0.72940  0.26555  0.80056  1.0000
  H   H1852     1.0  0.60200  0.12421  0.48738  1.0000
  C   C2310     1.0  0.48477  0.27716  0.56189  1.0000
  C   C2311     1.0  0.72785  0.19260  0.48144  1.0000
  S   S306      1.0  0.50000  0.41300  0.15079  1.0000
  Fe  Fe153     1.0  0.52273  0.53479  0.07772  1.0000
  S   S307      1.0  0.49778  0.54847  0.08832  1.0000
  S   S308      1.0  0.52068  0.50587  0.07249  1.0000
  Fe  Fe154     1.0  0.54114  0.56920  0.06797  1.0000
  S   S309      1.0  0.51714  0.58442  0.07835  1.0000
  S   S310      1.0  0.56693  0.58046  0.05415  1.0000
  Fe  Fe155     1.0  0.51355  0.56565  0.11380  1.0000
  C   C2312     1.0  0.48491  0.43238  0.29956  1.0000
  Fe  Fe156     1.0  0.50347  0.56568  0.05188  1.0000
  C   C2313     1.0  0.61464  0.31607  0.08420  1.0000
  S   S311      1.0  0.53847  0.55128  0.10517  1.0000
  S   S312      1.0  0.52751  0.55123  0.03958  1.0000
  Fe  Fe157     1.0  0.52838  0.41407  0.14824  1.0000
  H   H1853     1.0  0.53133  0.54614  0.17415  1.0000
  S   S313      1.0  0.54037  0.44021  0.14732  1.0000
  Fe  Fe158     1.0  0.53378  0.37509  0.15507  1.0000
  S   S314      1.0  0.50516  0.37193  0.15766  1.0000
  S   S315      1.0  0.55062  0.34996  0.15474  1.0000
  Fe  Fe159     1.0  0.50280  0.39072  0.12185  1.0000
  H   H1854     1.0  0.58652  0.60101  0.44875  1.0000
  Fe  Fe160     1.0  0.50419  0.39446  0.18644  1.0000
  C   C2314     1.0  0.50517  0.49977  0.45783  1.0000
  S   S316      1.0  0.53132  0.39266  0.11707  1.0000
  S   S317      1.0  0.53277  0.39679  0.18597  1.0000
  C   C2315     1.0  0.49168  0.40021  0.00868  1.0000
  H   H1855     1.0  0.62753  0.33980  0.08225  1.0000
  H   H1856     1.0  0.55894  0.58183  0.41793  1.0000
  H   H1857     1.0  0.55190  0.59841  0.99877  1.0000
  H   H1858     1.0  0.48471  0.48488  0.06200  1.0000
  H   H1859     1.0  0.50910  0.38804  0.26344  1.0000
  C   C2316     1.0  0.52558  0.48804  0.09469  1.0000
  C   C2317     1.0  0.51949  0.47202  0.08759  1.0000
  C   C2318     1.0  0.52351  0.45737  0.10384  1.0000
  C   C2319     1.0  0.53400  0.45847  0.12718  1.0000
  C   C2320     1.0  0.53999  0.47449  0.13445  1.0000
  C   C2321     1.0  0.53576  0.48920  0.11841  1.0000
  H   H1860     1.0  0.51184  0.47083  0.06914  1.0000
  H   H1861     1.0  0.51894  0.44513  0.09785  1.0000
  H   H1862     1.0  0.54817  0.47550  0.15240  1.0000
  H   H1863     1.0  0.54076  0.50134  0.12399  1.0000
  H   H1864     1.0  0.55748  0.45678  0.21641  1.0000
  H   H1865     1.0  0.48675  0.41503  0.42517  1.0000
  H   H1866     1.0  0.51433  0.60661  0.99817  1.0000
  C   C2322     1.0  0.57301  0.32247  0.16549  1.0000
  H   H1867     1.0  0.61420  0.62910  0.99192  1.0000
  C   C2323     1.0  0.49500  0.38725  0.30257  1.0000
  H   H1868     1.0  0.49041  0.50081  0.35502  1.0000
  C   C2324     1.0  0.59420  0.63211  0.04486  1.0000
  C   C2325     1.0  0.60323  0.61643  0.04290  1.0000
  C   C2326     1.0  0.59471  0.60093  0.04612  1.0000
  C   C2327     1.0  0.57705  0.60067  0.05185  1.0000
  C   C2328     1.0  0.56805  0.61634  0.05425  1.0000
  C   C2329     1.0  0.57653  0.63186  0.05063  1.0000
  H   H1869     1.0  0.61681  0.61620  0.03896  1.0000
  H   H1870     1.0  0.60190  0.58899  0.04425  1.0000
  H   H1871     1.0  0.55450  0.61651  0.05857  1.0000
  H   H1872     1.0  0.52901  0.43588  0.46751  1.0000
  C   C2330     1.0  0.59458  0.33975  0.20020  1.0000
  C   C2331     1.0  0.58003  0.34835  0.18858  1.0000
  C   C2332     1.0  0.56909  0.33980  0.17095  1.0000
  H   H1873     1.0  0.49720  0.54661  0.99123  1.0000
  H   H1874     1.0  0.51800  0.61896  0.43273  1.0000
  H   H1875     1.0  0.57733  0.36162  0.19318  1.0000
  C   C2333     1.0  0.51536  0.43496  0.46541  1.0000
  H   H1876     1.0  0.49671  0.47424  0.45897  1.0000
  C   C2334     1.0  0.49521  0.56208  0.45549  1.0000
  H   H1877     1.0  0.54343  0.57126  0.37738  1.0000
  C   C2335     1.0  0.53753  0.43882  0.21999  1.0000
  C   C2336     1.0  0.48975  0.57365  0.20813  1.0000
  H   H1878     1.0  0.49472  0.46468  0.26008  1.0000
  C   C2337     1.0  0.64855  0.31630  0.36211  1.0000
  H   H1879     1.0  0.72582  0.64795  0.45524  1.0000
  C   C2338     1.0  0.58195  0.59123  0.46271  1.0000
  C   C2339     1.0  0.49418  0.56252  0.42607  1.0000
  C   C2340     1.0  0.63007  0.34162  0.36499  1.0000
  H   H1880     1.0  0.57953  0.31834  0.10718  1.0000
  C   C2341     1.0  0.51222  0.47309  0.00834  1.0000
  C   C2342     1.0  0.53800  0.58173  0.38947  1.0000
  C   C2343     1.0  0.50911  0.42465  0.44445  1.0000
  H   H1881     1.0  0.49851  0.50293  0.43863  1.0000
  H   H1882     1.0  0.50364  0.46511  0.15720  1.0000
  C   C2344     1.0  0.56040  0.60615  0.98652  1.0000
  C   C2345     1.0  0.51445  0.51214  0.47114  1.0000
  H   H1883     1.0  0.53780  0.48167  0.21042  1.0000
  H   H1884     1.0  0.51503  0.58393  0.36496  1.0000
  H   H1885     1.0  0.50577  0.56260  0.41372  1.0000
  H   H1886     1.0  0.62845  0.35532  0.36670  1.0000
  C   C2346     1.0  0.63266  0.32628  0.12074  1.0000
  C   C2347     1.0  0.49978  0.46140  0.00175  1.0000
  H   H1887     1.0  0.60284  0.34661  0.21375  1.0000
  H   H1888     1.0  0.54627  0.42790  0.22205  1.0000
  C   C2348     1.0  0.52630  0.52908  0.20857  1.0000
  H   H1889     1.0  0.51800  0.52796  0.13903  1.0000
  C   C2349     1.0  0.61580  0.33161  0.36278  1.0000
  C   C2350     1.0  0.52933  0.46960  0.00151  1.0000
  H   H1890     1.0  0.51927  0.51014  0.23866  1.0000
  H   H1891     1.0  0.50749  0.56190  0.46559  1.0000
  H   H1892     1.0  0.53209  0.53707  0.22386  1.0000
  H   H1893     1.0  0.53888  0.47852  0.00733  1.0000
  H   H1894     1.0  0.50523  0.50132  0.15301  1.0000
  C   C2351     1.0  0.49156  0.42326  0.44115  1.0000
  H   H1895     1.0  0.60312  0.33756  0.36274  1.0000
  H   H1896     1.0  0.50602  0.39770  0.04713  1.0000
  C   C2352     1.0  0.48705  0.44190  0.05545  1.0000
  C   C2353     1.0  0.50417  0.48345  0.46957  1.0000
  H   H1897     1.0  0.49719  0.42735  0.29223  1.0000
  C   C2354     1.0  0.59861  0.32248  0.19445  1.0000
  C   C2355     1.0  0.51899  0.51385  0.21684  1.0000
  C   C2356     1.0  0.51997  0.43653  0.21925  1.0000
  C   C2357     1.0  0.62528  0.32842  0.09444  1.0000
  H   H1898     1.0  0.51486  0.52489  0.46238  1.0000
  C   C2358     1.0  0.55798  0.63756  0.42959  1.0000
  C   C2359     1.0  0.51099  0.50885  0.16891  1.0000
  H   H1899     1.0  0.49526  0.44839  0.21412  1.0000
  C   C2360     1.0  0.53261  0.46921  0.21325  1.0000
  C   C2361     1.0  0.51106  0.50372  0.19710  1.0000
  C   C2362     1.0  0.51833  0.52404  0.16076  1.0000
  H   H1900     1.0  0.50611  0.38371  0.31483  1.0000
  C   C2363     1.0  0.53959  0.60115  0.42853  1.0000
  C   C2364     1.0  0.52207  0.58895  0.38230  1.0000
  C   C2365     1.0  0.59335  0.57825  0.47168  1.0000
  H   H1901     1.0  0.55425  0.33502  0.09160  1.0000
  H   H1902     1.0  0.60870  0.31808  0.06403  1.0000
  C   C2366     1.0  0.53414  0.45450  0.98789  1.0000
  C   C2367     1.0  0.54924  0.31851  0.05702  1.0000
  H   H1903     1.0  0.58100  0.58740  0.98809  1.0000
  H   H1904     1.0  0.49965  0.44087  0.04617  1.0000
  C   C2368     1.0  0.50876  0.45050  0.21517  1.0000
  H   H1905     1.0  0.60657  0.57826  0.46495  1.0000
  C   C2369     1.0  0.56489  0.59158  0.47187  1.0000
  P   P76       1.0  0.55001  0.60809  0.45979  1.0000
  H   H1906     1.0  0.49369  0.42359  0.08766  1.0000
  H   H1907     1.0  0.49779  0.58389  0.21399  1.0000
  C   C2370     1.0  0.51499  0.60241  0.39787  1.0000
  H   H1908     1.0  0.64057  0.33600  0.12907  1.0000
  H   H1909     1.0  0.49077  0.42810  0.34295  1.0000
  C   C2371     1.0  0.48641  0.44253  0.47978  1.0000
  C   C2372     1.0  0.51496  0.46699  0.21255  1.0000
  C   C2373     1.0  0.49362  0.39702  0.03758  1.0000
  H   H1910     1.0  0.50251  0.60779  0.39248  1.0000
  H   H1911     1.0  0.64412  0.62301  0.00512  1.0000
  C   C2374     1.0  0.48511  0.47989  0.18155  1.0000
  C   C2375     1.0  0.49673  0.38967  0.27340  1.0000
  C   C2376     1.0  0.54384  0.45514  0.21688  1.0000
  H   H1912     1.0  0.65749  0.34174  0.36616  1.0000
  C   C2377     1.0  0.54675  0.58778  0.41251  1.0000
  C   C2378     1.0  0.64643  0.33396  0.36469  1.0000
  C   C2379     1.0  0.52377  0.60862  0.42072  1.0000
  C   C2380     1.0  0.58325  0.64682  0.46687  1.0000
  H   H1913     1.0  0.52569  0.57697  0.99694  1.0000
  S   S318      1.0  0.50665  0.57506  0.15767  1.0000
  P   P77       1.0  0.50015  0.48493  0.20824  1.0000
  H   H1914     1.0  0.49538  0.43684  0.98340  1.0000
  C   C2381     1.0  0.49065  0.47024  0.15844  1.0000
  H   H1915     1.0  0.54835  0.63418  0.41482  1.0000
  C   C2382     1.0  0.52590  0.53421  0.18055  1.0000
  H   H1916     1.0  0.51505  0.42385  0.22121  1.0000
  H   H1917     1.0  0.51788  0.41762  0.43084  1.0000
  C   C2383     1.0  0.48897  0.47725  0.26267  1.0000
  H   H1918     1.0  0.50895  0.48475  0.01933  1.0000
  C   C2384     1.0  0.56138  0.62739  0.45333  1.0000
  C   C2385     1.0  0.57407  0.63219  0.47193  1.0000
  H   H1919     1.0  0.51743  0.59224  0.47227  1.0000
  H   H1920     1.0  0.50270  0.40335  0.99623  1.0000
  H   H1921     1.0  0.50240  0.34521  0.47135  1.0000
  H   H1922     1.0  0.56933  0.64379  0.05237  1.0000
  C   C2386     1.0  0.50471  0.44625  0.98806  1.0000
  H   H1923     1.0  0.54745  0.45173  0.98300  1.0000
  C   C2387     1.0  0.49159  0.56651  0.18139  1.0000
  C   C2388     1.0  0.48950  0.48953  0.24115  1.0000
  C   C2389     1.0  0.55834  0.32366  0.08023  1.0000
  H   H1924     1.0  0.54238  0.62728  0.98257  1.0000
  H   H1925     1.0  0.53812  0.32595  0.05021  1.0000
  C   C2390     1.0  0.64106  0.62655  0.98375  1.0000
  H   H1926     1.0  0.48428  0.46064  0.11814  1.0000
  H   H1927     1.0  0.55606  0.36398  0.71395  1.0000
  Fe  Fe161     1.0  0.52639  0.53847  0.57519  1.0000
  S   S319      1.0  0.49803  0.54148  0.57451  1.0000
  S   S320      1.0  0.53805  0.51153  0.57191  1.0000
  Fe  Fe162     1.0  0.53147  0.57708  0.57369  1.0000
  S   S321      1.0  0.50287  0.58231  0.57361  1.0000
  S   S322      1.0  0.54779  0.60119  0.57498  1.0000
  Fe  Fe163     1.0  0.50101  0.56185  0.60652  1.0000
  C   C2391     1.0  0.62300  0.50888  0.70897  1.0000
  Fe  Fe164     1.0  0.50159  0.56160  0.54168  1.0000
  C   C2392     1.0  0.60592  0.55191  0.60059  1.0000
  S   S323      1.0  0.52958  0.55778  0.60929  1.0000
  S   S324      1.0  0.53012  0.55730  0.53971  1.0000
  Fe  Fe165     1.0  0.52558  0.42228  0.64818  1.0000
  S   S325      1.0  0.50054  0.41228  0.63497  1.0000
  S   S326      1.0  0.52507  0.45073  0.65767  1.0000
  Fe  Fe166     1.0  0.54271  0.38565  0.65141  1.0000
  S   S327      1.0  0.51835  0.37381  0.63816  1.0000
  S   S328      1.0  0.56894  0.37143  0.65739  1.0000
  Fe  Fe167     1.0  0.51581  0.39519  0.60642  1.0000
  S   S329      1.0  0.51174  0.39261  0.55947  1.0000
  Fe  Fe168     1.0  0.50527  0.39228  0.66833  1.0000
  C   C2393     1.0  0.51932  0.60207  0.48750  1.0000
  S   S330      1.0  0.54092  0.40621  0.61785  1.0000
  S   S331      1.0  0.52957  0.40308  0.68314  1.0000
  C   C2394     1.0  0.65019  0.63392  0.93694  1.0000
  C   C2395     1.0  0.53051  0.53054  0.69042  1.0000
  H   H1928     1.0  0.50635  0.39070  0.50053  1.0000
  C   C2396     1.0  0.57861  0.49437  0.59638  1.0000
  C   C2397     1.0  0.49245  0.44059  0.85673  1.0000
  H   H1929     1.0  0.50816  0.39252  0.74042  1.0000
  C   C2398     1.0  0.53267  0.49452  0.59470  1.0000
  C   C2399     1.0  0.53736  0.47768  0.58744  1.0000
  C   C2400     1.0  0.53447  0.46401  0.60595  1.0000
  C   C2401     1.0  0.52694  0.46706  0.63207  1.0000
  C   C2402     1.0  0.52156  0.48379  0.63881  1.0000
  C   C2403     1.0  0.52439  0.49745  0.62024  1.0000
  H   H1930     1.0  0.54355  0.47518  0.56758  1.0000
  H   H1931     1.0  0.53855  0.45119  0.60035  1.0000
  H   H1932     1.0  0.51538  0.48619  0.65869  1.0000
  H   H1933     1.0  0.52068  0.51032  0.62608  1.0000
  H   H1934     1.0  0.49569  0.59717  0.50876  1.0000
  H   H1935     1.0  0.50607  0.32590  0.66220  1.0000
  C   C2404     1.0  0.60859  0.51928  0.71466  1.0000
  C   C2405     1.0  0.49944  0.48659  0.82351  1.0000
  H   H1936     1.0  0.50590  0.39974  0.87154  1.0000
  C   C2406     1.0  0.52446  0.62970  0.90238  1.0000
  C   C2407     1.0  0.57315  0.53912  0.60158  1.0000
  C   C2408     1.0  0.59630  0.62715  0.54038  1.0000
  C   C2409     1.0  0.58331  0.63654  0.55420  1.0000
  C   C2410     1.0  0.56859  0.62843  0.56427  1.0000
  C   C2411     1.0  0.56637  0.61087  0.56040  1.0000
  C   C2412     1.0  0.57912  0.60161  0.54587  1.0000
  C   C2413     1.0  0.59401  0.60962  0.53629  1.0000
  C   C2414     1.0  0.49295  0.56010  0.72089  1.0000
  H   H1937     1.0  0.55880  0.63587  0.57509  1.0000
  H   H1938     1.0  0.57762  0.58823  0.54234  1.0000
  C   C2415     1.0  0.52973  0.44313  0.78142  1.0000
  H   H1939     1.0  0.50225  0.62018  0.95559  1.0000
  C   C2416     1.0  0.56838  0.33736  0.67644  1.0000
  C   C2417     1.0  0.57818  0.35092  0.66735  1.0000
  C   C2418     1.0  0.59606  0.34827  0.66639  1.0000
  H   H1940     1.0  0.61775  0.33082  0.67342  1.0000
  H   H1941     1.0  0.55467  0.33908  0.67738  1.0000
  H   H1942     1.0  0.60389  0.35856  0.65947  1.0000
  H   H1943     1.0  0.52070  0.35810  0.55145  1.0000
  H   H1944     1.0  0.57837  0.50587  0.58381  1.0000
  C   C2419     1.0  0.56651  0.63273  0.96318  1.0000
  C   C2420     1.0  0.52348  0.43661  0.75660  1.0000
  C   C2421     1.0  0.54278  0.35450  0.57710  1.0000
  P   P78       1.0  0.48629  0.45382  0.82695  1.0000
  H   H1945     1.0  0.53423  0.50600  0.77098  1.0000
  C   C2422     1.0  0.50650  0.48308  0.73354  1.0000
  C   C2423     1.0  0.62409  0.62988  0.97618  1.0000
  P   P79       1.0  0.49571  0.33390  0.57249  1.0000
  C   C2424     1.0  0.57688  0.55277  0.58388  1.0000
  H   H1946     1.0  0.48872  0.55944  0.83674  1.0000
  H   H1947     1.0  0.60753  0.52594  0.73435  1.0000
  H   H1948     1.0  0.61217  0.53309  0.63180  1.0000
  C   C2425     1.0  0.59555  0.52113  0.69497  1.0000
  H   H1949     1.0  0.50917  0.56882  0.80064  1.0000
  H   H1950     1.0  0.61289  0.49571  0.64399  1.0000
  C   C2426     1.0  0.49319  0.49538  0.73055  1.0000
  C   C2427     1.0  0.50745  0.57608  0.81966  1.0000
  H   H1951     1.0  0.61860  0.55691  0.60018  1.0000
  P   P80       1.0  0.59812  0.64021  0.93991  1.0000
  C   C2428     1.0  0.60219  0.53836  0.61851  1.0000
  C   C2429     1.0  0.61146  0.50223  0.66376  1.0000
  C   C2430     1.0  0.54108  0.54301  0.67985  1.0000
  H   H1952     1.0  0.56286  0.34867  0.60658  1.0000
  H   H1953     1.0  0.52664  0.50372  0.69446  1.0000
  P   P81       1.0  0.58034  0.51513  0.64350  1.0000
  H   H1954     1.0  0.52936  0.48877  0.52629  1.0000
  C   C2431     1.0  0.57435  0.33540  0.75339  1.0000
  C   C2432     1.0  0.49286  0.39493  0.53939  1.0000
  C   C2433     1.0  0.48524  0.51824  0.64180  1.0000
  C   C2434     1.0  0.57067  0.56531  0.49787  1.0000
  H   H1955     1.0  0.48632  0.52581  0.51002  1.0000
  H   H1956     1.0  0.51064  0.52786  0.76585  1.0000
  P   P82       1.0  0.54011  0.34609  0.76045  1.0000
  C   C2435     1.0  0.52946  0.33962  0.72917  1.0000
  C   C2436     1.0  0.52583  0.34533  0.79023  1.0000
  C   C2437     1.0  0.50812  0.34759  0.78681  1.0000
  H   H1957     1.0  0.56230  0.64541  0.95670  1.0000
  C   C2438     1.0  0.57836  0.62519  0.64603  1.0000
  H   H1958     1.0  0.51850  0.31867  0.61451  1.0000
  C   C2439     1.0  0.53248  0.34385  0.81735  1.0000
  H   H1959     1.0  0.51148  0.57307  0.91120  1.0000
  H   H1960     1.0  0.57754  0.45146  0.58798  1.0000
  C   C2440     1.0  0.52299  0.50810  0.49596  1.0000
  C   C2441     1.0  0.50926  0.34582  0.69193  1.0000
  C   C2442     1.0  0.51787  0.35090  0.71569  1.0000
  C   C2443     1.0  0.54652  0.36783  0.75600  1.0000
  C   C2444     1.0  0.54393  0.37984  0.77734  1.0000
  C   C2445     1.0  0.54936  0.39648  0.77377  1.0000
  C   C2446     1.0  0.55759  0.40120  0.74904  1.0000
  C   C2447     1.0  0.56007  0.38937  0.72769  1.0000
  C   C2448     1.0  0.55427  0.37288  0.73092  1.0000
  H   H1961     1.0  0.57795  0.47830  0.56027  1.0000
  H   H1962     1.0  0.66168  0.64279  0.59905  1.0000
  H   H1963     1.0  0.50956  0.51175  0.82168  1.0000
  C   C2449     1.0  0.58773  0.56531  0.48931  1.0000
  C   C2450     1.0  0.57820  0.46357  0.59842  1.0000
  H   H1964     1.0  0.50257  0.34929  0.76635  1.0000
  C   C2451     1.0  0.55928  0.57838  0.48918  1.0000
  C   C2452     1.0  0.59818  0.62057  0.86118  1.0000
  H   H1965     1.0  0.52416  0.56023  0.95355  1.0000
  H   H1966     1.0  0.50581  0.56398  0.68122  1.0000
  H   H1967     1.0  0.50436  0.56150  0.73307  1.0000
  C   C2453     1.0  0.49410  0.34655  0.48944  1.0000
  C   C2454     1.0  0.57952  0.64579  0.86057  1.0000
  H   H1968     1.0  0.49895  0.41844  0.83158  1.0000
  H   H1969     1.0  0.51535  0.36359  0.72367  1.0000
  H   H1970     1.0  0.53772  0.37652  0.79677  1.0000
  H   H1971     1.0  0.54728  0.40565  0.79029  1.0000
  H   H1972     1.0  0.56201  0.41399  0.74633  1.0000
  H   H1973     1.0  0.56639  0.39296  0.70838  1.0000
  P   P83       1.0  0.51216  0.45796  0.50937  1.0000
  H   H1974     1.0  0.60379  0.60217  0.52541  1.0000
  H   H1975     1.0  0.54751  0.32544  0.62971  1.0000
  H   H1976     1.0  0.50581  0.39235  0.79220  1.0000
  H   H1977     1.0  0.52680  0.34375  0.86149  1.0000
  H   H1978     1.0  0.63044  0.64185  0.90841  1.0000
  H   H1979     1.0  0.58461  0.62988  0.82484  1.0000
  H   H1980     1.0  0.55266  0.49521  0.66879  1.0000
  H   H1981     1.0  0.58457  0.52934  0.69973  1.0000
  H   H1982     1.0  0.63309  0.50745  0.72426  1.0000
  C   C2455     1.0  0.61998  0.63484  0.94876  1.0000
  C   C2456     1.0  0.50609  0.59776  0.92998  1.0000
  C   C2457     1.0  0.56048  0.52103  0.66105  1.0000
  C   C2458     1.0  0.53490  0.51337  0.68649  1.0000
  C   C2459     1.0  0.50077  0.41909  0.90232  1.0000
  C   C2460     1.0  0.49405  0.39339  0.51020  1.0000
  C   C2461     1.0  0.53326  0.45017  0.51915  1.0000
  H   H1983     1.0  0.63568  0.49241  0.67903  1.0000
  H   H1984     1.0  0.56043  0.53423  0.60171  1.0000
  H   H1985     1.0  0.51889  0.53417  0.70154  1.0000
  C   C2462     1.0  0.57884  0.47975  0.64114  1.0000
  C   C2463     1.0  0.57881  0.49504  0.62568  1.0000
  H   H1986     1.0  0.56411  0.54821  0.65764  1.0000
  C   C2464     1.0  0.62446  0.50040  0.68351  1.0000
  C   C2465     1.0  0.58572  0.53194  0.61928  1.0000
  H   H1987     1.0  0.53762  0.55636  0.68271  1.0000
  H   H1988     1.0  0.57614  0.34687  0.74134  1.0000
  C   C2466     1.0  0.51230  0.58077  0.92968  1.0000
  C   C2467     1.0  0.57832  0.46411  0.62755  1.0000
  C   C2468     1.0  0.51960  0.57341  0.95366  1.0000
  H   H1989     1.0  0.56701  0.55853  0.57075  1.0000
  C   C2469     1.0  0.55604  0.53831  0.66538  1.0000
  H   H1990     1.0  0.57694  0.62456  0.49033  1.0000
  C   C2470     1.0  0.49943  0.47136  0.55956  1.0000
  C   C2471     1.0  0.52425  0.31841  0.69387  1.0000
  H   H1991     1.0  0.53218  0.43219  0.74027  1.0000
  C   C2472     1.0  0.51279  0.47925  0.49451  1.0000
  H   H1992     1.0  0.50119  0.42985  0.73410  1.0000
  H   H1993     1.0  0.55276  0.41963  0.56010  1.0000
  H   H1994     1.0  0.49980  0.61889  0.54513  1.0000
  H   H1995     1.0  0.60718  0.64737  0.59760  1.0000
  C   C2473     1.0  0.63432  0.64363  0.59654  1.0000
  C   C2474     1.0  0.55580  0.64552  0.63331  1.0000
  C   C2475     1.0  0.52124  0.48692  0.74811  1.0000
  H   H1996     1.0  0.49697  0.34014  0.93139  1.0000
  H   H1997     1.0  0.54335  0.44371  0.78449  1.0000
  C   C2476     1.0  0.52159  0.34462  0.84062  1.0000
  H   H1998     1.0  0.52340  0.45316  0.82197  1.0000
  C   C2477     1.0  0.50401  0.34695  0.83700  1.0000
  C   C2478     1.0  0.58803  0.32355  0.75524  1.0000
  H   H1999     1.0  0.66041  0.63601  0.92211  1.0000
  C   C2479     1.0  0.50071  0.44786  0.79870  1.0000
  C   C2480     1.0  0.59434  0.63742  0.90320  1.0000
  C   C2481     1.0  0.52280  0.50304  0.75973  1.0000
  H   H2000     1.0  0.55284  0.61840  0.63548  1.0000
  C   C2482     1.0  0.48910  0.34288  0.53928  1.0000
  C   C2483     1.0  0.49457  0.44112  0.77380  1.0000
  C   C2484     1.0  0.53520  0.43661  0.53834  1.0000
  C   C2485     1.0  0.50721  0.62826  0.89543  1.0000
  C   C2486     1.0  0.59680  0.51243  0.66950  1.0000
  H   H2001     1.0  0.57923  0.47987  0.66373  1.0000
  H   H2002     1.0  0.50566  0.47056  0.72459  1.0000
  C   C2487     1.0  0.50210  0.59524  0.86838  1.0000
  H   H2003     1.0  0.52422  0.43075  0.54765  1.0000
  C   C2488     1.0  0.49489  0.51155  0.74224  1.0000
  H   H2004     1.0  0.54545  0.64643  0.90564  1.0000
  C   C2489     1.0  0.54786  0.45696  0.50680  1.0000
  H   H2005     1.0  0.53148  0.47738  0.75021  1.0000
  C   C2490     1.0  0.49450  0.39096  0.77977  1.0000
  H   H2006     1.0  0.54935  0.36492  0.56738  1.0000
  C   C2491     1.0  0.51840  0.44858  0.80250  1.0000
  C   C2492     1.0  0.60401  0.33247  0.67429  1.0000
  C   C2493     1.0  0.57845  0.47869  0.58285  1.0000
  H   H2007     1.0  0.52095  0.61181  0.85065  1.0000
  H   H2008     1.0  0.59613  0.56983  0.56988  1.0000
  C   C2494     1.0  0.51254  0.32965  0.68087  1.0000
  C   C2495     1.0  0.53220  0.64539  0.89999  1.0000
  C   C2496     1.0  0.49589  0.39096  0.75036  1.0000
  H   H2009     1.0  0.57784  0.45240  0.63962  1.0000
  C   C2497     1.0  0.55145  0.43020  0.54545  1.0000
  C   C2498     1.0  0.59325  0.55918  0.58342  1.0000
  S   S332      1.0  0.61560  0.63644  0.52785  1.0000
  C   C2499     1.0  0.58334  0.62681  0.95800  1.0000
  C   C2500     1.0  0.49314  0.58038  0.86412  1.0000
  H   H2010     1.0  0.57847  0.43206  0.53879  1.0000
  C   C2501     1.0  0.55676  0.31642  0.78021  1.0000
  H   H2011     1.0  0.49310  0.52883  0.63635  1.0000
  C   C2502     1.0  0.56590  0.43717  0.53339  1.0000
  C   C2503     1.0  0.56147  0.62872  0.63825  1.0000
  C   C2504     1.0  0.63319  0.63714  0.92926  1.0000
  C   C2505     1.0  0.52649  0.35056  0.56807  1.0000
  C   C2506     1.0  0.54978  0.50860  0.67185  1.0000
  C   C2507     1.0  0.58721  0.63191  0.84673  1.0000
  C   C2508     1.0  0.50960  0.51534  0.75681  1.0000
  C   C2509     1.0  0.50013  0.50372  0.83105  1.0000
  H   H2012     1.0  0.51220  0.33465  0.51752  1.0000
  C   C2510     1.0  0.50594  0.43547  0.75294  1.0000
  C   C2511     1.0  0.49787  0.64268  0.88579  1.0000
  H   H2013     1.0  0.60993  0.61420  0.90047  1.0000
  C   C2512     1.0  0.51653  0.59082  0.82376  1.0000
  C   C2513     1.0  0.49386  0.56141  0.69152  1.0000
  C   C2514     1.0  0.51392  0.60037  0.84806  1.0000
  C   C2515     1.0  0.49918  0.45776  0.54080  1.0000
  H   H2014     1.0  0.50334  0.41064  0.91994  1.0000
  C   C2516     1.0  0.50922  0.61706  0.52867  1.0000
  H   H2015     1.0  0.50628  0.48267  0.55472  1.0000
  C   C2517     1.0  0.52233  0.49171  0.50740  1.0000
  H   H2016     1.0  0.48914  0.52382  0.85670  1.0000
  C   C2518     1.0  0.53627  0.62397  0.50752  1.0000
  H   H2017     1.0  0.54764  0.63127  0.50819  1.0000
  C   C2519     1.0  0.49817  0.42366  0.85243  1.0000
  C   C2520     1.0  0.49588  0.57080  0.83996  1.0000
  H   H2018     1.0  0.53194  0.61871  0.90974  1.0000
  C   C2521     1.0  0.49730  0.34833  0.81012  1.0000
  C   C2522     1.0  0.60161  0.62322  0.88939  1.0000
  H   H2019     1.0  0.49397  0.44055  0.92805  1.0000
  H   H2020     1.0  0.60108  0.60511  0.96194  1.0000
  C   C2523     1.0  0.49135  0.44672  0.88423  1.0000
  C   C2524     1.0  0.49541  0.43597  0.90686  1.0000
  C   C2525     1.0  0.55035  0.34540  0.59924  1.0000
  C   C2526     1.0  0.50224  0.41297  0.87510  1.0000
  H   H2021     1.0  0.53012  0.51768  0.50650  1.0000
  H   H2022     1.0  0.50838  0.48168  0.80809  1.0000
  C   C2527     1.0  0.52390  0.62658  0.52836  1.0000
  C   C2528     1.0  0.50405  0.44393  0.48331  1.0000
  C   C2529     1.0  0.52526  0.32850  0.60359  1.0000
  H   H2023     1.0  0.60280  0.63545  0.65404  1.0000
  C   C2530     1.0  0.57633  0.32158  0.68453  1.0000
  C   C2531     1.0  0.50706  0.60712  0.95476  1.0000
  C   C2532     1.0  0.51761  0.33751  0.58122  1.0000
  H   H2024     1.0  0.52547  0.59491  0.80794  1.0000
  C   C2533     1.0  0.49143  0.47024  0.58565  1.0000
  H   H2025     1.0  0.63402  0.63411  0.58032  1.0000
  H   H2026     1.0  0.60400  0.60970  0.85056  1.0000
  H   H2027     1.0  0.48986  0.46276  0.68007  1.0000
  H   H2028     1.0  0.66731  0.62649  0.97027  1.0000
  C   C2534     1.0  0.57691  0.59995  0.98056  1.0000
  H   H2029     1.0  0.58276  0.61213  0.64954  1.0000
  C   C2535     1.0  0.54163  0.33234  0.61237  1.0000
  H   H2030     1.0  0.54612  0.34256  0.82056  1.0000
  H   H2031     1.0  0.49104  0.43192  0.53542  1.0000
  C   C2536     1.0  0.58831  0.61016  0.96614  1.0000
  H   H2032     1.0  0.70075  0.64440  0.60702  1.0000
  H   H2033     1.0  0.52555  0.43102  0.97094  1.0000
  C   C2537     1.0  0.53402  0.61179  0.48673  1.0000
  H   H2034     1.0  0.59657  0.55528  0.49626  1.0000
  C   C2538     1.0  0.65411  0.62855  0.96413  1.0000
  C   C2539     1.0  0.55859  0.33200  0.76601  1.0000
  H   H2035     1.0  0.50010  0.35452  0.68201  1.0000
  C   C2540     1.0  0.58968  0.63843  0.64843  1.0000
  C   C2541     1.0  0.56411  0.45055  0.51408  1.0000
  C   C2542     1.0  0.49967  0.34078  0.51567  1.0000
  H   H2036     1.0  0.49241  0.48051  0.60038  1.0000
  H   H2037     1.0  0.54615  0.57821  0.49610  1.0000
  C   C2543     1.0  0.50694  0.60480  0.50825  1.0000
  H   H2038     1.0  0.52596  0.63562  0.54480  1.0000
  H   H2039     1.0  0.57531  0.45582  0.50447  1.0000
  H   H2040     1.0  0.54674  0.46703  0.49129  1.0000
  H   H2041     1.0  0.49555  0.34809  0.85495  1.0000
  C   C2544     1.0  0.49076  0.44298  0.54877  1.0000
  H   H2042     1.0  0.49146  0.53606  0.94358  1.0000
  H   H2043     1.0  0.48720  0.45963  0.88859  1.0000
  C   C2545     1.0  0.48749  0.55292  0.97853  1.0000
  H   H2044     1.0  0.48637  0.36897  0.58615  1.0000
  P   P84       1.0  0.49737  0.60794  0.89894  1.0000
  C   C2546     1.0  0.48861  0.51057  0.85070  1.0000
  H   H2045     1.0  0.56627  0.55524  0.51144  1.0000
  C   C2547     1.0  0.53258  0.32330  0.71806  1.0000
  C   C2548     1.0  0.48724  0.47615  0.83575  1.0000
  H   H2046     1.0  0.48536  0.43191  0.67963  1.0000
  C   C2549     1.0  0.48516  0.51195  0.66918  1.0000
  H   H2047     1.0  0.54273  0.64819  0.62706  1.0000
  H   H2048     1.0  0.49280  0.51804  0.68459  1.0000
  C   C2550     1.0  0.59423  0.31892  0.68355  1.0000
  H   H2049     1.0  0.60000  0.32600  0.74471  1.0000
  H   H2050     1.0  0.71770  0.64328  0.95583  1.0000
  C   C2551     1.0  0.55513  0.62247  0.97761  1.0000
  C   C2552     1.0  0.48591  0.33985  0.94502  1.0000
  H   H2051     1.0  0.48458  0.64190  0.88025  1.0000
  H   H2052     1.0  0.48481  0.52128  0.74019  1.0000
  C   C2553     1.0  0.64992  0.64855  0.60706  1.0000
  C   C2554     1.0  0.52043  0.58280  0.97819  1.0000
  C   C2555     1.0  0.51406  0.59959  0.97882  1.0000
  C   C2556     1.0  0.48419  0.54696  0.95148  1.0000
  C   C2557     1.0  0.58292  0.64845  0.88880  1.0000
  C   C2558     1.0  0.52182  0.44285  0.98110  1.0000
  Fe  Fe169     1.0  0.66753  0.77855  0.25987  1.0000
  S   S333      1.0  0.66529  0.75062  0.26843  1.0000
  S   S334      1.0  0.69296  0.79157  0.25890  1.0000
  Fe  Fe170     1.0  0.62851  0.78614  0.26584  1.0000
  S   S335      1.0  0.62394  0.75845  0.27481  1.0000
  S   S336      1.0  0.60672  0.80636  0.25901  1.0000
  Fe  Fe171     1.0  0.64694  0.75858  0.30276  1.0000
  S   S337      1.0  0.65286  0.75039  0.34777  1.0000
  Fe  Fe172     1.0  0.64266  0.75273  0.23961  1.0000
  S   S338      1.0  0.63481  0.73256  0.20852  1.0000
  S   S339      1.0  0.65042  0.78661  0.29567  1.0000
  S   S340      1.0  0.64603  0.78036  0.22895  1.0000
  Fe  Fe173     1.0  0.66532  0.67040  0.00609  1.0000
  S   S341      1.0  0.66491  0.69856  0.01211  1.0000
  C   C2559     1.0  0.72606  0.78913  0.31761  1.0000
  Fe  Fe174     1.0  0.62858  0.66691  0.02861  1.0000
  S   S342      1.0  0.62603  0.69544  0.03554  1.0000
  C   C2560     1.0  0.53498  0.95276  0.43651  1.0000
  S   S343      1.0  0.61849  0.70112  0.43730  1.0000
  Fe  Fe175     1.0  0.65236  0.69338  0.05377  1.0000
  S   S344      1.0  0.66361  0.70916  0.08897  1.0000
  C   C2561     1.0  0.50184  0.85206  0.08698  1.0000
  S   S345      1.0  0.65458  0.66479  0.04909  1.0000
  Fe  Fe176     1.0  0.53629  0.87851  0.32114  1.0000
  S   S346      1.0  0.50793  0.87382  0.32258  1.0000
  S   S347      1.0  0.55693  0.85721  0.32951  1.0000
  Fe  Fe177     1.0  0.52991  0.91743  0.31716  1.0000
  S   S348      1.0  0.50167  0.91499  0.31763  1.0000
  S   S349      1.0  0.54154  0.94363  0.31242  1.0000
  Fe  Fe178     1.0  0.50567  0.89583  0.35240  1.0000
  H   H2053     1.0  0.68840  0.68067  0.08571  1.0000
  Fe  Fe179     1.0  0.50574  0.89336  0.28769  1.0000
  C   C2562     1.0  0.58836  0.68341  0.98508  1.0000
  S   S350      1.0  0.53400  0.89949  0.35353  1.0000
  S   S351      1.0  0.53416  0.89692  0.28452  1.0000
  C   C2563     1.0  0.53729  0.96131  0.33484  1.0000
  C   C2564     1.0  0.69339  0.70457  0.40626  1.0000
  C   C2565     1.0  0.49800  0.86599  0.04172  1.0000
  C   C2566     1.0  0.52578  0.96047  0.35719  1.0000
  C   C2567     1.0  0.49532  0.88970  0.17143  1.0000
  H   H2054     1.0  0.51943  0.94873  0.36137  1.0000
  H   H2055     1.0  0.58629  0.83508  0.44052  1.0000
  H   H2056     1.0  0.52788  0.77982  0.13246  1.0000
  C   C2568     1.0  0.68041  0.71511  0.21635  1.0000
  C   C2569     1.0  0.51745  0.84069  0.15695  1.0000
  H   H2057     1.0  0.50836  0.80435  0.14274  1.0000
  C   C2570     1.0  0.53416  0.78863  0.09103  1.0000
  H   H2058     1.0  0.65708  0.77815  0.38721  1.0000
  C   C2571     1.0  0.59288  0.82026  0.27912  1.0000
  C   C2572     1.0  0.58094  0.83110  0.26518  1.0000
  C   C2573     1.0  0.56972  0.84231  0.28010  1.0000
  C   C2574     1.0  0.57021  0.84283  0.30932  1.0000
  C   C2575     1.0  0.58215  0.83196  0.32322  1.0000
  C   C2576     1.0  0.59344  0.82087  0.30827  1.0000
  H   H2059     1.0  0.58035  0.83084  0.24264  1.0000
  H   H2060     1.0  0.56073  0.85058  0.26898  1.0000
  H   H2061     1.0  0.58286  0.83233  0.34573  1.0000
  H   H2062     1.0  0.60267  0.81289  0.31925  1.0000
  C   C2577     1.0  0.64312  0.72637  0.17527  1.0000
  C   C2578     1.0  0.63418  0.71464  0.15951  1.0000
  C   C2579     1.0  0.64030  0.70908  0.13322  1.0000
  C   C2580     1.0  0.65565  0.71498  0.12257  1.0000
  C   C2581     1.0  0.66472  0.72655  0.13847  1.0000
  C   C2582     1.0  0.65836  0.73247  0.16442  1.0000
  H   H2063     1.0  0.62239  0.70982  0.16768  1.0000
  H   H2064     1.0  0.63316  0.70019  0.12129  1.0000
  H   H2065     1.0  0.67664  0.73114  0.13051  1.0000
  H   H2066     1.0  0.66538  0.74151  0.17621  1.0000
  C   C2583     1.0  0.64286  0.73678  0.37230  1.0000
  C   C2584     1.0  0.62837  0.72782  0.36582  1.0000
  C   C2585     1.0  0.62102  0.71706  0.38601  1.0000
  C   C2586     1.0  0.62811  0.71505  0.41281  1.0000
  C   C2587     1.0  0.64248  0.72420  0.41941  1.0000
  C   C2588     1.0  0.64982  0.73494  0.39923  1.0000
  H   H2067     1.0  0.62292  0.72907  0.34520  1.0000
  H   H2068     1.0  0.60988  0.71010  0.38071  1.0000
  H   H2069     1.0  0.64810  0.72277  0.43988  1.0000
  H   H2070     1.0  0.66110  0.74170  0.40442  1.0000
  C   C2589     1.0  0.53148  0.80144  0.07093  1.0000
  H   H2071     1.0  0.59446  0.72456  0.46787  1.0000
  H   H2072     1.0  0.52835  0.83767  0.14368  1.0000
  H   H2073     1.0  0.53296  0.84531  0.19294  1.0000
  C   C2590     1.0  0.72111  0.77293  0.00103  1.0000
  S   S352      1.0  0.48591  0.90133  0.38701  1.0000
  C   C2591     1.0  0.71087  0.77403  0.21723  1.0000
  C   C2592     1.0  0.71140  0.78571  0.23901  1.0000
  C   C2593     1.0  0.51399  0.87958  0.07766  1.0000
  C   C2594     1.0  0.71732  0.81653  0.33687  1.0000
  C   C2595     1.0  0.71488  0.67597  0.07544  1.0000
  H   H2074     1.0  0.61248  0.77808  0.46118  1.0000
  H   H2075     1.0  0.62911  0.76879  0.00244  1.0000
  C   C2596     1.0  0.70430  0.73071  0.34752  1.0000
  C   C2597     1.0  0.51140  0.86578  0.09570  1.0000
  H   H2076     1.0  0.52143  0.97129  0.27591  1.0000
  C   C2598     1.0  0.51253  0.98024  0.20080  1.0000
  C   C2599     1.0  0.51219  0.81673  0.10268  1.0000
  C   C2600     1.0  0.52257  0.97478  0.37429  1.0000
  H   H2077     1.0  0.53788  0.80052  0.05082  1.0000
  H   H2078     1.0  0.51863  0.82515  0.06073  1.0000
  H   H2079     1.0  0.69562  0.76414  0.00008  1.0000
  H   H2080     1.0  0.51392  0.97381  0.39189  1.0000
  H   H2081     1.0  0.51624  0.86628  0.11672  1.0000
  H   H2082     1.0  0.49015  0.91836  0.09602  1.0000
  H   H2083     1.0  0.70074  0.88711  0.33105  1.0000
  H   H2084     1.0  0.64622  0.82227  0.31383  1.0000
  H   H2085     1.0  0.70759  0.82650  0.33993  1.0000
  H   H2086     1.0  0.70194  0.69548  0.44678  1.0000
  H   H2087     1.0  0.63821  0.80318  0.35218  1.0000
  H   H2088     1.0  0.49025  0.96582  0.35609  1.0000
  H   H2089     1.0  0.49624  0.94393  0.06732  1.0000
  H   H2090     1.0  0.49334  0.92779  0.43426  1.0000
  H   H2091     1.0  0.49613  0.86097  0.46556  1.0000
  C   C2601     1.0  0.69594  0.76007  0.33762  1.0000
  C   C2602     1.0  0.51482  0.80371  0.12266  1.0000
  C   C2603     1.0  0.70718  0.76580  0.98806  1.0000
  C   C2604     1.0  0.66610  0.69400  0.39179  1.0000
  C   C2605     1.0  0.52051  0.81542  0.07666  1.0000
  C   C2606     1.0  0.51810  0.93092  0.41639  1.0000
  C   C2607     1.0  0.69839  0.76410  0.36563  1.0000
  C   C2608     1.0  0.69433  0.69391  0.18679  1.0000
  H   H2092     1.0  0.72927  0.73341  0.99844  1.0000
  C   C2609     1.0  0.70839  0.72006  0.19685  1.0000
  H   H2093     1.0  0.68047  0.71122  0.36739  1.0000
  C   C2610     1.0  0.50624  0.84903  0.20229  1.0000
  H   H2094     1.0  0.61879  0.81365  0.38993  1.0000
  C   C2611     1.0  0.68034  0.69939  0.20304  1.0000
  C   C2612     1.0  0.67778  0.68550  0.43654  1.0000
  C   C2613     1.0  0.59296  0.77199  0.32242  1.0000
  C   C2614     1.0  0.58904  0.75500  0.31845  1.0000
  C   C2615     1.0  0.58751  0.74407  0.34145  1.0000
  C   C2616     1.0  0.58961  0.75018  0.36850  1.0000
  C   C2617     1.0  0.59324  0.76733  0.37269  1.0000
  C   C2618     1.0  0.59526  0.77808  0.34940  1.0000
  P   P85       1.0  0.59522  0.77577  0.40746  1.0000
  C   C2619     1.0  0.58448  0.79656  0.40850  1.0000
  C   C2620     1.0  0.58559  0.76171  0.43255  1.0000
  C   C2621     1.0  0.56915  0.76530  0.44324  1.0000
  H   H2095     1.0  0.72015  0.77677  0.02265  1.0000
  H   H2096     1.0  0.70085  0.80067  0.31372  1.0000
  C   C2622     1.0  0.59463  0.74693  0.44158  1.0000
  C   C2623     1.0  0.58990  0.80912  0.42677  1.0000
  C   C2624     1.0  0.58204  0.82540  0.42648  1.0000
  C   C2625     1.0  0.56873  0.82927  0.40798  1.0000
  C   C2626     1.0  0.56301  0.81676  0.39020  1.0000
  C   C2627     1.0  0.57068  0.80043  0.39065  1.0000
  C   C2628     1.0  0.61741  0.77734  0.41660  1.0000
  C   C2629     1.0  0.62208  0.77834  0.44480  1.0000
  C   C2630     1.0  0.63922  0.77941  0.45214  1.0000
  C   C2631     1.0  0.65183  0.77954  0.43139  1.0000
  C   C2632     1.0  0.64729  0.77857  0.40332  1.0000
  C   C2633     1.0  0.63018  0.77732  0.39592  1.0000
  H   H2097     1.0  0.59432  0.78044  0.30454  1.0000
  H   H2098     1.0  0.58743  0.75024  0.29749  1.0000
  H   H2099     1.0  0.58485  0.73080  0.33831  1.0000
  H   H2100     1.0  0.58843  0.74144  0.38591  1.0000
  H   H2101     1.0  0.59840  0.79123  0.35215  1.0000
  H   H2102     1.0  0.56185  0.77653  0.43651  1.0000
  H   H2103     1.0  0.60726  0.74375  0.43337  1.0000
  H   H2104     1.0  0.60023  0.80647  0.44113  1.0000
  H   H2105     1.0  0.69687  0.74031  0.30689  1.0000
  H   H2106     1.0  0.56280  0.84196  0.40735  1.0000
  H   H2107     1.0  0.55273  0.81986  0.37575  1.0000
  H   H2108     1.0  0.56593  0.79093  0.37676  1.0000
  C   C2634     1.0  0.56721  0.65222  0.42457  1.0000
  H   H2109     1.0  0.67678  0.67858  0.45611  1.0000
  H   H2110     1.0  0.66513  0.78009  0.43704  1.0000
  H   H2111     1.0  0.62711  0.77592  0.37410  1.0000
  C   C2635     1.0  0.62429  0.73638  0.07310  1.0000
  C   C2636     1.0  0.61334  0.74165  0.05160  1.0000
  C   C2637     1.0  0.60863  0.75888  0.04858  1.0000
  C   C2638     1.0  0.61507  0.77087  0.06679  1.0000
  C   C2639     1.0  0.62631  0.76565  0.08821  1.0000
  C   C2640     1.0  0.63067  0.74831  0.09132  1.0000
  P   P86       1.0  0.63480  0.78075  0.11225  1.0000
  C   C2641     1.0  0.62291  0.78042  0.14477  1.0000
  C   C2642     1.0  0.65690  0.77507  0.11939  1.0000
  C   C2643     1.0  0.66404  0.77907  0.14521  1.0000
  C   C2644     1.0  0.68125  0.77517  0.15046  1.0000
  C   C2645     1.0  0.69146  0.76714  0.13011  1.0000
  C   C2646     1.0  0.68447  0.76310  0.10433  1.0000
  C   C2647     1.0  0.66729  0.76712  0.09890  1.0000
  C   C2648     1.0  0.62047  0.79535  0.16048  1.0000
  C   C2649     1.0  0.61150  0.79502  0.18582  1.0000
  C   C2650     1.0  0.60523  0.77975  0.19602  1.0000
  C   C2651     1.0  0.60791  0.76480  0.18086  1.0000
  C   C2652     1.0  0.61673  0.76509  0.15538  1.0000
  C   C2653     1.0  0.63346  0.80181  0.09671  1.0000
  C   C2654     1.0  0.64782  0.80889  0.08411  1.0000
  C   C2655     1.0  0.64658  0.82512  0.07188  1.0000
  C   C2656     1.0  0.63102  0.83436  0.07203  1.0000
  C   C2657     1.0  0.61666  0.82737  0.08441  1.0000
  C   C2658     1.0  0.61784  0.81115  0.09666  1.0000
  H   H2112     1.0  0.62788  0.72303  0.07581  1.0000
  H   H2113     1.0  0.71925  0.72810  0.19555  1.0000
  H   H2114     1.0  0.60005  0.76291  0.03197  1.0000
  H   H2115     1.0  0.61128  0.78410  0.06390  1.0000
  H   H2116     1.0  0.63905  0.74401  0.10791  1.0000
  H   H2117     1.0  0.65637  0.78518  0.16139  1.0000
  H   H2118     1.0  0.68665  0.77838  0.17039  1.0000
  H   H2119     1.0  0.70476  0.76402  0.13441  1.0000
  H   H2120     1.0  0.69230  0.75667  0.08865  1.0000
  H   H2121     1.0  0.66213  0.76393  0.07879  1.0000
  H   H2122     1.0  0.62571  0.80721  0.15350  1.0000
  H   H2123     1.0  0.60970  0.80648  0.19803  1.0000
  H   H2124     1.0  0.59869  0.77945  0.21605  1.0000
  H   H2125     1.0  0.60358  0.75283  0.18925  1.0000
  H   H2126     1.0  0.61897  0.75321  0.14454  1.0000
  H   H2127     1.0  0.65999  0.80196  0.08363  1.0000
  H   H2128     1.0  0.65771  0.83054  0.06222  1.0000
  H   H2129     1.0  0.63009  0.84692  0.06250  1.0000
  H   H2130     1.0  0.60458  0.83452  0.08444  1.0000
  H   H2131     1.0  0.60656  0.80585  0.10599  1.0000
  H   H2132     1.0  0.64714  0.81917  0.20247  1.0000
  C   C2659     1.0  0.63130  0.84400  0.32907  1.0000
  C   C2660     1.0  0.62059  0.84993  0.35085  1.0000
  P   P87       1.0  0.63789  0.85829  0.30151  1.0000
  C   C2661     1.0  0.65783  0.86732  0.31100  1.0000
  C   C2662     1.0  0.64088  0.84633  0.26960  1.0000
  C   C2663     1.0  0.65617  0.83683  0.26497  1.0000
  C   C2664     1.0  0.65844  0.82717  0.24076  1.0000
  C   C2665     1.0  0.64551  0.82696  0.22090  1.0000
  C   C2666     1.0  0.63034  0.83645  0.22521  1.0000
  C   C2667     1.0  0.62797  0.84603  0.24948  1.0000
  C   C2668     1.0  0.66875  0.87350  0.29017  1.0000
  C   C2669     1.0  0.68420  0.88054  0.29741  1.0000
  C   C2670     1.0  0.68879  0.88160  0.32547  1.0000
  C   C2671     1.0  0.67790  0.87563  0.34633  1.0000
  C   C2672     1.0  0.66246  0.86854  0.33916  1.0000
  C   C2673     1.0  0.62170  0.87507  0.29686  1.0000
  C   C2674     1.0  0.60443  0.87107  0.29680  1.0000
  C   C2675     1.0  0.59170  0.88391  0.29465  1.0000
  C   C2676     1.0  0.59612  0.90091  0.29237  1.0000
  C   C2677     1.0  0.61330  0.90505  0.29207  1.0000
  C   C2678     1.0  0.62607  0.89219  0.29432  1.0000
  H   H2133     1.0  0.64273  0.77990  0.47395  1.0000
  H   H2134     1.0  0.61564  0.86297  0.35102  1.0000
  H   H2135     1.0  0.66626  0.83658  0.28028  1.0000
  H   H2136     1.0  0.67013  0.81961  0.23764  1.0000
  H   H2137     1.0  0.62012  0.83596  0.21022  1.0000
  H   H2138     1.0  0.61589  0.85280  0.25259  1.0000
  H   H2139     1.0  0.66531  0.87291  0.26834  1.0000
  H   H2140     1.0  0.69261  0.88522  0.28123  1.0000
  H   H2141     1.0  0.49420  0.93383  0.17591  1.0000
  H   H2142     1.0  0.52083  0.89040  0.08485  1.0000
  H   H2143     1.0  0.69135  0.76975  0.32294  1.0000
  H   H2144     1.0  0.60084  0.85798  0.29872  1.0000
  H   H2145     1.0  0.57838  0.88066  0.29510  1.0000
  H   H2146     1.0  0.58619  0.91086  0.29101  1.0000
  H   H2147     1.0  0.61668  0.91826  0.29038  1.0000
  H   H2148     1.0  0.63925  0.89573  0.29434  1.0000
  H   H2149     1.0  0.50986  0.89165  0.20954  1.0000
  H   H2150     1.0  0.49259  0.86630  0.02093  1.0000
  C   C2679     1.0  0.70349  0.75137  0.38478  1.0000
  C   C2680     1.0  0.70826  0.70441  0.18282  1.0000
  C   C2681     1.0  0.69900  0.74342  0.32855  1.0000
  H   H2151     1.0  0.50225  0.87283  0.41830  1.0000
  C   C2682     1.0  0.70622  0.73450  0.37593  1.0000
  C   C2683     1.0  0.71022  0.72207  0.07059  1.0000
  C   C2684     1.0  0.70019  0.72211  0.04669  1.0000
  C   C2685     1.0  0.70739  0.72575  0.02073  1.0000
  H   H2152     1.0  0.70448  0.71936  0.09071  1.0000
  H   H2153     1.0  0.68684  0.71924  0.04825  1.0000
  H   H2154     1.0  0.69976  0.72534  0.00210  1.0000
  C   C2686     1.0  0.49728  0.89106  0.20062  1.0000
  C   C2687     1.0  0.50633  0.94830  0.45411  1.0000
  H   H2155     1.0  0.70502  0.75472  0.40641  1.0000
  H   H2156     1.0  0.54341  0.93670  0.40245  1.0000
  P   P88       1.0  0.72661  0.69674  0.16286  1.0000
  C   C2688     1.0  0.53318  0.93980  0.41711  1.0000
  C   C2689     1.0  0.71799  0.72553  0.43410  1.0000
  S   S353      1.0  0.60412  0.65229  0.03996  1.0000
  H   H2157     1.0  0.56464  0.65997  0.40615  1.0000
  H   H2158     1.0  0.72289  0.77814  0.30550  1.0000
  C   C2690     1.0  0.66478  0.68493  0.41687  1.0000
  H   H2159     1.0  0.51807  0.96741  0.20153  1.0000
  H   H2160     1.0  0.65416  0.86410  0.35563  1.0000
  C   C2691     1.0  0.63778  0.82713  0.33002  1.0000
  H   H2161     1.0  0.69405  0.69307  0.13133  1.0000
  H   H2162     1.0  0.50649  0.88924  0.15807  1.0000
  C   C2692     1.0  0.52013  0.84498  0.18484  1.0000
  C   C2693     1.0  0.48878  0.87194  0.45795  1.0000
  H   H2163     1.0  0.49619  0.97642  0.23644  1.0000
  C   C2694     1.0  0.69203  0.69520  0.43122  1.0000
  C   C2695     1.0  0.61602  0.83897  0.37262  1.0000
  Fe  Fe180     1.0  0.62959  0.69261  0.47944  1.0000
  H   H2164     1.0  0.49360  0.96722  0.29851  1.0000
  C   C2696     1.0  0.68024  0.70390  0.38654  1.0000
  H   H2165     1.0  0.68140  0.87657  0.36810  1.0000
  C   C2697     1.0  0.57986  0.65683  0.44317  1.0000
  C   C2698     1.0  0.52583  0.78977  0.11688  1.0000
  H   H2166     1.0  0.70536  0.68494  0.01057  1.0000
  H   H2167     1.0  0.71223  0.67057  0.05527  1.0000
  H   H2168     1.0  0.69248  0.73446  0.44550  1.0000
  C   C2699     1.0  0.71456  0.67768  0.99816  1.0000
  C   C2700     1.0  0.58739  0.73598  0.46113  1.0000
  H   H2169     1.0  0.72334  0.68204  0.41070  1.0000
  C   C2701     1.0  0.72453  0.72971  0.01865  1.0000
  S   S354      1.0  0.68805  0.65651  0.98507  1.0000
  C   C2702     1.0  0.48969  0.84881  0.19187  1.0000
  C   C2703     1.0  0.62236  0.82213  0.37314  1.0000
  C   C2704     1.0  0.54543  0.97671  0.32973  1.0000
  C   C2705     1.0  0.63330  0.81624  0.35192  1.0000
  H   H2170     1.0  0.60854  0.73236  0.03730  1.0000
  C   C2706     1.0  0.65108  0.75165  0.00010  1.0000
  C   C2707     1.0  0.70567  0.73303  0.45201  1.0000
  C   C2708     1.0  0.48952  0.94532  0.08708  1.0000
  H   H2171     1.0  0.54267  0.77781  0.08656  1.0000
  C   C2709     1.0  0.48696  0.84462  0.16397  1.0000
  P   P89       1.0  0.71170  0.71756  0.40053  1.0000
  H   H2172     1.0  0.65353  0.67774  0.42125  1.0000
  C   C2710     1.0  0.49228  0.87863  0.43114  1.0000
  H   H2173     1.0  0.69915  0.76776  0.21306  1.0000
  C   C2711     1.0  0.73167  0.68254  0.99670  1.0000
  C   C2712     1.0  0.69448  0.72538  0.21343  1.0000
  H   H2174     1.0  0.69593  0.77702  0.37258  1.0000
  P   P90       1.0  0.48950  0.95284  0.47914  1.0000
  C   C2713     1.0  0.72163  0.68920  0.12837  1.0000
  C   C2714     1.0  0.50721  0.87972  0.05075  1.0000
  H   H2175     1.0  0.72347  0.73180  0.14248  1.0000
  C   C2715     1.0  0.57108  0.73968  0.47183  1.0000
  C   C2716     1.0  0.72534  0.77106  0.20007  1.0000
  H   H2176     1.0  0.50881  0.89058  0.03695  1.0000
  H   H2177     1.0  0.50827  0.85269  0.22378  1.0000
  H   H2178     1.0  0.51673  0.92073  0.40156  1.0000
  C   C2717     1.0  0.52172  0.95683  0.45527  1.0000
  H   H2179     1.0  0.52352  0.96657  0.47068  1.0000
  H   H2180     1.0  0.66934  0.69152  0.20525  1.0000
  H   H2181     1.0  0.66945  0.71936  0.22871  1.0000
  C   C2718     1.0  0.72764  0.72506  0.06839  1.0000
  H   H2182     1.0  0.51192  0.92690  0.21676  1.0000
  H   H2183     1.0  0.60742  0.84354  0.38893  1.0000
  Fe  Fe181     1.0  0.63878  0.69867  0.99352  1.0000
  C   C2719     1.0  0.64092  0.76567  0.99155  1.0000
  H   H2184     1.0  0.69422  0.68146  0.17732  1.0000
  C   C2720     1.0  0.48969  0.93787  0.19624  1.0000
  H   H2185     1.0  0.48788  0.84183  0.05251  1.0000
  C   C2721     1.0  0.49987  0.93391  0.21943  1.0000
  C   C2722     1.0  0.70144  0.68152  0.09276  1.0000
  H   H2186     1.0  0.72728  0.80289  0.26094  1.0000
  S   S355      1.0  0.63954  0.67063  0.98506  1.0000
  C   C2723     1.0  0.72676  0.79371  0.24433  1.0000
  C   C2724     1.0  0.56195  0.75432  0.46287  1.0000
  H   H2187     1.0  0.64705  0.74378  0.01748  1.0000
  H   H2188     1.0  0.54929  0.75716  0.47114  1.0000
  H   H2189     1.0  0.55443  0.97751  0.31260  1.0000
  H   H2190     1.0  0.65580  0.69389  0.37684  1.0000
  C   C2725     1.0  0.71351  0.80194  0.32210  1.0000
  H   H2191     1.0  0.58711  0.66812  0.43920  1.0000
  C   C2726     1.0  0.70475  0.68835  0.11898  1.0000
  C   C2727     1.0  0.50475  0.93509  0.43485  1.0000
  H   H2192     1.0  0.69454  0.73748  0.22406  1.0000
  C   C2728     1.0  0.72910  0.70460  0.38642  1.0000
  P   P91       1.0  0.49760  0.83442  0.11030  1.0000
  H   H2193     1.0  0.70639  0.71780  0.34020  1.0000
  C   C2729     1.0  0.50082  0.84047  0.14625  1.0000
  H   H2194     1.0  0.72462  0.76253  0.18258  1.0000
  C   C2730     1.0  0.49529  0.85222  0.05974  1.0000
  H   H2195     1.0  0.54666  0.95969  0.43694  1.0000
  H   H2196     1.0  0.58416  0.68643  0.00614  1.0000
  C   C2731     1.0  0.49896  0.97968  0.29882  1.0000
  C   C2732     1.0  0.48606  0.93093  0.10316  1.0000
  C   C2733     1.0  0.49419  0.93821  0.24622  1.0000
  H   H2197     1.0  0.48653  0.97254  0.08357  1.0000
  H   H2198     1.0  0.50193  0.93463  0.26415  1.0000
  C   C2734     1.0  0.72532  0.65944  0.46750  1.0000
  H   H2199     1.0  0.67329  0.73597  0.99176  1.0000
  S   S356      1.0  0.48443  0.89185  0.25526  1.0000
  H   H2200     1.0  0.58537  0.65667  0.99099  1.0000
  C   C2735     1.0  0.73170  0.67737  0.08415  1.0000
  H   H2201     1.0  0.48577  0.93612  0.37015  1.0000
  H   H2202     1.0  0.69868  0.65718  0.47867  1.0000
  C   C2736     1.0  0.71018  0.73825  0.47873  1.0000
  H   H2203     1.0  0.72717  0.72639  0.28701  1.0000
  C   C2737     1.0  0.73195  0.68777  0.39590  1.0000
  H   H2204     1.0  0.72923  0.65941  0.15499  1.0000
  C   C2738     1.0  0.70943  0.66336  0.98375  1.0000
  C   C2739     1.0  0.66598  0.74719  0.98531  1.0000
  C   C2740     1.0  0.51464  0.98201  0.28555  1.0000
  C   C2741     1.0  0.73370  0.81832  0.34738  1.0000
  C   C2742     1.0  0.48403  0.96143  0.09628  1.0000
  C   C2743     1.0  0.70988  0.66466  0.48075  1.0000
  Fe  Fe182     1.0  0.67068  0.76889  0.77219  1.0000
  S   S357      1.0  0.66512  0.74132  0.76981  1.0000
  S   S358      1.0  0.69855  0.77500  0.78161  1.0000
  Fe  Fe183     1.0  0.63241  0.77936  0.76613  1.0000
  S   S359      1.0  0.62497  0.75176  0.76275  1.0000
  S   S360      1.0  0.61215  0.80132  0.75918  1.0000
  Fe  Fe184     1.0  0.64300  0.74685  0.79879  1.0000
  S   S361      1.0  0.63954  0.72580  0.83176  1.0000
  Fe  Fe185     1.0  0.64772  0.74817  0.73396  1.0000
  S   S362      1.0  0.65269  0.72939  0.69779  1.0000
  S   S363      1.0  0.64935  0.77437  0.80360  1.0000
  S   S364      1.0  0.65436  0.77583  0.73493  1.0000
  H   H2205     1.0  0.60418  0.70218  0.92668  1.0000
  S   S365      1.0  0.64727  0.70713  0.50592  1.0000
  C   C2744     1.0  0.49347  0.89212  0.91402  1.0000
  Fe  Fe186     1.0  0.62746  0.66299  0.52209  1.0000
  S   S366      1.0  0.61183  0.68719  0.51548  1.0000
  H   H2206     1.0  0.65381  0.74415  0.54581  1.0000
  S   S367      1.0  0.63109  0.72098  0.96461  1.0000
  Fe  Fe187     1.0  0.63116  0.69964  0.54272  1.0000
  S   S368      1.0  0.62306  0.71970  0.57502  1.0000
  H   H2207     1.0  0.70044  0.76981  0.72153  1.0000
  S   S369      1.0  0.64604  0.67527  0.55127  1.0000
  Fe  Fe188     1.0  0.54279  0.87784  0.81667  1.0000
  S   S370      1.0  0.51711  0.86999  0.80099  1.0000
  S   S371      1.0  0.56586  0.85879  0.82392  1.0000
  Fe  Fe189     1.0  0.52937  0.91542  0.82674  1.0000
  S   S372      1.0  0.50364  0.90932  0.81012  1.0000
  S   S373      1.0  0.52582  0.94239  0.84460  1.0000
  Fe  Fe190     1.0  0.50571  0.88571  0.83661  1.0000
  H   H2208     1.0  0.59896  0.67826  0.58138  1.0000
  Fe  Fe191     1.0  0.51710  0.89456  0.77616  1.0000
  H   H2209     1.0  0.66241  0.66547  0.63480  1.0000
  S   S374      1.0  0.53111  0.89191  0.85413  1.0000
  S   S375      1.0  0.54305  0.90218  0.79074  1.0000
  C   C2745     1.0  0.53491  0.96235  0.85120  1.0000
  C   C2746     1.0  0.72153  0.65433  0.96717  1.0000
  C   C2747     1.0  0.58424  0.65531  0.64254  1.0000
  C   C2748     1.0  0.55206  0.96557  0.84595  1.0000
  C   C2749     1.0  0.49160  0.89588  0.94267  1.0000
  H   H2210     1.0  0.56040  0.95562  0.83748  1.0000
  H   H2211     1.0  0.59312  0.65032  0.48127  1.0000
  C   C2750     1.0  0.66072  0.77100  0.95371  1.0000
  H   H2212     1.0  0.60663  0.67221  0.91179  1.0000
  P   P92       1.0  0.71165  0.71563  0.60262  1.0000
  H   H2213     1.0  0.68654  0.69754  0.76928  1.0000
  C   C2751     1.0  0.61080  0.69528  0.68083  1.0000
  C   C2752     1.0  0.57618  0.71563  0.58761  1.0000
  C   C2753     1.0  0.59928  0.81703  0.77789  1.0000
  C   C2754     1.0  0.60110  0.82002  0.80652  1.0000
  C   C2755     1.0  0.59082  0.83276  0.82004  1.0000
  C   C2756     1.0  0.57839  0.84271  0.80541  1.0000
  C   C2757     1.0  0.57656  0.83968  0.77679  1.0000
  C   C2758     1.0  0.58695  0.82705  0.76322  1.0000
  H   H2214     1.0  0.61044  0.81256  0.81828  1.0000
  H   H2215     1.0  0.59246  0.83489  0.84211  1.0000
  H   H2216     1.0  0.56719  0.84713  0.76504  1.0000
  H   H2217     1.0  0.58533  0.82499  0.74111  1.0000
  C   C2759     1.0  0.64362  0.72654  0.66424  1.0000
  C   C2760     1.0  0.65043  0.71349  0.64707  1.0000
  C   C2761     1.0  0.64417  0.71107  0.61989  1.0000
  C   C2762     1.0  0.63089  0.72163  0.60958  1.0000
  C   C2763     1.0  0.62383  0.73446  0.62695  1.0000
  C   C2764     1.0  0.63011  0.73689  0.65414  1.0000
  H   H2218     1.0  0.66064  0.70518  0.65482  1.0000
  H   H2219     1.0  0.64975  0.70116  0.60680  1.0000
  H   H2220     1.0  0.61350  0.74265  0.61924  1.0000
  H   H2221     1.0  0.62463  0.74690  0.66713  1.0000
  C   C2765     1.0  0.63837  0.72517  0.86893  1.0000
  C   C2766     1.0  0.63511  0.73972  0.88501  1.0000
  C   C2767     1.0  0.63309  0.73825  0.91428  1.0000
  C   C2768     1.0  0.63460  0.72231  0.92786  1.0000
  C   C2769     1.0  0.63853  0.70786  0.91189  1.0000
  C   C2770     1.0  0.64021  0.70928  0.88262  1.0000
  H   H2222     1.0  0.63366  0.75203  0.87483  1.0000
  H   H2223     1.0  0.63015  0.74953  0.92643  1.0000
  H   H2224     1.0  0.63977  0.69552  0.92202  1.0000
  H   H2225     1.0  0.64277  0.69795  0.87043  1.0000
  H   H2226     1.0  0.73080  0.67188  0.90344  1.0000
  C   C2771     1.0  0.70060  0.71554  0.84031  1.0000
  H   H2227     1.0  0.50947  0.94092  0.57576  1.0000
  H   H2228     1.0  0.68175  0.73725  0.62159  1.0000
  C   C2772     1.0  0.49004  0.95393  0.74241  1.0000
  C   C2773     1.0  0.69056  0.70230  0.78925  1.0000
  C   C2774     1.0  0.73254  0.69002  0.86945  1.0000
  C   C2775     1.0  0.71583  0.77440  0.75720  1.0000
  C   C2776     1.0  0.71318  0.77197  0.72875  1.0000
  C   C2777     1.0  0.61909  0.65125  0.60637  1.0000
  H   H2229     1.0  0.61986  0.71330  0.71041  1.0000
  C   C2778     1.0  0.71407  0.72252  0.63836  1.0000
  C   C2779     1.0  0.66536  0.73982  0.55641  1.0000
  C   C2780     1.0  0.66755  0.81188  0.77513  1.0000
  C   C2781     1.0  0.65184  0.82074  0.77716  1.0000
  C   C2782     1.0  0.64530  0.82965  0.75401  1.0000
  C   C2783     1.0  0.65448  0.82978  0.72886  1.0000
  C   C2784     1.0  0.67041  0.82109  0.72677  1.0000
  C   C2785     1.0  0.67661  0.81173  0.74987  1.0000
  P   P93       1.0  0.68142  0.81968  0.69356  1.0000
  C   C2786     1.0  0.67371  0.80081  0.67732  1.0000
  C   C2787     1.0  0.67623  0.83838  0.67282  1.0000
  C   C2788     1.0  0.67237  0.83706  0.64436  1.0000
  C   C2789     1.0  0.66843  0.85172  0.62853  1.0000
  C   C2790     1.0  0.66850  0.86774  0.64094  1.0000
  C   C2791     1.0  0.67262  0.86914  0.66915  1.0000
  C   C2792     1.0  0.67657  0.85452  0.68502  1.0000
  C   C2793     1.0  0.68437  0.78625  0.67378  1.0000
  C   C2794     1.0  0.67797  0.77137  0.66287  1.0000
  C   C2795     1.0  0.66085  0.77091  0.65538  1.0000
  C   C2796     1.0  0.65007  0.78528  0.65900  1.0000
  C   C2797     1.0  0.65644  0.80016  0.67007  1.0000
  C   C2798     1.0  0.70440  0.81927  0.69687  1.0000
  H   H2230     1.0  0.57667  0.65913  0.89931  1.0000
  C   C2799     1.0  0.71769  0.68250  0.62196  1.0000
  C   C2800     1.0  0.69212  0.66861  0.58991  1.0000
  H   H2231     1.0  0.71629  0.74732  0.82184  1.0000
  C   C2801     1.0  0.72923  0.72959  0.64754  1.0000
  H   H2232     1.0  0.67247  0.80460  0.79281  1.0000
  H   H2233     1.0  0.64440  0.82026  0.79631  1.0000
  H   H2234     1.0  0.63274  0.83587  0.75534  1.0000
  H   H2235     1.0  0.64885  0.83625  0.71096  1.0000
  H   H2236     1.0  0.68827  0.80400  0.74822  1.0000
  H   H2237     1.0  0.67243  0.82478  0.63433  1.0000
  H   H2238     1.0  0.66532  0.85065  0.60663  1.0000
  H   H2239     1.0  0.66539  0.87908  0.62870  1.0000
  H   H2240     1.0  0.67274  0.88156  0.67877  1.0000
  H   H2241     1.0  0.67981  0.85578  0.70686  1.0000
  H   H2242     1.0  0.69750  0.78612  0.68012  1.0000
  H   H2243     1.0  0.68617  0.76004  0.66099  1.0000
  H   H2244     1.0  0.65587  0.75929  0.64744  1.0000
  H   H2245     1.0  0.63665  0.78471  0.65402  1.0000
  H   H2246     1.0  0.64780  0.81100  0.67361  1.0000
  H   H2247     1.0  0.70465  0.82928  0.73897  1.0000
  C   C2802     1.0  0.70246  0.65801  0.60677  1.0000
  C   C2803     1.0  0.61391  0.70118  0.70768  1.0000
  H   H2248     1.0  0.52982  0.93523  0.74236  1.0000
  C   C2804     1.0  0.51981  0.95227  0.77401  1.0000
  H   H2249     1.0  0.67712  0.72906  0.51946  1.0000
  H   H2250     1.0  0.56253  0.67165  0.63078  1.0000
  C   C2805     1.0  0.69444  0.68614  0.58921  1.0000
  S   S376      1.0  0.51126  0.90032  0.73002  1.0000
  H   H2251     1.0  0.59349  0.70938  0.97391  1.0000
  C   C2806     1.0  0.59981  0.69218  0.94039  1.0000
  C   C2807     1.0  0.71763  0.73191  0.69450  1.0000
  Fe  Fe192     1.0  0.66150  0.68204  0.51288  1.0000
  C   C2808     1.0  0.50420  0.94419  0.73320  1.0000
  C   C2809     1.0  0.72991  0.82318  0.72427  1.0000
  H   H2252     1.0  0.61442  0.70296  0.66298  1.0000
  H   H2253     1.0  0.70175  0.67962  0.93384  1.0000
  H   H2254     1.0  0.67394  0.71539  0.85151  1.0000
  C   C2810     1.0  0.56712  0.65878  0.63538  1.0000
  H   H2255     1.0  0.70058  0.74380  0.49259  1.0000
  H   H2256     1.0  0.73039  0.73954  0.50880  1.0000
  C   C2811     1.0  0.58468  0.70174  0.57508  1.0000
  H   H2257     1.0  0.50231  0.90063  0.95392  1.0000
  C   C2812     1.0  0.68344  0.71249  0.83556  1.0000
  C   C2813     1.0  0.72391  0.68877  0.49969  1.0000
  C   C2814     1.0  0.67843  0.70586  0.81007  1.0000
  H   H2258     1.0  0.58465  0.65002  0.55740  1.0000
  H   H2259     1.0  0.72468  0.77091  0.68763  1.0000
  S   S377      1.0  0.69027  0.68628  0.51539  1.0000
  H   H2260     1.0  0.69464  0.79554  0.86941  1.0000
  C   C2815     1.0  0.71295  0.71157  0.81977  1.0000
  H   H2261     1.0  0.70913  0.81077  0.65452  1.0000
  C   C2816     1.0  0.59214  0.68872  0.59153  1.0000
  H   H2262     1.0  0.58594  0.70136  0.55260  1.0000
  C   C2817     1.0  0.57470  0.71632  0.61665  1.0000
  H   H2263     1.0  0.50554  0.89396  0.90356  1.0000
  C   C2818     1.0  0.69084  0.78276  0.87450  1.0000
  C   C2819     1.0  0.68325  0.77303  0.85414  1.0000
  C   C2820     1.0  0.67794  0.75670  0.86062  1.0000
  C   C2821     1.0  0.68038  0.74998  0.88749  1.0000
  C   C2822     1.0  0.68844  0.75949  0.90792  1.0000
  C   C2823     1.0  0.69337  0.77608  0.90135  1.0000
  P   P94       1.0  0.69046  0.75136  0.94317  1.0000
  C   C2824     1.0  0.70833  0.76077  0.96001  1.0000
  C   C2825     1.0  0.67095  0.75682  0.96197  1.0000
  H   H2264     1.0  0.71892  0.73574  0.71607  1.0000
  H   H2265     1.0  0.73393  0.69197  0.56944  1.0000
  C   C2826     1.0  0.58912  0.66648  0.97642  1.0000
  C   C2827     1.0  0.70263  0.72467  0.68569  1.0000
  C   C2828     1.0  0.70911  0.67931  0.49715  1.0000
  C   C2829     1.0  0.50111  0.94628  0.53365  1.0000
  H   H2266     1.0  0.51000  0.95309  0.94272  1.0000
  C   C2830     1.0  0.72919  0.76472  0.84772  1.0000
  C   C2831     1.0  0.60099  0.67520  0.93195  1.0000
  C   C2832     1.0  0.63507  0.66873  0.63742  1.0000
  C   C2833     1.0  0.69427  0.72856  0.94140  1.0000
  C   C2834     1.0  0.68044  0.71778  0.94047  1.0000
  C   C2835     1.0  0.68315  0.70022  0.93780  1.0000
  C   C2836     1.0  0.48502  0.87915  0.71544  1.0000
  C   C2837     1.0  0.70778  0.70505  0.79408  1.0000
  C   C2838     1.0  0.71094  0.72141  0.93981  1.0000
  C   C2839     1.0  0.50567  0.65836  0.88336  1.0000
  C   C2840     1.0  0.68122  0.73560  0.59928  1.0000
  H   H2267     1.0  0.67164  0.74936  0.84491  1.0000
  H   H2268     1.0  0.67566  0.73751  0.89228  1.0000
  H   H2269     1.0  0.69887  0.78399  0.91703  1.0000
  H   H2270     1.0  0.66408  0.77863  0.93572  1.0000
  H   H2271     1.0  0.49246  0.92623  0.87167  1.0000
  C   C2841     1.0  0.52430  0.97545  0.86231  1.0000
  H   H2272     1.0  0.68940  0.71381  0.65160  1.0000
  H   H2273     1.0  0.72650  0.69831  0.93662  1.0000
  H   H2274     1.0  0.72194  0.72923  0.94052  1.0000
  H   H2275     1.0  0.65654  0.74848  0.59662  1.0000
  C   C2842     1.0  0.69421  0.72658  0.58467  1.0000
  H   H2276     1.0  0.50340  0.95971  0.53520  1.0000
  H   H2277     1.0  0.56552  0.73116  0.48701  1.0000
  H   H2278     1.0  0.66752  0.72296  0.94166  1.0000
  H   H2279     1.0  0.67239  0.69195  0.93745  1.0000
  C   C2843     1.0  0.71217  0.82443  0.72159  1.0000
  C   C2844     1.0  0.50269  0.93855  0.90744  1.0000
  C   C2845     1.0  0.50223  0.91815  0.55498  1.0000
  H   H2280     1.0  0.68131  0.77826  0.83338  1.0000
  C   C2846     1.0  0.69288  0.72489  0.55559  1.0000
  C   C2847     1.0  0.51905  0.94328  0.74907  1.0000
  C   C2848     1.0  0.49085  0.93671  0.88618  1.0000
  C   C2849     1.0  0.72697  0.77245  0.70968  1.0000
  S   S378      1.0  0.64444  0.66769  0.48427  1.0000
  H   H2281     1.0  0.51341  0.92952  0.90916  1.0000
  H   H2282     1.0  0.50086  0.91060  0.67489  1.0000
  C   C2850     1.0  0.60318  0.67957  0.67703  1.0000
  C   C2851     1.0  0.72698  0.73588  0.48787  1.0000
  H   H2283     1.0  0.48832  0.91625  0.48820  1.0000
  C   C2852     1.0  0.60948  0.69147  0.73100  1.0000
  C   C2853     1.0  0.60190  0.67581  0.72746  1.0000
  C   C2854     1.0  0.59876  0.66985  0.70058  1.0000
  C   C2855     1.0  0.70097  0.71974  0.65789  1.0000
  H   H2284     1.0  0.70423  0.72084  0.86011  1.0000
  C   C2856     1.0  0.50080  0.95205  0.92614  1.0000
  C   C2857     1.0  0.49638  0.91125  0.53021  1.0000
  C   C2858     1.0  0.59089  0.68943  0.62075  1.0000
  C   C2859     1.0  0.58181  0.70318  0.63316  1.0000
  H   H2285     1.0  0.49839  0.66949  0.87604  1.0000
  H   H2286     1.0  0.71911  0.69341  0.87062  1.0000
  H   H2287     1.0  0.49450  0.89767  0.52881  1.0000
  H   H2288     1.0  0.52878  0.67191  0.88877  1.0000
  C   C2860     1.0  0.52281  0.65973  0.89051  1.0000
  C   C2861     1.0  0.69972  0.69326  0.93589  1.0000
  C   C2862     1.0  0.73071  0.71846  0.58174  1.0000
  H   H2289     1.0  0.61198  0.69612  0.75179  1.0000
  C   C2863     1.0  0.65030  0.66128  0.62719  1.0000
  C   C2864     1.0  0.72359  0.76309  0.94514  1.0000
  H   H2290     1.0  0.71691  0.70215  0.77765  1.0000
  H   H2291     1.0  0.56814  0.72712  0.62638  1.0000
  H   H2292     1.0  0.72784  0.68767  0.63412  1.0000
  H   H2293     1.0  0.58016  0.70384  0.65558  1.0000
  C   C2865     1.0  0.70741  0.69321  0.60493  1.0000
  H   H2294     1.0  0.72347  0.70016  0.51215  1.0000
  H   H2295     1.0  0.57095  0.72594  0.57480  1.0000
  H   H2296     1.0  0.69221  0.72293  0.70038  1.0000
  C   C2866     1.0  0.49273  0.92184  0.50728  1.0000
  C   C2867     1.0  0.49531  0.89258  0.70765  1.0000
  H   H2297     1.0  0.72480  0.75928  0.92349  1.0000
  C   C2868     1.0  0.59536  0.66223  0.94977  1.0000
  H   H2298     1.0  0.68252  0.66329  0.57677  1.0000
  H   H2299     1.0  0.57093  0.65452  0.84943  1.0000
  H   H2300     1.0  0.66507  0.70379  0.80626  1.0000
  H   H2301     1.0  0.70253  0.71768  0.54390  1.0000
  H   H2302     1.0  0.50356  0.93689  0.71415  1.0000
  C   C2869     1.0  0.73257  0.77680  0.76645  1.0000
  C   C2870     1.0  0.66687  0.74217  0.58514  1.0000
  C   C2871     1.0  0.59366  0.69628  0.96704  1.0000
  H   H2303     1.0  0.72096  0.77544  0.84143  1.0000
  C   C2872     1.0  0.71362  0.70382  0.93724  1.0000
  H   H2304     1.0  0.68623  0.69392  0.57586  1.0000
  P   P95       1.0  0.59943  0.67210  0.64206  1.0000
  H   H2305     1.0  0.63577  0.67847  0.65307  1.0000
  C   C2873     1.0  0.73094  0.73431  0.67547  1.0000
  C   C2874     1.0  0.49296  0.90022  0.68116  1.0000
  C   C2875     1.0  0.71477  0.81421  0.67414  1.0000
  C   C2876     1.0  0.49059  0.96283  0.76769  1.0000
  C   C2877     1.0  0.64574  0.77535  0.96840  1.0000
  C   C2878     1.0  0.49458  0.93950  0.50908  1.0000
  H   H2306     1.0  0.50486  0.90991  0.57285  1.0000
  C   C2879     1.0  0.61929  0.66353  0.62749  1.0000
  C   C2880     1.0  0.67845  0.73134  0.54160  1.0000
  C   C2881     1.0  0.48697  0.97512  0.48800  1.0000
  H   H2307     1.0  0.59849  0.66831  0.74560  1.0000
  C   C2882     1.0  0.55850  0.98165  0.85220  1.0000
  C   C2883     1.0  0.73250  0.81296  0.67690  1.0000
  H   H2308     1.0  0.73075  0.74570  0.58781  1.0000
  H   H2309     1.0  0.53128  0.95132  0.78650  1.0000
  H   H2310     1.0  0.48428  0.97212  0.83732  1.0000
  H   H2311     1.0  0.48669  0.87313  0.73569  1.0000
  C   C2884     1.0  0.48704  0.96393  0.92366  1.0000
  C   C2885     1.0  0.50474  0.93563  0.55663  1.0000
  C   C2886     1.0  0.50562  0.96190  0.78347  1.0000
  H   H2312     1.0  0.50646  0.96819  0.80332  1.0000
  H   H2313     1.0  0.63771  0.78605  0.96148  1.0000
  H   H2314     1.0  0.51114  0.97292  0.86687  1.0000
  C   C2887     1.0  0.71517  0.66497  0.62294  1.0000
  H   H2315     1.0  0.59292  0.65771  0.69831  1.0000
  H   H2316     1.0  0.72328  0.65676  0.63586  1.0000
  C   C2888     1.0  0.72657  0.74867  0.83659  1.0000
  H   H2317     1.0  0.51746  0.98132  0.92045  1.0000
  P   P96       1.0  0.48403  0.98069  0.94918  1.0000
  Fe  Fe193     1.0  0.83254  0.17619  0.02228  1.0000
  S   S379      1.0  0.83762  0.20439  0.01932  1.0000
  S   S380      1.0  0.85728  0.15879  0.02409  1.0000
  Fe  Fe194     1.0  0.79367  0.18385  0.02137  1.0000
  S   S381      1.0  0.79668  0.21204  0.01932  1.0000
  S   S382      1.0  0.76697  0.17322  0.02707  1.0000
  C   C2889     1.0  0.75780  0.18192  0.10740  1.0000
  C   C2890     1.0  0.73748  0.27858  0.14636  1.0000
  Fe  Fe195     1.0  0.81699  0.20821  0.05184  1.0000
  S   S383      1.0  0.81968  0.22918  0.08449  1.0000
  H   H2318     1.0  0.81374  0.20273  0.12718  1.0000
  S   S384      1.0  0.81279  0.18019  0.05654  1.0000
  Fe  Fe196     1.0  0.79021  0.28236  0.26196  1.0000
  S   S385      1.0  0.79326  0.25483  0.27341  1.0000
  S   S386      1.0  0.76463  0.29565  0.25161  1.0000
  Fe  Fe197     1.0  0.82883  0.28854  0.26952  1.0000
  S   S387      1.0  0.83426  0.26080  0.28100  1.0000
  S   S388      1.0  0.84888  0.30923  0.26239  1.0000
  Fe  Fe198     1.0  0.81650  0.25459  0.24564  1.0000
  S   S389      1.0  0.81899  0.23093  0.21809  1.0000
  Fe  Fe199     1.0  0.81046  0.26308  0.30772  1.0000
  S   S390      1.0  0.80324  0.25339  0.35133  1.0000
  S   S391      1.0  0.81264  0.28190  0.23227  1.0000
  S   S392      1.0  0.80590  0.29103  0.29800  1.0000
  Fe  Fe200     1.0  0.91632  0.07436  0.07344  1.0000
  S   S393      1.0  0.94044  0.08660  0.05931  1.0000
  S   S394      1.0  0.88958  0.08794  0.07347  1.0000
  Fe  Fe201     1.0  0.93509  0.03895  0.08330  1.0000
  S   S395      1.0  0.95995  0.04965  0.06922  1.0000
  S   S396      1.0  0.94129  0.01062  0.09194  1.0000
  Fe  Fe202     1.0  0.95280  0.07219  0.09573  1.0000
  C   C2891     1.0  0.94184  0.98590  0.47286  1.0000
  Fe  Fe203     1.0  0.94558  0.06269  0.03442  1.0000
  C   C2892     1.0  0.77190  0.24149  0.10920  1.0000
  S   S397      1.0  0.92845  0.06121  0.11151  1.0000
  S   S398      1.0  0.92095  0.05088  0.04703  1.0000
  H   H2319     1.0  0.97470  0.01426  0.22618  1.0000
  H   H2320     1.0  0.78142  0.23933  0.12527  1.0000
  C   C2893     1.0  0.97166  0.03198  0.38430  1.0000
  C   C2894     1.0  0.75276  0.25264  0.35943  1.0000
  C   C2895     1.0  0.96665  0.06791  0.45758  1.0000
  H   H2321     1.0  0.86494  0.15059  0.42968  1.0000
  C   C2896     1.0  0.96558  0.06514  0.17247  1.0000
  C   C2897     1.0  0.96875  0.05965  0.20012  1.0000
  C   C2898     1.0  0.80084  0.29946  0.16284  1.0000
  H   H2322     1.0  0.95386  0.06194  0.16234  1.0000
  H   H2323     1.0  0.95931  0.05245  0.21108  1.0000
  H   H2324     1.0  0.85948  0.31173  0.32115  1.0000
  H   H2325     1.0  0.85246  0.28293  0.34048  1.0000
  H   H2326     1.0  0.73625  0.20965  0.04664  1.0000
  H   H2327     1.0  0.90618  0.00161  0.10732  1.0000
  C   C2899     1.0  0.74501  0.28548  0.24667  1.0000
  S   S399      1.0  0.81220  0.17517  0.47528  1.0000
  H   H2328     1.0  0.75524  0.25988  0.25147  1.0000
  C   C2900     1.0  0.86592  0.13921  0.03900  1.0000
  C   C2901     1.0  0.88377  0.13619  0.03920  1.0000
  C   C2902     1.0  0.89120  0.12073  0.04963  1.0000
  C   C2903     1.0  0.88095  0.10793  0.06023  1.0000
  C   C2904     1.0  0.86313  0.11109  0.06059  1.0000
  C   C2905     1.0  0.85567  0.12651  0.05000  1.0000
  H   H2329     1.0  0.89196  0.14589  0.03119  1.0000
  H   H2330     1.0  0.90488  0.11870  0.04959  1.0000
  H   H2331     1.0  0.85498  0.10140  0.06881  1.0000
  H   H2332     1.0  0.84197  0.12841  0.04988  1.0000
  H   H2333     1.0  0.85876  0.30561  0.45647  1.0000
  C   C2906     1.0  0.88966  0.07166  0.99861  1.0000
  C   C2907     1.0  0.93559  0.02031  0.19742  1.0000
  H   H2334     1.0  0.87646  0.18874  0.04649  1.0000
  C   C2908     1.0  0.80146  0.28905  0.13932  1.0000
  C   C2909     1.0  0.82914  0.22359  0.42381  1.0000
  C   C2910     1.0  0.81188  0.22858  0.42501  1.0000
  C   C2911     1.0  0.80432  0.23776  0.40264  1.0000
  C   C2912     1.0  0.81373  0.24167  0.37847  1.0000
  C   C2913     1.0  0.83094  0.23645  0.37700  1.0000
  C   C2914     1.0  0.83862  0.22750  0.39963  1.0000
  H   H2335     1.0  0.80442  0.22570  0.44345  1.0000
  H   H2336     1.0  0.79105  0.24189  0.40413  1.0000
  H   H2337     1.0  0.83835  0.23949  0.35863  1.0000
  H   H2338     1.0  0.85199  0.22371  0.39854  1.0000
  C   C2915     1.0  0.81832  0.22935  0.12162  1.0000
  C   C2916     1.0  0.82041  0.24482  0.13552  1.0000
  C   C2917     1.0  0.82002  0.24566  0.16494  1.0000
  C   C2918     1.0  0.81774  0.23093  0.18093  1.0000
  C   C2919     1.0  0.81519  0.21552  0.16704  1.0000
  C   C2920     1.0  0.81548  0.21470  0.13756  1.0000
  H   H2339     1.0  0.82260  0.25622  0.12340  1.0000
  H   H2340     1.0  0.82194  0.25763  0.17523  1.0000
  H   H2341     1.0  0.81300  0.20415  0.17917  1.0000
  H   H2342     1.0  0.76244  0.28876  0.18952  1.0000
  C   C2921     1.0  0.75403  0.23776  0.31544  1.0000
  H   H2343     1.0  0.78410  0.22349  0.08109  1.0000
  C   C2922     1.0  0.75824  0.25327  0.11326  1.0000
  C   C2923     1.0  0.77348  0.23249  0.08421  1.0000
  C   C2924     1.0  0.76987  0.24580  0.19109  1.0000
  C   C2925     1.0  0.74126  0.22711  0.32483  1.0000
  C   C2926     1.0  0.97776  0.01476  0.01862  1.0000
  H   H2344     1.0  0.95536  0.07250  0.46866  1.0000
  C   C2927     1.0  0.92211  0.13113  0.98627  1.0000
  S   S400      1.0  0.97360  0.08262  0.12355  1.0000
  C   C2928     1.0  0.91453  0.99043  0.10960  1.0000
  H   H2345     1.0  0.91349  0.05898  0.98722  1.0000
  C   C2929     1.0  0.75974  0.25055  0.33271  1.0000
  C   C2930     1.0  0.77321  0.28883  0.17519  1.0000
  C   C2931     1.0  0.81642  0.13666  0.14484  1.0000
  C   C2932     1.0  0.81073  0.13588  0.11732  1.0000
  C   C2933     1.0  0.81999  0.14345  0.09584  1.0000
  C   C2934     1.0  0.83483  0.15200  0.10182  1.0000
  C   C2935     1.0  0.84045  0.15316  0.12946  1.0000
  C   C2936     1.0  0.83131  0.14512  0.15089  1.0000
  P   P97       1.0  0.86031  0.16305  0.13697  1.0000
  C   C2937     1.0  0.86305  0.18076  0.11311  1.0000
  C   C2938     1.0  0.85978  0.17079  0.17244  1.0000
  C   C2939     1.0  0.87397  0.16847  0.18994  1.0000
  H   H2346     1.0  0.92818  0.29705  0.32603  1.0000
  C   C2940     1.0  0.97740  0.07496  0.15821  1.0000
  C   C2941     1.0  0.92315  0.30809  0.28519  1.0000
  C   C2942     1.0  0.84513  0.17955  0.18261  1.0000
  C   C2943     1.0  0.86997  0.17782  0.08638  1.0000
  S   S401      1.0  0.95162  0.05753  0.98840  1.0000
  H   H2347     1.0  0.88455  0.17324  0.23041  1.0000
  C   C2944     1.0  0.74256  0.23711  0.17408  1.0000
  C   C2945     1.0  0.85803  0.19748  0.12057  1.0000
  C   C2946     1.0  0.87763  0.14754  0.13199  1.0000
  C   C2947     1.0  0.87459  0.13005  0.13238  1.0000
  C   C2948     1.0  0.88797  0.11816  0.12787  1.0000
  C   C2949     1.0  0.90445  0.12358  0.12264  1.0000
  C   C2950     1.0  0.90762  0.14096  0.12239  1.0000
  C   C2951     1.0  0.89429  0.15291  0.12717  1.0000
  H   H2348     1.0  0.80939  0.13054  0.16143  1.0000
  H   H2349     1.0  0.79925  0.12927  0.11252  1.0000
  H   H2350     1.0  0.81572  0.14265  0.07441  1.0000
  H   H2351     1.0  0.84191  0.15753  0.08473  1.0000
  H   H2352     1.0  0.83577  0.14520  0.17222  1.0000
  H   H2353     1.0  0.88541  0.16172  0.18274  1.0000
  H   H2354     1.0  0.79767  0.16607  0.41141  1.0000
  C   C2952     1.0  0.84480  0.18625  0.20958  1.0000
  C   C2953     1.0  0.85986  0.21091  0.10157  1.0000
  H   H2355     1.0  0.83409  0.18153  0.16937  1.0000
  H   H2356     1.0  0.74812  0.16033  0.08617  1.0000
  C   C2954     1.0  0.93198  0.99156  0.10401  1.0000
  H   H2357     1.0  0.77499  0.17842  0.44143  1.0000
  C   C2955     1.0  0.96471  0.99691  0.33195  1.0000
  H   H2358     1.0  0.85244  0.20033  0.14071  1.0000
  H   H2359     1.0  0.86189  0.12547  0.13565  1.0000
  H   H2360     1.0  0.88550  0.10468  0.12760  1.0000
  H   H2361     1.0  0.91466  0.11426  0.11841  1.0000
  C   C2956     1.0  0.96024  0.01613  0.01379  1.0000
  H   H2362     1.0  0.89691  0.16634  0.12674  1.0000
  C   C2957     1.0  0.80483  0.14095  0.29798  1.0000
  C   C2958     1.0  0.79215  0.13108  0.30978  1.0000
  C   C2959     1.0  0.78560  0.13498  0.33626  1.0000
  C   C2960     1.0  0.79160  0.14884  0.35087  1.0000
  C   C2961     1.0  0.80401  0.15914  0.33888  1.0000
  C   C2962     1.0  0.81085  0.15483  0.31254  1.0000
  P   P98       1.0  0.81236  0.17671  0.35803  1.0000
  C   C2963     1.0  0.79585  0.18618  0.38012  1.0000
  C   C2964     1.0  0.82955  0.16869  0.37993  1.0000
  C   C2965     1.0  0.83373  0.17748  0.40417  1.0000
  C   C2966     1.0  0.88010  0.08698  0.99811  1.0000
  C   C2967     1.0  0.74741  0.17314  0.37274  1.0000
  H   H2363     1.0  0.91681  0.00670  0.04397  1.0000
  C   C2968     1.0  0.83861  0.15347  0.37342  1.0000
  C   C2969     1.0  0.78771  0.20186  0.37316  1.0000
  C   C2970     1.0  0.77502  0.20892  0.39067  1.0000
  C   C2971     1.0  0.84650  0.17099  0.42191  1.0000
  C   C2972     1.0  0.85297  0.29343  0.45878  1.0000
  C   C2973     1.0  0.79125  0.17791  0.40505  1.0000
  C   C2974     1.0  0.81981  0.19232  0.33326  1.0000
  C   C2975     1.0  0.80997  0.19666  0.30965  1.0000
  C   C2976     1.0  0.81607  0.20794  0.28949  1.0000
  C   C2977     1.0  0.83196  0.21503  0.29281  1.0000
  C   C2978     1.0  0.84163  0.21115  0.31658  1.0000
  C   C2979     1.0  0.83558  0.19985  0.33680  1.0000
  H   H2364     1.0  0.81010  0.13778  0.27762  1.0000
  H   H2365     1.0  0.78753  0.12029  0.29854  1.0000
  H   H2366     1.0  0.75989  0.16862  0.36582  1.0000
  H   H2367     1.0  0.78661  0.15131  0.37157  1.0000
  H   H2368     1.0  0.82095  0.16208  0.30327  1.0000
  H   H2369     1.0  0.82695  0.18924  0.40965  1.0000
  H   H2370     1.0  0.75610  0.21169  0.22801  1.0000
  C   C2980     1.0  0.78795  0.27849  0.13368  1.0000
  C   C2981     1.0  0.97034  0.29466  0.29134  1.0000
  H   H2371     1.0  0.83574  0.14645  0.35483  1.0000
  H   H2372     1.0  0.79133  0.20896  0.35472  1.0000
  H   H2373     1.0  0.76908  0.22117  0.38546  1.0000
  H   H2374     1.0  0.97449  0.08623  0.99100  1.0000
  C   C2982     1.0  0.75611  0.22182  0.21254  1.0000
  H   H2375     1.0  0.88762  0.30087  0.24704  1.0000
  H   H2376     1.0  0.79761  0.19126  0.30677  1.0000
  H   H2377     1.0  0.80850  0.21127  0.27124  1.0000
  H   H2378     1.0  0.83667  0.22363  0.27694  1.0000
  H   H2379     1.0  0.85374  0.21701  0.31946  1.0000
  H   H2380     1.0  0.84321  0.19709  0.35514  1.0000
  C   C2983     1.0  0.77379  0.27822  0.15177  1.0000
  H   H2381     1.0  0.76423  0.20556  0.12623  1.0000
  C   C2984     1.0  0.90393  0.28975  0.31048  1.0000
  H   H2382     1.0  0.86769  0.08780  0.00822  1.0000
  H   H2383     1.0  0.73809  0.24830  0.05109  1.0000
  H   H2384     1.0  0.74294  0.15099  0.39838  1.0000
  H   H2385     1.0  0.97039  0.29884  0.31281  1.0000
  H   H2386     1.0  0.94438  0.12410  0.04640  1.0000
  C   C2985     1.0  0.81926  0.29017  0.38796  1.0000
  C   C2986     1.0  0.77846  0.18492  0.42229  1.0000
  C   C2987     1.0  0.77037  0.20046  0.41521  1.0000
  P   P99       1.0  0.97343  0.98639  0.44559  1.0000
  C   C2988     1.0  0.91933  0.29816  0.30883  1.0000
  H   H2387     1.0  0.92040  0.14513  0.11820  1.0000
  H   H2388     1.0  0.84945  0.17773  0.44084  1.0000
  C   C2989     1.0  0.76141  0.23506  0.06320  1.0000
  H   H2389     1.0  0.95831  0.00415  0.14250  1.0000
  C   C2990     1.0  0.97072  0.01065  0.31647  1.0000
  C   C2991     1.0  0.85138  0.14701  0.39125  1.0000
  C   C2992     1.0  0.84923  0.28363  0.43536  1.0000
  H   H2390     1.0  0.94578  0.02472  0.23829  1.0000
  C   C2993     1.0  0.85525  0.15572  0.41558  1.0000
  C   C2994     1.0  0.95798  0.01516  0.42003  1.0000
  H   H2391     1.0  0.78877  0.27055  0.11537  1.0000
  H   H2392     1.0  0.77026  0.17590  0.11085  1.0000
  H   H2393     1.0  0.92297  0.02547  0.20253  1.0000
  P   P100      1.0  0.75624  0.26453  0.14589  1.0000
  H   H2394     1.0  0.90077  0.28250  0.32903  1.0000
  H   H2395     1.0  0.88042  0.28461  0.28949  1.0000
  C   C2995     1.0  0.96849  0.00759  0.18369  1.0000
  H   H2396     1.0  0.81904  0.27838  0.39969  1.0000
  C   C2996     1.0  0.73624  0.29211  0.12702  1.0000
  Fe  Fe204     1.0  0.81703  0.20653  0.98681  1.0000
  C   C2997     1.0  0.74755  0.24644  0.06732  1.0000
  H   H2397     1.0  0.88462  0.06060  0.00899  1.0000
  C   C2998     1.0  0.84183  0.26779  0.43951  1.0000
  H   H2398     1.0  0.76070  0.20598  0.42904  1.0000
  H   H2399     1.0  0.89048  0.29151  0.38425  1.0000
  P   P101      1.0  0.85401  0.29098  0.40026  1.0000
  C   C2999     1.0  0.93921  0.01460  0.17040  1.0000
  C   C3000     1.0  0.94839  0.01977  0.21758  1.0000
  C   C3001     1.0  0.83821  0.26188  0.46644  1.0000
  H   H2400     1.0  0.96053  0.99877  0.35336  1.0000
  S   S402      1.0  0.81309  0.17813  0.98716  1.0000
  C   C3002     1.0  0.85900  0.18397  0.22681  1.0000
  H   H2401     1.0  0.77597  0.12714  0.34562  1.0000
  C   C3003     1.0  0.86660  0.20781  0.07497  1.0000
  C   C3004     1.0  0.80397  0.31112  0.35935  1.0000
  C   C3005     1.0  0.96483  0.01365  0.21067  1.0000
  H   H2402     1.0  0.88690  0.23675  0.38699  1.0000
  C   C3006     1.0  0.87170  0.19128  0.06741  1.0000
  C   C3007     1.0  0.78666  0.29942  0.18065  1.0000
  C   C3008     1.0  0.83439  0.29899  0.38443  1.0000
  H   H2403     1.0  0.81141  0.30745  0.16746  1.0000
  H   H2404     1.0  0.96112  0.08274  0.42031  1.0000
  C   C3009     1.0  0.97796  0.05622  0.47057  1.0000
  H   H2405     1.0  0.74639  0.29403  0.11196  1.0000
  C   C3010     1.0  0.95668  0.31491  0.00207  1.0000
  C   C3011     1.0  0.74392  0.26776  0.24756  1.0000
  H   H2406     1.0  0.86742  0.21817  0.05998  1.0000
  S   S403      1.0  0.83948  0.21342  0.45268  1.0000
  H   H2407     1.0  0.87455  0.26028  0.41505  1.0000
  C   C3012     1.0  0.91846  0.99773  0.02699  1.0000
  C   C3013     1.0  0.89659  0.30001  0.26418  1.0000
  C   C3014     1.0  0.96995  0.07367  0.43009  1.0000
  C   C3015     1.0  0.95386  0.01204  0.98766  1.0000
  H   H2408     1.0  0.79265  0.28910  0.37782  1.0000
  H   H2409     1.0  0.73692  0.21732  0.31109  1.0000
  H   H2410     1.0  0.98160  0.01887  0.27744  1.0000
  C   C3016     1.0  0.74584  0.25539  0.09235  1.0000
  H   H2411     1.0  0.94740  0.01379  0.43438  1.0000
  C   C3017     1.0  0.97198  0.00347  0.42005  1.0000
  H   H2412     1.0  0.86556  0.25959  0.31268  1.0000
  C   C3018     1.0  0.95559  0.00830  0.16360  1.0000
  C   C3019     1.0  0.95868  0.30189  0.27211  1.0000
  C   C3020     1.0  0.90592  0.07079  0.98658  1.0000
  C   C3021     1.0  0.87948  0.24692  0.37686  1.0000
  H   H2413     1.0  0.88258  0.23637  0.33570  1.0000
  C   C3022     1.0  0.87702  0.24668  0.34801  1.0000
  C   C3023     1.0  0.97656  0.00824  0.28914  1.0000
  H   H2414     1.0  0.76279  0.22811  0.04380  1.0000
  H   H2415     1.0  0.87363  0.16504  0.07984  1.0000
  H   H2416     1.0  0.94324  0.15566  0.04626  1.0000
  H   H2417     1.0  0.78080  0.25380  0.19006  1.0000
  H   H2418     1.0  0.78060  0.23076  0.22481  1.0000
  C   C3024     1.0  0.75443  0.19867  0.11587  1.0000
  H   H2419     1.0  0.83365  0.19349  0.21695  1.0000
  H   H2420     1.0  0.76962  0.25884  0.32542  1.0000
  H   H2421     1.0  0.81249  0.28900  0.12559  1.0000
  H   H2422     1.0  0.97180  0.04330  0.37117  1.0000
  C   C3025     1.0  0.76985  0.23261  0.21088  1.0000
  H   H2423     1.0  0.75744  0.26246  0.37282  1.0000
  C   C3026     1.0  0.87230  0.26021  0.39277  1.0000
  C   C3027     1.0  0.86737  0.25974  0.33506  1.0000
  H   H2424     1.0  0.75944  0.23625  0.29468  1.0000
  C   C3028     1.0  0.73788  0.16323  0.39104  1.0000
  C   C3029     1.0  0.80414  0.29626  0.37556  1.0000
  C   C3030     1.0  0.75604  0.24832  0.17284  1.0000
  C   C3031     1.0  0.93049  0.12222  0.00799  1.0000
  C   C3032     1.0  0.86226  0.27320  0.37997  1.0000
  H   H2425     1.0  0.92944  0.01529  0.15449  1.0000
  C   C3033     1.0  0.98200  0.28177  0.28297  1.0000
  H   H2426     1.0  0.73900  0.21890  0.99781  1.0000
  H   H2427     1.0  0.95162  0.02077  0.03005  1.0000
  H   H2428     1.0  0.85875  0.18928  0.24761  1.0000
  C   C3034     1.0  0.93748  0.14885  0.02942  1.0000
  C   C3035     1.0  0.74248  0.22404  0.19408  1.0000
  H   H2429     1.0  0.85552  0.22369  0.10717  1.0000
  H   H2430     1.0  0.73454  0.24416  0.38947  1.0000
  C   C3036     1.0  0.74527  0.17310  0.09363  1.0000
  C   C3037     1.0  0.93810  0.13107  0.02952  1.0000
  C   C3038     1.0  0.74884  0.17690  0.00519  1.0000
  H   H2431     1.0  0.85818  0.13514  0.38643  1.0000
  H   H2432     1.0  0.87921  0.11319  0.98621  1.0000
  C   C3039     1.0  0.95841  0.29559  0.24478  1.0000
  C   C3040     1.0  0.73984  0.24215  0.36880  1.0000
  C   C3041     1.0  0.97008  0.28271  0.23649  1.0000
  H   H2433     1.0  0.83258  0.24957  0.46937  1.0000
  C   C3042     1.0  0.95787  0.02936  0.40221  1.0000
  C   C3043     1.0  0.85997  0.27296  0.35093  1.0000
  C   C3044     1.0  0.92947  0.15781  0.00754  1.0000
  H   H2434     1.0  0.94740  0.03872  0.40301  1.0000
  H   H2435     1.0  0.74869  0.19653  0.34986  1.0000
  H   H2436     1.0  0.83891  0.25991  0.42193  1.0000
  H   H2437     1.0  0.97105  0.02317  0.32569  1.0000
  C   C3045     1.0  0.95864  0.99150  0.47376  1.0000
  H   H2438     1.0  0.96992  0.27803  0.21527  1.0000
  C   C3046     1.0  0.87353  0.17499  0.21705  1.0000
  C   C3047     1.0  0.89254  0.29075  0.28819  1.0000
  H   H2439     1.0  0.94918  0.30068  0.22988  1.0000
  C   C3048     1.0  0.88678  0.10146  0.98563  1.0000
  H   H2440     1.0  0.93106  0.10844  0.00844  1.0000
  H   H2441     1.0  0.91099  0.31445  0.38286  1.0000
  H   H2442     1.0  0.92903  0.17160  0.00738  1.0000
  C   C3049     1.0  0.74097  0.18906  0.36372  1.0000
  C   C3050     1.0  0.91184  0.30862  0.26259  1.0000
  C   C3051     1.0  0.83417  0.31370  0.36747  1.0000
  H   H2443     1.0  0.98338  0.03517  0.15499  1.0000
  H   H2444     1.0  0.95741  0.30183  0.00945  1.0000
  H   H2445     1.0  0.98068  0.99036  0.25597  1.0000
  C   C3052     1.0  0.88641  0.30404  0.39134  1.0000
  H   H2446     1.0  0.78618  0.30734  0.19911  1.0000
  C   C3053     1.0  0.97604  0.99215  0.27707  1.0000
  C   C3054     1.0  0.86960  0.30741  0.40066  1.0000
  C   C3055     1.0  0.91012  0.00069  0.00167  1.0000
  H   H2447     1.0  0.90198  0.01202  0.99896  1.0000
  H   H2448     1.0  0.94041  0.01401  0.98355  1.0000
  C   C3056     1.0  0.73868  0.20675  0.10990  1.0000
  H   H2449     1.0  0.73665  0.21999  0.11533  1.0000
  C   C3057     1.0  0.92195  0.14901  0.98588  1.0000
  C   C3058     1.0  0.98193  0.27586  0.25553  1.0000
  H   H2450     1.0  0.92997  0.98310  0.20523  1.0000
  H   H2451     1.0  0.88524  0.14235  0.98128  1.0000
  H   H2452     1.0  0.73476  0.26378  0.09523  1.0000
  H   H2453     1.0  0.94793  0.98420  0.24710  1.0000
  H   H2454     1.0  0.98263  0.01839  0.03872  1.0000
  C   C3059     1.0  0.98382  0.06367  0.21388  1.0000
  H   H2455     1.0  0.79231  0.31558  0.34924  1.0000
  C   C3060     1.0  0.74176  0.16470  0.48091  1.0000
  C   C3061     1.0  0.92896  0.98314  0.03059  1.0000
  Fe  Fe205     1.0  0.82445  0.16406  0.51470  1.0000
  S   S404      1.0  0.83829  0.18769  0.52481  1.0000
  S   S405      1.0  0.83704  0.13692  0.51764  1.0000
  Fe  Fe206     1.0  0.79027  0.18505  0.50227  1.0000
  S   S406      1.0  0.80280  0.20963  0.51201  1.0000
  C   C3062     1.0  0.79508  0.27655  0.65679  1.0000
  H   H2456     1.0  0.85945  0.16082  0.90801  1.0000
  C   C3063     1.0  0.98366  0.00765  0.89152  1.0000
  Fe  Fe207     1.0  0.81462  0.19599  0.54896  1.0000
  S   S407      1.0  0.81015  0.20341  0.59468  1.0000
  H   H2457     1.0  0.80046  0.21127  0.65066  1.0000
  S   S408      1.0  0.80111  0.17178  0.54040  1.0000
  Fe  Fe208     1.0  0.79264  0.27162  0.75643  1.0000
  S   S409      1.0  0.80796  0.24708  0.75032  1.0000
  S   S410      1.0  0.76408  0.26609  0.75362  1.0000
  Fe  Fe209     1.0  0.82567  0.29135  0.76868  1.0000
  S   S411      1.0  0.84237  0.26782  0.76276  1.0000
  H   H2458     1.0  0.96173  0.04721  0.93350  1.0000
  Fe  Fe210     1.0  0.82609  0.26255  0.72533  1.0000
  S   S412      1.0  0.83839  0.25574  0.68313  1.0000
  Fe  Fe211     1.0  0.82255  0.25435  0.78847  1.0000
  S   S413      1.0  0.82987  0.23343  0.82038  1.0000
  S   S414      1.0  0.81034  0.28693  0.72952  1.0000
  S   S415      1.0  0.80643  0.27803  0.79622  1.0000
  Fe  Fe212     1.0  0.92549  0.07910  0.56534  1.0000
  S   S416      1.0  0.95436  0.08118  0.56257  1.0000
  S   S417      1.0  0.90949  0.10462  0.56074  1.0000
  Fe  Fe213     1.0  0.92923  0.04061  0.57886  1.0000
  S   S418      1.0  0.95756  0.04069  0.57681  1.0000
  S   S419      1.0  0.91445  0.01652  0.58861  1.0000
  Fe  Fe214     1.0  0.95577  0.06480  0.60148  1.0000
  C   C3064     1.0  0.75039  0.16451  0.55003  1.0000
  Fe  Fe215     1.0  0.95452  0.05689  0.53800  1.0000
  C   C3065     1.0  0.77004  0.23471  0.83832  1.0000
  S   S420      1.0  0.92715  0.06404  0.60610  1.0000
  S   S421      1.0  0.92579  0.05546  0.53838  1.0000
  C   C3066     1.0  0.96671  0.06593  0.96472  1.0000
  C   C3067     1.0  0.88103  0.14356  0.90074  1.0000
  H   H2459     1.0  0.87973  0.14398  0.87823  1.0000
  H   H2460     1.0  0.93558  0.08438  0.88108  1.0000
  C   C3068     1.0  0.86255  0.26713  0.82844  1.0000
  P   P102      1.0  0.84339  0.30274  0.88320  1.0000
  C   C3069     1.0  0.96528  0.07490  0.68465  1.0000
  C   C3070     1.0  0.96696  0.07749  0.71361  1.0000
  C   C3071     1.0  0.95792  0.11332  0.91653  1.0000
  H   H2461     1.0  0.95349  0.07852  0.67425  1.0000
  H   H2462     1.0  0.95636  0.08307  0.72531  1.0000
  C   C3072     1.0  0.89512  0.30878  0.73762  1.0000
  H   H2463     1.0  0.96085  0.98716  0.84286  1.0000
  C   C3073     1.0  0.76614  0.22368  0.68828  1.0000
  C   C3074     1.0  0.93469  0.00157  0.51496  1.0000
  H   H2464     1.0  0.73688  0.12929  0.58402  1.0000
  C   C3075     1.0  0.87528  0.29328  0.86039  1.0000
  H   H2465     1.0  0.75683  0.26639  0.68445  1.0000
  C   C3076     1.0  0.85745  0.12826  0.52915  1.0000
  C   C3077     1.0  0.86029  0.11044  0.53048  1.0000
  C   C3078     1.0  0.87604  0.10298  0.53970  1.0000
  C   C3079     1.0  0.88936  0.11322  0.54780  1.0000
  C   C3080     1.0  0.88655  0.13107  0.54624  1.0000
  C   C3081     1.0  0.87079  0.13851  0.53708  1.0000
  H   H2466     1.0  0.85019  0.10228  0.52439  1.0000
  H   H2467     1.0  0.87782  0.08928  0.54066  1.0000
  H   H2468     1.0  0.89668  0.13925  0.55209  1.0000
  H   H2469     1.0  0.86898  0.15217  0.53602  1.0000
  H   H2470     1.0  0.95955  0.00329  0.94640  1.0000
  H   H2471     1.0  0.88375  0.26804  0.75067  1.0000
  C   C3082     1.0  0.74281  0.18230  0.48414  1.0000
  C   C3083     1.0  0.88770  0.30396  0.94064  1.0000
  H   H2472     1.0  0.92685  0.31063  0.91275  1.0000
  C   C3084     1.0  0.81968  0.22829  0.91545  1.0000
  C   C3085     1.0  0.82729  0.21487  0.90031  1.0000
  C   C3086     1.0  0.83022  0.21667  0.87128  1.0000
  C   C3087     1.0  0.82540  0.23178  0.85689  1.0000
  C   C3088     1.0  0.81753  0.24510  0.87193  1.0000
  C   C3089     1.0  0.81482  0.24341  0.90102  1.0000
  H   H2473     1.0  0.83113  0.20320  0.91102  1.0000
  H   H2474     1.0  0.83629  0.20626  0.85989  1.0000
  H   H2475     1.0  0.81360  0.25670  0.86115  1.0000
  H   H2476     1.0  0.80892  0.25387  0.91249  1.0000
  C   C3090     1.0  0.81823  0.21830  0.61849  1.0000
  C   C3091     1.0  0.83172  0.22878  0.61178  1.0000
  C   C3092     1.0  0.83769  0.24021  0.63176  1.0000
  C   C3093     1.0  0.83014  0.24142  0.65849  1.0000
  C   C3094     1.0  0.81660  0.23099  0.66510  1.0000
  C   C3095     1.0  0.81079  0.21944  0.64526  1.0000
  H   H2477     1.0  0.83763  0.22798  0.59134  1.0000
  H   H2478     1.0  0.84822  0.24815  0.62648  1.0000
  H   H2479     1.0  0.81071  0.23174  0.68557  1.0000
  C   C3096     1.0  0.75066  0.22933  0.67622  1.0000
  C   C3097     1.0  0.86628  0.20930  0.66292  1.0000
  C   C3098     1.0  0.85431  0.20645  0.68404  1.0000
  C   C3099     1.0  0.84801  0.19021  0.68802  1.0000
  C   C3100     1.0  0.85357  0.17683  0.67075  1.0000
  C   C3101     1.0  0.86552  0.17960  0.64932  1.0000
  C   C3102     1.0  0.87193  0.19594  0.64566  1.0000
  P   P103      1.0  0.87140  0.16255  0.62557  1.0000
  C   C3103     1.0  0.88446  0.14594  0.64225  1.0000
  C   C3104     1.0  0.85194  0.15395  0.61254  1.0000
  C   C3105     1.0  0.85173  0.13728  0.60227  1.0000
  C   C3106     1.0  0.83673  0.13094  0.59162  1.0000
  C   C3107     1.0  0.82179  0.14113  0.59114  1.0000
  C   C3108     1.0  0.82183  0.15768  0.60142  1.0000
  C   C3109     1.0  0.83685  0.16417  0.61172  1.0000
  C   C3110     1.0  0.88618  0.14519  0.67143  1.0000
  C   C3111     1.0  0.89636  0.13229  0.68392  1.0000
  C   C3112     1.0  0.90492  0.12008  0.66742  1.0000
  C   C3113     1.0  0.90338  0.12080  0.63840  1.0000
  C   C3114     1.0  0.89327  0.13368  0.62589  1.0000
  C   C3115     1.0  0.88285  0.17112  0.59607  1.0000
  C   C3116     1.0  0.90076  0.17014  0.59505  1.0000
  C   C3117     1.0  0.90950  0.17652  0.57188  1.0000
  C   C3118     1.0  0.90046  0.18426  0.54987  1.0000
  C   C3119     1.0  0.88269  0.18579  0.55116  1.0000
  C   C3120     1.0  0.87390  0.17929  0.57420  1.0000
  H   H2480     1.0  0.87082  0.22201  0.65958  1.0000
  H   H2481     1.0  0.84971  0.21693  0.69700  1.0000
  H   H2482     1.0  0.83854  0.18812  0.70415  1.0000
  H   H2483     1.0  0.84824  0.16441  0.67362  1.0000
  H   H2484     1.0  0.88097  0.19856  0.62914  1.0000
  H   H2485     1.0  0.86314  0.12919  0.60161  1.0000
  H   H2486     1.0  0.83685  0.11830  0.58275  1.0000
  H   H2487     1.0  0.81033  0.13634  0.58207  1.0000
  H   H2488     1.0  0.81032  0.16572  0.60077  1.0000
  H   H2489     1.0  0.83662  0.17728  0.61848  1.0000
  H   H2490     1.0  0.87978  0.15452  0.68464  1.0000
  H   H2491     1.0  0.89761  0.13174  0.70643  1.0000
  H   H2492     1.0  0.91278  0.11006  0.67706  1.0000
  H   H2493     1.0  0.90998  0.11136  0.62541  1.0000
  H   H2494     1.0  0.89241  0.13403  0.60335  1.0000
  H   H2495     1.0  0.90803  0.16433  0.61196  1.0000
  H   H2496     1.0  0.92329  0.17531  0.57088  1.0000
  H   H2497     1.0  0.90721  0.18903  0.53177  1.0000
  H   H2498     1.0  0.87569  0.19181  0.53410  1.0000
  H   H2499     1.0  0.86012  0.18050  0.57478  1.0000
  C   C3121     1.0  0.85139  0.27738  0.84445  1.0000
  C   C3122     1.0  0.92321  0.98568  0.69313  1.0000
  H   H2500     1.0  0.92545  0.00565  0.53075  1.0000
  C   C3123     1.0  0.87495  0.28350  0.71600  1.0000
  H   H2501     1.0  0.98214  0.05848  0.89861  1.0000
  C   C3124     1.0  0.83972  0.29026  0.91455  1.0000
  C   C3125     1.0  0.88426  0.14253  0.95876  1.0000
  C   C3126     1.0  0.88446  0.28025  0.74012  1.0000
  C   C3127     1.0  0.96316  0.00249  0.49520  1.0000
  H   H2502     1.0  0.85042  0.25173  0.94441  1.0000
  H   H2503     1.0  0.97073  0.11796  0.91787  1.0000
  S   S422      1.0  0.81659  0.22727  0.95241  1.0000
  H   H2504     1.0  0.85219  0.29509  0.50373  1.0000
  C   C3128     1.0  0.91532  0.31314  0.92484  1.0000
  H   H2505     1.0  0.94821  0.12895  0.94981  1.0000
  H   H2506     1.0  0.90348  0.30775  0.66088  1.0000
  C   C3129     1.0  0.74324  0.29040  0.72573  1.0000
  C   C3130     1.0  0.94510  0.11945  0.93468  1.0000
  H   H2507     1.0  0.77992  0.31312  0.82714  1.0000
  S   S423      1.0  0.97430  0.04811  0.50495  1.0000
  H   H2508     1.0  0.80590  0.28424  0.66121  1.0000
  C   C3131     1.0  0.84845  0.27453  0.91895  1.0000
  H   H2509     1.0  0.96457  0.09577  0.88361  1.0000
  H   H2510     1.0  0.93807  0.99009  0.75904  1.0000
  Fe  Fe216     1.0  0.82498  0.19920  0.48678  1.0000
  C   C3132     1.0  0.92527  0.10039  0.91393  1.0000
  C   C3133     1.0  0.73567  0.21988  0.71779  1.0000
  C   C3134     1.0  0.75998  0.22244  0.56458  1.0000
  H   H2511     1.0  0.96674  0.03008  0.72027  1.0000
  H   H2512     1.0  0.93099  0.00710  0.71682  1.0000
  C   C3135     1.0  0.76570  0.20567  0.56943  1.0000
  H   H2513     1.0  0.88949  0.99343  0.60514  1.0000
  H   H2514     1.0  0.76115  0.16881  0.53799  1.0000
  H   H2515     1.0  0.77395  0.23660  0.79384  1.0000
  H   H2516     1.0  0.81114  0.28456  0.88510  1.0000
  C   C3136     1.0  0.93421  0.03964  0.67624  1.0000
  C   C3137     1.0  0.94450  0.04003  0.69984  1.0000
  C   C3138     1.0  0.95870  0.02886  0.70226  1.0000
  C   C3139     1.0  0.96257  0.01691  0.68120  1.0000
  H   H2517     1.0  0.97562  0.00784  0.49575  1.0000
  C   C3140     1.0  0.90161  0.98643  0.60608  1.0000
  P   P104      1.0  0.91232  0.11958  0.95858  1.0000
  H   H2518     1.0  0.93042  0.02816  0.63637  1.0000
  C   C3141     1.0  0.87548  0.29936  0.70268  1.0000
  C   C3142     1.0  0.90245  0.30128  0.92451  1.0000
  H   H2519     1.0  0.94375  0.99146  0.59497  1.0000
  C   C3143     1.0  0.78086  0.27705  0.67454  1.0000
  C   C3144     1.0  0.74728  0.23519  0.80442  1.0000
  C   C3145     1.0  0.78198  0.25512  0.62888  1.0000
  H   H2520     1.0  0.81945  0.30721  0.92996  1.0000
  C   C3146     1.0  0.73542  0.22753  0.69131  1.0000
  H   H2521     1.0  0.93800  0.31005  0.97104  1.0000
  H   H2522     1.0  0.77110  0.18622  0.60028  1.0000
  H   H2523     1.0  0.83912  0.26705  0.51042  1.0000
  C   C3147     1.0  0.73517  0.18819  0.96299  1.0000
  H   H2524     1.0  0.73606  0.18803  0.54507  1.0000
  C   C3148     1.0  0.73610  0.17540  0.55419  1.0000
  C   C3149     1.0  0.92996  0.99088  0.49344  1.0000
  C   C3150     1.0  0.93814  0.09432  0.89582  1.0000
  C   C3151     1.0  0.86960  0.15306  0.91747  1.0000
  H   H2525     1.0  0.92341  0.04854  0.67405  1.0000
  H   H2526     1.0  0.94178  0.04937  0.71595  1.0000
  C   C3152     1.0  0.87123  0.15253  0.94648  1.0000
  H   H2527     1.0  0.88820  0.99008  0.81224  1.0000
  C   C3153     1.0  0.97897  0.06800  0.66913  1.0000
  P   P105      1.0  0.98112  0.00255  0.68373  1.0000
  C   C3154     1.0  0.79402  0.29800  0.85747  1.0000
  S   S424      1.0  0.97807  0.06585  0.63219  1.0000
  C   C3155     1.0  0.73671  0.14219  0.57587  1.0000
  C   C3156     1.0  0.75112  0.21422  0.72960  1.0000
  H   H2528     1.0  0.86933  0.30385  0.79488  1.0000
  C   C3157     1.0  0.79185  0.31135  0.83822  1.0000
  H   H2529     1.0  0.88055  0.30308  0.87306  1.0000
  H   H2530     1.0  0.90271  0.12626  0.89958  1.0000
  H   H2531     1.0  0.74337  0.23595  0.78283  1.0000
  H   H2532     1.0  0.75136  0.20881  0.75048  1.0000
  C   C3158     1.0  0.84427  0.26422  0.94178  1.0000
  H   H2533     1.0  0.76174  0.13954  0.55715  1.0000
  C   C3159     1.0  0.79559  0.26564  0.63392  1.0000
  C   C3160     1.0  0.89581  0.13287  0.94219  1.0000
  C   C3161     1.0  0.75802  0.23373  0.85992  1.0000
  C   C3162     1.0  0.95125  0.00742  0.51570  1.0000
  H   H2534     1.0  0.76225  0.23310  0.88143  1.0000
  H   H2535     1.0  0.78048  0.28522  0.69264  1.0000
  C   C3163     1.0  0.76636  0.21615  0.71484  1.0000
  C   C3164     1.0  0.97921  0.99948  0.57546  1.0000
  H   H2536     1.0  0.90377  0.30317  0.60995  1.0000
  P   P106      1.0  0.75090  0.24056  0.64318  1.0000
  C   C3165     1.0  0.96897  0.05821  0.93850  1.0000
  C   C3166     1.0  0.80964  0.29532  0.87097  1.0000
  H   H2537     1.0  0.86232  0.15980  0.95960  1.0000
  H   H2538     1.0  0.81251  0.28898  0.97053  1.0000
  C   C3167     1.0  0.93818  0.02814  0.65495  1.0000
  C   C3168     1.0  0.75506  0.23280  0.58703  1.0000
  C   C3169     1.0  0.76624  0.19912  0.59664  1.0000
  H   H2539     1.0  0.91599  0.15619  0.96896  1.0000
  H   H2540     1.0  0.78355  0.23491  0.84304  1.0000
  C   C3170     1.0  0.74983  0.18573  0.97975  1.0000
  H   H2541     1.0  0.77841  0.21230  0.72430  1.0000
  H   H2542     1.0  0.85765  0.25670  0.81663  1.0000
  H   H2543     1.0  0.73617  0.19491  0.94326  1.0000
  H   H2544     1.0  0.97499  0.00033  0.74389  1.0000
  H   H2545     1.0  0.75100  0.24592  0.58308  1.0000
  C   C3171     1.0  0.89406  0.13347  0.91301  1.0000
  H   H2546     1.0  0.91990  0.99321  0.67469  1.0000
  H   H2547     1.0  0.95473  0.01624  0.53170  1.0000
  C   C3172     1.0  0.82275  0.28515  0.95638  1.0000
  H   H2548     1.0  0.91278  0.09501  0.91305  1.0000
  C   C3173     1.0  0.74060  0.23359  0.85383  1.0000
  H   H2549     1.0  0.88849  0.26224  0.81516  1.0000
  H   H2550     1.0  0.90170  0.29047  0.76986  1.0000
  C   C3174     1.0  0.82680  0.29546  0.93348  1.0000
  C   C3175     1.0  0.75595  0.22644  0.61453  1.0000
  H   H2551     1.0  0.82782  0.26114  0.97750  1.0000
  C   C3176     1.0  0.91244  0.98912  0.97984  1.0000
  C   C3177     1.0  0.96486  0.00614  0.96652  1.0000
  C   C3178     1.0  0.92958  0.99346  0.71679  1.0000
  C   C3179     1.0  0.89457  0.29287  0.75087  1.0000
  C   C3180     1.0  0.76731  0.26649  0.66967  1.0000
  H   H2552     1.0  0.95557  0.00882  0.63975  1.0000
  H   H2553     1.0  0.76243  0.20426  0.64011  1.0000
  C   C3181     1.0  0.88561  0.31214  0.71332  1.0000
  C   C3182     1.0  0.95446  0.10075  0.89718  1.0000
  C   C3183     1.0  0.97616  0.08013  0.97096  1.0000
  C   C3184     1.0  0.74505  0.27394  0.73700  1.0000
  C   C3185     1.0  0.85767  0.29058  0.86053  1.0000
  C   C3186     1.0  0.82316  0.30621  0.86574  1.0000
  H   H2554     1.0  0.86690  0.27379  0.70787  1.0000
  H   H2555     1.0  0.78317  0.24621  0.61184  1.0000
  C   C3187     1.0  0.88634  0.28326  0.84378  1.0000
  H   H2556     1.0  0.80687  0.26482  0.62073  1.0000
  H   H2557     1.0  0.76191  0.19055  0.97285  1.0000
  C   C3188     1.0  0.91660  0.99466  0.59916  1.0000
  C   C3189     1.0  0.92866  0.11296  0.93362  1.0000
  H   H2558     1.0  0.85805  0.26978  0.90438  1.0000
  C   C3190     1.0  0.76760  0.25560  0.64663  1.0000
  H   H2559     1.0  0.75383  0.29880  0.72637  1.0000
  C   C3191     1.0  0.76465  0.23550  0.81060  1.0000
  H   H2560     1.0  0.89984  0.28561  0.84337  1.0000
  H   H2561     1.0  0.83794  0.27474  0.84462  1.0000
  H   H2562     1.0  0.86775  0.30170  0.68429  1.0000
  H   H2563     1.0  0.75970  0.22742  0.54338  1.0000
  C   C3192     1.0  0.75070  0.14794  0.56079  1.0000
  H   H2564     1.0  0.90599  0.99145  0.96018  1.0000
  C   C3193     1.0  0.76142  0.20946  0.61919  1.0000
  H   H2565     1.0  0.78375  0.28942  0.86133  1.0000
  H   H2566     1.0  0.77001  0.19785  0.55208  1.0000
  C   C3194     1.0  0.87997  0.27016  0.82784  1.0000
  H   H2567     1.0  0.77809  0.22560  0.67750  1.0000
  S   S425      1.0  0.76223  0.19224  0.49212  1.0000
  H   H2568     1.0  0.97129  0.00713  0.58946  1.0000
  H   H2569     1.0  0.90398  0.28992  0.91195  1.0000
  C   C3195     1.0  0.95236  0.01696  0.65721  1.0000
  H   H2570     1.0  0.87777  0.29472  0.94053  1.0000
  C   C3196     1.0  0.83143  0.26950  0.96044  1.0000
  H   H2571     1.0  0.90010  0.98990  0.86009  1.0000
  C   C3197     1.0  0.97475  0.00495  0.86687  1.0000
  H   H2572     1.0  0.75310  0.15658  0.48306  1.0000
  C   C3198     1.0  0.84193  0.27172  0.48957  1.0000
  C   C3199     1.0  0.93218  0.98524  0.60051  1.0000
  H   H2573     1.0  0.92573  0.08439  0.96654  1.0000
  C   C3200     1.0  0.91279  0.08529  0.97455  1.0000
  H   H2574     1.0  0.97408  0.01488  0.85100  1.0000
  C   C3201     1.0  0.90319  0.10074  0.97361  1.0000
  C   C3202     1.0  0.84930  0.28749  0.48574  1.0000
  C   C3203     1.0  0.98053  0.06457  0.91867  1.0000
  H   H2575     1.0  0.91697  0.98671  0.49251  1.0000
  C   C3204     1.0  0.98225  0.07306  0.72752  1.0000
  H   H2576     1.0  0.73598  0.27559  0.65157  1.0000
  C   C3205     1.0  0.73508  0.23426  0.82596  1.0000
  C   C3206     1.0  0.89606  0.31355  0.61869  1.0000
  C   C3207     1.0  0.96736  0.98932  0.86229  1.0000
  C   C3208     1.0  0.98248  0.00457  0.97123  1.0000
  S   S426      1.0  0.98362  0.07724  0.76392  1.0000
  H   H2577     1.0  0.98336  0.10503  0.65419  1.0000
  C   C3209     1.0  0.93370  0.98373  0.74060  1.0000
  C   C3210     1.0  0.90005  0.98306  0.81662  1.0000
  C   C3211     1.0  0.90674  0.98295  0.84358  1.0000
  Fe  Fe217     1.0  0.94321  0.40010  0.27909  1.0000
  S   S427      1.0  0.91559  0.40345  0.29285  1.0000
  S   S428      1.0  0.94871  0.40744  0.23331  1.0000
  Fe  Fe218     1.0  0.95470  0.39128  0.33912  1.0000
  S   S429      1.0  0.92802  0.39352  0.35592  1.0000
  C   C3212     1.0  0.87660  0.33685  0.40870  1.0000
  Fe  Fe219     1.0  0.91989  0.37917  0.31765  1.0000
  S   S430      1.0  0.90052  0.35787  0.32571  1.0000
  Fe  Fe220     1.0  0.92576  0.41746  0.32979  1.0000
  S   S431      1.0  0.91395  0.44080  0.35186  1.0000
  S   S432      1.0  0.94720  0.37518  0.30240  1.0000
  S   S433      1.0  0.95273  0.41582  0.31443  1.0000
  Fe  Fe221     1.0  0.95588  0.57470  0.35713  1.0000
  S   S434      1.0  0.93026  0.56722  0.34227  1.0000
  H   H2578     1.0  0.95387  0.38294  0.46101  1.0000
  Fe  Fe222     1.0  0.94781  0.56311  0.41720  1.0000
  S   S435      1.0  0.92160  0.55447  0.40493  1.0000
  H   H2579     1.0  0.98285  0.34825  0.34293  1.0000
  Fe  Fe223     1.0  0.93503  0.54304  0.36715  1.0000
  S   S436      1.0  0.93459  0.51832  0.34184  1.0000
  Fe  Fe224     1.0  0.91919  0.57957  0.38132  1.0000
  S   S437      1.0  0.89572  0.59823  0.37547  1.0000
  S   S438      1.0  0.96119  0.55021  0.38081  1.0000
  S   S439      1.0  0.94477  0.58849  0.39489  1.0000
  C   C3213     1.0  0.88303  0.61280  0.39670  1.0000
  C   C3214     1.0  0.88347  0.61262  0.42599  1.0000
  C   C3215     1.0  0.87241  0.62366  0.44166  1.0000
  C   C3216     1.0  0.86091  0.63535  0.42850  1.0000
  C   C3217     1.0  0.86084  0.63585  0.39926  1.0000
  C   C3218     1.0  0.87154  0.62451  0.38357  1.0000
  H   H2580     1.0  0.89213  0.60377  0.43662  1.0000
  C   C3219     1.0  0.98361  0.43458  0.35076  1.0000
  H   H2581     1.0  0.87099  0.62494  0.36102  1.0000
  C   C3220     1.0  0.89816  0.31701  0.39060  1.0000
  H   H2582     1.0  0.91465  0.31571  0.24374  1.0000
  H   H2583     1.0  0.92444  0.50153  0.44013  1.0000
  C   C3221     1.0  0.96307  0.56246  0.00346  1.0000
  H   H2584     1.0  0.95368  0.47471  0.13779  1.0000
  H   H2585     1.0  0.88388  0.57657  0.14381  1.0000
  H   H2586     1.0  0.74154  0.63622  0.18420  1.0000
  H   H2587     1.0  0.97469  0.59626  0.14654  1.0000
  C   C3222     1.0  0.97537  0.61561  0.20978  1.0000
  C   C3223     1.0  0.78283  0.57070  0.36474  1.0000
  H   H2588     1.0  0.93563  0.47202  0.43529  1.0000
  C   C3224     1.0  0.92830  0.34721  0.25804  1.0000
  H   H2589     1.0  0.92191  0.60669  0.18119  1.0000
  C   C3225     1.0  0.92151  0.46185  0.35081  1.0000
  C   C3226     1.0  0.91538  0.47373  0.37067  1.0000
  C   C3227     1.0  0.92007  0.49089  0.36935  1.0000
  C   C3228     1.0  0.93066  0.49643  0.34773  1.0000
  C   C3229     1.0  0.93710  0.48445  0.32828  1.0000
  C   C3230     1.0  0.93276  0.46722  0.33001  1.0000
  H   H2590     1.0  0.90669  0.46970  0.38685  1.0000
  H   H2591     1.0  0.91488  0.49997  0.38425  1.0000
  H   H2592     1.0  0.94529  0.48860  0.31146  1.0000
  H   H2593     1.0  0.93769  0.45820  0.31479  1.0000
  C   C3231     1.0  0.96453  0.40093  0.20818  1.0000
  C   C3232     1.0  0.96370  0.40793  0.18099  1.0000
  H   H2594     1.0  0.87937  0.33079  0.34466  1.0000
  C   C3233     1.0  0.83320  0.61212  0.32951  1.0000
  H   H2595     1.0  0.95372  0.41728  0.17597  1.0000
  H   H2596     1.0  0.95451  0.55755  0.04572  1.0000
  C   C3234     1.0  0.95292  0.48982  0.21730  1.0000
  P   P107      1.0  0.97052  0.45756  0.42465  1.0000
  H   H2597     1.0  0.76852  0.62303  0.45221  1.0000
  C   C3235     1.0  0.96583  0.33417  0.31755  1.0000
  C   C3236     1.0  0.96518  0.56103  0.03273  1.0000
  H   H2598     1.0  0.95107  0.58167  0.16937  1.0000
  H   H2599     1.0  0.96171  0.55936  0.20353  1.0000
  H   H2600     1.0  0.95239  0.38303  0.40926  1.0000
  H   H2601     1.0  0.92375  0.32928  0.33248  1.0000
  P   P108      1.0  0.94335  0.31830  0.28253  1.0000
  C   C3237     1.0  0.87705  0.33239  0.32263  1.0000
  C   C3238     1.0  0.88568  0.34503  0.30761  1.0000
  C   C3239     1.0  0.88230  0.34688  0.27901  1.0000
  C   C3240     1.0  0.87082  0.33608  0.26577  1.0000
  C   C3241     1.0  0.96235  0.47629  0.20497  1.0000
  S   S440      1.0  0.97354  0.58744  0.32542  1.0000
  H   H2602     1.0  0.88856  0.35658  0.26700  1.0000
  C   C3242     1.0  0.96189  0.47904  0.42923  1.0000
  C   C3243     1.0  0.87811  0.41349  0.34016  1.0000
  C   C3244     1.0  0.87570  0.39775  0.32781  1.0000
  C   C3245     1.0  0.87168  0.39695  0.29950  1.0000
  C   C3246     1.0  0.87005  0.41192  0.28353  1.0000
  C   C3247     1.0  0.87227  0.42784  0.29588  1.0000
  C   C3248     1.0  0.87630  0.42848  0.32435  1.0000
  P   P109      1.0  0.86967  0.44706  0.27501  1.0000
  C   C3249     1.0  0.88106  0.44327  0.24259  1.0000
  C   C3250     1.0  0.84736  0.45195  0.26866  1.0000
  C   C3251     1.0  0.84225  0.46824  0.25890  1.0000
  C   C3252     1.0  0.82505  0.47223  0.25366  1.0000
  C   C3253     1.0  0.81282  0.46001  0.25816  1.0000
  C   C3254     1.0  0.81778  0.44379  0.26798  1.0000
  C   C3255     1.0  0.83497  0.43975  0.27326  1.0000
  C   C3256     1.0  0.89801  0.43694  0.24326  1.0000
  C   C3257     1.0  0.90693  0.43362  0.21840  1.0000
  C   C3258     1.0  0.89903  0.43661  0.19271  1.0000
  C   C3259     1.0  0.88216  0.44292  0.19183  1.0000
  C   C3260     1.0  0.87316  0.44622  0.21667  1.0000
  C   C3261     1.0  0.87795  0.46533  0.29243  1.0000
  C   C3262     1.0  0.89213  0.47372  0.28174  1.0000
  C   C3263     1.0  0.89797  0.48815  0.29503  1.0000
  C   C3264     1.0  0.88966  0.49438  0.31892  1.0000
  C   C3265     1.0  0.87544  0.48624  0.32952  1.0000
  C   C3266     1.0  0.86951  0.47187  0.31622  1.0000
  H   H2603     1.0  0.88181  0.41410  0.36188  1.0000
  H   H2604     1.0  0.87732  0.38613  0.34002  1.0000
  H   H2605     1.0  0.87018  0.38466  0.28990  1.0000
  H   H2606     1.0  0.86713  0.41106  0.26153  1.0000
  H   H2607     1.0  0.87854  0.44042  0.33442  1.0000
  H   H2608     1.0  0.85160  0.47784  0.25523  1.0000
  H   H2609     1.0  0.82121  0.48482  0.24607  1.0000
  H   H2610     1.0  0.79949  0.46310  0.25405  1.0000
  H   H2611     1.0  0.80828  0.43431  0.27150  1.0000
  H   H2612     1.0  0.83843  0.42713  0.28096  1.0000
  H   H2613     1.0  0.90435  0.43462  0.26303  1.0000
  H   H2614     1.0  0.91996  0.42858  0.21905  1.0000
  H   H2615     1.0  0.90599  0.43392  0.17351  1.0000
  H   H2616     1.0  0.87601  0.44514  0.17187  1.0000
  H   H2617     1.0  0.86006  0.45092  0.21545  1.0000
  H   H2618     1.0  0.89870  0.46930  0.26316  1.0000
  H   H2619     1.0  0.90911  0.49444  0.28715  1.0000
  P   P110      1.0  0.97808  0.49890  0.98395  1.0000
  H   H2620     1.0  0.96532  0.44866  0.20341  1.0000
  H   H2621     1.0  0.85843  0.46573  0.32464  1.0000
  C   C3267     1.0  0.94048  0.36313  0.21975  1.0000
  C   C3268     1.0  0.96513  0.38565  0.44883  1.0000
  C   C3269     1.0  0.90999  0.56663  0.19854  1.0000
  H   H2622     1.0  0.95087  0.56011  0.99417  1.0000
  H   H2623     1.0  0.91267  0.55628  0.21311  1.0000
  H   H2624     1.0  0.97858  0.47506  0.32569  1.0000
  C   C3270     1.0  0.96678  0.32701  0.01436  1.0000
  C   C3271     1.0  0.98000  0.61159  0.18233  1.0000
  C   C3272     1.0  0.85328  0.58247  0.40686  1.0000
  H   H2625     1.0  0.83158  0.61611  0.45296  1.0000
  C   C3273     1.0  0.95484  0.34864  0.98314  1.0000
  C   C3274     1.0  0.83839  0.58542  0.42279  1.0000
  C   C3275     1.0  0.96425  0.38567  0.41942  1.0000
  H   H2626     1.0  0.86857  0.33753  0.24360  1.0000
  C   C3276     1.0  0.83799  0.57969  0.45069  1.0000
  C   C3277     1.0  0.80838  0.60812  0.43359  1.0000
  C   C3278     1.0  0.97529  0.46760  0.36873  1.0000
  C   C3279     1.0  0.79172  0.62985  0.47208  1.0000
  H   H2627     1.0  0.81904  0.33090  0.34161  1.0000
  H   H2628     1.0  0.87276  0.34964  0.41498  1.0000
  H   H2629     1.0  0.90216  0.34361  0.39774  1.0000
  C   C3280     1.0  0.95551  0.33800  0.23804  1.0000
  H   H2630     1.0  0.79252  0.59588  0.36551  1.0000
  C   C3281     1.0  0.89322  0.33343  0.39911  1.0000
  C   C3282     1.0  0.98341  0.44811  0.33163  1.0000
  H   H2631     1.0  0.89216  0.61917  0.27692  1.0000
  C   C3283     1.0  0.92956  0.42696  0.42293  1.0000
  H   H2632     1.0  0.96677  0.32966  0.23781  1.0000
  H   H2633     1.0  0.78294  0.60384  0.41835  1.0000
  H   H2634     1.0  0.86915  0.49100  0.34824  1.0000
  H   H2635     1.0  0.89444  0.50540  0.32940  1.0000
  H   H2636     1.0  0.92567  0.53012  0.01656  1.0000
  C   C3284     1.0  0.94725  0.45647  0.23465  1.0000
  H   H2637     1.0  0.94089  0.49270  0.10018  1.0000
  H   H2638     1.0  0.96739  0.43389  0.47267  1.0000
  C   C3285     1.0  0.94130  0.34175  0.35864  1.0000
  C   C3286     1.0  0.93200  0.52371  0.99922  1.0000
  H   H2639     1.0  0.87846  0.56285  0.45591  1.0000
  H   H2640     1.0  0.92212  0.40790  0.45278  1.0000
  C   C3287     1.0  0.82499  0.63703  0.35642  1.0000
  C   C3288     1.0  0.82201  0.62669  0.37975  1.0000
  H   H2641     1.0  0.77356  0.57388  0.34869  1.0000
  H   H2642     1.0  0.83775  0.60652  0.31015  1.0000
  C   C3289     1.0  0.80666  0.56257  0.40638  1.0000
  S   S441      1.0  0.98273  0.56284  0.08249  1.0000
  H   H2643     1.0  0.94919  0.52276  0.09431  1.0000
  H   H2644     1.0  0.91679  0.37012  0.24029  1.0000
  H   H2645     1.0  0.89964  0.60329  0.14576  1.0000
  H   H2646     1.0  0.89043  0.55316  0.17763  1.0000
  C   C3290     1.0  0.94997  0.49799  0.11431  1.0000
  C   C3291     1.0  0.96587  0.34386  0.00485  1.0000
  C   C3292     1.0  0.97109  0.59944  0.16785  1.0000
  C   C3293     1.0  0.95668  0.43246  0.45890  1.0000
  H   H2647     1.0  0.82660  0.58161  0.46335  1.0000
  H   H2648     1.0  0.85195  0.32682  0.41673  1.0000
  C   C3294     1.0  0.90251  0.59307  0.16054  1.0000
  H   H2649     1.0  0.81575  0.55917  0.42254  1.0000
  H   H2650     1.0  0.87910  0.57215  0.40647  1.0000
  H   H2651     1.0  0.97507  0.48352  0.03972  1.0000
  C   C3295     1.0  0.79363  0.58312  0.37427  1.0000
  H   H2652     1.0  0.94015  0.44620  0.39666  1.0000
  H   H2653     1.0  0.96973  0.53494  0.12670  1.0000
  C   C3296     1.0  0.82991  0.60172  0.35266  1.0000
  H   H2654     1.0  0.98239  0.62489  0.22111  1.0000
  C   C3297     1.0  0.95501  0.44211  0.43418  1.0000
  H   H2655     1.0  0.79669  0.53742  0.40553  1.0000
  C   C3298     1.0  0.94920  0.32849  0.31451  1.0000
  H   H2656     1.0  0.77554  0.54462  0.36860  1.0000
  C   C3299     1.0  0.79585  0.55018  0.39677  1.0000
  C   C3300     1.0  0.94887  0.51263  0.43450  1.0000
  C   C3301     1.0  0.96941  0.49449  0.15344  1.0000
  C   C3302     1.0  0.86753  0.57409  0.41874  1.0000
  P   P111      1.0  0.81942  0.59534  0.40749  1.0000
  C   C3303     1.0  0.97878  0.38868  0.40329  1.0000
  H   H2657     1.0  0.97891  0.42667  0.39293  1.0000
  H   H2658     1.0  0.92975  0.46761  0.26467  1.0000
  C   C3304     1.0  0.94467  0.42039  0.46579  1.0000
  C   C3305     1.0  0.95766  0.59120  0.18088  1.0000
  C   C3306     1.0  0.94219  0.33547  0.25725  1.0000
  C   C3307     1.0  0.94144  0.43918  0.41615  1.0000
  H   H2659     1.0  0.92097  0.36153  0.99371  1.0000
  C   C3308     1.0  0.78394  0.55423  0.37597  1.0000
  S   S442      1.0  0.97858  0.38724  0.36615  1.0000
  C   C3309     1.0  0.94112  0.48672  0.23865  1.0000
  C   C3310     1.0  0.95455  0.51492  0.11105  1.0000
  H   H2660     1.0  0.98235  0.51737  0.16465  1.0000
  C   C3311     1.0  0.94440  0.48229  0.43405  1.0000
  C   C3312     1.0  0.96621  0.52178  0.12931  1.0000
  H   H2661     1.0  0.93991  0.37393  0.20548  1.0000
  C   C3313     1.0  0.95455  0.35171  0.21919  1.0000
  C   C3314     1.0  0.98352  0.55939  0.29340  1.0000
  C   C3315     1.0  0.82446  0.60893  0.37809  1.0000
  C   C3316     1.0  0.89734  0.56482  0.17848  1.0000
  H   H2662     1.0  0.85425  0.58692  0.38552  1.0000
  C   C3317     1.0  0.97019  0.34335  0.34115  1.0000
  C   C3318     1.0  0.92741  0.36094  0.23929  1.0000
  C   C3319     1.0  0.96120  0.53774  0.23083  1.0000
  C   C3320     1.0  0.95432  0.53068  0.25511  1.0000
  C   C3321     1.0  0.94157  0.53966  0.26993  1.0000
  C   C3322     1.0  0.93589  0.55580  0.26081  1.0000
  C   C3323     1.0  0.94321  0.56330  0.23702  1.0000
  C   C3324     1.0  0.95572  0.55400  0.22184  1.0000
  P   P112      1.0  0.93561  0.58412  0.22508  1.0000
  C   C3325     1.0  0.92730  0.59601  0.25473  1.0000
  C   C3326     1.0  0.91125  0.60452  0.25379  1.0000
  C   C3327     1.0  0.90464  0.61282  0.27751  1.0000
  C   C3328     1.0  0.91403  0.61276  0.30221  1.0000
  C   C3329     1.0  0.93011  0.60458  0.30311  1.0000
  C   C3330     1.0  0.93665  0.59614  0.27958  1.0000
  C   C3331     1.0  0.95297  0.59506  0.20856  1.0000
  C   C3332     1.0  0.79052  0.61020  0.43352  1.0000
  H   H2663     1.0  0.94513  0.44354  0.24150  1.0000
  C   C3333     1.0  0.96187  0.60744  0.22285  1.0000
  H   H2664     1.0  0.95913  0.51846  0.26287  1.0000
  H   H2665     1.0  0.93634  0.53429  0.28891  1.0000
  H   H2666     1.0  0.92599  0.56248  0.27271  1.0000
  C   C3334     1.0  0.80565  0.57914  0.39515  1.0000
  H   H2667     1.0  0.90880  0.61885  0.32081  1.0000
  H   H2668     1.0  0.87281  0.62313  0.46422  1.0000
  C   C3335     1.0  0.86717  0.56884  0.44666  1.0000
  H   H2669     1.0  0.94891  0.58946  0.28090  1.0000
  H   H2670     1.0  0.91928  0.42462  0.40861  1.0000
  H   H2671     1.0  0.93740  0.60445  0.32229  1.0000
  H   H2672     1.0  0.95866  0.61070  0.24417  1.0000
  H   H2673     1.0  0.83170  0.58806  0.35078  1.0000
  C   C3336     1.0  0.95726  0.48784  0.13556  1.0000
  C   C3337     1.0  0.91515  0.59493  0.18058  1.0000
  C   C3338     1.0  0.91907  0.58167  0.19959  1.0000
  C   C3339     1.0  0.93796  0.49903  0.43679  1.0000
  H   H2674     1.0  0.90366  0.60460  0.23505  1.0000
  C   C3340     1.0  0.93114  0.41758  0.44778  1.0000
  C   C3341     1.0  0.97666  0.56731  0.98640  1.0000
  H   H2675     1.0  0.93162  0.34537  0.37391  1.0000
  H   H2676     1.0  0.93424  0.49725  0.24858  1.0000
  H   H2677     1.0  0.83338  0.63788  0.31357  1.0000
  C   C3342     1.0  0.93850  0.47005  0.24761  1.0000
  C   C3343     1.0  0.97563  0.45407  0.38817  1.0000
  C   C3344     1.0  0.89362  0.57801  0.15944  1.0000
  H   H2678     1.0  0.94387  0.52563  0.43614  1.0000
  H   H2679     1.0  0.91836  0.34591  0.27360  1.0000
  C   C3345     1.0  0.81903  0.31974  0.35508  1.0000
  H   H2680     1.0  0.96484  0.35372  0.20442  1.0000
  C   C3346     1.0  0.86555  0.32163  0.30941  1.0000
  H   H2681     1.0  0.97462  0.40819  0.13923  1.0000
  C   C3347     1.0  0.86235  0.32331  0.28078  1.0000
  C   C3348     1.0  0.97280  0.49280  0.42734  1.0000
  C   C3349     1.0  0.95796  0.34709  0.36176  1.0000
  C   C3350     1.0  0.93691  0.33253  0.33508  1.0000
  H   H2682     1.0  0.95408  0.51666  0.02306  1.0000
  C   C3351     1.0  0.94820  0.51601  0.00277  1.0000
  S   S443      1.0  0.95345  0.55827  0.46367  1.0000
  C   C3352     1.0  0.97941  0.43748  0.37876  1.0000
  C   C3353     1.0  0.81777  0.61705  0.45309  1.0000
  H   H2683     1.0  0.81808  0.63270  0.39908  1.0000
  H   H2684     1.0  0.95505  0.50282  0.21086  1.0000
  H   H2685     1.0  0.97170  0.48045  0.37483  1.0000
  C   C3354     1.0  0.96627  0.50953  0.42976  1.0000
  C   C3355     1.0  0.86485  0.32390  0.40958  1.0000
  C   C3356     1.0  0.78225  0.62103  0.45274  1.0000
  C   C3357     1.0  0.80947  0.62782  0.47228  1.0000
  C   C3358     1.0  0.85238  0.57161  0.46263  1.0000
  H   H2686     1.0  0.97534  0.32339  0.03123  1.0000
  C   C3359     1.0  0.98214  0.49503  0.04150  1.0000
  C   C3360     1.0  0.97755  0.38887  0.21427  1.0000
  H   H2687     1.0  0.98023  0.47248  0.47793  1.0000
  H   H2688     1.0  0.97838  0.38335  0.23502  1.0000
  H   H2689     1.0  0.85259  0.64508  0.38872  1.0000
  H   H2690     1.0  0.97957  0.55163  0.31091  1.0000
  H   H2691     1.0  0.90954  0.39071  0.00173  1.0000
  H   H2692     1.0  0.97528  0.33201  0.30123  1.0000
  C   C3361     1.0  0.98176  0.57711  0.29493  1.0000
  C   C3362     1.0  0.97351  0.51168  0.15059  1.0000
  H   H2693     1.0  0.97144  0.53104  0.21968  1.0000
  C   C3363     1.0  0.98090  0.56427  0.04533  1.0000
  C   C3364     1.0  0.95898  0.45951  0.21318  1.0000
  C   C3365     1.0  0.83073  0.62977  0.33139  1.0000
  C   C3366     1.0  0.98036  0.38914  0.46264  1.0000
  C   C3367     1.0  0.97555  0.40279  0.16005  1.0000
  H   H2694     1.0  0.97460  0.52018  0.42774  1.0000
  H   H2695     1.0  0.97373  0.35329  0.01427  1.0000
  S   S444      1.0  0.97833  0.38944  0.00245  1.0000
  P   P113      1.0  0.97913  0.48105  0.18021  1.0000
  H   H2696     1.0  0.96124  0.35466  0.37961  1.0000
  C   C3368     1.0  0.97914  0.46459  0.34059  1.0000
  H   H2697     1.0  0.84568  0.32045  0.36330  1.0000
  H   H2698     1.0  0.75474  0.64255  0.22970  1.0000
  C   C3369     1.0  0.97836  0.47587  0.98165  1.0000
  H   H2699     1.0  0.92577  0.53718  0.47893  1.0000
  S   S445      1.0  0.84697  0.64883  0.44962  1.0000
  Fe  Fe225     1.0  0.94481  0.39911  0.77812  1.0000
  S   S446      1.0  0.91640  0.40142  0.78595  1.0000
  S   S447      1.0  0.95483  0.40656  0.73468  1.0000
  Fe  Fe226     1.0  0.95201  0.39243  0.84071  1.0000
  S   S448      1.0  0.92416  0.39406  0.85249  1.0000
  C   C3370     1.0  0.97701  0.57531  0.78163  1.0000
  Fe  Fe227     1.0  0.91967  0.37821  0.81394  1.0000
  S   S449      1.0  0.90544  0.35267  0.81417  1.0000
  Fe  Fe228     1.0  0.92305  0.41708  0.82356  1.0000
  S   S450      1.0  0.90897  0.44265  0.83215  1.0000
  S   S451      1.0  0.94795  0.37521  0.80395  1.0000
  S   S452      1.0  0.95097  0.41610  0.81394  1.0000
  Fe  Fe229     1.0  0.95518  0.57037  0.85083  1.0000
  S   S453      1.0  0.92950  0.55890  0.84663  1.0000
  H   H2700     1.0  0.95350  0.54729  0.75904  1.0000
  Fe  Fe230     1.0  0.95434  0.56692  0.91593  1.0000
  S   S454      1.0  0.92843  0.55530  0.91587  1.0000
  C   C3371     1.0  0.93233  0.36311  0.72152  1.0000
  Fe  Fe231     1.0  0.93803  0.53940  0.87919  1.0000
  S   S455      1.0  0.94281  0.51028  0.87660  1.0000
  Fe  Fe232     1.0  0.92148  0.57580  0.88347  1.0000
  S   S456      1.0  0.89620  0.59193  0.87864  1.0000
  S   S457      1.0  0.96406  0.55021  0.88126  1.0000
  S   S458      1.0  0.94699  0.58812  0.88557  1.0000
  C   C3372     1.0  0.88447  0.60852  0.89714  1.0000
  C   C3373     1.0  0.86949  0.61586  0.88518  1.0000
  C   C3374     1.0  0.85968  0.62882  0.89894  1.0000
  C   C3375     1.0  0.86448  0.63453  0.92529  1.0000
  C   C3376     1.0  0.87953  0.62730  0.93712  1.0000
  C   C3377     1.0  0.88947  0.61451  0.92318  1.0000
  H   H2701     1.0  0.86539  0.61141  0.86512  1.0000
  H   H2702     1.0  0.84823  0.63418  0.88937  1.0000
  H   H2703     1.0  0.90088  0.60912  0.93282  1.0000
  H   H2704     1.0  0.85788  0.35089  0.94421  1.0000
  C   C3378     1.0  0.90801  0.39716  0.95799  1.0000
  C   C3379     1.0  0.97586  0.38960  0.90603  1.0000
  C   C3380     1.0  0.89624  0.63064  0.83533  1.0000
  H   H2705     1.0  0.95424  0.58215  0.72196  1.0000
  C   C3381     1.0  0.96896  0.34712  0.88504  1.0000
  H   H2706     1.0  0.94248  0.35737  0.68071  1.0000
  H   H2707     1.0  0.91965  0.37100  0.90470  1.0000
  C   C3382     1.0  0.91082  0.39149  0.93072  1.0000
  C   C3383     1.0  0.93409  0.34111  0.88451  1.0000
  H   H2708     1.0  0.97553  0.37471  0.72958  1.0000
  H   H2709     1.0  0.95580  0.47465  0.95585  1.0000
  C   C3384     1.0  0.96313  0.57936  0.76438  1.0000
  C   C3385     1.0  0.91842  0.46134  0.84490  1.0000
  C   C3386     1.0  0.93561  0.46144  0.85226  1.0000
  C   C3387     1.0  0.94266  0.47646  0.86220  1.0000
  C   C3388     1.0  0.93281  0.49173  0.86444  1.0000
  C   C3389     1.0  0.91560  0.49167  0.85702  1.0000
  C   C3390     1.0  0.90843  0.47651  0.84768  1.0000
  H   H2710     1.0  0.94343  0.44987  0.85062  1.0000
  H   H2711     1.0  0.95588  0.47621  0.86814  1.0000
  H   H2712     1.0  0.90776  0.50322  0.85884  1.0000
  H   H2713     1.0  0.89503  0.47655  0.84257  1.0000
  C   C3391     1.0  0.96845  0.39799  0.70801  1.0000
  C   C3392     1.0  0.97393  0.48156  0.68950  1.0000
  P   P114      1.0  0.88564  0.33279  0.69634  1.0000
  C   C3393     1.0  0.96213  0.39234  0.95165  1.0000
  C   C3394     1.0  0.95546  0.53663  0.77320  1.0000
  C   C3395     1.0  0.96801  0.56042  0.51563  1.0000
  C   C3396     1.0  0.96599  0.46758  0.96625  1.0000
  H   H2714     1.0  0.94627  0.41273  0.48463  1.0000
  H   H2715     1.0  0.96769  0.34616  0.84022  1.0000
  H   H2716     1.0  0.92107  0.42696  0.65034  1.0000
  C   C3397     1.0  0.96109  0.39209  0.92224  1.0000
  C   C3398     1.0  0.92618  0.52779  0.49566  1.0000
  C   C3399     1.0  0.92093  0.47447  0.76438  1.0000
  H   H2717     1.0  0.94887  0.39371  0.91210  1.0000
  C   C3400     1.0  0.85547  0.32739  0.78668  1.0000
  C   C3401     1.0  0.97184  0.44708  0.74593  1.0000
  H   H2718     1.0  0.82630  0.37252  0.72693  1.0000
  C   C3402     1.0  0.88605  0.34340  0.80292  1.0000
  C   C3403     1.0  0.87167  0.35321  0.79469  1.0000
  C   C3404     1.0  0.85652  0.34527  0.78695  1.0000
  C   C3405     1.0  0.96498  0.50353  0.72212  1.0000
  C   C3406     1.0  0.92149  0.36409  0.94859  1.0000
  H   H2719     1.0  0.87211  0.36694  0.79464  1.0000
  H   H2720     1.0  0.84547  0.35309  0.78110  1.0000
  H   H2721     1.0  0.90812  0.39998  0.91319  1.0000
  H   H2722     1.0  0.91913  0.36668  0.76072  1.0000
  C   C3407     1.0  0.94183  0.52274  0.50748  1.0000
  C   C3408     1.0  0.91338  0.32795  0.94096  1.0000
  C   C3409     1.0  0.95552  0.50856  0.63085  1.0000
  H   H2723     1.0  0.85116  0.32371  0.71562  1.0000
  C   C3410     1.0  0.94883  0.50829  0.95389  1.0000
  H   H2724     1.0  0.82573  0.34100  0.72817  1.0000
  C   C3411     1.0  0.86681  0.34531  0.70631  1.0000
  C   C3412     1.0  0.83753  0.36499  0.72084  1.0000
  H   H2725     1.0  0.95097  0.58314  0.77363  1.0000
  C   C3413     1.0  0.96505  0.57883  0.73506  1.0000
  C   C3414     1.0  0.93251  0.51571  0.95059  1.0000
  H   H2726     1.0  0.92741  0.49538  0.55716  1.0000
  C   C3415     1.0  0.92619  0.43579  0.66506  1.0000
  S   S459      1.0  0.98037  0.38926  0.49990  1.0000
  H   H2727     1.0  0.89899  0.47519  0.79152  1.0000
  C   C3416     1.0  0.96339  0.48702  0.71179  1.0000
  C   C3417     1.0  0.90606  0.48198  0.77569  1.0000
  H   H2728     1.0  0.93011  0.50521  0.71643  1.0000
  C   C3418     1.0  0.95957  0.53024  0.58502  1.0000
  H   H2729     1.0  0.95749  0.48808  0.60155  1.0000
  C   C3419     1.0  0.98134  0.44333  0.79370  1.0000
  C   C3420     1.0  0.97067  0.40753  0.68327  1.0000
  H   H2730     1.0  0.91166  0.52964  0.97030  1.0000
  C   C3421     1.0  0.94038  0.45814  0.70311  1.0000
  H   H2731     1.0  0.92508  0.46191  0.77180  1.0000
  S   S460      1.0  0.97478  0.57023  0.94948  1.0000
  C   C3422     1.0  0.88583  0.31847  0.95717  1.0000
  C   C3423     1.0  0.88498  0.32551  0.80292  1.0000
  H   H2732     1.0  0.81691  0.63503  0.48668  1.0000
  C   C3424     1.0  0.91880  0.36106  0.74020  1.0000
  H   H2733     1.0  0.94140  0.47559  0.66797  1.0000
  H   H2734     1.0  0.96646  0.34879  0.92936  1.0000
  H   H2735     1.0  0.90278  0.31841  0.74670  1.0000
  H   H2736     1.0  0.95775  0.50762  0.74028  1.0000
  H   H2737     1.0  0.93299  0.50813  0.81075  1.0000
  C   C3425     1.0  0.98082  0.57422  0.72254  1.0000
  H   H2738     1.0  0.91932  0.61899  0.85189  1.0000
  H   H2739     1.0  0.89591  0.31771  0.80932  1.0000
  C   C3426     1.0  0.95984  0.34635  0.91018  1.0000
  C   C3427     1.0  0.92383  0.49880  0.73350  1.0000
  C   C3428     1.0  0.97201  0.53100  0.78027  1.0000
  H   H2740     1.0  0.96189  0.49788  0.82295  1.0000
  H   H2741     1.0  0.86830  0.35076  0.64959  1.0000
  C   C3429     1.0  0.95532  0.47187  0.52740  1.0000
  C   C3430     1.0  0.90425  0.34423  0.70608  1.0000
  H   H2742     1.0  0.92973  0.45554  0.63434  1.0000
  C   C3431     1.0  0.95673  0.50810  0.98013  1.0000
  C   C3432     1.0  0.88582  0.32955  0.65905  1.0000
  C   C3433     1.0  0.88597  0.64551  0.83331  1.0000
  C   C3434     1.0  0.92721  0.50430  0.53978  1.0000
  S   S461      1.0  0.83571  0.31822  0.77706  1.0000
  S   S462      1.0  0.98236  0.57415  0.68538  1.0000
  C   C3435     1.0  0.98091  0.51289  0.52911  1.0000
  P   P115      1.0  0.94878  0.47262  0.72807  1.0000
  H   H2743     1.0  0.86851  0.63950  0.73708  1.0000
  C   C3436     1.0  0.93801  0.46308  0.67510  1.0000
  H   H2744     1.0  0.86881  0.34602  0.59882  1.0000
  H   H2745     1.0  0.85278  0.38672  0.71268  1.0000
  C   C3437     1.0  0.80532  0.32200  0.83244  1.0000
  H   H2746     1.0  0.95783  0.55065  0.61478  1.0000
  H   H2747     1.0  0.95586  0.55628  0.52333  1.0000
  C   C3438     1.0  0.96070  0.34492  0.85969  1.0000
  H   H2748     1.0  0.88651  0.32226  0.57878  1.0000
  C   C3439     1.0  0.86702  0.36318  0.70550  1.0000
  C   C3440     1.0  0.90025  0.49805  0.76644  1.0000
  H   H2749     1.0  0.94307  0.37052  0.72751  1.0000
  C   C3441     1.0  0.97097  0.45728  0.80174  1.0000
  C   C3442     1.0  0.94328  0.34188  0.85943  1.0000
  H   H2750     1.0  0.95059  0.39414  0.96394  1.0000
  C   C3443     1.0  0.97109  0.44623  0.54155  1.0000
  C   C3444     1.0  0.94235  0.34316  0.91016  1.0000
  H   H2751     1.0  0.92384  0.41873  0.70034  1.0000
  P   P116      1.0  0.93034  0.34286  0.94255  1.0000
  H   H2752     1.0  0.89182  0.61872  0.82735  1.0000
  H   H2753     1.0  0.95377  0.50026  0.64864  1.0000
  C   C3445     1.0  0.94389  0.51445  0.80207  1.0000
  H   H2754     1.0  0.90435  0.51872  0.73766  1.0000
  C   C3446     1.0  0.91177  0.63075  0.84933  1.0000
  C   C3447     1.0  0.90479  0.35177  0.73248  1.0000
  H   H2755     1.0  0.93555  0.43856  0.73397  1.0000
  C   C3448     1.0  0.92770  0.43115  0.69318  1.0000
  C   C3449     1.0  0.87611  0.34034  0.64128  1.0000
  C   C3450     1.0  0.93016  0.48299  0.74361  1.0000
  P   P117      1.0  0.96235  0.50445  0.54604  1.0000
  C   C3451     1.0  0.90907  0.50641  0.74522  1.0000
  C   C3452     1.0  0.94457  0.33661  0.97072  1.0000
  C   C3453     1.0  0.93458  0.44235  0.71219  1.0000
  C   C3454     1.0  0.85871  0.34561  0.92341  1.0000
  C   C3455     1.0  0.86710  0.35440  0.90220  1.0000
  C   C3456     1.0  0.97950  0.44017  0.97756  1.0000
  H   H2756     1.0  0.89435  0.35048  0.74715  1.0000
  S   S463      1.0  0.97569  0.57734  0.81856  1.0000
  H   H2757     1.0  0.91796  0.34070  0.66684  1.0000
  H   H2758     1.0  0.95325  0.52843  0.49964  1.0000
  C   C3457     1.0  0.93118  0.45183  0.65606  1.0000
  H   H2759     1.0  0.98080  0.50891  0.86224  1.0000
  C   C3458     1.0  0.94249  0.51083  0.52947  1.0000
  H   H2760     1.0  0.96418  0.41983  0.68100  1.0000
  C   C3459     1.0  0.83717  0.34724  0.72139  1.0000
  H   H2761     1.0  0.88878  0.50387  0.77550  1.0000
  C   C3460     1.0  0.95575  0.52615  0.63476  1.0000
  H   H2762     1.0  0.95288  0.47673  0.78865  1.0000
  C   C3461     1.0  0.87637  0.33769  0.61243  1.0000
  H   H2763     1.0  0.92860  0.53310  0.77941  1.0000
  C   C3462     1.0  0.95766  0.53699  0.61181  1.0000
  C   C3463     1.0  0.91744  0.37500  0.92600  1.0000
  H   H2764     1.0  0.98229  0.35027  0.88514  1.0000
  H   H2765     1.0  0.87442  0.35456  0.85872  1.0000
  C   C3464     1.0  0.85175  0.33742  0.71428  1.0000
  H   H2766     1.0  0.88350  0.63156  0.95739  1.0000
  C   C3465     1.0  0.86800  0.34772  0.87530  1.0000
  H   H2767     1.0  0.92650  0.51575  0.93028  1.0000
  H   H2768     1.0  0.87282  0.36643  0.90648  1.0000
  H   H2769     1.0  0.96084  0.53880  0.56736  1.0000
  C   C3466     1.0  0.88633  0.32431  0.60113  1.0000
  C   C3467     1.0  0.96531  0.48160  0.54499  1.0000
  C   C3468     1.0  0.96041  0.50875  0.80912  1.0000
  H   H2770     1.0  0.95444  0.36175  0.97604  1.0000
  C   C3469     1.0  0.98173  0.43820  0.76582  1.0000
  C   C3470     1.0  0.97038  0.56300  0.48672  1.0000
  C   C3471     1.0  0.95770  0.50173  0.60410  1.0000
  C   C3472     1.0  0.98114  0.56344  0.53477  1.0000
  H   H2771     1.0  0.93681  0.34059  0.83969  1.0000
  H   H2772     1.0  0.87844  0.36959  0.69927  1.0000
  C   C3473     1.0  0.95806  0.45423  0.52606  1.0000
  H   H2773     1.0  0.92047  0.33938  0.88370  1.0000
  C   C3474     1.0  0.97857  0.47351  0.56018  1.0000
  C   C3475     1.0  0.94141  0.52849  0.78436  1.0000
  C   C3476     1.0  0.96658  0.44980  0.96427  1.0000
  C   C3477     1.0  0.93194  0.35569  0.69515  1.0000
  C   C3478     1.0  0.91798  0.34623  0.68741  1.0000
  C   C3479     1.0  0.96098  0.46611  0.78194  1.0000
  C   C3480     1.0  0.96000  0.51257  0.58103  1.0000
  C   C3481     1.0  0.85245  0.37296  0.71289  1.0000
  C   C3482     1.0  0.96126  0.46101  0.75390  1.0000
  H   H2774     1.0  0.89901  0.52507  0.49654  1.0000
  C   C3483     1.0  0.89856  0.33047  0.95724  1.0000
  C   C3484     1.0  0.97461  0.51713  0.79857  1.0000
  C   C3485     1.0  0.86058  0.33224  0.86965  1.0000
  H   H2775     1.0  0.95535  0.50290  0.93580  1.0000
  H   H2776     1.0  0.78530  0.63860  0.48641  1.0000
  H   H2777     1.0  0.94554  0.47779  0.51438  1.0000
  H   H2778     1.0  0.95446  0.53141  0.65556  1.0000
  H   H2779     1.0  0.95696  0.44344  0.95253  1.0000
  C   C3486     1.0  0.91160  0.50929  0.52779  1.0000
  H   H2780     1.0  0.86129  0.32737  0.84862  1.0000
  H   H2781     1.0  0.83119  0.32764  0.84065  1.0000
  H   H2782     1.0  0.80391  0.33193  0.81668  1.0000
  H   H2783     1.0  0.97394  0.50468  0.48794  1.0000
  H   H2784     1.0  0.97779  0.53206  0.95526  1.0000
  H   H2785     1.0  0.89987  0.50420  0.53582  1.0000
  H   H2786     1.0  0.97910  0.56161  0.55692  1.0000
  C   C3487     1.0  0.91109  0.52102  0.50569  1.0000
  H   H2787     1.0  0.84527  0.32339  0.93476  1.0000
  C   C3488     1.0  0.97592  0.51484  0.70905  1.0000
  H   H2788     1.0  0.87367  0.64481  0.82351  1.0000
  C   C3489     1.0  0.85147  0.32998  0.91787  1.0000
  H   H2789     1.0  0.90314  0.41004  0.96158  1.0000
  H   H2790     1.0  0.97689  0.52771  0.71675  1.0000
  H   H2791     1.0  0.95016  0.44675  0.51283  1.0000
  H   H2792     1.0  0.89378  0.64274  0.76714  1.0000
  C   C3490     1.0  0.85250  0.32304  0.89095  1.0000
  H   H2793     1.0  0.97038  0.46104  0.82346  1.0000
  H   H2794     1.0  0.97207  0.44270  0.72453  1.0000
  H   H2795     1.0  0.89688  0.34159  0.97026  1.0000
  H   H2796     1.0  0.97361  0.46862  0.68202  1.0000
  C   C3491     1.0  0.97698  0.38213  0.71064  1.0000
  H   H2797     1.0  0.97339  0.43258  0.54004  1.0000
  S   S464      1.0  0.97528  0.38844  0.86893  1.0000
  C   C3492     1.0  0.82089  0.31947  0.84613  1.0000
  H   H2798     1.0  0.98261  0.40865  0.64232  1.0000
  H   H2799     1.0  0.98104  0.48745  0.89982  1.0000
  C   C3493     1.0  0.98133  0.45586  0.55861  1.0000
  C   C3494     1.0  0.86989  0.31757  0.79468  1.0000
  C   C3495     1.0  0.98112  0.40123  0.66126  1.0000
  C   C3496     1.0  0.97792  0.39015  0.96526  1.0000
  C   C3497     1.0  0.89583  0.31616  0.64754  1.0000
  C   C3498     1.0  0.92413  0.52350  0.97317  1.0000
  H   H2800     1.0  0.97983  0.42638  0.97635  1.0000
  C   C3499     1.0  0.91716  0.64578  0.86114  1.0000
  H   H2801     1.0  0.92898  0.64568  0.87268  1.0000
  H   H2802     1.0  0.87449  0.32041  0.96996  1.0000
  C   C3500     1.0  0.94564  0.31965  0.98029  1.0000
  C   C3501     1.0  0.91820  0.36975  0.97593  1.0000
  H   H2803     1.0  0.97855  0.61419  0.79160  1.0000
  H   H2804     1.0  0.98276  0.53747  0.77149  1.0000
  H   H2805     1.0  0.85213  0.56765  0.48435  1.0000
  C   C3502     1.0  0.98328  0.51102  0.50021  1.0000
  C   C3503     1.0  0.91162  0.38627  0.98057  1.0000
  Fe  Fe233     1.0  0.94524  0.88764  0.10299  1.0000
  S   S465      1.0  0.91694  0.89124  0.11075  1.0000
  S   S466      1.0  0.95303  0.87825  0.05945  1.0000
  Fe  Fe234     1.0  0.95361  0.89618  0.16405  1.0000
  S   S467      1.0  0.92593  0.90031  0.17515  1.0000
  H   H2806     1.0  0.74449  0.75421  0.13581  1.0000
  Fe  Fe235     1.0  0.92110  0.87647  0.15077  1.0000
  S   S468      1.0  0.90686  0.85320  0.16812  1.0000
  Fe  Fe236     1.0  0.92411  0.91472  0.13424  1.0000
  S   S469      1.0  0.90945  0.94040  0.13112  1.0000
  S   S470      1.0  0.94926  0.87157  0.14186  1.0000
  S   S471      1.0  0.95198  0.91186  0.12419  1.0000
  Fe  Fe237     1.0  0.82188  0.79276  0.18384  1.0000
  S   S472      1.0  0.83543  0.76752  0.19251  1.0000
  S   S473      1.0  0.83361  0.81853  0.17246  1.0000
  Fe  Fe238     1.0  0.78623  0.77661  0.18969  1.0000
  S   S474      1.0  0.79799  0.75077  0.19918  1.0000
  S   S475      1.0  0.75766  0.77702  0.18071  1.0000
  Fe  Fe239     1.0  0.81582  0.76436  0.22696  1.0000
  S   S476      1.0  0.82394  0.75773  0.27178  1.0000
  Fe  Fe240     1.0  0.81617  0.75618  0.16365  1.0000
  S   S477      1.0  0.81968  0.73442  0.13209  1.0000
  S   S478      1.0  0.80299  0.79020  0.21952  1.0000
  S   S479      1.0  0.80371  0.78147  0.15314  1.0000
  Fe  Fe241     1.0  0.82451  0.66874  0.44410  1.0000
  S   S480      1.0  0.82787  0.69666  0.43400  1.0000
  C   C3504     1.0  0.93833  0.86621  0.36547  1.0000
  Fe  Fe242     1.0  0.78492  0.67443  0.44959  1.0000
  S   S481      1.0  0.78618  0.70212  0.43889  1.0000
  C   C3505     1.0  0.90405  0.93038  0.05828  1.0000
  Fe  Fe243     1.0  0.80525  0.69441  0.40543  1.0000
  S   S482      1.0  0.80066  0.70058  0.35894  1.0000
  C   C3506     1.0  0.74625  0.80550  0.34314  1.0000
  S   S483      1.0  0.82618  0.72793  0.99862  1.0000
  S   S484      1.0  0.80266  0.66640  0.41442  1.0000
  H   H2807     1.0  0.78431  0.72855  0.38350  1.0000
  C   C3507     1.0  0.91537  0.94207  0.04734  1.0000
  S   S485      1.0  0.81648  0.67807  0.98409  1.0000
  H   H2808     1.0  0.88128  0.74316  0.03012  1.0000
  H   H2809     1.0  0.78483  0.71947  0.16159  1.0000
  C   C3508     1.0  0.73507  0.68383  0.11057  1.0000
  C   C3509     1.0  0.77946  0.69703  0.09267  1.0000
  C   C3510     1.0  0.74645  0.67835  0.38719  1.0000
  C   C3511     1.0  0.81667  0.74216  0.29597  1.0000
  C   C3512     1.0  0.82345  0.74163  0.32315  1.0000
  C   C3513     1.0  0.81854  0.72921  0.34284  1.0000
  C   C3514     1.0  0.80691  0.71700  0.33548  1.0000
  C   C3515     1.0  0.79988  0.71772  0.30847  1.0000
  C   C3516     1.0  0.80464  0.73026  0.28888  1.0000
  H   H2810     1.0  0.83278  0.75073  0.32888  1.0000
  H   H2811     1.0  0.82405  0.72886  0.36348  1.0000
  H   H2812     1.0  0.79082  0.70839  0.30255  1.0000
  H   H2813     1.0  0.79928  0.73051  0.26814  1.0000
  C   C3517     1.0  0.82102  0.73319  0.09484  1.0000
  C   C3518     1.0  0.82016  0.71716  0.08216  1.0000
  C   C3519     1.0  0.82137  0.71537  0.05286  1.0000
  C   C3520     1.0  0.82360  0.72961  0.03568  1.0000
  C   C3521     1.0  0.82435  0.74570  0.04832  1.0000
  C   C3522     1.0  0.82308  0.74751  0.07765  1.0000
  H   H2814     1.0  0.81867  0.70597  0.09513  1.0000
  H   H2815     1.0  0.82091  0.70290  0.04360  1.0000
  H   H2816     1.0  0.82596  0.75684  0.03534  1.0000
  H   H2817     1.0  0.82378  0.75994  0.08690  1.0000
  H   H2818     1.0  0.76490  0.80193  0.28453  1.0000
  C   C3523     1.0  0.88642  0.84365  0.16824  1.0000
  C   C3524     1.0  0.87184  0.85166  0.15668  1.0000
  C   C3525     1.0  0.85595  0.84368  0.15790  1.0000
  C   C3526     1.0  0.85430  0.82752  0.17051  1.0000
  C   C3527     1.0  0.86892  0.81940  0.18172  1.0000
  C   C3528     1.0  0.88480  0.82742  0.18063  1.0000
  H   H2819     1.0  0.87276  0.86409  0.14702  1.0000
  H   H2820     1.0  0.84480  0.85013  0.14910  1.0000
  H   H2821     1.0  0.86795  0.80704  0.19155  1.0000
  H   H2822     1.0  0.89593  0.82102  0.18960  1.0000
  C   C3529     1.0  0.91843  0.95993  0.12046  1.0000
  C   C3530     1.0  0.93587  0.96112  0.11495  1.0000
  C   C3531     1.0  0.75630  0.74844  0.24990  1.0000
  H   H2823     1.0  0.96457  0.94411  0.15590  1.0000
  H   H2824     1.0  0.94418  0.94991  0.11668  1.0000
  C   C3532     1.0  0.76936  0.71444  0.05343  1.0000
  H   H2825     1.0  0.74454  0.71685  0.43067  1.0000
  C   C3533     1.0  0.74062  0.77932  0.20508  1.0000
  C   C3534     1.0  0.77776  0.75197  0.07468  1.0000
  C   C3535     1.0  0.96895  0.96601  0.43066  1.0000
  H   H2826     1.0  0.73538  0.74657  0.32342  1.0000
  H   H2827     1.0  0.74318  0.69583  0.21704  1.0000
  C   C3536     1.0  0.96787  0.88697  0.03544  1.0000
  C   C3537     1.0  0.74288  0.68288  0.20956  1.0000
  H   H2828     1.0  0.77802  0.70545  0.01294  1.0000
  H   H2829     1.0  0.78800  0.74290  0.06947  1.0000
  C   C3538     1.0  0.96179  0.93637  0.43726  1.0000
  C   C3539     1.0  0.76104  0.75984  0.27044  1.0000
  H   H2830     1.0  0.96188  0.95461  0.47026  1.0000
  C   C3540     1.0  0.74129  0.74715  0.30297  1.0000
  H   H2831     1.0  0.94614  0.84536  0.18613  1.0000
  H   H2832     1.0  0.97670  0.97269  0.38853  1.0000
  H   H2833     1.0  0.79451  0.67447  0.08212  1.0000
  H   H2834     1.0  0.96370  0.92065  0.40075  1.0000
  H   H2835     1.0  0.76435  0.72008  0.09695  1.0000
  H   H2836     1.0  0.74351  0.77812  0.38032  1.0000
  P   P118      1.0  0.96965  0.95772  0.27588  1.0000
  C   C3541     1.0  0.96053  0.94192  0.29862  1.0000
  C   C3542     1.0  0.95685  0.95777  0.24468  1.0000
  C   C3543     1.0  0.95547  0.94259  0.22981  1.0000
  C   C3544     1.0  0.94503  0.94205  0.20638  1.0000
  H   H2837     1.0  0.77948  0.74378  0.33873  1.0000
  C   C3545     1.0  0.96487  0.93336  0.40894  1.0000
  H   H2838     1.0  0.86575  0.78498  0.47078  1.0000
  C   C3546     1.0  0.96963  0.92674  0.30529  1.0000
  C   C3547     1.0  0.96202  0.91413  0.32135  1.0000
  C   C3548     1.0  0.94365  0.94424  0.30818  1.0000
  C   C3549     1.0  0.74138  0.79038  0.22769  1.0000
  C   C3550     1.0  0.96412  0.94271  0.06059  1.0000
  C   C3551     1.0  0.76666  0.74453  0.40668  1.0000
  H   H2839     1.0  0.89381  0.93469  0.07214  1.0000
  C   C3552     1.0  0.94938  0.86863  0.34291  1.0000
  H   H2840     1.0  0.75545  0.67237  0.24605  1.0000
  H   H2841     1.0  0.92685  0.86327  0.21502  1.0000
  H   H2842     1.0  0.76495  0.70812  0.34623  1.0000
  H   H2843     1.0  0.89432  0.97395  0.12215  1.0000
  C   C3553     1.0  0.97718  0.94533  0.07959  1.0000
  H   H2844     1.0  0.74212  0.67329  0.07044  1.0000
  H   H2845     1.0  0.96246  0.93108  0.23635  1.0000
  H   H2846     1.0  0.94418  0.93028  0.19493  1.0000
  C   C3554     1.0  0.74849  0.76246  0.07012  1.0000
  H   H2847     1.0  0.78092  0.75863  0.01822  1.0000
  C   C3555     1.0  0.97000  0.94658  0.39143  1.0000
  H   H2848     1.0  0.85974  0.75037  0.99388  1.0000
  C   C3556     1.0  0.94534  0.91665  0.33124  1.0000
  H   H2849     1.0  0.93627  0.95569  0.30269  1.0000
  C   C3557     1.0  0.74864  0.74160  0.14276  1.0000
  H   H2850     1.0  0.96268  0.87120  0.34651  1.0000
  H   H2851     1.0  0.84371  0.77804  0.99522  1.0000
  C   C3558     1.0  0.75251  0.76739  0.38051  1.0000
  H   H2852     1.0  0.74037  0.72774  0.23976  1.0000
  H   H2853     1.0  0.74814  0.76226  0.42431  1.0000
  C   C3559     1.0  0.76161  0.76251  0.35625  1.0000
  C   C3560     1.0  0.85313  0.77499  0.01108  1.0000
  C   C3561     1.0  0.87702  0.76665  0.05246  1.0000
  C   C3562     1.0  0.86741  0.78205  0.05412  1.0000
  C   C3563     1.0  0.85566  0.78629  0.03295  1.0000
  P   P119      1.0  0.86968  0.79570  0.08398  1.0000
  C   C3564     1.0  0.87125  0.78225  0.11480  1.0000
  C   C3565     1.0  0.88819  0.80862  0.08063  1.0000
  C   C3566     1.0  0.90110  0.80474  0.06098  1.0000
  C   C3567     1.0  0.91517  0.81511  0.05839  1.0000
  C   C3568     1.0  0.91647  0.82937  0.07538  1.0000
  C   C3569     1.0  0.90370  0.83327  0.09502  1.0000
  C   C3570     1.0  0.88961  0.82297  0.09762  1.0000
  C   C3571     1.0  0.86214  0.76719  0.11633  1.0000
  C   C3572     1.0  0.86376  0.75637  0.13953  1.0000
  C   C3573     1.0  0.87432  0.76055  0.16159  1.0000
  C   C3574     1.0  0.88321  0.77563  0.16048  1.0000
  C   C3575     1.0  0.88172  0.78644  0.13719  1.0000
  C   C3576     1.0  0.85104  0.80979  0.08672  1.0000
  C   C3577     1.0  0.83697  0.80534  0.10313  1.0000
  C   C3578     1.0  0.82264  0.81640  0.10502  1.0000
  C   C3579     1.0  0.82227  0.83196  0.09068  1.0000
  C   C3580     1.0  0.83613  0.83639  0.07403  1.0000
  C   C3581     1.0  0.85044  0.82533  0.07193  1.0000
  C   C3582     1.0  0.76476  0.73836  0.00518  1.0000
  C   C3583     1.0  0.90783  0.97470  0.11789  1.0000
  H   H2854     1.0  0.92512  0.81212  0.04319  1.0000
  H   H2855     1.0  0.88623  0.76315  0.06845  1.0000
  H   H2856     1.0  0.84812  0.79807  0.03356  1.0000
  H   H2857     1.0  0.90034  0.79379  0.04759  1.0000
  H   H2858     1.0  0.96508  0.82320  0.20803  1.0000
  H   H2859     1.0  0.92737  0.83743  0.07339  1.0000
  H   H2860     1.0  0.90475  0.84426  0.10834  1.0000
  H   H2861     1.0  0.87984  0.82619  0.11301  1.0000
  H   H2862     1.0  0.85378  0.76375  0.09960  1.0000
  H   H2863     1.0  0.85657  0.74484  0.14058  1.0000
  H   H2864     1.0  0.87533  0.75227  0.17977  1.0000
  H   H2865     1.0  0.89115  0.77904  0.17781  1.0000
  H   H2866     1.0  0.88870  0.79803  0.13694  1.0000
  H   H2867     1.0  0.83712  0.79359  0.11509  1.0000
  H   H2868     1.0  0.81210  0.81318  0.11857  1.0000
  H   H2869     1.0  0.81133  0.84067  0.09287  1.0000
  H   H2870     1.0  0.83590  0.84850  0.06306  1.0000
  H   H2871     1.0  0.86108  0.82897  0.05893  1.0000
  C   C3584     1.0  0.76150  0.75042  0.06328  1.0000
  C   C3585     1.0  0.78738  0.68553  0.07423  1.0000
  H   H2872     1.0  0.75257  0.71746  0.98497  1.0000
  C   C3586     1.0  0.78646  0.68853  0.04551  1.0000
  H   H2873     1.0  0.96174  0.86950  0.00289  1.0000
  S   S486      1.0  0.75946  0.66115  0.45416  1.0000
  C   C3587     1.0  0.77785  0.70311  0.03518  1.0000
  H   H2874     1.0  0.94386  0.83548  0.28850  1.0000
  H   H2875     1.0  0.93774  0.97808  0.45588  1.0000
  S   S487      1.0  0.97423  0.90393  0.19458  1.0000
  C   C3588     1.0  0.97379  0.87873  0.23599  1.0000
  H   H2876     1.0  0.73985  0.72514  0.36228  1.0000
  H   H2877     1.0  0.92778  0.95616  0.17927  1.0000
  C   C3589     1.0  0.86226  0.75941  0.01020  1.0000
  C   C3590     1.0  0.73679  0.72897  0.14695  1.0000
  H   H2878     1.0  0.77026  0.78682  0.11519  1.0000
  C   C3591     1.0  0.77136  0.72207  0.15775  1.0000
  C   C3592     1.0  0.77810  0.78489  0.31367  1.0000
  H   H2879     1.0  0.91275  0.86063  0.37819  1.0000
  C   C3593     1.0  0.75347  0.75935  0.29714  1.0000
  C   C3594     1.0  0.75503  0.75839  0.40559  1.0000
  C   C3595     1.0  0.75169  0.77562  0.08864  1.0000
  C   C3596     1.0  0.92128  0.86265  0.36067  1.0000
  C   C3597     1.0  0.75555  0.70238  0.35972  1.0000
  C   C3598     1.0  0.79407  0.78003  0.32480  1.0000
  C   C3599     1.0  0.80872  0.78818  0.31589  1.0000
  C   C3600     1.0  0.80757  0.80120  0.29588  1.0000
  C   C3601     1.0  0.79171  0.80629  0.28501  1.0000
  C   C3602     1.0  0.77703  0.79816  0.29380  1.0000
  H   H2880     1.0  0.74817  0.68445  0.11724  1.0000
  H   H2881     1.0  0.93753  0.89461  0.28136  1.0000
  H   H2882     1.0  0.95826  0.92594  0.45087  1.0000
  H   H2883     1.0  0.73588  0.76160  0.06146  1.0000
  C   C3603     1.0  0.77265  0.74807  0.35730  1.0000
  H   H2884     1.0  0.93950  0.90686  0.34376  1.0000
  H   H2885     1.0  0.75298  0.79696  0.23154  1.0000
  C   C3604     1.0  0.74405  0.73645  0.25581  1.0000
  H   H2886     1.0  0.76206  0.74907  0.22926  1.0000
  H   H2887     1.0  0.79552  0.76975  0.33978  1.0000
  H   H2888     1.0  0.82110  0.78384  0.32356  1.0000
  H   H2889     1.0  0.81904  0.80699  0.28822  1.0000
  H   H2890     1.0  0.79088  0.81616  0.26909  1.0000
  H   H2891     1.0  0.98016  0.93575  0.09540  1.0000
  C   C3605     1.0  0.93712  0.97182  0.21218  1.0000
  H   H2892     1.0  0.95215  0.86956  0.29846  1.0000
  P   P120      1.0  0.94337  0.95163  0.01517  1.0000
  H   H2893     1.0  0.78066  0.69499  0.11496  1.0000
  Fe  Fe244     1.0  0.80847  0.70206  0.46871  1.0000
  H   H2894     1.0  0.90930  0.92998  0.22945  1.0000
  H   H2895     1.0  0.95607  0.97756  0.10271  1.0000
  C   C3606     1.0  0.73931  0.72837  0.47024  1.0000
  C   C3607     1.0  0.97209  0.96285  0.40223  1.0000
  C   C3608     1.0  0.78091  0.76514  0.09305  1.0000
  C   C3609     1.0  0.93585  0.95664  0.19753  1.0000
  C   C3610     1.0  0.74200  0.64927  0.19120  1.0000
  H   H2896     1.0  0.79347  0.76599  0.10202  1.0000
  H   H2897     1.0  0.76974  0.67849  0.36301  1.0000
  H   H2898     1.0  0.79263  0.67968  0.03113  1.0000
  H   H2899     1.0  0.89499  0.87795  0.23318  1.0000
  H   H2900     1.0  0.82324  0.65074  0.35804  1.0000
  H   H2901     1.0  0.93294  0.92343  0.26238  1.0000
  P   P121      1.0  0.75891  0.77428  0.32383  1.0000
  H   H2902     1.0  0.77504  0.74806  0.14543  1.0000
  C   C3611     1.0  0.96955  0.87997  0.00856  1.0000
  C   C3612     1.0  0.97984  0.89442  0.22728  1.0000
  C   C3613     1.0  0.96005  0.95505  0.04009  1.0000
  H   H2903     1.0  0.76415  0.69698  0.16920  1.0000
  C   C3614     1.0  0.97898  0.87153  0.26182  1.0000
  C   C3615     1.0  0.92896  0.93653  0.03001  1.0000
  C   C3616     1.0  0.75953  0.70942  0.16219  1.0000
  C   C3617     1.0  0.98146  0.88618  0.98906  1.0000
  H   H2904     1.0  0.73556  0.69340  0.00845  1.0000
  C   C3618     1.0  0.93615  0.93171  0.32467  1.0000
  C   C3619     1.0  0.73627  0.77509  0.98614  1.0000
  P   P122      1.0  0.75756  0.73299  0.04019  1.0000
  C   C3620     1.0  0.92292  0.97447  0.98346  1.0000
  C   C3621     1.0  0.97536  0.96841  0.16391  1.0000
  C   C3622     1.0  0.90622  0.91311  0.05212  1.0000
  C   C3623     1.0  0.92008  0.90742  0.03580  1.0000
  C   C3624     1.0  0.93152  0.91904  0.02499  1.0000
  C   C3625     1.0  0.97808  0.90048  0.04248  1.0000
  H   H2905     1.0  0.75889  0.80701  0.35152  1.0000
  C   C3626     1.0  0.94749  0.97240  0.23580  1.0000
  H   H2906     1.0  0.89041  0.90710  0.21505  1.0000
  C   C3627     1.0  0.96945  0.96988  0.03855  1.0000
  H   H2907     1.0  0.97826  0.94987  0.99150  1.0000
  C   C3628     1.0  0.87432  0.75531  0.03072  1.0000
  C   C3629     1.0  0.76787  0.77688  0.10029  1.0000
  H   H2908     1.0  0.95718  0.93108  0.06210  1.0000
  H   H2909     1.0  0.91358  0.95531  0.05291  1.0000
  C   C3630     1.0  0.96433  0.98076  0.31996  1.0000
  H   H2910     1.0  0.96388  0.81836  0.25933  1.0000
  H   H2911     1.0  0.96015  0.97024  0.33264  1.0000
  H   H2912     1.0  0.96545  0.87200  0.22249  1.0000
  H   H2913     1.0  0.98253  0.92442  0.29787  1.0000
  H   H2914     1.0  0.94304  0.86700  0.38665  1.0000
  C   C3631     1.0  0.77030  0.71130  0.08234  1.0000
  H   H2915     1.0  0.89749  0.90406  0.06078  1.0000
  H   H2916     1.0  0.92224  0.89392  0.03212  1.0000
  H   H2917     1.0  0.94246  0.91426  0.01310  1.0000
  H   H2918     1.0  0.76900  0.73780  0.42621  1.0000
  C   C3632     1.0  0.77608  0.75160  0.00088  1.0000
  H   H2919     1.0  0.92314  0.93359  0.33206  1.0000
  C   C3633     1.0  0.76588  0.73818  0.14830  1.0000
  C   C3634     1.0  0.96385  0.95261  0.44812  1.0000
  C   C3635     1.0  0.75994  0.72875  0.98211  1.0000
  H   H2920     1.0  0.77059  0.76894  0.26520  1.0000
  C   C3636     1.0  0.86767  0.85389  0.27882  1.0000
  C   C3637     1.0  0.86658  0.83837  0.26507  1.0000
  C   C3638     1.0  0.88137  0.82992  0.25528  1.0000
  C   C3639     1.0  0.89727  0.83702  0.25896  1.0000
  C   C3640     1.0  0.89850  0.85271  0.27252  1.0000
  C   C3641     1.0  0.88355  0.86106  0.28250  1.0000
  P   P123      1.0  0.91873  0.86296  0.27483  1.0000
  C   C3642     1.0  0.92624  0.86415  0.31048  1.0000
  C   C3643     1.0  0.93421  0.85105  0.25406  1.0000
  C   C3644     1.0  0.94454  0.83808  0.26629  1.0000
  C   C3645     1.0  0.95578  0.82820  0.24978  1.0000
  C   C3646     1.0  0.95647  0.83090  0.22092  1.0000
  C   C3647     1.0  0.94593  0.84349  0.20857  1.0000
  C   C3648     1.0  0.93494  0.85363  0.22507  1.0000
  C   C3649     1.0  0.91525  0.86155  0.33331  1.0000
  C   C3650     1.0  0.77536  0.73933  0.38254  1.0000
  C   C3651     1.0  0.74015  0.66882  0.47026  1.0000
  C   C3652     1.0  0.75825  0.68564  0.36912  1.0000
  C   C3653     1.0  0.94337  0.86764  0.31560  1.0000
  C   C3654     1.0  0.91605  0.88416  0.25999  1.0000
  C   C3655     1.0  0.92693  0.89712  0.26751  1.0000
  C   C3656     1.0  0.92440  0.91359  0.25670  1.0000
  C   C3657     1.0  0.91106  0.91728  0.23822  1.0000
  C   C3658     1.0  0.90037  0.90440  0.23019  1.0000
  C   C3659     1.0  0.90300  0.88786  0.24065  1.0000
  H   H2921     1.0  0.85616  0.86053  0.28607  1.0000
  H   H2922     1.0  0.85426  0.83298  0.26157  1.0000
  H   H2923     1.0  0.88046  0.81803  0.24419  1.0000
  H   H2924     1.0  0.90843  0.83038  0.25044  1.0000
  H   H2925     1.0  0.88415  0.87334  0.29243  1.0000
  H   H2926     1.0  0.90208  0.85857  0.33020  1.0000
  H   H2927     1.0  0.74884  0.66554  0.39520  1.0000
  C   C3660     1.0  0.74119  0.71193  0.36865  1.0000
  H   H2928     1.0  0.96297  0.97483  0.16467  1.0000
  H   H2929     1.0  0.97460  0.85917  0.26794  1.0000
  C   C3661     1.0  0.93119  0.97131  0.00900  1.0000
  H   H2930     1.0  0.96910  0.90233  0.32592  1.0000
  C   C3662     1.0  0.74209  0.71291  0.15736  1.0000
  C   C3663     1.0  0.74251  0.79079  0.32825  1.0000
  H   H2931     1.0  0.74160  0.78473  0.09440  1.0000
  C   C3664     1.0  0.96960  0.97838  0.29211  1.0000
  C   C3665     1.0  0.74939  0.65282  0.21687  1.0000
  H   H2932     1.0  0.74711  0.78050  0.99624  1.0000
  C   C3666     1.0  0.94258  0.97684  0.10699  1.0000
  H   H2933     1.0  0.97304  0.94405  0.36969  1.0000
  C   C3667     1.0  0.73485  0.72315  0.44351  1.0000
  H   H2934     1.0  0.85263  0.75694  0.46538  1.0000
  H   H2935     1.0  0.96661  0.97944  0.02268  1.0000
  C   C3668     1.0  0.97617  0.95091  0.15882  1.0000
  H   H2936     1.0  0.97711  0.90582  0.06316  1.0000
  C   C3669     1.0  0.74979  0.66962  0.22607  1.0000
  C   C3670     1.0  0.73660  0.73574  0.28239  1.0000
  H   H2937     1.0  0.75226  0.72614  0.47754  1.0000
  S   S488      1.0  0.98149  0.88908  0.44292  1.0000
  H   H2938     1.0  0.97942  0.85212  0.42361  1.0000
  H   H2939     1.0  0.73528  0.72453  0.08705  1.0000
  C   C3671     1.0  0.73502  0.72884  0.04232  1.0000
  C   C3672     1.0  0.95225  0.94327  0.98292  1.0000
  C   C3673     1.0  0.98241  0.97255  0.05775  1.0000
  H   H2940     1.0  0.73672  0.82967  0.35873  1.0000
  C   C3674     1.0  0.73575  0.67945  0.18349  1.0000
  C   C3675     1.0  0.73511  0.66251  0.17460  1.0000
  C   C3676     1.0  0.98096  0.88779  0.48011  1.0000
  H   H2941     1.0  0.93507  0.98093  0.05046  1.0000
  S   S489      1.0  0.80642  0.67443  0.48064  1.0000
  Fe  Fe245     1.0  0.95665  0.88690  0.60890  1.0000
  S   S490      1.0  0.92800  0.88933  0.60558  1.0000
  H   H2942     1.0  0.90605  0.81909  0.60266  1.0000
  Fe  Fe246     1.0  0.95597  0.89352  0.67281  1.0000
  S   S491      1.0  0.92724  0.89683  0.67353  1.0000
  H   H2943     1.0  0.76488  0.68766  0.74588  1.0000
  Fe  Fe247     1.0  0.92676  0.87363  0.64556  1.0000
  S   S492      1.0  0.91183  0.84863  0.65203  1.0000
  Fe  Fe248     1.0  0.93045  0.91224  0.63361  1.0000
  S   S493      1.0  0.91604  0.93785  0.62642  1.0000
  S   S494      1.0  0.95563  0.86980  0.64695  1.0000
  S   S495      1.0  0.95885  0.91039  0.63480  1.0000
  Fe  Fe249     1.0  0.82555  0.78771  0.68421  1.0000
  S   S496      1.0  0.83813  0.76171  0.68913  1.0000
  S   S497      1.0  0.83962  0.81280  0.67451  1.0000
  Fe  Fe250     1.0  0.78963  0.77268  0.69577  1.0000
  S   S498      1.0  0.80077  0.74609  0.70137  1.0000
  S   S499      1.0  0.76039  0.77565  0.69330  1.0000
  Fe  Fe251     1.0  0.82091  0.75839  0.72659  1.0000
  S   S500      1.0  0.83383  0.74820  0.76640  1.0000
  Fe  Fe252     1.0  0.81679  0.75174  0.66325  1.0000
  S   S501      1.0  0.82184  0.73041  0.63122  1.0000
  S   S502      1.0  0.80905  0.78489  0.72308  1.0000
  S   S503      1.0  0.80486  0.77781  0.65631  1.0000
  Fe  Fe253     1.0  0.82960  0.67028  0.94327  1.0000
  S   S504      1.0  0.83516  0.69750  0.93119  1.0000
  H   H2944     1.0  0.76138  0.72565  0.93753  1.0000
  Fe  Fe254     1.0  0.79197  0.68008  0.95938  1.0000
  S   S505      1.0  0.79624  0.70715  0.94741  1.0000
  H   H2945     1.0  0.73483  0.77872  0.78842  1.0000
  Fe  Fe255     1.0  0.80986  0.69750  0.90935  1.0000
  S   S506      1.0  0.79952  0.70894  0.86839  1.0000
  H   H2946     1.0  0.95779  0.87819  0.74742  1.0000
  C   C3677     1.0  0.73708  0.73480  0.57800  1.0000
  S   S507      1.0  0.80455  0.67009  0.91981  1.0000
  C   C3678     1.0  0.86168  0.70747  0.62013  1.0000
  H   H2947     1.0  0.87937  0.66741  0.61682  1.0000
  C   C3679     1.0  0.84487  0.70106  0.71696  1.0000
  H   H2948     1.0  0.80362  0.70516  0.69543  1.0000
  H   H2949     1.0  0.87906  0.67080  0.66792  1.0000
  S   S508      1.0  0.76507  0.68048  0.97889  1.0000
  H   H2950     1.0  0.84412  0.81194  0.61393  1.0000
  H   H2951     1.0  0.75923  0.77878  0.75484  1.0000
  C   C3680     1.0  0.82381  0.73809  0.79514  1.0000
  C   C3681     1.0  0.83374  0.73292  0.81826  1.0000
  C   C3682     1.0  0.82660  0.72390  0.84082  1.0000
  C   C3683     1.0  0.80931  0.72022  0.84066  1.0000
  C   C3684     1.0  0.79929  0.72563  0.81773  1.0000
  C   C3685     1.0  0.80649  0.73450  0.79506  1.0000
  H   H2952     1.0  0.84704  0.73599  0.81878  1.0000
  H   H2953     1.0  0.83441  0.71992  0.85839  1.0000
  H   H2954     1.0  0.78587  0.72299  0.81746  1.0000
  H   H2955     1.0  0.79868  0.73844  0.77747  1.0000
  C   C3686     1.0  0.81720  0.72894  0.59479  1.0000
  C   C3687     1.0  0.82099  0.71352  0.58086  1.0000
  C   C3688     1.0  0.81795  0.71184  0.55194  1.0000
  C   C3689     1.0  0.81119  0.72562  0.53639  1.0000
  C   C3690     1.0  0.80732  0.74102  0.55036  1.0000
  C   C3691     1.0  0.81019  0.74265  0.57934  1.0000
  H   H2956     1.0  0.82632  0.70277  0.59251  1.0000
  H   H2957     1.0  0.82102  0.69991  0.54163  1.0000
  H   H2958     1.0  0.80209  0.75179  0.53863  1.0000
  H   H2959     1.0  0.80710  0.75451  0.58975  1.0000
  H   H2960     1.0  0.94927  0.95164  0.65758  1.0000
  C   C3692     1.0  0.89153  0.83900  0.65823  1.0000
  C   C3693     1.0  0.87593  0.84829  0.65795  1.0000
  C   C3694     1.0  0.86035  0.84006  0.66283  1.0000
  C   C3695     1.0  0.85993  0.82239  0.66825  1.0000
  C   C3696     1.0  0.87553  0.81307  0.66839  1.0000
  C   C3697     1.0  0.89110  0.82128  0.66338  1.0000
  H   H2961     1.0  0.87584  0.86185  0.65399  1.0000
  H   H2962     1.0  0.84850  0.84752  0.66258  1.0000
  H   H2963     1.0  0.87564  0.79955  0.67262  1.0000
  H   H2964     1.0  0.90296  0.81384  0.66369  1.0000
  C   C3698     1.0  0.91733  0.95961  0.61541  1.0000
  C   C3699     1.0  0.93256  0.96770  0.60846  1.0000
  C   C3700     1.0  0.78188  0.75554  0.97397  1.0000
  C   C3701     1.0  0.90199  0.96923  0.61423  1.0000
  H   H2965     1.0  0.94450  0.96040  0.60889  1.0000
  H   H2966     1.0  0.89015  0.96329  0.61951  1.0000
  C   C3702     1.0  0.75786  0.73027  0.75377  1.0000
  C   C3703     1.0  0.96879  0.97638  0.88247  1.0000
  C   C3704     1.0  0.87436  0.67916  0.62591  1.0000
  C   C3705     1.0  0.96776  0.88468  0.75792  1.0000
  H   H2967     1.0  0.76960  0.71511  0.72129  1.0000
  H   H2968     1.0  0.94220  0.95777  0.83300  1.0000
  H   H2969     1.0  0.91502  0.93711  0.54801  1.0000
  C   C3706     1.0  0.96390  0.88791  0.52337  1.0000
  H   H2970     1.0  0.74918  0.77203  0.94657  1.0000
  H   H2971     1.0  0.74529  0.74227  0.78850  1.0000
  C   C3707     1.0  0.95886  0.95668  0.67111  1.0000
  H   H2972     1.0  0.95158  0.88876  0.53364  1.0000
  C   C3708     1.0  0.93052  0.96484  0.82799  1.0000
  C   C3709     1.0  0.88775  0.83483  0.58023  1.0000
  C   C3710     1.0  0.87790  0.70245  0.93348  1.0000
  C   C3711     1.0  0.93482  0.95499  0.54106  1.0000
  C   C3712     1.0  0.93983  0.92616  0.55763  1.0000
  C   C3713     1.0  0.90317  0.73497  0.70601  1.0000
  C   C3714     1.0  0.75127  0.73724  0.86157  1.0000
  H   H2973     1.0  0.73582  0.82653  0.74373  1.0000
  H   H2974     1.0  0.75992  0.74222  0.74297  1.0000
  H   H2975     1.0  0.76035  0.72694  0.86646  1.0000
  H   H2976     1.0  0.76456  0.75516  0.88624  1.0000
  C   C3715     1.0  0.89127  0.66072  0.84513  1.0000
  C   C3716     1.0  0.90349  0.91348  0.77481  1.0000
  C   C3717     1.0  0.91243  0.90141  0.75859  1.0000
  C   C3718     1.0  0.92842  0.90508  0.74759  1.0000
  C   C3719     1.0  0.93559  0.92072  0.75290  1.0000
  C   C3720     1.0  0.92661  0.93298  0.76895  1.0000
  C   C3721     1.0  0.91047  0.92927  0.77984  1.0000
  P   P124      1.0  0.93511  0.95385  0.77279  1.0000
  C   C3722     1.0  0.92400  0.96507  0.80071  1.0000
  C   C3723     1.0  0.95736  0.95152  0.78229  1.0000
  C   C3724     1.0  0.96896  0.96395  0.77468  1.0000
  H   H2977     1.0  0.84146  0.74179  0.50684  1.0000
  C   C3725     1.0  0.96304  0.97380  0.66906  1.0000
  P   P125      1.0  0.73523  0.71454  0.82671  1.0000
  C   C3726     1.0  0.96291  0.93786  0.79952  1.0000
  H   H2978     1.0  0.75057  0.69101  0.48849  1.0000
  C   C3727     1.0  0.93162  0.96604  0.74085  1.0000
  H   H2979     1.0  0.96334  0.96416  0.87882  1.0000
  Fe  Fe256     1.0  0.82075  0.70501  0.97072  1.0000
  H   H2980     1.0  0.89103  0.91064  0.78317  1.0000
  H   H2981     1.0  0.90693  0.88927  0.75428  1.0000
  H   H2982     1.0  0.93518  0.89587  0.73456  1.0000
  H   H2983     1.0  0.94797  0.92334  0.74393  1.0000
  H   H2984     1.0  0.90315  0.93852  0.79197  1.0000
  C   C3728     1.0  0.87458  0.65165  0.73796  1.0000
  C   C3729     1.0  0.73930  0.68365  0.48621  1.0000
  C   C3730     1.0  0.96982  0.88266  0.78705  1.0000
  C   C3731     1.0  0.74333  0.69782  0.84993  1.0000
  H   H2985     1.0  0.95426  0.92809  0.80594  1.0000
  C   C3732     1.0  0.94175  0.93512  0.96395  1.0000
  S   S509      1.0  0.80775  0.72456  0.49952  1.0000
  H   H2986     1.0  0.81576  0.67314  0.86156  1.0000
  H   H2987     1.0  0.97106  0.82574  0.53486  1.0000
  C   C3733     1.0  0.87724  0.74810  0.72488  1.0000
  C   C3734     1.0  0.86884  0.73293  0.72120  1.0000
  C   C3735     1.0  0.81154  0.70386  0.73847  1.0000
  C   C3736     1.0  0.82536  0.70238  0.75659  1.0000
  C   C3737     1.0  0.84195  0.70108  0.74592  1.0000
  C   C3738     1.0  0.87758  0.71857  0.71028  1.0000
  H   H2988     1.0  0.87028  0.75910  0.73338  1.0000
  H   H2989     1.0  0.85545  0.73258  0.72654  1.0000
  H   H2990     1.0  0.79876  0.70545  0.74692  1.0000
  H   H2991     1.0  0.82323  0.70272  0.77899  1.0000
  H   H2992     1.0  0.85252  0.70037  0.76029  1.0000
  C   C3739     1.0  0.76016  0.72321  0.54914  1.0000
  H   H2993     1.0  0.78072  0.67730  0.86816  1.0000
  C   C3740     1.0  0.87910  0.68484  0.92990  1.0000
  H   H2994     1.0  0.91642  0.73586  0.69981  1.0000
  C   C3741     1.0  0.87626  0.71324  0.91020  1.0000
  C   C3742     1.0  0.87605  0.70643  0.88331  1.0000
  C   C3743     1.0  0.87768  0.68873  0.87954  1.0000
  C   C3744     1.0  0.87884  0.67799  0.90309  1.0000
  P   P126      1.0  0.87750  0.67972  0.84497  1.0000
  C   C3745     1.0  0.83312  0.80663  0.60419  1.0000
  C   C3746     1.0  0.88520  0.69539  0.82051  1.0000
  C   C3747     1.0  0.90268  0.69653  0.81461  1.0000
  C   C3748     1.0  0.90844  0.70938  0.79685  1.0000
  C   C3749     1.0  0.89682  0.72122  0.78498  1.0000
  C   C3750     1.0  0.87942  0.72015  0.79072  1.0000
  C   C3751     1.0  0.87364  0.70733  0.80843  1.0000
  H   H2995     1.0  0.94061  0.92127  0.92536  1.0000
  C   C3752     1.0  0.73887  0.70462  0.56804  1.0000
  H   H2996     1.0  0.79303  0.78801  0.57107  1.0000
  C   C3753     1.0  0.83089  0.70230  0.69880  1.0000
  H   H2997     1.0  0.86722  0.84746  0.55779  1.0000
  C   C3754     1.0  0.96675  0.94602  0.69095  1.0000
  H   H2998     1.0  0.97154  0.92296  0.91533  1.0000
  C   C3755     1.0  0.87233  0.83541  0.56578  1.0000
  C   C3756     1.0  0.82258  0.66910  0.81849  1.0000
  C   C3757     1.0  0.77626  0.74648  0.95107  1.0000
  H   H2999     1.0  0.98276  0.88049  0.96864  1.0000
  C   C3758     1.0  0.80241  0.80607  0.60019  1.0000
  H   H3000     1.0  0.87450  0.71501  0.86567  1.0000
  C   C3759     1.0  0.87598  0.68126  0.72309  1.0000
  C   C3760     1.0  0.89011  0.68304  0.74053  1.0000
  C   C3761     1.0  0.75646  0.67318  0.88780  1.0000
  H   H3001     1.0  0.90128  0.73132  0.77157  1.0000
  H   H3002     1.0  0.87037  0.72947  0.78190  1.0000
  H   H3003     1.0  0.86014  0.70699  0.81317  1.0000
  C   C3762     1.0  0.97862  0.88511  0.53928  1.0000
  C   C3763     1.0  0.98373  0.83071  0.53590  1.0000
  C   C3764     1.0  0.74647  0.77683  0.74743  1.0000
  H   H3004     1.0  0.87482  0.72687  0.91306  1.0000
  C   C3765     1.0  0.97851  0.98177  0.57637  1.0000
  H   H3005     1.0  0.74257  0.74002  0.68233  1.0000
  H   H3006     1.0  0.85696  0.66396  0.70945  1.0000
  C   C3766     1.0  0.84275  0.67521  0.85482  1.0000
  C   C3767     1.0  0.92859  0.93920  0.54867  1.0000
  H   H3007     1.0  0.75707  0.74964  0.55996  1.0000
  C   C3768     1.0  0.97530  0.98043  0.68681  1.0000
  C   C3769     1.0  0.86144  0.70950  0.64909  1.0000
  H   H3008     1.0  0.75376  0.81573  0.70442  1.0000
  S   S510      1.0  0.85234  0.65051  0.94445  1.0000
  C   C3770     1.0  0.86190  0.78569  0.51542  1.0000
  C   C3771     1.0  0.85562  0.77716  0.53903  1.0000
  C   C3772     1.0  0.84837  0.76121  0.53572  1.0000
  P   P127      1.0  0.85633  0.78657  0.57334  1.0000
  C   C3773     1.0  0.86515  0.77119  0.59811  1.0000
  C   C3774     1.0  0.86950  0.80503  0.57384  1.0000
  C   C3775     1.0  0.86323  0.82058  0.56257  1.0000
  H   H3009     1.0  0.86802  0.69068  0.58604  1.0000
  H   H3010     1.0  0.96505  0.97455  0.76156  1.0000
  H   H3011     1.0  0.76162  0.66399  0.90283  1.0000
  C   C3776     1.0  0.89652  0.66916  0.75623  1.0000
  C   C3777     1.0  0.87493  0.75694  0.58887  1.0000
  C   C3778     1.0  0.88285  0.74581  0.60811  1.0000
  C   C3779     1.0  0.88154  0.74909  0.63665  1.0000
  C   C3780     1.0  0.87231  0.76348  0.64597  1.0000
  C   C3781     1.0  0.86390  0.77435  0.62687  1.0000
  C   C3782     1.0  0.85607  0.67487  0.83510  1.0000
  H   H3012     1.0  0.96557  0.91875  0.56746  1.0000
  C   C3783     1.0  0.89476  0.71976  0.70231  1.0000
  C   C3784     1.0  0.95226  0.95784  0.54282  1.0000
  C   C3785     1.0  0.75374  0.75330  0.87285  1.0000
  C   C3786     1.0  0.88879  0.65347  0.75491  1.0000
  C   C3787     1.0  0.85354  0.76258  0.48587  1.0000
  C   C3788     1.0  0.74005  0.81725  0.70206  1.0000
  H   H3013     1.0  0.86761  0.79794  0.51730  1.0000
  C   C3789     1.0  0.92091  0.96817  0.69330  1.0000
  H   H3014     1.0  0.87766  0.70768  0.95435  1.0000
  C   C3790     1.0  0.84729  0.75401  0.50925  1.0000
  H   H3015     1.0  0.91580  0.96212  0.67506  1.0000
  S   S511      1.0  0.97611  0.89902  0.70604  1.0000
  C   C3791     1.0  0.82048  0.78729  0.57197  1.0000
  H   H3016     1.0  0.87676  0.75449  0.56685  1.0000
  H   H3017     1.0  0.89015  0.73474  0.60084  1.0000
  H   H3018     1.0  0.88775  0.74054  0.65153  1.0000
  H   H3019     1.0  0.87171  0.76629  0.66805  1.0000
  H   H3020     1.0  0.85681  0.78544  0.63459  1.0000
  C   C3792     1.0  0.74376  0.67353  0.98008  1.0000
  H   H3021     1.0  0.85653  0.71760  0.60676  1.0000
  H   H3022     1.0  0.91108  0.67209  0.86923  1.0000
  C   C3793     1.0  0.92516  0.95835  0.71692  1.0000
  H   H3023     1.0  0.78126  0.74912  0.93038  1.0000
  H   H3024     1.0  0.95660  0.98167  0.65359  1.0000
  C   C3794     1.0  0.73761  0.73480  0.84342  1.0000
  C   C3795     1.0  0.90860  0.97414  0.79527  1.0000
  H   H3025     1.0  0.92308  0.94484  0.71628  1.0000
  H   H3026     1.0  0.74769  0.65238  0.95235  1.0000
  C   C3796     1.0  0.80423  0.79335  0.58011  1.0000
  C   C3797     1.0  0.97865  0.89498  0.74256  1.0000
  C   C3798     1.0  0.75189  0.73711  0.56209  1.0000
  H   H3027     1.0  0.92430  0.96560  0.96645  1.0000
  H   H3028     1.0  0.75029  0.68737  0.79181  1.0000
  C   C3799     1.0  0.73910  0.67774  0.88824  1.0000
  C   C3800     1.0  0.83583  0.66843  0.79883  1.0000
  C   C3801     1.0  0.81429  0.70373  0.70959  1.0000
  C   C3802     1.0  0.97920  0.95231  0.70829  1.0000
  C   C3803     1.0  0.74707  0.71479  0.79409  1.0000
  H   H3029     1.0  0.90745  0.67057  0.76959  1.0000
  C   C3804     1.0  0.74372  0.77478  0.71881  1.0000
  H   H3030     1.0  0.90315  0.97429  0.77453  1.0000
  H   H3031     1.0  0.85621  0.72133  0.65768  1.0000
  H   H3032     1.0  0.89454  0.84639  0.58367  1.0000
  H   H3033     1.0  0.81554  0.82237  0.62816  1.0000
  C   C3805     1.0  0.75253  0.69943  0.78154  1.0000
  H   H3034     1.0  0.87936  0.66427  0.90088  1.0000
  H   H3035     1.0  0.76944  0.69901  0.83521  1.0000
  H   H3036     1.0  0.90080  0.76102  0.71988  1.0000
  H   H3037     1.0  0.75985  0.69629  0.54150  1.0000
  C   C3806     1.0  0.76721  0.68067  0.86826  1.0000
  C   C3807     1.0  0.76332  0.71496  0.74155  1.0000
  C   C3808     1.0  0.75355  0.70703  0.55189  1.0000
  H   H3038     1.0  0.97756  0.85196  0.70563  1.0000
  C   C3809     1.0  0.76069  0.69954  0.75544  1.0000
  C   C3810     1.0  0.76072  0.69297  0.84949  1.0000
  C   C3811     1.0  0.89426  0.81937  0.59094  1.0000
  H   H3039     1.0  0.85102  0.82134  0.55214  1.0000
  H   H3040     1.0  0.96972  0.97591  0.59073  1.0000
  H   H3041     1.0  0.82141  0.77751  0.55636  1.0000
  H   H3042     1.0  0.83259  0.70238  0.67637  1.0000
  C   C3812     1.0  0.94866  0.92798  0.93952  1.0000
  H   H3043     1.0  0.89041  0.79283  0.59690  1.0000
  C   C3813     1.0  0.96607  0.92895  0.93381  1.0000
  H   H3044     1.0  0.96333  0.93281  0.69260  1.0000
  C   C3814     1.0  0.74271  0.76704  0.86592  1.0000
  C   C3815     1.0  0.92194  0.97381  0.84927  1.0000
  H   H3045     1.0  0.78984  0.81057  0.60689  1.0000
  H   H3046     1.0  0.91191  0.68771  0.82392  1.0000
  C   C3816     1.0  0.89439  0.74916  0.71727  1.0000
  P   P128      1.0  0.86656  0.69922  0.70412  1.0000
  C   C3817     1.0  0.83512  0.79381  0.58408  1.0000
  H   H3047     1.0  0.84340  0.75437  0.55362  1.0000
  C   C3818     1.0  0.97966  0.93686  0.80929  1.0000
  H   H3048     1.0  0.84510  0.67776  0.87661  1.0000
  H   H3049     1.0  0.83313  0.66584  0.77716  1.0000
  H   H3050     1.0  0.87972  0.67639  0.94795  1.0000
  H   H3051     1.0  0.96106  0.87497  0.79877  1.0000
  C   C3819     1.0  0.95721  0.92904  0.56008  1.0000
  C   C3820     1.0  0.73746  0.77026  0.95816  1.0000
  H   H3052     1.0  0.92196  0.71033  0.79260  1.0000
  H   H3053     1.0  0.77172  0.72495  0.53696  1.0000
  C   C3821     1.0  0.96509  0.88919  0.49398  1.0000
  C   C3822     1.0  0.87405  0.68111  0.65495  1.0000
  C   C3823     1.0  0.86735  0.69624  0.66677  1.0000
  H   H3054     1.0  0.79118  0.76526  0.97100  1.0000
  C   C3824     1.0  0.96353  0.94505  0.55336  1.0000
  H   H3055     1.0  0.90158  0.70896  0.69304  1.0000
  C   C3825     1.0  0.76505  0.73327  0.95510  1.0000
  H   H3056     1.0  0.92708  0.97365  0.87023  1.0000
  C   C3826     1.0  0.86807  0.69229  0.60852  1.0000
  H   H3057     1.0  0.93501  0.91387  0.56318  1.0000
  H   H3058     1.0  0.92601  0.96515  0.53455  1.0000
  C   C3827     1.0  0.74965  0.73022  0.77981  1.0000
  C   C3828     1.0  0.86814  0.66549  0.72222  1.0000
  H   H3059     1.0  0.95673  0.97016  0.53652  1.0000
  C   C3829     1.0  0.97656  0.93715  0.95242  1.0000
  H   H3060     1.0  0.73987  0.73136  0.63350  1.0000
  C   C3830     1.0  0.86089  0.77838  0.48896  1.0000
  H   H3061     1.0  0.97647  0.93463  0.50316  1.0000
  C   C3831     1.0  0.88525  0.80450  0.58772  1.0000
  H   H3062     1.0  0.97923  0.84259  0.57584  1.0000
  H   H3063     1.0  0.89609  0.69512  0.74243  1.0000
  C   C3832     1.0  0.90696  0.66071  0.85909  1.0000
  C   C3833     1.0  0.85250  0.67143  0.80704  1.0000
  C   C3834     1.0  0.81686  0.81273  0.61215  1.0000
  C   C3835     1.0  0.82606  0.67245  0.84642  1.0000
  H   H3064     1.0  0.86260  0.67122  0.79151  1.0000
  H   H3065     1.0  0.74490  0.77958  0.87407  1.0000
  S   S512      1.0  0.97791  0.88233  0.57627  1.0000
  C   C3836     1.0  0.73854  0.65948  0.96509  1.0000
  H   H3066     1.0  0.92830  0.93390  0.96839  1.0000
  H   H3067     1.0  0.74044  0.80819  0.65987  1.0000
  H   H3068     1.0  0.97869  0.96894  0.92261  1.0000
  C   C3837     1.0  0.97764  0.97908  0.90721  1.0000
  H   H3069     1.0  0.80959  0.66711  0.81216  1.0000
  H   H3070     1.0  0.95358  0.89114  0.48191  1.0000
  C   C3838     1.0  0.96974  0.94420  0.97696  1.0000
  C   C3839     1.0  0.98311  0.89043  0.80113  1.0000
  C   C3840     1.0  0.98366  0.96936  0.70599  1.0000
  H   H3071     1.0  0.98375  0.92645  0.82301  1.0000
  H   H3072     1.0  0.97185  0.83579  0.74923  1.0000
