data_image0
_chemical_formula_structural       FeS2FeSCH2CSHC2PHCHFeS2FeSHFeSFeS3CHCH4CHCHCHSH2C2H2C6H5C2H2SC5HCH2CHFeC5HC2HC5PC2HCH2C3HC2H3CHCHCH5CHC2HC2HCHSCHCFeCHC2HC5SHCH3C2HC3H2C3PCHSC11FeC3SH7CHCH4CSHCHC4H3SCHC4HC2H2CH3CHCH2CH2S2CHC2SH3CHFe2S2FeSHCH2CPC2SHC2FeSCFeSHFeSFeS3C3SHC3HC3H2SHC2H2C7H3CHCHCHCSHC2SH9CHC9PC15HC2H17CH3C8H2C3HCHC3H2CH4CH4C7SHCHC2HCFeHC3H2SCH5C3H2CHC4H3CH2CFeHC2HCHC2HC6SHFeCHPHC5HC2HC2HCSC2PH3CH2CSH4CH4CFeS2FeS2FeSFeS3H3CH2CHC2HCFeCHCFeS2FeS2FeSFeS3CHFeHFeHCHC3H2C8H3C2H2C2HCHC4HCHC6HC7H4C6H2CHC2H3SHFeC2HCHSHCHCH2C3H2CSHCH2C2H5CH4C2H2CH5CHCHCPC8H7CHC2HCFeC5SHCHC2H2CSC4HCHCPC4SH2CHC6SC3HCHCHCH2CSCH3SH4C4PC8H7CHC2H2CHPC2S2C2HCHC8HCHC2HC3HCH4C2HCHC6HC3FeC2PHCHC2HCH2C2HCH2C2H2C3H5CH3C4HC4PCHCHCH7CHSCH2C2H4FeS2FeS2FeSFeS3CHSFeHC3SHSH2C3FeS2FeS2FeSFeS3C3HC2H2SCHCH2C6H4C3HCHC3HCHCPCH2C2FeH3C7H4C6H4C2H3CHC4H4FeCH3CHCH4CH2C2HC6H3C8H2CHCH5CHC3H2C2HC4PC3H2C4HC4H3C2SCH2CHFeH4C3H3CH3C2H2C6H2C6H2CH6CSH2C2H2SCH6P2CH2CHCHC2HCSCPHCHSCHC3HCHC2H2C5HC10H2CHCH2C2HCHPFeH2C5HC7HC2H2CHCH2CHCHCHCH3CHC2HFeS2FeS2FeSFeHS2H3FeCSFeC2FeHFeS2HC4H2C3H2C2HSC3HCHC2H2C6HC6H5C6SCH2CH6C2H5CHC4PH2C3H3CHCH3CHCHSC4H3SCHCHC2HC4HSH3CHC2HCH2FeC2HC2HC2HC2HCHC5H2C5H4C2PC2HC2H4C3PCH4SPH3C2HCHCH3C2H4C2H3C2HC3PC4H2C12HC2H2C3H9C4HCHC3HS2CH2SCHCHCHC4H4CHC2H2C10HC2HC3HC3PCSC3HC7HCHCHCHC3HCHCHC2HCH3C7H2C2HFeS2FeS2FeCFeHS2HC2FeHSCHSFeHFeS2HCPH5C2H2C3H2CHCHC2HSH6C8H5C2HCHC2HC5HC2H3C3H2C2HC2HCHCHCHC5HCHCHCHSC3PH3CHC5HCH4C2HCHCHCH2CFeHC3H2C2HCH2CH2CH4C2HCH3C7PC3HC8HCHC2H3SHPH7CH2C2H2C5FeCHCSC5HC3H2C2H2CHSH2C2H4C4HCHC2HC2H3C2HCSHC3H4C2H2CHSC3SC3HC2HC6HC2SHCHSHC2H2PCSCHC3HS2CFeSCFeSHFeSFeS3CHFeSCFeS2FeSHFeSFeSCSH2C2HC4H2C6H4C6H5C2HCH6CHCSH2CHC2H2CHC4H2C7HSC4HC9PC5HC12H19CH2CPHCHPC8HC9HCH15C2H2SC2H4FeC7H2C3SH2PC3H3CHC2HCHC3H4CH3CHCH2C2HC2HCSC4H4CHFeSC4HFeSHFeS2FeSFeS3C2FeSCFeSCFeSHFeSFeS3CH2CH2C3H2C6H4C6H4C5SC2H3CHC3HCHCHC2HCHCH2SCHCH2C2HC3HCH2C5HC7PC3HCHC2HC9H6PC2H2CH12C2PC4HC7HC2PC3H8C3H2C2H3C4H3C3HCHCHC2HC2HCHCH2CH2C2HC2H3C3H2C2HCHCHSCHPC3HC4HC4HCH2CH3CH5C2H2C4H2PH2CSH3CHC2PCHC2FeS2FeS2FeS2FeSFeS3FeS2FeS2FeSFeS3H2PFeCHFeS2C6H4C2HC2HCHC3H4C6H5C2H2C6H5C3HC2H2CHCPC2PHCH2CHC2H3C3H2CH2CH2C2H2C2HCH2CHCH3C2HCHCH2CHC7PC11HC6H6C2H5C2H5C6H5CSHC5PC4HC7HC4H5C2HCH5C8H2CHC2HCH7C5H2CSCHC3H2CHPH3CHC5HCH3CH2CHCH2C3HCH2C3HC5FeC3HC6PHC2HC4H2CHC4SH2C2H4CHC2H3CHC2HCHCHCH2CH3CH2PCHCHFeS2FeS2FeS2FeSFeS3FeS2FeS2FeSFeS3FeH2Fe2CFeS2C6H4CHCH4CH2CH3C7H5C3HC6H4CH2C5H2PC2H4C2H2C2H3CH4C6H3SCHCH2CHCH3CH2C2H2CH2C3HC3H2CHC6H2CHCHCH2SH2C4HC3H2C2H2C4FePC9H4CH7CPC12H8CH7C2PC4H2C6H2CH3CHC3H2CHCHC6PC16SC2H2C2HCHCH4C2HCHCHCH2SHC2HCH3C2HCHC2HC3HC2H3C2HFeSHFeS2FeSFeS3FeSH2SCFeS2FeSFeS2C7HSH2C6H4C3H2CHC3H2C3HCH2CH3C3H2C3HC2HC4HC2H2CH2CH2CHCHPH2C4HCH2CH2C3HCHC6H2CH2C2H2C3H2CSCHC2HC4H2C3HC3H2CH2C2H2SCH2C5HPC3H8CH4C2HC2HCSCH2CH2C3H4C2PH3FeCH2C2H5CHCHCHC2HFeSCFeS2FeSFeS3FeSCS2HFeSHFeSFeS2C7H4C6H4C3HCH2CHC2H4CH4CH3C4H4C2HC3H2PCHC10HC3H2SCH6CHCSC7PHC8H2C6H11C2HCHC2H3CH5C2HCH2CSH3CHC6H2C6HCH2C2PH2C2H2PC2H3CHFeC2H2CHC6H2C2HCH2CHC2HC2H2C4H4CHCH2C2HC2HC2H2CHFeS2FeSCFeSFeS3FeS3FeS2FeS2FeHFeS3H2CHCH3C4HC6H4C6H5C4H6C2H2CH2PC2SHC2HCH2C2H6C3H2CHC4HC2HC3HC4HCH5C3HC9HC4H2C2HPHCH5CH2CH4C2H2C3H4CH2C3H2C3PHC5HCSC2HC6PC12HCH14CHC3H2CSCH2C2HCH2C3FeS2FeSCFeSFeS3FeS2HFeHSFeS2FeHFeHS2HC2H6C3HC6H4C6H4C5H3C2HC2H5C6HCSHSH4C3H2C2S2H3C2HC3HCHC6H2C2PC2HCHCHC11HCHCH2C4H10CH3CH4CHC3HCHC3H3CH2CSHCH6C2HCHC8H2C4HCHC3HCHCHCHCPC2HC5HCH2CHC4HCPSCHPHCHCFeH3C4H2CH2FeS2CHC2HFeS2FeS2FeSFeS3FeHCFeCHFeS2FeS2FeS2FeSFeS4H2C8H4C2HC3H2CHC6H4CH4C6H4CHCH2C2HCHC2HC4HC3H2CPHCH2CHCHCH2CHC3HC2H2CH2C3HCHCHC5H4CHCHFeHSCHC2HSC7PC2H2C9H11C3H2CHC3HSC11HCH2CH2C3HSCHC2PHC3HCH2C2H2C4HFeCH2PHC3HCH2C2H3C3H3CHC2H2CH2CHCH2SHC4SHCHC2HS2HSC2HFeS2FeS2FeSFeS3FeC2FeC2FeS2FeS2FeS2FeSFeS3C3HC7H4CH2C4H3C6H4CHCHC7H4C2H2C3HCPHC5SHC3HSHCH3CHC3HCH3PC7HC2H3C3HC3HCH4C4PC13H12CHC2FeC2HCH2CH3C4H2CHC4HCHC3HC2H4C2HC2H5C3HCPHC2HCH5PC5HCH2CFeHSH8CHC3H2C7PC4HSC12SC2H13CH3CH3PCH2C3HC3HC8HC2H2C3HCH6CH2CHCHCHCH4CH2CH3C5H2C3SC2HCHSHC3SCFeSHFeS2FeSFeS3FeS2FeSHFeSFeS3HC3HC6H4C6H4C2H2CHC3H5CH2CSCPCH3CHC3PC15FeC5H9CH2C2H3C2HCH2CHCHCH3SH2C3HCH2CPC3HC2PHSCH2C7H6C2H2CHC2H6C3HCHCHCHCHC2HC2HCHCH3CH2C2H3C7HCH3C8H9CHC2HCH2C2HC3H3C5SHC3HCHC3H3C3HC3HC3PH2C10PH3C4PC4HCSHC2H2C2HC4HCHC2H3CHCH3CHSHFeSCFeS2FeSFeS3FeS2FeSCFeSFeS3HC2H2C6H4C6H4C5HC4H2C4HC4H3CH2CHCH2FeCHC2HCHPH3CHC10HCH2C4HSCH2CH2C3HCH2C2H2CHC2SHPC9HCH9C2HCHSC2H4C3H2CHCHC3H2C2HC4HC4HPCH6CHCHC3HC8HPC3HC3HC11SH4CH4PH4CH3CHC6PC2H3C3H8C3H3C7H3C2H3C3HCHCH2FeSCFeS2FeSFeSHSCHSPCHFeSFeHS3H2CHCHCHC2HC2H2CH4C2H3C6H4C2H2CH3PH2CHC2H2C2HCHC12H2C4H2CHCHC3HC3HC5HC3HCHC2H3CH3C2H2C2H2C3HCH5C2HCH2CH4CHC4H5C2HC3HCHCPC10H2SC2HCHC5PC14H2PCFeH2CH11C2H3C2SC3FeH2C2H2CH2C3HCSH3CH2SHCH3C3SHCH2Fe2SHFeS2FeSFeS3C3HC2FeSFeCS2C2HC2H3CH3CH3CSH6CHC6H4C3HC3HC4HCH2C4PC4HC2H2CH2C2H2CFeHC4H2C8PHC3HCH2CHC8H3CHC2HCHC3HCHPH4CPH2CH4C2HC2HSCHCH2SC3H2C2HC2FeHCH3C2HC2HCH2CHC3HCH2C6HC2HC2HCHCHSH9C5HCHSHCHC2PCHC5H2CH3C2H3CH2FeC2HCH2C3PC4HC2HC2H2SCHFeCHC3HCH4CH2C2H3CHC3FeC3HCH3CH2C3HCHC2HCH2SHSCHSH2C6SFeHSFeSHC3FeS2FeS2FeSFeS3FeS2FeS2FeSFeS3HCHCHCPC2HFeC6H2CHC2SHC3HC3HC2HC6H5C2H3CH2C9H4C7H8C2HSCH5C2HCH3CH4CHCH2C5PC8HCHC4HC3HCHCH7C2H4C2H2C5HSCHPHCH2SH2CH3C2HCHC3HC2HC2HC4HC5HCSC2H7PC8PC3HC3HCHC9H5CHCHCH8C4HCH3CH2CH2CHCHCH2C3H3FeHC4FeH2CH2C2H3CHC2HC2H2SHCPCHC2H3C3HCHCHC2HCHCH2CHC2HC3HC5H4C2FeCSFeH2C2HFeS2FeS2FeSFeS3FeS2FeS2FeSFeS3CHSFeC2HSCHC7H4SC2H2C2HCHCH2CHC6H4C3H3C2H3C7H3CHCHCH3CHCH3C3HCHCHCP2C13HC7H6CHCSH5C4FeC3HCPC3H3C5HCH3C2HC5HCH2C2HCHCH5CHC2HSCHC2H2PC2HCHCHCHC3PCHC2H3C11H4CH2C2H2CH6C2HC6PCHCH3C4HC2H7C2H2SHC2H6C2HCHCHC2HC10H5FeCHCH3C2H3CHC4H2C2SC2HC2H3C2HCHCHC2HCHCPFeS2FeS2FeHFeS3CH2FeSHFeHSFeSFeSCHCHC3H4C5H2CH2CHC2HCHC4H2CSC6H4C3HC4HC2HCH4CSH2CH3CHCHCH4C3H3CHC2HCHC4HC3FeCHCHC2HC3H3C2H2CHC2HC5HCH2SCSHC2HPCHC10PC4HC10HC2H8CSH6CH3CH2C2H3C4HCH2CHC2SHC2PCHC4H4C2HC2H2PSH2CH2C3H3CH3C2HC3H2PHC2H3SHCPFeS2FeS2FeCFeS3CHCFeSCFeHSFeCFeS2CHCHCHC2H2C2H3C2FeHC3HC3HSCH4CHC6H4C4H2C4HC2HC3HC2HCHC5H2C2H2PH3SH4CHC2HC5S2C2H2CH2CHC2H2C3H2CH2CH2CHCSC7H4CH2CH2C2H3CHC2HC2HC2HCH3PC4H4C2HC5H2C7PC3H3C7HPC3H9CH5C2HSH3C2H7C2HC6HC2H2C10H4CH2CSC2SC2HCHC2PC2H
_chemical_formula_sum              "Fe256 S512 C3840 H3072 P128"
_cell_length_a       76.6033
_cell_length_b       76.7125
_cell_length_c       48.0191
_cell_angle_alpha    90.1905
_cell_angle_beta     90.1328
_cell_angle_gamma    88.0656

_space_group_name_H-M_alt    "P 1"
_space_group_IT_number       1

loop_
  _space_group_symop_operation_xyz
  'x, y, z'

loop_
  _atom_site_type_symbol
  _atom_site_label
  _atom_site_symmetry_multiplicity
  _atom_site_fract_x
  _atom_site_fract_y
  _atom_site_fract_z
  _atom_site_occupancy
  Fe  Fe1       1.0  0.20272  0.14544  0.01413  1.0000
  S   S1        1.0  0.17438  0.15049  0.00198  1.0000
  S   S2        1.0  0.20885  0.14399  0.06152  1.0000
  Fe  Fe2       1.0  0.21588  0.14433  0.45238  1.0000
  S   S3        1.0  0.18904  0.15185  0.43701  1.0000
  C   C1        1.0  0.21271  0.24544  0.26661  1.0000
  H   H1        1.0  0.15324  0.12652  0.28980  1.0000
  H   H2        1.0  0.20791  0.14204  0.12144  1.0000
  C   C2        1.0  0.22422  0.20212  0.35108  1.0000
  S   S4        1.0  0.15453  0.11639  0.46136  1.0000
  H   H3        1.0  0.06143  0.00701  0.44844  1.0000
  C   C3        1.0  0.22436  0.27306  0.06246  1.0000
  C   C4        1.0  0.13841  0.01710  0.41742  1.0000
  P   P1        1.0  0.22994  0.22082  0.08032  1.0000
  H   H4        1.0  0.09760  0.00351  0.01011  1.0000
  C   C5        1.0  0.23772  0.15125  0.32930  1.0000
  H   H5        1.0  0.21775  0.12585  0.28082  1.0000
  Fe  Fe3       1.0  0.07942  0.01833  0.32946  1.0000
  S   S5        1.0  0.07670  0.04654  0.34317  1.0000
  S   S6        1.0  0.07831  0.01406  0.28194  1.0000
  Fe  Fe4       1.0  0.07967  0.00636  0.39050  1.0000
  S   S7        1.0  0.07625  0.03345  0.40796  1.0000
  H   H6        1.0  0.20584  0.24153  0.30931  1.0000
  Fe  Fe5       1.0  0.05648  0.03707  0.37317  1.0000
  S   S8        1.0  0.03044  0.05240  0.37576  1.0000
  Fe  Fe6       1.0  0.09674  0.04076  0.37683  1.0000
  S   S9        1.0  0.12228  0.05519  0.38625  1.0000
  S   S10       1.0  0.05835  0.00932  0.35824  1.0000
  S   S11       1.0  0.10102  0.01318  0.36063  1.0000
  C   C6        1.0  0.20942  0.25104  0.29392  1.0000
  H   H7        1.0  0.19910  0.13338  0.24030  1.0000
  C   C7        1.0  0.18540  0.08629  0.36285  1.0000
  H   H8        1.0  0.22465  0.20665  0.32981  1.0000
  H   H9        1.0  0.01940  0.01969  0.39929  1.0000
  H   H10       1.0  0.10867  0.09474  0.36179  1.0000
  H   H11       1.0  0.16744  0.15396  0.32752  1.0000
  C   C8        1.0  0.22553  0.14667  0.08754  1.0000
  H   H12       1.0  0.15958  0.18091  0.35313  1.0000
  C   C9        1.0  0.19775  0.21730  0.98122  1.0000
  H   H13       1.0  0.11028  0.07304  0.32365  1.0000
  C   C10       1.0  0.22439  0.28399  0.35388  1.0000
  H   H14       1.0  0.17893  0.28498  0.29276  1.0000
  S   S12       1.0  0.23913  0.13988  0.42344  1.0000
  H   H15       1.0  0.22032  0.25300  0.22527  1.0000
  H   H16       1.0  0.16156  0.08942  0.30264  1.0000
  C   C11       1.0  0.22234  0.15280  0.34513  1.0000
  C   C12       1.0  0.22259  0.14939  0.37393  1.0000
  H   H17       1.0  0.21022  0.15684  0.33511  1.0000
  H   H18       1.0  0.21078  0.15105  0.38593  1.0000
  C   C13       1.0  0.14592  0.09919  0.44034  1.0000
  C   C14       1.0  0.12792  0.09588  0.44170  1.0000
  C   C15       1.0  0.12047  0.08248  0.42564  1.0000
  C   C16       1.0  0.13089  0.07211  0.40777  1.0000
  C   C17       1.0  0.14889  0.07538  0.40647  1.0000
  C   C18       1.0  0.15635  0.08874  0.42259  1.0000
  H   H19       1.0  0.03683  0.00234  0.03235  1.0000
  H   H20       1.0  0.10662  0.08028  0.42693  1.0000
  H   H21       1.0  0.15712  0.06752  0.39275  1.0000
  H   H22       1.0  0.17018  0.09095  0.42134  1.0000
  H   H23       1.0  0.15696  0.24534  0.37986  1.0000
  C   C19       1.0  0.12309  0.00984  0.42706  1.0000
  C   C20       1.0  0.18029  0.21842  0.04813  1.0000
  H   H24       1.0  0.23772  0.29386  0.41975  1.0000
  H   H25       1.0  0.16190  0.23359  0.47045  1.0000
  S   S13       1.0  0.22624  0.31095  0.98846  1.0000
  C   C21       1.0  0.23213  0.21041  0.11400  1.0000
  C   C22       1.0  0.17243  0.31817  0.35319  1.0000
  C   C23       1.0  0.07559  0.99942  0.22952  1.0000
  C   C24       1.0  0.01794  0.04915  0.45141  1.0000
  C   C25       1.0  0.00987  0.04243  0.37737  1.0000
  H   H26       1.0  0.15546  0.12388  0.40041  1.0000
  C   C26       1.0  0.00801  0.02070  0.46425  1.0000
  H   H27       1.0  0.15657  0.00812  0.98919  1.0000
  H   H28       1.0  0.03400  0.02562  0.44977  1.0000
  C   C27       1.0  0.21824  0.20135  0.12551  1.0000
  H   H29       1.0  0.11963  0.10382  0.45524  1.0000
  Fe  Fe7       1.0  0.20202  0.30099  0.46196  1.0000
  C   C28       1.0  0.19426  0.11330  0.38394  1.0000
  C   C29       1.0  0.12098  0.08173  0.32694  1.0000
  C   C30       1.0  0.13410  0.10478  0.35358  1.0000
  C   C31       1.0  0.23479  0.25258  0.10807  1.0000
  C   C32       1.0  0.00797  0.02667  0.39132  1.0000
  H   H30       1.0  0.13668  0.07049  0.29402  1.0000
  C   C33       1.0  0.19614  0.12176  0.30844  1.0000
  C   C34       1.0  0.20368  0.12577  0.28285  1.0000
  H   H31       1.0  0.23938  0.18213  0.18046  1.0000
  C   C35       1.0  0.14918  0.10345  0.33698  1.0000
  C   C36       1.0  0.13593  0.08023  0.31040  1.0000
  C   C37       1.0  0.18347  0.10449  0.36532  1.0000
  C   C38       1.0  0.22120  0.14485  0.11592  1.0000
  C   C39       1.0  0.22969  0.24442  0.08323  1.0000
  P   P2        1.0  0.16789  0.11664  0.34399  1.0000
  C   C40       1.0  0.01420  0.03722  0.01132  1.0000
  C   C41       1.0  0.15596  0.13619  0.38956  1.0000
  H   H32       1.0  0.16680  0.13366  0.24479  1.0000
  C   C42       1.0  0.12006  0.09403  0.34843  1.0000
  H   H33       1.0  0.19902  0.06300  0.37733  1.0000
  H   H34       1.0  0.10444  0.00887  0.46017  1.0000
  C   C43       1.0  0.24486  0.32646  0.07573  1.0000
  C   C44       1.0  0.23467  0.27081  0.11001  1.0000
  C   C45       1.0  0.23817  0.14419  0.38717  1.0000
  H   H35       1.0  0.17501  0.26271  0.46632  1.0000
  C   C46       1.0  0.99748  0.03062  0.01415  1.0000
  C   C47       1.0  0.11653  0.01439  0.45330  1.0000
  H   H36       1.0  0.20866  0.22599  0.39915  1.0000
  H   H37       1.0  0.19316  0.17608  0.03831  1.0000
  H   H38       1.0  0.23906  0.23278  0.40218  1.0000
  C   C48       1.0  0.23719  0.19044  0.16247  1.0000
  H   H39       1.0  0.22024  0.28099  0.04480  1.0000
  C   C49       1.0  0.22936  0.28102  0.08729  1.0000
  H   H40       1.0  0.14699  0.15087  0.42532  1.0000
  C   C50       1.0  0.15121  0.15153  0.40379  1.0000
  H   H41       1.0  0.19538  0.23787  0.06773  1.0000
  H   H42       1.0  0.22298  0.28425  0.23772  1.0000
  H   H43       1.0  0.23406  0.09596  0.35065  1.0000
  H   H44       1.0  0.21180  0.23176  0.26125  1.0000
  H   H45       1.0  0.13308  0.11380  0.37081  1.0000
  C   C51       1.0  0.20668  0.10409  0.40000  1.0000
  H   H46       1.0  0.09493  0.04769  0.46069  1.0000
  C   C52       1.0  0.00143  0.05648  0.45747  1.0000
  C   C53       1.0  0.18322  0.25099  0.46497  1.0000
  H   H47       1.0  0.21792  0.07886  0.41033  1.0000
  C   C54       1.0  0.23389  0.14638  0.13727  1.0000
  C   C55       1.0  0.14998  0.09100  0.31540  1.0000
  H   H48       1.0  0.19599  0.18299  0.39540  1.0000
  C   C56       1.0  0.20112  0.25225  0.46010  1.0000
  H   H49       1.0  0.22112  0.24778  0.36757  1.0000
  S   S14       1.0  0.21193  0.16651  0.98574  1.0000
  C   C57       1.0  0.12540  0.02610  0.47031  1.0000
  H   H50       1.0  0.24052  0.28706  0.31716  1.0000
  C   C58       1.0  0.20935  0.19585  0.05541  1.0000
  Fe  Fe8       1.0  0.17947  0.13242  0.46822  1.0000
  C   C59       1.0  0.22460  0.25487  0.06037  1.0000
  H   H51       1.0  0.15920  0.03438  0.42673  1.0000
  C   C60       1.0  0.16372  0.30676  0.30842  1.0000
  C   C61       1.0  0.19314  0.13006  0.25995  1.0000
  H   H52       1.0  0.17725  0.07913  0.34873  1.0000
  C   C62       1.0  0.15258  0.16766  0.39072  1.0000
  C   C63       1.0  0.15841  0.16840  0.36320  1.0000
  C   C64       1.0  0.16735  0.12618  0.28805  1.0000
  C   C65       1.0  0.16283  0.15300  0.34870  1.0000
  C   C66       1.0  0.16153  0.13672  0.36177  1.0000
  S   S15       1.0  0.23684  0.15586  0.29318  1.0000
  H   H53       1.0  0.02804  0.05723  0.44311  1.0000
  C   C67       1.0  0.07995  0.99633  0.25767  1.0000
  H   H54       1.0  0.21488  0.11105  0.41440  1.0000
  H   H55       1.0  0.14934  0.17956  0.40213  1.0000
  H   H56       1.0  0.02214  0.03946  0.02963  1.0000
  C   C68       1.0  0.20841  0.08597  0.39763  1.0000
  C   C69       1.0  0.17789  0.12179  0.31114  1.0000
  H   H57       1.0  0.20556  0.20145  0.11551  1.0000
  C   C70       1.0  0.17497  0.13027  0.26254  1.0000
  C   C71       1.0  0.23763  0.19714  0.39623  1.0000
  C   C72       1.0  0.22231  0.18970  0.40564  1.0000
  H   H58       1.0  0.14294  0.01427  0.39648  1.0000
  H   H59       1.0  0.14868  0.04136  0.47392  1.0000
  C   C73       1.0  0.19395  0.18970  0.04391  1.0000
  C   C74       1.0  0.21070  0.26873  0.30100  1.0000
  C   C75       1.0  0.21546  0.28067  0.28045  1.0000
  P   P3        1.0  0.20532  0.27648  0.33559  1.0000
  C   C76       1.0  0.19605  0.25939  0.35615  1.0000
  H   H60       1.0  0.22067  0.24900  0.04088  1.0000
  S   S16       1.0  0.19591  0.32102  0.42863  1.0000
  C   C77       1.0  0.17582  0.23445  0.46725  1.0000
  C   C78       1.0  0.23870  0.20353  0.36890  1.0000
  C   C79       1.0  0.21036  0.21342  0.06347  1.0000
  C   C80       1.0  0.14124  0.03273  0.46102  1.0000
  C   C81       1.0  0.20711  0.24731  0.37000  1.0000
  C   C82       1.0  0.20013  0.23489  0.38767  1.0000
  C   C83       1.0  0.18209  0.23414  0.39115  1.0000
  C   C84       1.0  0.17095  0.24583  0.37690  1.0000
  C   C85       1.0  0.17787  0.25843  0.35945  1.0000
  C   C86       1.0  0.18888  0.29380  0.33255  1.0000
  C   C87       1.0  0.18621  0.30580  0.35434  1.0000
  Fe  Fe9       1.0  0.18920  0.17159  0.47179  1.0000
  C   C88       1.0  0.19779  0.07707  0.37903  1.0000
  C   C89       1.0  0.21753  0.25739  0.24632  1.0000
  C   C90       1.0  0.17749  0.29436  0.30955  1.0000
  S   S17       1.0  0.21102  0.27254  0.45444  1.0000
  H   H61       1.0  0.22024  0.18671  0.05860  1.0000
  H   H62       1.0  0.19308  0.12730  0.38613  1.0000
  H   H63       1.0  0.21644  0.29442  0.28541  1.0000
  H   H64       1.0  0.21241  0.28273  0.39470  1.0000
  H   H65       1.0  0.19781  0.19365  0.34677  1.0000
  H   H66       1.0  0.07104  0.01234  0.22331  1.0000
  H   H67       1.0  0.16909  0.22719  0.04492  1.0000
  C   C91       1.0  0.14753  0.02847  0.43445  1.0000
  H   H68       1.0  0.13301  0.00181  0.02264  1.0000
  C   C92       1.0  0.17954  0.20101  0.03978  1.0000
  H   H69       1.0  0.17678  0.22463  0.40520  1.0000
  H   H70       1.0  0.06344  0.05541  0.45826  1.0000
  H   H71       1.0  0.16898  0.26751  0.34903  1.0000
  H   H72       1.0  0.19459  0.30549  0.37244  1.0000
  C   C93       1.0  0.21156  0.23683  0.45828  1.0000
  S   S18       1.0  0.18492  0.31857  0.00099  1.0000
  H   H73       1.0  0.16783  0.19627  0.03002  1.0000
  C   C94       1.0  0.06559  0.99664  0.46238  1.0000
  H   H74       1.0  0.21027  0.18385  0.15775  1.0000
  C   C95       1.0  0.19547  0.22452  0.06051  1.0000
  C   C96       1.0  0.24285  0.15032  0.08094  1.0000
  C   C97       1.0  0.22081  0.19137  0.14960  1.0000
  C   C98       1.0  0.21902  0.27498  0.25330  1.0000
  H   H75       1.0  0.22542  0.23763  0.45461  1.0000
  H   H76       1.0  0.20462  0.11887  0.32601  1.0000
  H   H77       1.0  0.23873  0.27709  0.12911  1.0000
  S   S19       1.0  0.20699  0.26901  0.98696  1.0000
  C   C99       1.0  0.20417  0.22033  0.46069  1.0000
  H   H78       1.0  0.21821  0.23363  0.99568  1.0000
  C   C100      1.0  0.02128  0.03130  0.45504  1.0000
  C   C101      1.0  0.20887  0.19480  0.36066  1.0000
  C   C102      1.0  0.23970  0.28802  0.33954  1.0000
  C   C103      1.0  0.22398  0.28582  0.38301  1.0000
  H   H79       1.0  0.22909  0.29513  0.08893  1.0000
  C   C104      1.0  0.06879  0.04924  0.47683  1.0000
  C   C105      1.0  0.20785  0.18875  0.38800  1.0000
  H   H80       1.0  0.15489  0.30702  0.29077  1.0000
  H   H81       1.0  0.01058  0.00682  0.46628  1.0000
  C   C106      1.0  0.20542  0.23342  0.98625  1.0000
  H   H82       1.0  0.20470  0.20530  0.98665  1.0000
  H   H83       1.0  0.23888  0.24500  0.12601  1.0000
  H   H84       1.0  0.24112  0.10736  0.30383  1.0000
  C   C107      1.0  0.23840  0.29199  0.39739  1.0000
  H   H85       1.0  0.22167  0.18444  0.42652  1.0000
  C   C108      1.0  0.16115  0.31861  0.33027  1.0000
  H   H86       1.0  0.23025  0.14475  0.15882  1.0000
  H   H87       1.0  0.21226  0.20861  0.45863  1.0000
  C   C109      1.0  0.08710  0.99561  0.00273  1.0000
  H   H88       1.0  0.11606  0.00096  0.41394  1.0000
  H   H89       1.0  0.99922  0.07040  0.45492  1.0000
  S   S20       1.0  0.17609  0.19857  0.46594  1.0000
  S   S21       1.0  0.20603  0.12398  0.98168  1.0000
  C   C110      1.0  0.18623  0.21904  0.46498  1.0000
  H   H90       1.0  0.99618  0.06341  0.35588  1.0000
  C   C111      1.0  0.15521  0.99495  0.99677  1.0000
  C   C112      1.0  0.19658  0.24922  0.97953  1.0000
  S   S22       1.0  0.22615  0.31418  0.47632  1.0000
  H   H91       1.0  0.02573  0.00076  0.98383  1.0000
  H   H92       1.0  0.03381  0.04573  0.98265  1.0000
  H   H93       1.0  0.17038  0.32716  0.37041  1.0000
  C   C113      1.0  0.02076  0.04084  0.98489  1.0000
  H   H94       1.0  0.24080  0.19566  0.47736  1.0000
  Fe  Fe10      1.0  0.20115  0.29795  0.97822  1.0000
  Fe  Fe11      1.0  0.20570  0.14548  0.51420  1.0000
  S   S23       1.0  0.17784  0.15288  0.50227  1.0000
  S   S24       1.0  0.21142  0.14230  0.56153  1.0000
  Fe  Fe12      1.0  0.21344  0.14574  0.95257  1.0000
  S   S25       1.0  0.18618  0.15082  0.93680  1.0000
  H   H95       1.0  0.13890  0.06776  0.58141  1.0000
  C   C114      1.0  0.16986  0.18465  0.55291  1.0000
  H   H96       1.0  0.22460  0.27130  0.51400  1.0000
  H   H97       1.0  0.06223  0.00861  0.71234  1.0000
  C   C115      1.0  0.17212  0.23257  0.96297  1.0000
  P   P4        1.0  0.11677  0.03150  0.50428  1.0000
  C   C116      1.0  0.00840  0.99489  0.53507  1.0000
  C   C117      1.0  0.01525  0.00482  0.67426  1.0000
  S   S26       1.0  0.21527  0.32583  0.55404  1.0000
  H   H98       1.0  0.18253  0.26219  0.88178  1.0000
  C   C118      1.0  0.01319  0.01024  0.78803  1.0000
  C   C119      1.0  0.10888  0.99893  0.52568  1.0000
  Fe  Fe13      1.0  0.07606  0.01138  0.83978  1.0000
  S   S27       1.0  0.07650  0.04076  0.83841  1.0000
  C   C120      1.0  0.23932  0.19905  0.64275  1.0000
  Fe  Fe14      1.0  0.06558  0.01193  0.90230  1.0000
  S   S28       1.0  0.06495  0.04130  0.90525  1.0000
  H   H99       1.0  0.15865  0.17684  0.54855  1.0000
  Fe  Fe15      1.0  0.05150  0.04023  0.86339  1.0000
  S   S29       1.0  0.02683  0.05576  0.85119  1.0000
  Fe  Fe16      1.0  0.09010  0.03977  0.88048  1.0000
  S   S30       1.0  0.11619  0.05374  0.88734  1.0000
  S   S31       1.0  0.05047  0.01123  0.86223  1.0000
  S   S32       1.0  0.09129  0.01019  0.88015  1.0000
  C   C121      1.0  0.00642  0.04751  0.86100  1.0000
  C   C122      1.0  0.23718  0.23408  0.82119  1.0000
  C   C123      1.0  0.00554  0.03291  0.87820  1.0000
  S   S33       1.0  0.17064  0.19675  0.96380  1.0000
  H   H100      1.0  0.01742  0.02621  0.88502  1.0000
  C   C124      1.0  0.18693  0.20992  0.54327  1.0000
  C   C125      1.0  0.19946  0.20444  0.56315  1.0000
  C   C126      1.0  0.22753  0.14660  0.58785  1.0000
  H   H101      1.0  0.14664  0.05205  0.96321  1.0000
  C   C127      1.0  0.05790  0.04577  0.49932  1.0000
  C   C128      1.0  0.22379  0.14276  0.61590  1.0000
  C   C129      1.0  0.14555  0.03944  0.95314  1.0000
  H   H102      1.0  0.05074  0.00686  0.49724  1.0000
  H   H103      1.0  0.21131  0.13742  0.62098  1.0000
  S   S34       1.0  0.21680  0.16538  0.48529  1.0000
  H   H104      1.0  0.09665  0.00030  0.51445  1.0000
  C   C130      1.0  0.22311  0.13995  0.84498  1.0000
  C   C131      1.0  0.22266  0.14105  0.87424  1.0000
  H   H105      1.0  0.21220  0.13480  0.83378  1.0000
  H   H106      1.0  0.21133  0.13696  0.88552  1.0000
  C   C132      1.0  0.14436  0.09550  0.94047  1.0000
  C   C133      1.0  0.12638  0.09275  0.94419  1.0000
  C   C134      1.0  0.11752  0.08011  0.92837  1.0000
  C   C135      1.0  0.12651  0.06989  0.90845  1.0000
  C   C136      1.0  0.14451  0.07247  0.90499  1.0000
  C   C137      1.0  0.15335  0.08504  0.92087  1.0000
  C   C138      1.0  0.19369  0.26476  0.56303  1.0000
  H   H107      1.0  0.10372  0.07836  0.93151  1.0000
  H   H108      1.0  0.15174  0.06459  0.88997  1.0000
  H   H109      1.0  0.16720  0.08637  0.91824  1.0000
  C   C139      1.0  0.23711  0.14696  0.88886  1.0000
  H   H110      1.0  0.02467  0.01417  0.68110  1.0000
  C   C140      1.0  0.22173  0.28717  0.80658  1.0000
  H   H111      1.0  0.13936  0.17661  0.94525  1.0000
  C   C141      1.0  0.07957  0.99896  0.97639  1.0000
  H   H112      1.0  0.12572  0.02900  0.82841  1.0000
  C   C142      1.0  0.22231  0.29471  0.75769  1.0000
  S   S35       1.0  0.23775  0.14714  0.92572  1.0000
  H   H113      1.0  0.08792  0.02786  0.54385  1.0000
  C   C143      1.0  0.03015  0.01568  0.79367  1.0000
  C   C144      1.0  0.09366  0.03667  0.50211  1.0000
  S   S36       1.0  0.24533  0.32453  0.91950  1.0000
  H   H114      1.0  0.16267  0.20436  0.52283  1.0000
  H   H115      1.0  0.17279  0.03717  0.94265  1.0000
  H   H116      1.0  0.21200  0.31167  0.78993  1.0000
  H   H117      1.0  0.11918  0.10059  0.95933  1.0000
  H   H118      1.0  0.11775  0.03874  0.95911  1.0000
  H   H119      1.0  0.23580  0.32609  0.65154  1.0000
  H   H120      1.0  0.21984  0.30408  0.74124  1.0000
  H   H121      1.0  0.18112  0.16639  0.58239  1.0000
  H   H122      1.0  0.19137  0.32388  0.74455  1.0000
  C   C145      1.0  0.16027  0.03106  0.94142  1.0000
  H   H123      1.0  0.13384  0.02157  0.87639  1.0000
  C   C146      1.0  0.22632  0.22305  0.83623  1.0000
  C   C147      1.0  0.12937  0.05187  0.54785  1.0000
  C   C148      1.0  0.17212  0.20016  0.53847  1.0000
  C   C149      1.0  0.18228  0.15910  0.79672  1.0000
  C   C150      1.0  0.17107  0.15883  0.77374  1.0000
  C   C151      1.0  0.15511  0.15059  0.77564  1.0000
  C   C152      1.0  0.15043  0.14239  0.80040  1.0000
  C   C153      1.0  0.16171  0.14247  0.82348  1.0000
  C   C154      1.0  0.17753  0.15112  0.82157  1.0000
  P   P5        1.0  0.15675  0.13084  0.85496  1.0000
  C   C155      1.0  0.13875  0.11656  0.84944  1.0000
  C   C156      1.0  0.17600  0.11773  0.86392  1.0000
  C   C157      1.0  0.18635  0.11002  0.84279  1.0000
  C   C158      1.0  0.20119  0.09976  0.84955  1.0000
  C   C159      1.0  0.20575  0.09703  0.87741  1.0000
  C   C160      1.0  0.19548  0.10459  0.89854  1.0000
  C   C161      1.0  0.18063  0.11484  0.89182  1.0000
  C   C162      1.0  0.14172  0.09862  0.84478  1.0000
  C   C163      1.0  0.12764  0.08761  0.84194  1.0000
  C   C164      1.0  0.11053  0.09434  0.84394  1.0000
  C   C165      1.0  0.10745  0.11221  0.84820  1.0000
  C   C166      1.0  0.12149  0.12331  0.85083  1.0000
  C   C167      1.0  0.15082  0.14574  0.88293  1.0000
  C   C168      1.0  0.15522  0.16337  0.88214  1.0000
  C   C169      1.0  0.15088  0.17449  0.90444  1.0000
  H   H124      1.0  0.11473  0.01085  0.93445  1.0000
  C   C170      1.0  0.13762  0.15066  0.92842  1.0000
  C   C171      1.0  0.14181  0.13955  0.90612  1.0000
  H   H125      1.0  0.19480  0.16524  0.79518  1.0000
  H   H126      1.0  0.17484  0.16490  0.75440  1.0000
  H   H127      1.0  0.14646  0.15034  0.75776  1.0000
  H   H128      1.0  0.13817  0.13580  0.80126  1.0000
  H   H129      1.0  0.18631  0.15146  0.83926  1.0000
  H   H130      1.0  0.18302  0.11197  0.82107  1.0000
  H   H131      1.0  0.20927  0.09410  0.83314  1.0000
  H   H132      1.0  0.21724  0.08908  0.88261  1.0000
  H   H133      1.0  0.19889  0.10248  0.92022  1.0000
  H   H134      1.0  0.17269  0.12025  0.90850  1.0000
  H   H135      1.0  0.15480  0.09292  0.84404  1.0000
  H   H136      1.0  0.12998  0.07369  0.83923  1.0000
  H   H137      1.0  0.09971  0.08561  0.84275  1.0000
  H   H138      1.0  0.09417  0.11738  0.85003  1.0000
  H   H139      1.0  0.11889  0.13708  0.85455  1.0000
  H   H140      1.0  0.16216  0.16860  0.86468  1.0000
  H   H141      1.0  0.15464  0.18798  0.90426  1.0000
  C   C172      1.0  0.23017  0.27097  0.80081  1.0000
  H   H142      1.0  0.02111  0.99799  0.54345  1.0000
  H   H143      1.0  0.13840  0.12599  0.90738  1.0000
  H   H144      1.0  0.23323  0.29571  0.68980  1.0000
  C   C173      1.0  0.01043  0.03828  0.96131  1.0000
  C   C174      1.0  0.14236  0.00748  0.92510  1.0000
  C   C175      1.0  0.22951  0.19300  0.90942  1.0000
  C   C176      1.0  0.12631  0.05067  0.51906  1.0000
  C   C177      1.0  0.22721  0.32616  0.60845  1.0000
  C   C178      1.0  0.23063  0.27866  0.75169  1.0000
  C   C179      1.0  0.19857  0.24774  0.57092  1.0000
  C   C180      1.0  0.12118  0.01207  0.52463  1.0000
  H   H145      1.0  0.05646  0.03520  0.54077  1.0000
  H   H146      1.0  0.23605  0.18437  0.80366  1.0000
  C   C181      1.0  0.18098  0.21678  0.96980  1.0000
  C   C182      1.0  0.23820  0.21377  0.65989  1.0000
  C   C183      1.0  0.13735  0.00941  0.53806  1.0000
  H   H147      1.0  0.19944  0.28648  0.53649  1.0000
  C   C184      1.0  0.08663  0.04476  0.47822  1.0000
  H   H148      1.0  0.04749  0.03718  0.79384  1.0000
  C   C185      1.0  0.17991  0.24874  0.96768  1.0000
  C   C186      1.0  0.21782  0.29894  0.78511  1.0000
  C   C187      1.0  0.99777  0.00664  0.68246  1.0000
  H   H149      1.0  0.23285  0.14245  0.65879  1.0000
  H   H150      1.0  0.15296  0.32563  0.88528  1.0000
  C   C188      1.0  0.12687  0.00236  0.81387  1.0000
  H   H151      1.0  0.14530  0.09280  0.55083  1.0000
  H   H152      1.0  0.23405  0.24173  0.52861  1.0000
  H   H153      1.0  0.21833  0.22792  0.85319  1.0000
  H   H154      1.0  0.04408  0.04915  0.49815  1.0000
  C   C189      1.0  0.23630  0.19820  0.80853  1.0000
  H   H155      1.0  0.14733  0.01903  0.53650  1.0000
  H   H156      1.0  0.18581  0.20134  0.90342  1.0000
  H   H157      1.0  0.17020  0.00908  0.91804  1.0000
  H   H158      1.0  0.20770  0.17671  0.90167  1.0000
  C   C190      1.0  0.13984  0.08111  0.54211  1.0000
  C   C191      1.0  0.22207  0.27343  0.90706  1.0000
  C   C192      1.0  0.20420  0.27042  0.90652  1.0000
  C   C193      1.0  0.19646  0.26420  0.88225  1.0000
  C   C194      1.0  0.20669  0.26049  0.85875  1.0000
  C   C195      1.0  0.22482  0.26272  0.85952  1.0000
  C   C196      1.0  0.23237  0.26964  0.88363  1.0000
  S   S37       1.0  0.23747  0.14317  0.79320  1.0000
  H   H159      1.0  0.21889  0.29121  0.82777  1.0000
  C   C197      1.0  0.21186  0.18994  0.90486  1.0000
  H   H160      1.0  0.19076  0.24109  0.58609  1.0000
  C   C198      1.0  0.23279  0.27619  0.61527  1.0000
  C   C199      1.0  0.21769  0.26485  0.53047  1.0000
  H   H161      1.0  0.21960  0.24262  0.61465  1.0000
  C   C200      1.0  0.22286  0.24797  0.53868  1.0000
  Fe  Fe17      1.0  0.22196  0.32538  0.94838  1.0000
  H   H162      1.0  0.12263  0.00563  0.79291  1.0000
  C   C201      1.0  0.23455  0.26686  0.77309  1.0000
  C   C202      1.0  0.00095  0.02208  0.77611  1.0000
  C   C203      1.0  0.12926  0.03191  0.95092  1.0000
  H   H163      1.0  0.06664  0.01314  0.76317  1.0000
  H   H164      1.0  0.21753  0.19683  0.84161  1.0000
  S   S38       1.0  0.19777  0.31146  0.93683  1.0000
  C   C204      1.0  0.23351  0.20000  0.61514  1.0000
  H   H165      1.0  0.22789  0.27875  0.92575  1.0000
  H   H166      1.0  0.19635  0.27307  0.92491  1.0000
  H   H167      1.0  0.12629  0.04125  0.56158  1.0000
  H   H168      1.0  0.20053  0.25568  0.84003  1.0000
  H   H169      1.0  0.21798  0.31601  0.61156  1.0000
  C   C205      1.0  0.14218  0.16811  0.92762  1.0000
  C   C206      1.0  0.05950  0.99648  0.48998  1.0000
  C   C207      1.0  0.21704  0.28009  0.62899  1.0000
  H   H170      1.0  0.18229  0.27126  0.57215  1.0000
  H   H171      1.0  0.19540  0.23136  0.91219  1.0000
  C   C208      1.0  0.18246  0.17882  0.57208  1.0000
  H   H172      1.0  0.02549  0.05826  0.77474  1.0000
  C   C209      1.0  0.02214  0.04478  0.77771  1.0000
  C   C210      1.0  0.13606  0.08031  0.51368  1.0000
  C   C211      1.0  0.13632  0.06696  0.55925  1.0000
  C   C212      1.0  0.19721  0.18861  0.57715  1.0000
  H   H173      1.0  0.04002  0.00676  0.80215  1.0000
  H   H174      1.0  0.15912  0.23230  0.95416  1.0000
  H   H175      1.0  0.23048  0.24096  0.66268  1.0000
  C   C213      1.0  0.12906  0.06528  0.50225  1.0000
  H   H176      1.0  0.18863  0.22152  0.53092  1.0000
  H   H177      1.0  0.22643  0.23699  0.91978  1.0000
  C   C214      1.0  0.23112  0.22946  0.64949  1.0000
  Fe  Fe18      1.0  0.18419  0.17029  0.97188  1.0000
  H   H178      1.0  0.20474  0.27783  0.61865  1.0000
  C   C215      1.0  0.22612  0.21564  0.60450  1.0000
  C   C216      1.0  0.03455  0.03291  0.78861  1.0000
  H   H179      1.0  0.01540  0.04134  0.94079  1.0000
  C   C217      1.0  0.20329  0.27333  0.54286  1.0000
  H   H180      1.0  0.21792  0.20602  0.51017  1.0000
  C   C218      1.0  0.12762  0.01606  0.93685  1.0000
  C   C219      1.0  0.07020  0.00071  0.75377  1.0000
  H   H181      1.0  0.13129  0.14554  0.94669  1.0000
  C   C220      1.0  0.22500  0.23036  0.62202  1.0000
  C   C221      1.0  0.23772  0.14516  0.82999  1.0000
  C   C222      1.0  0.15871  0.01512  0.92746  1.0000
  C   C223      1.0  0.06488  0.03800  0.52335  1.0000
  C   C224      1.0  0.22585  0.20524  0.82983  1.0000
  C   C225      1.0  0.23509  0.20992  0.91467  1.0000
  S   S39       1.0  0.15473  0.11209  0.96077  1.0000
  H   H182      1.0  0.24541  0.10628  0.96343  1.0000
  Fe  Fe19      1.0  0.17816  0.13036  0.96771  1.0000
  C   C226      1.0  0.13307  0.01118  0.86123  1.0000
  H   H183      1.0  0.20684  0.18342  0.59155  1.0000
  P   P6        1.0  0.21890  0.21689  0.56844  1.0000
  H   H184      1.0  0.13854  0.09142  0.50051  1.0000
  C   C227      1.0  0.20502  0.22074  0.91057  1.0000
  C   C228      1.0  0.23556  0.20824  0.54512  1.0000
  C   C229      1.0  0.22269  0.22384  0.91507  1.0000
  C   C230      1.0  0.12852  0.01549  0.83384  1.0000
  C   C231      1.0  0.08272  0.03366  0.52490  1.0000
  H   H185      1.0  0.24159  0.25493  0.76775  1.0000
  C   C232      1.0  0.21715  0.28711  0.65587  1.0000
  C   C233      1.0  0.19959  0.20380  0.90563  1.0000
  H   H186      1.0  0.20496  0.29026  0.66641  1.0000
  C   C234      1.0  0.21332  0.23925  0.55903  1.0000
  C   C235      1.0  0.23303  0.29023  0.66903  1.0000
  H   H187      1.0  0.17290  0.26080  0.96262  1.0000
  C   C236      1.0  0.06776  0.99809  0.72484  1.0000
  S   S40       1.0  0.18506  0.31531  0.49346  1.0000
  C   C237      1.0  0.00538  0.03934  0.77122  1.0000
  C   C238      1.0  0.24379  0.15355  0.58186  1.0000
  P   P7        1.0  0.23792  0.25726  0.82923  1.0000
  H   H188      1.0  0.08425  0.00940  0.96361  1.0000
  H   H189      1.0  0.23882  0.18211  0.90963  1.0000
  H   H190      1.0  0.24303  0.21304  0.68113  1.0000
  C   C239      1.0  0.23127  0.20446  0.51738  1.0000
  H   H191      1.0  0.23882  0.19848  0.97094  1.0000
  H   H192      1.0  0.99916  0.08510  0.55100  1.0000
  C   C240      1.0  0.23604  0.14558  0.63750  1.0000
  S   S41       1.0  0.20666  0.12367  0.48203  1.0000
  H   H193      1.0  0.23470  0.10700  0.91490  1.0000
  H   H194      1.0  0.23240  0.27058  0.59457  1.0000
  H   H195      1.0  0.23504  0.18854  0.60203  1.0000
  H   H196      1.0  0.23473  0.27557  0.73061  1.0000
  C   C241      1.0  0.24422  0.19860  0.49873  1.0000
  H   H197      1.0  0.24496  0.18691  0.65080  1.0000
  H   H198      1.0  0.12586  0.06508  0.48025  1.0000
  H   H199      1.0  0.02447  0.99465  0.74147  1.0000
  H   H200      1.0  0.99576  0.04856  0.76285  1.0000
  C   C242      1.0  0.24250  0.32757  0.88335  1.0000
  Fe  Fe20      1.0  0.08198  0.52185  0.12895  1.0000
  S   S42       1.0  0.07884  0.54995  0.11449  1.0000
  S   S43       1.0  0.08137  0.51795  0.17687  1.0000
  Fe  Fe21      1.0  0.08126  0.50896  0.06776  1.0000
  S   S44       1.0  0.07771  0.53577  0.05006  1.0000
  S   S45       1.0  0.08132  0.48472  0.04026  1.0000
  Fe  Fe22      1.0  0.09855  0.54360  0.08050  1.0000
  S   S46       1.0  0.12368  0.55801  0.06823  1.0000
  Fe  Fe23      1.0  0.05842  0.53987  0.08509  1.0000
  S   S47       1.0  0.03208  0.55368  0.07684  1.0000
  S   S48       1.0  0.10307  0.51608  0.09696  1.0000
  S   S49       1.0  0.06063  0.51247  0.10090  1.0000
  H   H201      1.0  0.17235  0.36357  0.99418  1.0000
  H   H202      1.0  0.12202  0.48264  0.39053  1.0000
  H   H203      1.0  0.10899  0.55946  0.01147  1.0000
  C   C243      1.0  0.03107  0.45719  0.43883  1.0000
  H   H204      1.0  0.04141  0.43387  0.29332  1.0000
  H   H205      1.0  0.02323  0.43056  0.44182  1.0000
  C   C244      1.0  0.13809  0.50964  0.47253  1.0000
  H   H206      1.0  0.02020  0.54873  0.01753  1.0000
  C   C245      1.0  0.22331  0.33461  0.36658  1.0000
  C   C246      1.0  0.21801  0.59686  0.07579  1.0000
  H   H207      1.0  0.15874  0.54652  0.00275  1.0000
  C   C247      1.0  0.13454  0.45842  0.40348  1.0000
  Fe  Fe24      1.0  0.21718  0.65409  0.00771  1.0000
  C   C248      1.0  0.22273  0.33161  0.33767  1.0000
  H   H208      1.0  0.22915  0.59045  0.06577  1.0000
  C   C249      1.0  0.99620  0.55388  0.08116  1.0000
  Fe  Fe25      1.0  0.08127  0.45276  0.31802  1.0000
  S   S50       1.0  0.08014  0.42416  0.32912  1.0000
  S   S51       1.0  0.08551  0.45799  0.27101  1.0000
  Fe  Fe26      1.0  0.07406  0.46286  0.37948  1.0000
  S   S52       1.0  0.07186  0.43524  0.39406  1.0000
  S   S53       1.0  0.06989  0.48636  0.40804  1.0000
  Fe  Fe27      1.0  0.09586  0.42959  0.36792  1.0000
  S   S54       1.0  0.12163  0.41556  0.38231  1.0000
  Fe  Fe28      1.0  0.05634  0.43206  0.35439  1.0000
  S   S55       1.0  0.03144  0.41699  0.34917  1.0000
  S   S56       1.0  0.09878  0.45776  0.35497  1.0000
  S   S57       1.0  0.05675  0.46013  0.34166  1.0000
  C   C250      1.0  0.01095  0.42646  0.35904  1.0000
  H   H209      1.0  0.21987  0.58094  0.11256  1.0000
  Fe  Fe29      1.0  0.18177  0.63946  0.99362  1.0000
  H   H210      1.0  0.10911  0.34355  0.36936  1.0000
  Fe  Fe30      1.0  0.21908  0.33479  0.44497  1.0000
  H   H211      1.0  0.15344  0.63253  0.06605  1.0000
  C   C251      1.0  0.02711  0.45165  0.23222  1.0000
  H   H212      1.0  0.09387  0.58680  0.44651  1.0000
  C   C252      1.0  0.13610  0.35021  0.37268  1.0000
  C   C253      1.0  0.03497  0.53450  0.19076  1.0000
  C   C254      1.0  0.23794  0.33224  0.32154  1.0000
  H   H213      1.0  0.10467  0.35844  0.32395  1.0000
  H   H214      1.0  0.11203  0.49062  0.43811  1.0000
  C   C255      1.0  0.18918  0.61359  0.10188  1.0000
  C   C256      1.0  0.14533  0.36895  0.43363  1.0000
  C   C257      1.0  0.12706  0.37194  0.43226  1.0000
  C   C258      1.0  0.11952  0.38601  0.41678  1.0000
  C   C259      1.0  0.13015  0.39760  0.40279  1.0000
  C   C260      1.0  0.14840  0.39491  0.40485  1.0000
  C   C261      1.0  0.15595  0.38062  0.41973  1.0000
  C   C262      1.0  0.01847  0.47934  0.01679  1.0000
  H   H215      1.0  0.10548  0.38777  0.41554  1.0000
  H   H216      1.0  0.15678  0.40391  0.39466  1.0000
  H   H217      1.0  0.16998  0.37861  0.42032  1.0000
  C   C263      1.0  0.00159  0.44877  0.44847  1.0000
  C   C264      1.0  0.05132  0.55280  0.46675  1.0000
  H   H218      1.0  0.21068  0.65704  0.07524  1.0000
  H   H219      1.0  0.21160  0.60857  0.39469  1.0000
  C   C265      1.0  0.17624  0.33989  0.26214  1.0000
  C   C266      1.0  0.14749  0.36753  0.33495  1.0000
  H   H220      1.0  0.08311  0.40958  0.44451  1.0000
  C   C267      1.0  0.01800  0.53195  0.18068  1.0000
  H   H221      1.0  0.11862  0.36307  0.44280  1.0000
  C   C268      1.0  0.23684  0.65255  0.13286  1.0000
  C   C269      1.0  0.22165  0.65520  0.11672  1.0000
  C   C270      1.0  0.18409  0.39959  0.46744  1.0000
  C   C271      1.0  0.01116  0.51219  0.41306  1.0000
  H   H222      1.0  0.13270  0.63192  0.11347  1.0000
  C   C272      1.0  0.08153  0.48532  0.00329  1.0000
  H   H223      1.0  0.21617  0.35779  0.26372  1.0000
  C   C273      1.0  0.23788  0.65347  0.38086  1.0000
  C   C274      1.0  0.07321  0.48493  0.44445  1.0000
  C   C275      1.0  0.11735  0.35842  0.33400  1.0000
  C   C276      1.0  0.00024  0.50549  0.24803  1.0000
  C   C277      1.0  0.11980  0.47877  0.43474  1.0000
  C   C278      1.0  0.19624  0.63188  0.19266  1.0000
  H   H224      1.0  0.08046  0.45758  0.44512  1.0000
  C   C279      1.0  0.19382  0.34230  0.25611  1.0000
  C   C280      1.0  0.08202  0.50092  0.20252  1.0000
  C   C281      1.0  0.08438  0.48324  0.19565  1.0000
  C   C282      1.0  0.08531  0.47041  0.21683  1.0000
  C   C283      1.0  0.08379  0.47493  0.24525  1.0000
  C   C284      1.0  0.08117  0.49260  0.25211  1.0000
  C   C285      1.0  0.08029  0.50543  0.23093  1.0000
  H   H225      1.0  0.08577  0.47945  0.17404  1.0000
  H   H226      1.0  0.08737  0.45684  0.21112  1.0000
  H   H227      1.0  0.08000  0.49640  0.27374  1.0000
  H   H228      1.0  0.07845  0.51901  0.23664  1.0000
  C   C286      1.0  0.13278  0.57655  0.05114  1.0000
  C   C287      1.0  0.15111  0.57788  0.04979  1.0000
  C   C288      1.0  0.15894  0.59219  0.03663  1.0000
  C   C289      1.0  0.14857  0.60549  0.02436  1.0000
  C   C290      1.0  0.13025  0.60421  0.02585  1.0000
  C   C291      1.0  0.12243  0.58994  0.03911  1.0000
  H   H229      1.0  0.15934  0.56775  0.05908  1.0000
  H   H230      1.0  0.17300  0.59286  0.03586  1.0000
  C   C292      1.0  0.01710  0.46665  0.13348  1.0000
  H   H231      1.0  0.10836  0.58934  0.04002  1.0000
  C   C293      1.0  0.01188  0.54394  0.08402  1.0000
  C   C294      1.0  0.01111  0.52660  0.09263  1.0000
  H   H232      1.0  0.10672  0.56833  0.39749  1.0000
  H   H233      1.0  0.02300  0.51889  0.09546  1.0000
  H   H234      1.0  0.14761  0.50996  0.06701  1.0000
  S   S58       1.0  0.15397  0.35014  0.45207  1.0000
  H   H235      1.0  0.10367  0.55865  0.34888  1.0000
  Fe  Fe31      1.0  0.21018  0.33210  0.00912  1.0000
  C   C295      1.0  0.11511  0.53228  0.47018  1.0000
  C   C296      1.0  0.13114  0.36701  0.32163  1.0000
  H   H236      1.0  0.19361  0.42110  0.38107  1.0000
  C   C297      1.0  0.02862  0.49722  0.22915  1.0000
  H   H237      1.0  0.20920  0.65733  0.12690  1.0000
  S   S59       1.0  0.20304  0.65042  0.39834  1.0000
  H   H238      1.0  0.09072  0.45092  0.07343  1.0000
  C   C298      1.0  0.22564  0.60892  0.39208  1.0000
  H   H239      1.0  0.12002  0.50265  0.04305  1.0000
  C   C299      1.0  0.02904  0.52471  0.36651  1.0000
  H   H240      1.0  0.24352  0.60439  0.18927  1.0000
  H   H241      1.0  0.04839  0.51830  0.00448  1.0000
  C   C300      1.0  0.00529  0.49852  0.27381  1.0000
  C   C301      1.0  0.16743  0.35105  0.28091  1.0000
  C   C302      1.0  0.10793  0.58573  0.44879  1.0000
  H   H242      1.0  0.21434  0.39892  0.40135  1.0000
  H   H243      1.0  0.11455  0.46305  0.04574  1.0000
  C   C303      1.0  0.12387  0.52040  0.00921  1.0000
  S   S60       1.0  0.20938  0.63108  0.98126  1.0000
  H   H244      1.0  0.23037  0.61343  0.43547  1.0000
  C   C304      1.0  0.11983  0.35003  0.35955  1.0000
  H   H245      1.0  0.99680  0.45407  0.15611  1.0000
  H   H246      1.0  0.13799  0.34374  0.39257  1.0000
  C   C305      1.0  0.23923  0.34017  0.12946  1.0000
  C   C306      1.0  0.04483  0.54802  0.18031  1.0000
  H   H247      1.0  0.08142  0.51326  0.99984  1.0000
  H   H248      1.0  0.02585  0.48530  0.29718  1.0000
  H   H249      1.0  0.12896  0.37341  0.30179  1.0000
  H   H250      1.0  0.01561  0.56539  0.13394  1.0000
  H   H251      1.0  0.12200  0.61435  0.01659  1.0000
  C   C307      1.0  0.23909  0.33855  0.37957  1.0000
  H   H252      1.0  0.01999  0.45549  0.12018  1.0000
  H   H253      1.0  0.14171  0.55612  0.45766  1.0000
  H   H254      1.0  0.03066  0.50769  0.14550  1.0000
  H   H255      1.0  0.18566  0.63371  0.23410  1.0000
  C   C308      1.0  0.15470  0.42200  0.47519  1.0000
  C   C309      1.0  0.08177  0.50103  0.98863  1.0000
  H   H256      1.0  0.21046  0.32879  0.32770  1.0000
  H   H257      1.0  0.00465  0.52254  0.34462  1.0000
  C   C310      1.0  0.22042  0.65127  0.37328  1.0000
  H   H258      1.0  0.22636  0.64851  0.30232  1.0000
  H   H259      1.0  0.04463  0.45369  0.43449  1.0000
  H   H260      1.0  0.21616  0.35267  0.11136  1.0000
  H   H261      1.0  0.16213  0.35932  0.37161  1.0000
  H   H262      1.0  0.17492  0.40322  0.05724  1.0000
  C   C311      1.0  0.00784  0.51403  0.47290  1.0000
  H   H263      1.0  0.10935  0.42684  0.44057  1.0000
  C   C312      1.0  0.00976  0.49556  0.16805  1.0000
  H   H264      1.0  0.04307  0.45406  0.00411  1.0000
  C   C313      1.0  0.99608  0.46635  0.44907  1.0000
  P   P8        1.0  0.00551  0.51359  0.19162  1.0000
  C   C314      1.0  0.20894  0.61054  0.06242  1.0000
  C   C315      1.0  0.19449  0.61877  0.07523  1.0000
  C   C316      1.0  0.15176  0.61045  0.11728  1.0000
  C   C317      1.0  0.13479  0.61796  0.11523  1.0000
  C   C318      1.0  0.12024  0.60745  0.11559  1.0000
  C   C319      1.0  0.12245  0.58942  0.11862  1.0000
  C   C320      1.0  0.13922  0.58188  0.12112  1.0000
  C   C321      1.0  0.15383  0.59230  0.12026  1.0000
  H   H265      1.0  0.21308  0.61483  0.04206  1.0000
  H   H266      1.0  0.11813  0.37430  0.01135  1.0000
  H   H267      1.0  0.18767  0.62917  0.06414  1.0000
  H   H268      1.0  0.10722  0.61323  0.11331  1.0000
  H   H269      1.0  0.11123  0.58117  0.11832  1.0000
  H   H270      1.0  0.14087  0.56783  0.12273  1.0000
  H   H271      1.0  0.16661  0.58604  0.12184  1.0000
  C   C322      1.0  0.15663  0.64470  0.07608  1.0000
  H   H272      1.0  0.23129  0.37310  0.32076  1.0000
  C   C323      1.0  0.02555  0.47474  0.43914  1.0000
  C   C324      1.0  0.03772  0.52260  0.39193  1.0000
  H   H273      1.0  0.01854  0.48750  0.05992  1.0000
  C   C325      1.0  0.02879  0.51656  0.41515  1.0000
  Fe  Fe32      1.0  0.18109  0.33686  0.46120  1.0000
  C   C326      1.0  0.03875  0.44503  0.25234  1.0000
  C   C327      1.0  0.02090  0.55692  0.15013  1.0000
  C   C328      1.0  0.12863  0.51201  0.03397  1.0000
  C   C329      1.0  0.08157  0.46958  0.98822  1.0000
  C   C330      1.0  0.01907  0.44418  0.44319  1.0000
  S   S61       1.0  0.21494  0.34338  0.05309  1.0000
  H   H274      1.0  0.03774  0.49609  0.21193  1.0000
  C   C331      1.0  0.03242  0.43917  0.27777  1.0000
  H   H275      1.0  0.20324  0.62979  0.14960  1.0000
  C   C332      1.0  0.02405  0.48298  0.98958  1.0000
  C   C333      1.0  0.11099  0.39255  0.97853  1.0000
  H   H276      1.0  0.99819  0.54141  0.15150  1.0000
  H   H277      1.0  0.06646  0.51207  0.45094  1.0000
  C   C334      1.0  0.02199  0.49096  0.27733  1.0000
  S   S62       1.0  0.15757  0.62390  0.00682  1.0000
  C   C335      1.0  0.11749  0.60093  0.44852  1.0000
  C   C336      1.0  0.05512  0.43110  0.98652  1.0000
  C   C337      1.0  0.03363  0.49034  0.25502  1.0000
  C   C338      1.0  0.14425  0.58367  0.45419  1.0000
  H   H278      1.0  0.13392  0.52660  0.43750  1.0000
  C   C339      1.0  0.08292  0.55478  0.46644  1.0000
  H   H279      1.0  0.11084  0.61356  0.44660  1.0000
  C   C340      1.0  0.01105  0.54330  0.16025  1.0000
  P   P9        1.0  0.12536  0.40923  0.99065  1.0000
  C   C341      1.0  0.11456  0.42219  0.01739  1.0000
  C   C342      1.0  0.07069  0.50002  0.46073  1.0000
  C   C343      1.0  0.22743  0.34417  0.10741  1.0000
  C   C344      1.0  0.00049  0.48021  0.17105  1.0000
  S   S63       1.0  0.20434  0.35146  0.47670  1.0000
  H   H280      1.0  0.99618  0.49889  0.29100  1.0000
  H   H281      1.0  0.19529  0.39081  0.46416  1.0000
  C   C345      1.0  0.11951  0.43941  0.02224  1.0000
  H   H282      1.0  0.20082  0.33351  0.24199  1.0000
  C   C346      1.0  0.09748  0.44278  0.05809  1.0000
  C   C347      1.0  0.09261  0.42560  0.05366  1.0000
  C   C348      1.0  0.10112  0.41531  0.03340  1.0000
  C   C349      1.0  0.14510  0.39906  0.00485  1.0000
  C   C350      1.0  0.15218  0.38379  0.99256  1.0000
  C   C351      1.0  0.12944  0.52320  0.45810  1.0000
  S   S64       1.0  0.24047  0.65242  0.03724  1.0000
  C   C352      1.0  0.16854  0.39784  0.03915  1.0000
  C   C353      1.0  0.15348  0.40613  0.02815  1.0000
  C   C354      1.0  0.24421  0.37771  0.31639  1.0000
  H   H283      1.0  0.07861  0.57055  0.01682  1.0000
  C   C355      1.0  0.23634  0.61170  0.41519  1.0000
  H   H284      1.0  0.20307  0.64802  0.33840  1.0000
  C   C356      1.0  0.22247  0.65512  0.08741  1.0000
  H   H285      1.0  0.01091  0.46797  0.02092  1.0000
  C   C357      1.0  0.06747  0.54910  0.45409  1.0000
  H   H286      1.0  0.06782  0.54181  0.43478  1.0000
  H   H287      1.0  0.16683  0.53192  0.04657  1.0000
  C   C358      1.0  0.20252  0.35605  0.26845  1.0000
  S   S65       1.0  0.23517  0.65172  0.16959  1.0000
  C   C359      1.0  0.00407  0.46585  0.15373  1.0000
  H   H288      1.0  0.15497  0.63087  0.21836  1.0000
  H   H289      1.0  0.08219  0.42030  0.06590  1.0000
  H   H290      1.0  0.09715  0.40205  0.03031  1.0000
  S   S66       1.0  0.24011  0.34374  0.41553  1.0000
  H   H291      1.0  0.15382  0.34896  0.28525  1.0000
  H   H292      1.0  0.18691  0.37592  0.03561  1.0000
  H   H293      1.0  0.06257  0.42808  0.00521  1.0000
  H   H294      1.0  0.14843  0.41795  0.03800  1.0000
  C   C360      1.0  0.20508  0.39523  0.38548  1.0000
  C   C361      1.0  0.20472  0.37791  0.37658  1.0000
  C   C362      1.0  0.19274  0.37298  0.35621  1.0000
  C   C363      1.0  0.18094  0.38540  0.34464  1.0000
  P   P10       1.0  0.16519  0.37882  0.31882  1.0000
  C   C364      1.0  0.15598  0.39773  0.30099  1.0000
  C   C365      1.0  0.14227  0.40753  0.31339  1.0000
  C   C366      1.0  0.13453  0.42184  0.29960  1.0000
  C   C367      1.0  0.14050  0.42656  0.27332  1.0000
  C   C368      1.0  0.15431  0.41702  0.26091  1.0000
  C   C369      1.0  0.16206  0.40265  0.27468  1.0000
  C   C370      1.0  0.19381  0.36718  0.28728  1.0000
  C   C371      1.0  0.16716  0.37551  0.00363  1.0000
  H   H295      1.0  0.21368  0.36827  0.38567  1.0000
  H   H296      1.0  0.19263  0.35946  0.34962  1.0000
  H   H297      1.0  0.13742  0.40396  0.33364  1.0000
  H   H298      1.0  0.12377  0.42916  0.30925  1.0000
  H   H299      1.0  0.13432  0.43756  0.26256  1.0000
  H   H300      1.0  0.15891  0.42069  0.24050  1.0000
  H   H301      1.0  0.17264  0.39539  0.26461  1.0000
  C   C372      1.0  0.14982  0.35908  0.36063  1.0000
  H   H302      1.0  0.20084  0.37770  0.29669  1.0000
  C   C373      1.0  0.15038  0.53666  0.01075  1.0000
  C   C374      1.0  0.24467  0.60796  0.14488  1.0000
  H   H303      1.0  0.13816  0.45443  0.38253  1.0000
  H   H304      1.0  0.21148  0.33428  0.37867  1.0000
  C   C375      1.0  0.21648  0.64969  0.34467  1.0000
  H   H305      1.0  0.04643  0.48409  0.25760  1.0000
  P   P11       1.0  0.10401  0.54975  0.45117  1.0000
  C   C376      1.0  0.11648  0.56934  0.45197  1.0000
  C   C377      1.0  0.15504  0.52839  0.03575  1.0000
  S   S67       1.0  0.20445  0.62950  0.47682  1.0000
  S   S68       1.0  0.17054  0.65441  0.46152  1.0000
  C   C378      1.0  0.13473  0.56844  0.45476  1.0000
  C   C379      1.0  0.18444  0.41690  0.45856  1.0000
  H   H306      1.0  0.03605  0.52917  0.34844  1.0000
  C   C380      1.0  0.13564  0.59989  0.45111  1.0000
  H   H307      1.0  0.20964  0.63313  0.19952  1.0000
  C   C381      1.0  0.13294  0.45186  0.45288  1.0000
  C   C382      1.0  0.10155  0.54304  0.41526  1.0000
  C   C383      1.0  0.09751  0.52575  0.40894  1.0000
  C   C384      1.0  0.09587  0.52035  0.38123  1.0000
  C   C385      1.0  0.09809  0.53219  0.35961  1.0000
  C   C386      1.0  0.10195  0.54947  0.36568  1.0000
  C   C387      1.0  0.10368  0.55490  0.39337  1.0000
  C   C388      1.0  0.03345  0.50442  0.03436  1.0000
  H   H308      1.0  0.08134  0.45736  0.99934  1.0000
  C   C389      1.0  0.03784  0.55917  0.15993  1.0000
  H   H309      1.0  0.03944  0.54827  0.45730  1.0000
  C   C390      1.0  0.23857  0.65259  0.07401  1.0000
  C   C391      1.0  0.01199  0.50523  0.22554  1.0000
  H   H310      1.0  0.03209  0.45624  0.21255  1.0000
  C   C392      1.0  0.03511  0.49697  0.98540  1.0000
  C   C393      1.0  0.02297  0.49620  0.14787  1.0000
  C   C394      1.0  0.04396  0.44589  0.98575  1.0000
  H   H311      1.0  0.14306  0.61169  0.45150  1.0000
  C   C395      1.0  0.12535  0.47422  0.40795  1.0000
  H   H312      1.0  0.09552  0.51644  0.42542  1.0000
  H   H313      1.0  0.09281  0.50696  0.37649  1.0000
  H   H314      1.0  0.09679  0.52794  0.33816  1.0000
  H   H315      1.0  0.99621  0.40520  0.34283  1.0000
  C   C396      1.0  0.19345  0.40768  0.37402  1.0000
  C   C397      1.0  0.09109  0.41169  0.46281  1.0000
  H   H316      1.0  0.14445  0.43460  0.42160  1.0000
  C   C398      1.0  0.23009  0.33735  0.08035  1.0000
  H   H317      1.0  0.03514  0.48442  0.43537  1.0000
  C   C399      1.0  0.17534  0.38249  0.02696  1.0000
  C   C400      1.0  0.11097  0.44964  0.04248  1.0000
  C   C401      1.0  0.18143  0.40282  0.35366  1.0000
  C   C402      1.0  0.13821  0.44721  0.42579  1.0000
  C   C403      1.0  0.21276  0.59150  0.10215  1.0000
  C   C404      1.0  0.16986  0.42810  0.46257  1.0000
  H   H318      1.0  0.03683  0.48236  0.11516  1.0000
  C   C405      1.0  0.02655  0.48180  0.13060  1.0000
  C   C406      1.0  0.17623  0.36463  0.29393  1.0000
  C   C407      1.0  0.23289  0.60775  0.36544  1.0000
  Fe  Fe33      1.0  0.19855  0.65126  0.44618  1.0000
  C   C408      1.0  0.00984  0.44258  0.37255  1.0000
  C   C409      1.0  0.19848  0.59987  0.11522  1.0000
  P   P12       1.0  0.17052  0.62415  0.11886  1.0000
  H   H319      1.0  0.09878  0.35143  0.99479  1.0000
  C   C410      1.0  0.03971  0.50764  0.00771  1.0000
  H   H320      1.0  0.05269  0.44444  0.24828  1.0000
  C   C411      1.0  0.00793  0.47952  0.44384  1.0000
  C   C412      1.0  0.16518  0.64467  0.10198  1.0000
  H   H321      1.0  0.14831  0.62709  0.16854  1.0000
  C   C413      1.0  0.18273  0.63224  0.21214  1.0000
  H   H322      1.0  0.05814  0.54951  0.18747  1.0000
  H   H323      1.0  0.17239  0.41264  0.34540  1.0000
  C   C414      1.0  0.07847  0.46932  0.45740  1.0000
  C   C415      1.0  0.19257  0.62988  0.16431  1.0000
  H   H324      1.0  0.19473  0.59567  0.13580  1.0000
  C   C416      1.0  0.14419  0.51605  0.04734  1.0000
  H   H325      1.0  0.02160  0.44955  0.37681  1.0000
  H   H326      1.0  0.04566  0.56934  0.15131  1.0000
  C   C417      1.0  0.17531  0.62785  0.15526  1.0000
  C   C418      1.0  0.16175  0.62848  0.17494  1.0000
  H   H327      1.0  0.03710  0.51281  0.05142  1.0000
  H   H328      1.0  0.04097  0.52594  0.20606  1.0000
  C   C419      1.0  0.01252  0.54302  0.00102  1.0000
  C   C420      1.0  0.02294  0.49021  0.03900  1.0000
  C   C421      1.0  0.10604  0.42154  0.46068  1.0000
  H   H329      1.0  0.05153  0.52514  0.39350  1.0000
  H   H330      1.0  0.00982  0.43491  0.30269  1.0000
  H   H331      1.0  0.15829  0.58303  0.45708  1.0000
  H   H332      1.0  0.99795  0.46205  0.31831  1.0000
  H   H333      1.0  0.03587  0.51480  0.43454  1.0000
  C   C422      1.0  0.16547  0.63065  0.20326  1.0000
  H   H334      1.0  0.22449  0.60631  0.34745  1.0000
  H   H335      1.0  0.12989  0.44502  0.01027  1.0000
  H   H336      1.0  0.99687  0.53890  0.45903  1.0000
  C   C423      1.0  0.09906  0.36375  0.98385  1.0000
  C   C424      1.0  0.00247  0.51462  0.38748  1.0000
  C   C425      1.0  0.08273  0.56456  0.99732  1.0000
  C   C426      1.0  0.01448  0.43994  0.28314  1.0000
  H   H337      1.0  0.14909  0.50265  0.46307  1.0000
  C   C427      1.0  0.00916  0.45262  0.23769  1.0000
  C   C428      1.0  0.22970  0.64999  0.32407  1.0000
  C   C429      1.0  0.12362  0.46770  0.45714  1.0000
  C   C430      1.0  0.01138  0.52087  0.36435  1.0000
  P   P13       1.0  0.00059  0.50227  0.44250  1.0000
  C   C431      1.0  0.11012  0.37672  0.99306  1.0000
  H   H338      1.0  0.11871  0.47131  0.47751  1.0000
  C   C432      1.0  0.09996  0.55829  0.99424  1.0000
  H   H339      1.0  0.23155  0.61356  0.14346  1.0000
  C   C433      1.0  0.00411  0.53203  0.47527  1.0000
  H   H340      1.0  0.17042  0.44154  0.45593  1.0000
  H   H341      1.0  0.19602  0.42161  0.44858  1.0000
  H   H342      1.0  0.99665  0.56737  0.07479  1.0000
  H   H343      1.0  0.16950  0.32931  0.25231  1.0000
  H   H344      1.0  0.99592  0.41176  0.26715  1.0000
  H   H345      1.0  0.24119  0.65482  0.40260  1.0000
  H   H346      1.0  0.23695  0.34561  0.14998  1.0000
  C   C434      1.0  0.00267  0.44677  0.26323  1.0000
  H   H347      1.0  0.00045  0.45785  0.22188  1.0000
  S   S69       1.0  0.23666  0.32831  0.28531  1.0000
  C   C435      1.0  0.13478  0.53258  0.99710  1.0000
  H   H348      1.0  0.24085  0.37695  0.27182  1.0000
  H   H349      1.0  0.11158  0.51750  0.99957  1.0000
  C   C436      1.0  0.16938  0.66061  0.11433  1.0000
  C   C437      1.0  0.15230  0.66040  0.06272  1.0000
  H   H350      1.0  0.14602  0.66020  0.04243  1.0000
  H   H351      1.0  0.17614  0.66095  0.13412  1.0000
  H   H352      1.0  0.24532  0.58587  0.99596  1.0000
  H   H353      1.0  0.15028  0.32797  0.32950  1.0000
  Fe  Fe34      1.0  0.08307  0.51933  0.62788  1.0000
  S   S70       1.0  0.06832  0.54458  0.61768  1.0000
  S   S71       1.0  0.09154  0.51456  0.67373  1.0000
  Fe  Fe35      1.0  0.08046  0.50733  0.56638  1.0000
  S   S72       1.0  0.06554  0.53144  0.55280  1.0000
  S   S73       1.0  0.08471  0.48353  0.53844  1.0000
  Fe  Fe36      1.0  0.08530  0.54584  0.57878  1.0000
  S   S74       1.0  0.09626  0.57203  0.56300  1.0000
  Fe  Fe37      1.0  0.05005  0.52834  0.59225  1.0000
  S   S75       1.0  0.02110  0.52214  0.59539  1.0000
  S   S76       1.0  0.10108  0.52153  0.59054  1.0000
  S   S77       1.0  0.06416  0.50333  0.60434  1.0000
  C   C438      1.0  0.02245  0.48233  0.81105  1.0000
  H   H354      1.0  0.15905  0.56012  0.67487  1.0000
  S   S78       1.0  0.16257  0.60862  0.50633  1.0000
  Fe  Fe38      1.0  0.20772  0.65071  0.94574  1.0000
  H   H355      1.0  0.00089  0.44190  0.92863  1.0000
  C   C439      1.0  0.24064  0.34688  0.57828  1.0000
  C   C440      1.0  0.17406  0.34216  0.87478  1.0000
  C   C441      1.0  0.23814  0.65156  0.62787  1.0000
  S   S79       1.0  0.20791  0.34819  0.96947  1.0000
  H   H356      1.0  0.23301  0.65340  0.80031  1.0000
  S   S80       1.0  0.23736  0.64903  0.53197  1.0000
  H   H357      1.0  0.99612  0.47389  0.81344  1.0000
  H   H358      1.0  0.14239  0.65238  0.54225  1.0000
  C   C442      1.0  0.03008  0.45020  0.75519  1.0000
  C   C443      1.0  0.10553  0.55066  0.96906  1.0000
  C   C444      1.0  0.02896  0.46919  0.54209  1.0000
  Fe  Fe39      1.0  0.08348  0.45123  0.81689  1.0000
  S   S81       1.0  0.08076  0.42294  0.82918  1.0000
  S   S82       1.0  0.08131  0.45661  0.76936  1.0000
  Fe  Fe40      1.0  0.08338  0.46205  0.87917  1.0000
  S   S83       1.0  0.08024  0.43483  0.89482  1.0000
  S   S84       1.0  0.08472  0.48587  0.90747  1.0000
  Fe  Fe41      1.0  0.10082  0.42693  0.86317  1.0000
  S   S85       1.0  0.12667  0.41130  0.87300  1.0000
  Fe  Fe42      1.0  0.06045  0.43309  0.85986  1.0000
  S   S86       1.0  0.03398  0.42026  0.86389  1.0000
  S   S87       1.0  0.10488  0.45469  0.84886  1.0000
  S   S88       1.0  0.06235  0.46084  0.84631  1.0000
  C   C445      1.0  0.01288  0.43080  0.86480  1.0000
  C   C446      1.0  0.01067  0.44893  0.86702  1.0000
  C   C447      1.0  0.13302  0.40862  0.77324  1.0000
  H   H359      1.0  0.02202  0.45691  0.86811  1.0000
  C   C448      1.0  0.14665  0.42160  0.94823  1.0000
  C   C449      1.0  0.19786  0.63544  0.68010  1.0000
  H   H360      1.0  0.16796  0.44671  0.51134  1.0000
  H   H361      1.0  0.00672  0.44576  0.63745  1.0000
  S   S89       1.0  0.21324  0.64961  0.89816  1.0000
  C   C450      1.0  0.07620  0.55516  0.95041  1.0000
  H   H362      1.0  0.18287  0.57044  0.93673  1.0000
  C   C451      1.0  0.01783  0.50561  0.49374  1.0000
  H   H363      1.0  0.04883  0.53803  0.69286  1.0000
  H   H364      1.0  0.07518  0.39649  0.48975  1.0000
  C   C452      1.0  0.14921  0.36365  0.92329  1.0000
  C   C453      1.0  0.13116  0.36546  0.91764  1.0000
  C   C454      1.0  0.12410  0.37978  0.90225  1.0000
  C   C455      1.0  0.13491  0.39272  0.89237  1.0000
  C   C456      1.0  0.15303  0.39073  0.89750  1.0000
  C   C457      1.0  0.16011  0.37647  0.91305  1.0000
  H   H365      1.0  0.12254  0.35569  0.92527  1.0000
  H   H366      1.0  0.11028  0.38072  0.89779  1.0000
  H   H367      1.0  0.16166  0.40043  0.88970  1.0000
  H   H368      1.0  0.17400  0.37539  0.91705  1.0000
  C   C458      1.0  0.22974  0.64882  0.87143  1.0000
  C   C459      1.0  0.14018  0.64552  0.56157  1.0000
  C   C460      1.0  0.15296  0.63373  0.57171  1.0000
  H   H369      1.0  0.13640  0.59060  0.59061  1.0000
  C   C461      1.0  0.02094  0.48045  0.92867  1.0000
  H   H370      1.0  0.22571  0.41652  0.86757  1.0000
  C   C462      1.0  0.15036  0.43255  0.92591  1.0000
  C   C463      1.0  0.07390  0.49973  0.48956  1.0000
  C   C464      1.0  0.15889  0.55868  0.94907  1.0000
  H   H371      1.0  0.04878  0.41605  0.92069  1.0000
  C   C465      1.0  0.12439  0.64798  0.57576  1.0000
  H   H372      1.0  0.02993  0.44252  0.91854  1.0000
  C   C466      1.0  0.20604  0.61010  0.55233  1.0000
  P   P14       1.0  0.16673  0.60936  0.60987  1.0000
  C   C467      1.0  0.07954  0.48423  0.50248  1.0000
  H   H373      1.0  0.06520  0.46277  0.60493  1.0000
  H   H374      1.0  0.13281  0.54951  0.65044  1.0000
  C   C468      1.0  0.08295  0.48522  0.94430  1.0000
  C   C469      1.0  0.15416  0.56683  0.65647  1.0000
  Fe  Fe43      1.0  0.17704  0.63383  0.49406  1.0000
  H   H375      1.0  0.07222  0.51155  0.50166  1.0000
  H   H376      1.0  0.01581  0.52982  0.93351  1.0000
  H   H377      1.0  0.08178  0.45733  0.94757  1.0000
  C   C470      1.0  0.03438  0.45004  0.96149  1.0000
  C   C471      1.0  0.08854  0.49816  0.69989  1.0000
  C   C472      1.0  0.08216  0.48167  0.69380  1.0000
  C   C473      1.0  0.08002  0.46926  0.71525  1.0000
  C   C474      1.0  0.08419  0.47304  0.74324  1.0000
  C   C475      1.0  0.09053  0.48954  0.74935  1.0000
  C   C476      1.0  0.09279  0.50190  0.72786  1.0000
  H   H378      1.0  0.07910  0.47840  0.67250  1.0000
  H   H379      1.0  0.07518  0.45657  0.71008  1.0000
  H   H380      1.0  0.09391  0.49273  0.77059  1.0000
  H   H381      1.0  0.09784  0.51452  0.73298  1.0000
  C   C477      1.0  0.11468  0.58162  0.54619  1.0000
  C   C478      1.0  0.11414  0.59971  0.54082  1.0000
  C   C479      1.0  0.12840  0.60807  0.52840  1.0000
  C   C480      1.0  0.14373  0.59859  0.52137  1.0000
  C   C481      1.0  0.14412  0.58041  0.52613  1.0000
  C   C482      1.0  0.12980  0.57199  0.53837  1.0000
  H   H382      1.0  0.10257  0.60739  0.54642  1.0000
  H   H383      1.0  0.12745  0.62187  0.52410  1.0000
  H   H384      1.0  0.15565  0.57274  0.52038  1.0000
  H   H385      1.0  0.13054  0.55808  0.54201  1.0000
  C   C483      1.0  0.10949  0.52742  0.49681  1.0000
  C   C484      1.0  0.02014  0.47849  0.56312  1.0000
  H   H386      1.0  0.23215  0.36638  0.90470  1.0000
  H   H387      1.0  0.01045  0.55852  0.58225  1.0000
  H   H388      1.0  0.21028  0.65622  0.62472  1.0000
  C   C485      1.0  0.04288  0.52547  0.69070  1.0000
  H   H389      1.0  0.16480  0.63164  0.55985  1.0000
  C   C486      1.0  0.00076  0.53388  0.59546  1.0000
  C   C487      1.0  0.23717  0.65109  0.82155  1.0000
  C   C488      1.0  0.00630  0.48938  0.91727  1.0000
  C   C489      1.0  0.12143  0.63874  0.60023  1.0000
  H   H390      1.0  0.21245  0.34050  0.83458  1.0000
  H   H391      1.0  0.17004  0.57833  0.57334  1.0000
  H   H392      1.0  0.02731  0.47270  0.82583  1.0000
  H   H393      1.0  0.17398  0.58592  0.65750  1.0000
  Fe  Fe44      1.0  0.18354  0.33346  0.96002  1.0000
  C   C490      1.0  0.21685  0.40862  0.85576  1.0000
  H   H394      1.0  0.20243  0.60370  0.63102  1.0000
  H   H395      1.0  0.12030  0.41825  0.52787  1.0000
  H   H396      1.0  0.19624  0.62677  0.58507  1.0000
  C   C491      1.0  0.08925  0.38229  0.94590  1.0000
  H   H397      1.0  0.19398  0.42431  0.86656  1.0000
  C   C492      1.0  0.08266  0.50096  0.95933  1.0000
  H   H398      1.0  0.03629  0.51600  0.77199  1.0000
  H   H399      1.0  0.99942  0.40660  0.86246  1.0000
  H   H400      1.0  0.08139  0.38435  0.92732  1.0000
  H   H401      1.0  0.09847  0.53401  0.50677  1.0000
  C   C493      1.0  0.04746  0.42438  0.93892  1.0000
  H   H402      1.0  0.09741  0.54322  0.92750  1.0000
  H   H403      1.0  0.14298  0.39931  0.49342  1.0000
  C   C494      1.0  0.02866  0.49238  0.68361  1.0000
  C   C495      1.0  0.02731  0.45635  0.70564  1.0000
  H   H404      1.0  0.12230  0.41688  0.76552  1.0000
  C   C496      1.0  0.16314  0.58982  0.94791  1.0000
  C   C497      1.0  0.04061  0.43546  0.74933  1.0000
  C   C498      1.0  0.04439  0.43099  0.72174  1.0000
  C   C499      1.0  0.03778  0.44134  0.69996  1.0000
  C   C500      1.0  0.04038  0.49552  0.70555  1.0000
  C   C501      1.0  0.04726  0.51203  0.70918  1.0000
  H   H405      1.0  0.02299  0.53966  0.53826  1.0000
  H   H406      1.0  0.20542  0.64175  0.69613  1.0000
  H   H407      1.0  0.17456  0.65113  0.68759  1.0000
  C   C502      1.0  0.02863  0.46225  0.64528  1.0000
  C   C503      1.0  0.04517  0.46689  0.63595  1.0000
  C   C504      1.0  0.05240  0.45911  0.61205  1.0000
  C   C505      1.0  0.04318  0.44664  0.59736  1.0000
  C   C506      1.0  0.02662  0.44205  0.60637  1.0000
  C   C507      1.0  0.01937  0.44977  0.63033  1.0000
  C   C508      1.0  0.23958  0.33489  0.82597  1.0000
  C   C509      1.0  0.15013  0.62439  0.59628  1.0000
  H   H408      1.0  0.17675  0.33864  0.78408  1.0000
  H   H409      1.0  0.23703  0.39041  0.84200  1.0000
  C   C510      1.0  0.16915  0.39346  0.48024  1.0000
  H   H410      1.0  0.10908  0.64046  0.61104  1.0000
  C   C511      1.0  0.03390  0.49393  0.79908  1.0000
  H   H411      1.0  0.04621  0.42774  0.76624  1.0000
  H   H412      1.0  0.05287  0.41974  0.71732  1.0000
  H   H413      1.0  0.04133  0.43776  0.67889  1.0000
  H   H414      1.0  0.04492  0.48524  0.71936  1.0000
  H   H415      1.0  0.05668  0.51418  0.72560  1.0000
  C   C512      1.0  0.09718  0.40678  0.51168  1.0000
  H   H416      1.0  0.15766  0.63734  0.65024  1.0000
  C   C513      1.0  0.02351  0.46067  0.73351  1.0000
  C   C514      1.0  0.00189  0.47996  0.56290  1.0000
  C   C515      1.0  0.13426  0.62705  0.61054  1.0000
  H   H417      1.0  0.04886  0.44064  0.57886  1.0000
  H   H418      1.0  0.01947  0.43242  0.59488  1.0000
  C   C516      1.0  0.08862  0.36654  0.96029  1.0000
  C   C517      1.0  0.22323  0.39388  0.84140  1.0000
  H   H419      1.0  0.06531  0.57513  0.52356  1.0000
  C   C518      1.0  0.19900  0.41302  0.85514  1.0000
  C   C519      1.0  0.18754  0.40278  0.83999  1.0000
  C   C520      1.0  0.19389  0.38808  0.82517  1.0000
  C   C521      1.0  0.21180  0.38351  0.82647  1.0000
  P   P15       1.0  0.17891  0.37417  0.80726  1.0000
  C   C522      1.0  0.16088  0.38748  0.79367  1.0000
  C   C523      1.0  0.18985  0.36300  0.77861  1.0000
  C   C524      1.0  0.18604  0.34570  0.77196  1.0000
  H   H420      1.0  0.03808  0.56517  0.50160  1.0000
  H   H421      1.0  0.20964  0.65541  0.57309  1.0000
  C   C525      1.0  0.21040  0.36317  0.74001  1.0000
  C   C526      1.0  0.20206  0.37170  0.76235  1.0000
  C   C527      1.0  0.14655  0.39197  0.81077  1.0000
  C   C528      1.0  0.19613  0.61406  0.64309  1.0000
  H   H422      1.0  0.13880  0.49412  0.50992  1.0000
  C   C529      1.0  0.12209  0.44722  0.93106  1.0000
  C   C530      1.0  0.16110  0.39375  0.76619  1.0000
  C   C531      1.0  0.17081  0.35856  0.83178  1.0000
  C   C532      1.0  0.18036  0.35426  0.85594  1.0000
  H   H423      1.0  0.21320  0.33932  0.71648  1.0000
  H   H424      1.0  0.14715  0.47613  0.58043  1.0000
  H   H425      1.0  0.02746  0.48487  0.57939  1.0000
  C   C533      1.0  0.15483  0.35061  0.82689  1.0000
  C   C534      1.0  0.20562  0.62205  0.66417  1.0000
  S   S90       1.0  0.23756  0.34135  0.79083  1.0000
  C   C535      1.0  0.01949  0.46098  0.52118  1.0000
  H   H426      1.0  0.17373  0.40629  0.84018  1.0000
  H   H427      1.0  0.21697  0.37185  0.81616  1.0000
  C   C536      1.0  0.16257  0.58150  0.64657  1.0000
  H   H428      1.0  0.09373  0.56863  0.50147  1.0000
  Fe  Fe45      1.0  0.21229  0.65071  0.50652  1.0000
  H   H429      1.0  0.21917  0.61814  0.66788  1.0000
  H   H430      1.0  0.20519  0.38506  0.76699  1.0000
  H   H431      1.0  0.14611  0.38758  0.83218  1.0000
  H   H432      1.0  0.17194  0.39065  0.75249  1.0000
  C   C537      1.0  0.08149  0.46896  0.48634  1.0000
  C   C538      1.0  0.02341  0.51492  0.51703  1.0000
  C   C539      1.0  0.14601  0.59283  0.95706  1.0000
  H   H433      1.0  0.19259  0.36031  0.86055  1.0000
  H   H434      1.0  0.09385  0.40088  0.53135  1.0000
  H   H435      1.0  0.04315  0.46845  0.54195  1.0000
  C   C540      1.0  0.16958  0.57274  0.94384  1.0000
  H   H436      1.0  0.14721  0.35375  0.80844  1.0000
  H   H437      1.0  0.11216  0.45403  0.52136  1.0000
  H   H438      1.0  0.16875  0.37991  0.48663  1.0000
  C   C541      1.0  0.17101  0.63294  0.65382  1.0000
  C   C542      1.0  0.19489  0.61440  0.57449  1.0000
  H   H439      1.0  0.10591  0.43796  0.96386  1.0000
  H   H440      1.0  0.04053  0.49956  0.96512  1.0000
  C   C543      1.0  0.19139  0.58293  0.54592  1.0000
  C   C544      1.0  0.18019  0.58720  0.56808  1.0000
  C   C545      1.0  0.08201  0.46952  0.95887  1.0000
  C   C546      1.0  0.99900  0.55140  0.58763  1.0000
  C   C547      1.0  0.13940  0.56082  0.64272  1.0000
  C   C548      1.0  0.11843  0.43645  0.95358  1.0000
  H   H441      1.0  0.18969  0.57098  0.53433  1.0000
  H   H442      1.0  0.02147  0.49194  0.49203  1.0000
  C   C549      1.0  0.12741  0.49955  0.91583  1.0000
  C   C550      1.0  0.12979  0.50627  0.88918  1.0000
  C   C551      1.0  0.13223  0.52409  0.88570  1.0000
  C   C552      1.0  0.13216  0.53521  0.90886  1.0000
  C   C553      1.0  0.12987  0.52853  0.93580  1.0000
  C   C554      1.0  0.12736  0.51060  0.93904  1.0000
  H   H443      1.0  0.04769  0.49315  0.80436  1.0000
  H   H444      1.0  0.08320  0.51316  0.94824  1.0000
  C   C555      1.0  0.14722  0.40426  0.75607  1.0000
  H   H445      1.0  0.12171  0.40589  0.81392  1.0000
  H   H446      1.0  0.16251  0.43072  0.91465  1.0000
  H   H447      1.0  0.11707  0.47111  0.56393  1.0000
  H   H448      1.0  0.02532  0.50787  0.86111  1.0000
  H   H449      1.0  0.06519  0.40870  0.96394  1.0000
  H   H450      1.0  0.24181  0.36934  0.95365  1.0000
  C   C556      1.0  0.13232  0.50482  0.49890  1.0000
  S   S91       1.0  0.17945  0.65716  0.95613  1.0000
  H   H451      1.0  0.14067  0.45325  0.89924  1.0000
  H   H452      1.0  0.22005  0.36979  0.72786  1.0000
  C   C557      1.0  0.00123  0.46255  0.52080  1.0000
  C   C558      1.0  0.18176  0.60306  0.58237  1.0000
  H   H453      1.0  0.16405  0.54550  0.94588  1.0000
  H   H454      1.0  0.03114  0.50844  0.53311  1.0000
  S   S92       1.0  0.18570  0.65383  0.52533  1.0000
  C   C559      1.0  0.14172  0.56163  0.95865  1.0000
  H   H455      1.0  0.12502  0.48583  0.91844  1.0000
  H   H456      1.0  0.12939  0.49769  0.87123  1.0000
  H   H457      1.0  0.13386  0.52933  0.86498  1.0000
  H   H458      1.0  0.13356  0.54906  0.90564  1.0000
  H   H459      1.0  0.05131  0.49248  0.88128  1.0000
  H   H460      1.0  0.06699  0.55385  0.93344  1.0000
  P   P16       1.0  0.01906  0.46854  0.96090  1.0000
  P   P17       1.0  0.13611  0.43671  0.48130  1.0000
  C   C560      1.0  0.00478  0.48291  0.80364  1.0000
  H   H461      1.0  0.21589  0.61910  0.54599  1.0000
  H   H462      1.0  0.12165  0.56480  0.60826  1.0000
  C   C561      1.0  0.13537  0.57883  0.96267  1.0000
  H   H463      1.0  0.10101  0.40709  0.94283  1.0000
  C   C562      1.0  0.03870  0.49155  0.89125  1.0000
  H   H464      1.0  0.04868  0.47492  0.92387  1.0000
  C   C563      1.0  0.05052  0.56227  0.49169  1.0000
  C   C564      1.0  0.14145  0.58409  0.60906  1.0000
  H   H465      1.0  0.17142  0.60078  0.94423  1.0000
  C   C565      1.0  0.05673  0.42025  0.96321  1.0000
  S   S93       1.0  0.15716  0.34538  0.94372  1.0000
  C   C566      1.0  0.13268  0.40243  0.80053  1.0000
  P   P18       1.0  0.02017  0.47085  0.67776  1.0000
  H   H466      1.0  0.14111  0.60610  0.96043  1.0000
  C   C567      1.0  0.20415  0.59447  0.53785  1.0000
  H   H467      1.0  0.12500  0.50502  0.95923  1.0000
  S   S94       1.0  0.23806  0.65277  0.66478  1.0000
  C   C568      1.0  0.22872  0.33361  0.58179  1.0000
  H   H468      1.0  0.01616  0.50401  0.64729  1.0000
  C   C569      1.0  0.19432  0.33725  0.74948  1.0000
  C   C570      1.0  0.22481  0.65206  0.84352  1.0000
  C   C571      1.0  0.02407  0.50033  0.88000  1.0000
  H   H469      1.0  0.15613  0.41146  0.95396  1.0000
  C   C572      1.0  0.14843  0.33872  0.84606  1.0000
  H   H470      1.0  0.14748  0.40912  0.73492  1.0000
  C   C573      1.0  0.15620  0.59029  0.62284  1.0000
  C   C574      1.0  0.09352  0.54913  0.94711  1.0000
  H   H471      1.0  0.17253  0.46387  0.55393  1.0000
  H   H472      1.0  0.00585  0.55495  0.50116  1.0000
  C   C575      1.0  0.03141  0.52249  0.66874  1.0000
  C   C576      1.0  0.02440  0.50603  0.66513  1.0000
  C   C577      1.0  0.13309  0.56944  0.61898  1.0000
  C   C578      1.0  0.11801  0.51367  0.51096  1.0000
  C   C579      1.0  0.08195  0.56425  0.49147  1.0000
  H   H473      1.0  0.11336  0.50976  0.53123  1.0000
  C   C580      1.0  0.10044  0.39523  0.95487  1.0000
  C   C581      1.0  0.18054  0.64081  0.67506  1.0000
  C   C582      1.0  0.01894  0.53263  0.51984  1.0000
  C   C583      1.0  0.15938  0.46167  0.54670  1.0000
  C   C584      1.0  0.14511  0.46856  0.56166  1.0000
  C   C585      1.0  0.12816  0.46570  0.55241  1.0000
  C   C586      1.0  0.12542  0.45592  0.52825  1.0000
  C   C587      1.0  0.13967  0.44877  0.51319  1.0000
  C   C588      1.0  0.15670  0.45188  0.52251  1.0000
  C   C589      1.0  0.23726  0.65006  0.56891  1.0000
  H   H474      1.0  0.11239  0.45680  0.92393  1.0000
  H   H475      1.0  0.99661  0.48495  0.63441  1.0000
  C   C590      1.0  0.11214  0.41667  0.50965  1.0000
  H   H476      1.0  0.21228  0.59150  0.51996  1.0000
  C   C591      1.0  0.17879  0.61957  0.63753  1.0000
  H   H477      1.0  0.05257  0.47639  0.64729  1.0000
  H   H478      1.0  0.13172  0.61990  0.62945  1.0000
  C   C592      1.0  0.03716  0.48158  0.91541  1.0000
  C   C593      1.0  0.02750  0.50666  0.78062  1.0000
  H   H479      1.0  0.02751  0.45368  0.77667  1.0000
  C   C594      1.0  0.22187  0.65329  0.58397  1.0000
  H   H480      1.0  0.02634  0.45371  0.50492  1.0000
  P   P19       1.0  0.12805  0.54333  0.96516  1.0000
  Fe  Fe46      1.0  0.20936  0.32908  0.50696  1.0000
  H   H481      1.0  0.18130  0.33912  0.89368  1.0000
  H   H482      1.0  0.08556  0.45681  0.49611  1.0000
  C   C595      1.0  0.20655  0.34594  0.73360  1.0000
  C   C596      1.0  0.15805  0.33451  0.87000  1.0000
  C   C597      1.0  0.13805  0.44528  0.91723  1.0000
  C   C598      1.0  0.00977  0.50741  0.77340  1.0000
  C   C599      1.0  0.99846  0.49487  0.78360  1.0000
  H   H483      1.0  0.21504  0.33424  0.88534  1.0000
  C   C600      1.0  0.08666  0.40430  0.48827  1.0000
  C   C601      1.0  0.00787  0.49926  0.89302  1.0000
  C   C602      1.0  0.06583  0.56798  0.50402  1.0000
  C   C603      1.0  0.03658  0.43936  0.93787  1.0000
  C   C604      1.0  0.01002  0.53232  0.95377  1.0000
  C   C605      1.0  0.23731  0.33187  0.63123  1.0000
  C   C606      1.0  0.13068  0.42355  0.96234  1.0000
  H   H484      1.0  0.21126  0.65514  0.83877  1.0000
  C   C607      1.0  0.15446  0.40454  0.48394  1.0000
  C   C608      1.0  0.22229  0.65386  0.61329  1.0000
  H   H485      1.0  0.00502  0.51784  0.75999  1.0000
  H   H486      1.0  0.01598  0.47246  0.73847  1.0000
  C   C609      1.0  0.99655  0.47256  0.67492  1.0000
  H   H487      1.0  0.02833  0.53279  0.65392  1.0000
  C   C610      1.0  0.22491  0.33637  0.84334  1.0000
  H   H488      1.0  0.03337  0.54302  0.97103  1.0000
  H   H489      1.0  0.11437  0.65688  0.56756  1.0000
  C   C611      1.0  0.22633  0.33274  0.87198  1.0000
  H   H490      1.0  0.12231  0.58160  0.97032  1.0000
  C   C612      1.0  0.00932  0.54120  0.49893  1.0000
  H   H491      1.0  0.05745  0.56773  0.97803  1.0000
  C   C613      1.0  0.99790  0.42065  0.86406  1.0000
  H   H492      1.0  0.08023  0.35639  0.95295  1.0000
  C   C614      1.0  0.01991  0.53983  0.97485  1.0000
  H   H493      1.0  0.24144  0.57177  0.49649  1.0000
  H   H494      1.0  0.13590  0.33294  0.84258  1.0000
  H   H495      1.0  0.24201  0.35280  0.55804  1.0000
  C   C615      1.0  0.11664  0.42420  0.48414  1.0000
  H   H496      1.0  0.99644  0.50582  0.88405  1.0000
  C   C616      1.0  0.07082  0.56293  0.97547  1.0000
  C   C617      1.0  0.99692  0.46085  0.96192  1.0000
  H   H497      1.0  0.14602  0.37815  0.97454  1.0000
  Fe  Fe47      1.0  0.04749  0.94216  0.10715  1.0000
  S   S95       1.0  0.06162  0.96654  0.11860  1.0000
  S   S96       1.0  0.01829  0.94976  0.10889  1.0000
  Fe  Fe48      1.0  0.08259  0.92087  0.09968  1.0000
  S   S97       1.0  0.09798  0.94416  0.11144  1.0000
  S   S98       1.0  0.09924  0.89529  0.09481  1.0000
  Fe  Fe49      1.0  0.07858  0.94936  0.14594  1.0000
  S   S99       1.0  0.08680  0.95217  0.19186  1.0000
  Fe  Fe50      1.0  0.07952  0.95910  0.08313  1.0000
  H   H498      1.0  0.18829  0.77359  0.26813  1.0000
  S   S100      1.0  0.06390  0.92514  0.13598  1.0000
  S   S101      1.0  0.06465  0.93574  0.06982  1.0000
  H   H499      1.0  0.21194  0.92213  0.03232  1.0000
  H   H500      1.0  0.03440  0.92234  0.39395  1.0000
  H   H501      1.0  0.09078  0.95934  0.46377  1.0000
  Fe  Fe51      1.0  0.17220  0.84200  0.99818  1.0000
  C   C618      1.0  0.02212  0.99101  0.99891  1.0000
  S   S102      1.0  0.14708  0.85943  0.99903  1.0000
  Fe  Fe52      1.0  0.19143  0.80654  0.00783  1.0000
  C   C619      1.0  0.06016  0.97519  0.98346  1.0000
  C   C620      1.0  0.20633  0.89029  0.12910  1.0000
  Fe  Fe53      1.0  0.20947  0.84084  0.01879  1.0000
  H   H502      1.0  0.07398  0.98878  0.18772  1.0000
  Fe  Fe54      1.0  0.19724  0.83742  0.45444  1.0000
  S   S103      1.0  0.20175  0.84692  0.40936  1.0000
  S   S104      1.0  0.18508  0.82969  0.03581  1.0000
  H   H503      1.0  0.23434  0.82501  0.40776  1.0000
  C   C621      1.0  0.21742  0.84151  0.38265  1.0000
  C   C622      1.0  0.21999  0.78298  0.41746  1.0000
  C   C623      1.0  0.22708  0.84504  0.33408  1.0000
  C   C624      1.0  0.21495  0.84857  0.35578  1.0000
  H   H504      1.0  0.22500  0.85074  0.31372  1.0000
  H   H505      1.0  0.20361  0.85697  0.35174  1.0000
  C   C625      1.0  0.22964  0.85009  0.08189  1.0000
  C   C626      1.0  0.21411  0.84475  0.12493  1.0000
  C   C627      1.0  0.21411  0.84678  0.09584  1.0000
  H   H506      1.0  0.20196  0.84251  0.13545  1.0000
  H   H507      1.0  0.20201  0.84625  0.08435  1.0000
  C   C628      1.0  0.00706  0.96691  0.44837  1.0000
  C   C629      1.0  0.23521  0.74580  0.15620  1.0000
  H   H508      1.0  0.16946  0.85684  0.10839  1.0000
  S   S105      1.0  0.09089  0.97821  0.05247  1.0000
  C   C630      1.0  0.23480  0.70953  0.39270  1.0000
  C   C631      1.0  0.13704  0.92540  0.10988  1.0000
  C   C632      1.0  0.19591  0.90002  0.02531  1.0000
  H   H509      1.0  0.15888  0.96428  0.07408  1.0000
  C   C633      1.0  0.24080  0.70582  0.34349  1.0000
  H   H510      1.0  0.18697  0.94341  0.03410  1.0000
  C   C634      1.0  0.18346  0.72915  0.06382  1.0000
  C   C635      1.0  0.06753  0.97196  0.00986  1.0000
  H   H511      1.0  0.14073  0.78306  0.39518  1.0000
  H   H512      1.0  0.06271  0.96163  0.02267  1.0000
  C   C636      1.0  0.20811  0.74217  0.18112  1.0000
  C   C637      1.0  0.08348  0.96937  0.21675  1.0000
  C   C638      1.0  0.19678  0.77855  0.28416  1.0000
  C   C639      1.0  0.18519  0.70393  0.16036  1.0000
  C   C640      1.0  0.08771  0.96622  0.24493  1.0000
  C   C641      1.0  0.14199  0.99144  0.01574  1.0000
  H   H513      1.0  0.09258  0.95340  0.25104  1.0000
  C   C642      1.0  0.11309  0.88631  0.06798  1.0000
  C   C643      1.0  0.12741  0.87516  0.07525  1.0000
  C   C644      1.0  0.13816  0.86710  0.05462  1.0000
  C   C645      1.0  0.13449  0.86971  0.02631  1.0000
  C   C646      1.0  0.12025  0.88092  0.01911  1.0000
  C   C647      1.0  0.10974  0.88925  0.03971  1.0000
  H   H514      1.0  0.13013  0.87265  0.09699  1.0000
  H   H515      1.0  0.14906  0.85860  0.06059  1.0000
  H   H516      1.0  0.11719  0.88301  0.99736  1.0000
  H   H517      1.0  0.09862  0.89742  0.03371  1.0000
  H   H518      1.0  0.04633  0.90800  0.43631  1.0000
  C   C648      1.0  0.19118  0.75924  0.00600  1.0000
  C   C649      1.0  0.00801  0.96393  0.00970  1.0000
  C   C650      1.0  0.19876  0.91778  0.02919  1.0000
  C   C651      1.0  0.20573  0.77979  0.33277  1.0000
  C   C652      1.0  0.20271  0.74477  0.00938  1.0000
  C   C653      1.0  0.19871  0.70804  0.09321  1.0000
  S   S106      1.0  0.19556  0.77879  0.02406  1.0000
  C   C654      1.0  0.00392  0.97544  0.42291  1.0000
  H   H519      1.0  0.02299  0.97661  0.25350  1.0000
  H   H520      1.0  0.15519  0.95161  0.40677  1.0000
  C   C655      1.0  0.99895  0.97469  0.23021  1.0000
  H   H521      1.0  0.21487  0.74646  0.02016  1.0000
  H   H522      1.0  0.17661  0.90730  0.08306  1.0000
  H   H523      1.0  0.20864  0.90511  0.09138  1.0000
  H   H524      1.0  0.20715  0.78457  0.42675  1.0000
  H   H525      1.0  0.16606  0.76508  0.37972  1.0000
  H   H526      1.0  0.21676  0.93091  0.43503  1.0000
  C   C656      1.0  0.21449  0.73383  0.26501  1.0000
  C   C657      1.0  0.21622  0.72017  0.24578  1.0000
  H   H527      1.0  0.15168  0.90149  0.02105  1.0000
  H   H528      1.0  0.08934  0.97691  0.28673  1.0000
  H   H529      1.0  0.18370  0.70144  0.05675  1.0000
  H   H530      1.0  0.11498  0.91216  0.44293  1.0000
  H   H531      1.0  0.21095  0.74116  0.46928  1.0000
  C   C658      1.0  0.99921  0.89671  0.03397  1.0000
  H   H532      1.0  0.08536  0.93451  0.01898  1.0000
  C   C659      1.0  0.24454  0.71214  0.26531  1.0000
  C   C660      1.0  0.11314  0.93592  0.02455  1.0000
  C   C661      1.0  0.13091  0.92350  0.98731  1.0000
  C   C662      1.0  0.18984  0.72776  0.40572  1.0000
  P   P20       1.0  0.19072  0.90872  0.46141  1.0000
  H   H533      1.0  0.18460  0.76448  0.31708  1.0000
  H   H534      1.0  0.14122  0.93948  0.14809  1.0000
  C   C663      1.0  0.20077  0.67849  0.19467  1.0000
  C   C664      1.0  0.16485  0.67634  0.10100  1.0000
  C   C665      1.0  0.09714  0.87810  0.47592  1.0000
  H   H535      1.0  0.18656  0.75613  0.07445  1.0000
  H   H536      1.0  0.17506  0.73209  0.04612  1.0000
  H   H537      1.0  0.16068  0.69421  0.17459  1.0000
  C   C666      1.0  0.18130  0.96168  0.46150  1.0000
  H   H538      1.0  0.22921  0.80734  0.29290  1.0000
  C   C667      1.0  0.18986  0.74270  0.07997  1.0000
  H   H539      1.0  0.20283  0.74217  0.26495  1.0000
  H   H540      1.0  0.20593  0.71787  0.23085  1.0000
  H   H541      1.0  0.17656  0.88052  0.01973  1.0000
  C   C668      1.0  0.02792  0.97038  0.21048  1.0000
  H   H542      1.0  0.03056  0.93427  0.01938  1.0000
  C   C669      1.0  0.19674  0.72086  0.35773  1.0000
  H   H543      1.0  0.18825  0.70208  0.38776  1.0000
  S   S107      1.0  0.18993  0.66161  0.02137  1.0000
  C   C670      1.0  0.23187  0.88266  0.42358  1.0000
  C   C671      1.0  0.18262  0.93043  0.45258  1.0000
  C   C672      1.0  0.23799  0.70604  0.13454  1.0000
  C   C673      1.0  0.18461  0.92983  0.02980  1.0000
  H   H544      1.0  0.15532  0.96409  0.12505  1.0000
  H   H545      1.0  0.21999  0.80514  0.15825  1.0000
  H   H546      1.0  0.23186  0.77385  0.99035  1.0000
  S   S108      1.0  0.19670  0.85415  0.98192  1.0000
  C   C674      1.0  0.17080  0.81458  0.39242  1.0000
  H   H547      1.0  0.00300  0.93003  0.45196  1.0000
  C   C675      1.0  0.22967  0.84554  0.14035  1.0000
  H   H548      1.0  0.17457  0.67143  0.20473  1.0000
  C   C676      1.0  0.21660  0.88652  0.43854  1.0000
  C   C677      1.0  0.16431  0.94972  0.42390  1.0000
  H   H549      1.0  0.16146  0.82939  0.08620  1.0000
  C   C678      1.0  0.14798  0.87047  0.43681  1.0000
  C   C679      1.0  0.19375  0.74519  0.40104  1.0000
  C   C680      1.0  0.05422  0.91710  0.42512  1.0000
  C   C681      1.0  0.07110  0.92074  0.43457  1.0000
  H   H550      1.0  0.20680  0.89058  0.02542  1.0000
  S   S109      1.0  0.20842  0.67211  0.47484  1.0000
  H   H551      1.0  0.13388  0.91479  0.06887  1.0000
  H   H552      1.0  0.20722  0.71702  0.00306  1.0000
  H   H553      1.0  0.08174  0.95009  0.38463  1.0000
  C   C682      1.0  0.19881  0.75068  0.37442  1.0000
  H   H554      1.0  0.16630  0.76802  0.98948  1.0000
  C   C683      1.0  0.03478  0.97333  0.41197  1.0000
  C   C684      1.0  0.08097  0.93270  0.41975  1.0000
  H   H555      1.0  0.09380  0.93625  0.42668  1.0000
  C   C685      1.0  0.14706  0.87932  0.46223  1.0000
  H   H556      1.0  0.05218  0.94324  0.36790  1.0000
  H   H557      1.0  0.20538  0.74190  0.33278  1.0000
  Fe  Fe55      1.0  0.18945  0.67858  0.98318  1.0000
  C   C686      1.0  0.19481  0.77332  0.31187  1.0000
  C   C687      1.0  0.07415  0.94066  0.39574  1.0000
  H   H558      1.0  0.07299  0.88628  0.41735  1.0000
  C   C688      1.0  0.05743  0.93686  0.38638  1.0000
  C   C689      1.0  0.04743  0.92512  0.40112  1.0000
  H   H559      1.0  0.17197  0.82845  0.39580  1.0000
  C   C690      1.0  0.11459  0.91878  0.46290  1.0000
  C   C691      1.0  0.21071  0.90389  0.44245  1.0000
  H   H560      1.0  0.20185  0.69451  0.09823  1.0000
  C   C692      1.0  0.18542  0.80438  0.38439  1.0000
  C   C693      1.0  0.08587  0.97954  0.26528  1.0000
  H   H561      1.0  0.00804  0.91370  0.09735  1.0000
  C   C694      1.0  0.20496  0.72158  0.10990  1.0000
  H   H562      1.0  0.12977  0.97204  0.04032  1.0000
  C   C695      1.0  0.07685  0.98323  0.45279  1.0000
  C   C696      1.0  0.20056  0.73897  0.10296  1.0000
  C   C697      1.0  0.17462  0.88509  0.42577  1.0000
  C   C698      1.0  0.99861  0.92831  0.47316  1.0000
  C   C699      1.0  0.22631  0.76652  0.19200  1.0000
  H   H563      1.0  0.19817  0.71133  0.34111  1.0000
  H   H564      1.0  0.23257  0.69873  0.23112  1.0000
  C   C700      1.0  0.19838  0.72811  0.99971  1.0000
  C   C701      1.0  0.24302  0.72596  0.28444  1.0000
  C   C702      1.0  0.01193  0.97710  0.99066  1.0000
  C   C703      1.0  0.00390  0.92574  0.01588  1.0000
  C   C704      1.0  0.20351  0.70209  0.16152  1.0000
  H   H565      1.0  0.19581  0.80097  0.07775  1.0000
  H   H566      1.0  0.20692  0.66850  0.20766  1.0000
  H   H567      1.0  0.18509  0.88715  0.41117  1.0000
  H   H568      1.0  0.23315  0.78922  0.45564  1.0000
  C   C705      1.0  0.15319  0.78903  0.39203  1.0000
  C   C706      1.0  0.18259  0.68012  0.19293  1.0000
  P   P21       1.0  0.07969  0.90975  0.46523  1.0000
  C   C707      1.0  0.09807  0.93121  0.01031  1.0000
  C   C708      1.0  0.23832  0.73334  0.05899  1.0000
  H   H569      1.0  0.02885  0.96459  0.16656  1.0000
  C   C709      1.0  0.21115  0.75730  0.19651  1.0000
  C   C710      1.0  0.02416  0.97910  0.04546  1.0000
  H   H570      1.0  0.16799  0.68862  0.11059  1.0000
  H   H571      1.0  0.22633  0.74730  0.29912  1.0000
  H   H572      1.0  0.23267  0.69891  0.09162  1.0000
  H   H573      1.0  0.23442  0.87258  0.99222  1.0000
  C   C711      1.0  0.01672  0.89524  0.04213  1.0000
  C   C712      1.0  0.02794  0.90880  0.03669  1.0000
  C   C713      1.0  0.02161  0.92395  0.02343  1.0000
  P   P22       1.0  0.14907  0.93928  0.03040  1.0000
  C   C714      1.0  0.15259  0.95343  0.08373  1.0000
  H   H574      1.0  0.04558  0.97621  0.39833  1.0000
  H   H575      1.0  0.17326  0.95410  0.98949  1.0000
  H   H576      1.0  0.22668  0.68768  0.36826  1.0000
  H   H577      1.0  0.16408  0.97700  0.43485  1.0000
  S   S110      1.0  0.22985  0.85371  0.04547  1.0000
  P   P23       1.0  0.21685  0.71646  0.14152  1.0000
  H   H578      1.0  0.22531  0.79896  0.34153  1.0000
  H   H579      1.0  0.00575  0.90088  0.47360  1.0000
  H   H580      1.0  0.24055  0.77157  0.35686  1.0000
  C   C715      1.0  0.08103  0.98217  0.01965  1.0000
  C   C716      1.0  0.19122  0.71562  0.38404  1.0000
  H   H581      1.0  0.22898  0.77804  0.20426  1.0000
  C   C717      1.0  0.01388  0.96526  0.03727  1.0000
  H   H582      1.0  0.15302  0.68838  0.06464  1.0000
  C   C718      1.0  0.00235  0.96819  0.18109  1.0000
  H   H583      1.0  0.14357  0.81481  0.40331  1.0000
  H   H584      1.0  0.02160  0.88362  0.05279  1.0000
  H   H585      1.0  0.04151  0.90762  0.04303  1.0000
  C   C719      1.0  0.23871  0.77575  0.37825  1.0000
  C   C720      1.0  0.03789  0.96421  0.43670  1.0000
  H   H586      1.0  0.19252  0.75443  0.41815  1.0000
  H   H587      1.0  0.22032  0.88906  0.13254  1.0000
  H   H588      1.0  0.02909  0.97967  0.06665  1.0000
  H   H589      1.0  0.16270  0.86632  0.39900  1.0000
  C   C721      1.0  0.10261  0.86092  0.47003  1.0000
  C   C722      1.0  0.23355  0.69980  0.36821  1.0000
  H   H590      1.0  0.19950  0.71163  0.47691  1.0000
  H   H591      1.0  0.22522  0.68772  0.18058  1.0000
  H   H592      1.0  0.01070  0.95543  0.05238  1.0000
  C   C723      1.0  0.17379  0.86945  0.24809  1.0000
  C   C724      1.0  0.18743  0.85688  0.24886  1.0000
  H   H593      1.0  0.18562  0.72369  0.42617  1.0000
  C   C725      1.0  0.18488  0.85296  0.19898  1.0000
  C   C726      1.0  0.17150  0.86592  0.19781  1.0000
  C   C727      1.0  0.16582  0.87394  0.22272  1.0000
  P   P24       1.0  0.16189  0.87176  0.16445  1.0000
  C   C728      1.0  0.14255  0.88576  0.16876  1.0000
  C   C729      1.0  0.17684  0.88333  0.14276  1.0000
  C   C730      1.0  0.17034  0.89242  0.11937  1.0000
  C   C731      1.0  0.20590  0.80318  0.11952  1.0000
  H   H594      1.0  0.21104  0.79459  0.25578  1.0000
  H   H595      1.0  0.10168  0.83963  0.44084  1.0000
  C   C732      1.0  0.19494  0.88245  0.14762  1.0000
  C   C733      1.0  0.12604  0.88040  0.16005  1.0000
  C   C734      1.0  0.11129  0.89144  0.16351  1.0000
  C   C735      1.0  0.11285  0.90790  0.17557  1.0000
  C   C736      1.0  0.12922  0.91342  0.18403  1.0000
  C   C737      1.0  0.14407  0.90256  0.18015  1.0000
  C   C738      1.0  0.15645  0.85157  0.14753  1.0000
  C   C739      1.0  0.14683  0.83930  0.16208  1.0000
  C   C740      1.0  0.14242  0.82363  0.14927  1.0000
  C   C741      1.0  0.14770  0.82006  0.12194  1.0000
  C   C742      1.0  0.15747  0.83211  0.10745  1.0000
  C   C743      1.0  0.16188  0.84779  0.12015  1.0000
  H   H596      1.0  0.16950  0.87583  0.26716  1.0000
  C   C744      1.0  0.22058  0.80101  0.13664  1.0000
  C   C745      1.0  0.18403  0.78639  0.38018  1.0000
  H   H597      1.0  0.15525  0.88360  0.22289  1.0000
  H   H598      1.0  0.15648  0.89288  0.11480  1.0000
  C   C746      1.0  0.01776  0.97879  0.40494  1.0000
  C   C747      1.0  0.19975  0.89926  0.10586  1.0000
  C   C748      1.0  0.22186  0.77809  0.38944  1.0000
  H   H599      1.0  0.20048  0.87541  0.16519  1.0000
  H   H600      1.0  0.12442  0.86790  0.15008  1.0000
  H   H601      1.0  0.09863  0.88742  0.15617  1.0000
  H   H602      1.0  0.10139  0.91651  0.17796  1.0000
  H   H603      1.0  0.13030  0.92628  0.19323  1.0000
  H   H604      1.0  0.15674  0.90718  0.18625  1.0000
  H   H605      1.0  0.14257  0.84197  0.18322  1.0000
  H   H606      1.0  0.13478  0.81433  0.16046  1.0000
  H   H607      1.0  0.14414  0.80802  0.11186  1.0000
  C   C749      1.0  0.22028  0.73617  0.16114  1.0000
  C   C750      1.0  0.16469  0.96446  0.99737  1.0000
  C   C751      1.0  0.08626  0.88744  0.45725  1.0000
  C   C752      1.0  0.19290  0.84860  0.22431  1.0000
  H   H608      1.0  0.08269  0.85601  0.40727  1.0000
  C   C753      1.0  0.16009  0.89075  0.46978  1.0000
  H   H609      1.0  0.22734  0.75811  0.07153  1.0000
  C   C754      1.0  0.02415  0.96108  0.45489  1.0000
  C   C755      1.0  0.14621  0.93971  0.06761  1.0000
  C   C756      1.0  0.18175  0.90044  0.10112  1.0000
  H   H610      1.0  0.22358  0.78951  0.05811  1.0000
  S   S111      1.0  0.22882  0.84340  0.17705  1.0000
  S   S112      1.0  0.17345  0.82203  0.46466  1.0000
  C   C757      1.0  0.08202  0.96971  0.47100  1.0000
  H   H611      1.0  0.19384  0.80877  0.12792  1.0000
  H   H612      1.0  0.19384  0.85364  0.26841  1.0000
  S   S113      1.0  0.08389  0.98244  0.41784  1.0000
  C   C758      1.0  0.21119  0.68946  0.17913  1.0000
  H   H613      1.0  0.18942  0.84645  0.18019  1.0000
  C   C759      1.0  0.15475  0.80690  0.39654  1.0000
  H   H614      1.0  0.13057  0.91472  0.11986  1.0000
  C   C760      1.0  0.08111  0.87937  0.43238  1.0000
  H   H615      1.0  0.22891  0.70490  0.41170  1.0000
  C   C761      1.0  0.20077  0.73827  0.35303  1.0000
  C   C762      1.0  0.08666  0.86218  0.42651  1.0000
  C   C763      1.0  0.23219  0.83065  0.38737  1.0000
  C   C764      1.0  0.24528  0.74937  0.98087  1.0000
  H   H616      1.0  0.04202  0.96990  0.21293  1.0000
  H   H617      1.0  0.17892  0.71383  0.14738  1.0000
  H   H618      1.0  0.20186  0.76186  0.21207  1.0000
  H   H619      1.0  0.19632  0.73520  0.18491  1.0000
  C   C765      1.0  0.99790  0.93947  0.10714  1.0000
  H   H620      1.0  0.20925  0.87588  0.44670  1.0000
  C   C766      1.0  0.24520  0.85113  0.09731  1.0000
  C   C767      1.0  0.09737  0.85295  0.44534  1.0000
  H   H621      1.0  0.05107  0.95981  0.44186  1.0000
  H   H622      1.0  0.19781  0.81054  0.38152  1.0000
  C   C768      1.0  0.18820  0.71186  0.07002  1.0000
  C   C769      1.0  0.17407  0.89365  0.45170  1.0000
  C   C770      1.0  0.17890  0.89432  0.02207  1.0000
  C   C771      1.0  0.21771  0.79256  0.32572  1.0000
  C   C772      1.0  0.16770  0.77882  0.38356  1.0000
  C   C773      1.0  0.21976  0.79762  0.29804  1.0000
  C   C774      1.0  0.20945  0.79049  0.27719  1.0000
  C   C775      1.0  0.16476  0.90632  0.02253  1.0000
  C   C776      1.0  0.14022  0.97453  0.02578  1.0000
  C   C777      1.0  0.16750  0.92422  0.02590  1.0000
  H   H623      1.0  0.16701  0.92209  0.41755  1.0000
  C   C778      1.0  0.12970  0.93177  0.01341  1.0000
  C   C779      1.0  0.13867  0.92558  0.08091  1.0000
  H   H624      1.0  0.11179  0.94296  0.04410  1.0000
  C   C780      1.0  0.23124  0.70936  0.24593  1.0000
  C   C781      1.0  0.01715  0.97408  0.23335  1.0000
  C   C782      1.0  0.14299  0.93931  0.12575  1.0000
  H   H625      1.0  0.20521  0.74973  0.11525  1.0000
  C   C783      1.0  0.15082  0.95328  0.11270  1.0000
  C   C784      1.0  0.02050  0.96743  0.18437  1.0000
  C   C785      1.0  0.24209  0.83455  0.33897  1.0000
  P   P25       1.0  0.20284  0.77351  0.36875  1.0000
  C   C786      1.0  0.16174  0.87338  0.41856  1.0000
  S   S114      1.0  0.21684  0.81705  0.99385  1.0000
  C   C787      1.0  0.16644  0.98144  0.98735  1.0000
  C   C788      1.0  0.15184  0.96100  0.01721  1.0000
  C   C789      1.0  0.17479  0.69291  0.17588  1.0000
  H   H626      1.0  0.20366  0.83903  0.22473  1.0000
  C   C790      1.0  0.20703  0.79891  0.09128  1.0000
  C   C791      1.0  0.17541  0.75704  0.99197  1.0000
  C   C792      1.0  0.99640  0.92174  0.10100  1.0000
  C   C793      1.0  0.18215  0.72573  0.98716  1.0000
  C   C794      1.0  0.24163  0.89613  0.41283  1.0000
  C   C795      1.0  0.17101  0.93299  0.43015  1.0000
  C   C796      1.0  0.22277  0.79230  0.08020  1.0000
  H   H627      1.0  0.13813  0.86122  0.43145  1.0000
  C   C797      1.0  0.22076  0.91739  0.43199  1.0000
  H   H628      1.0  0.22568  0.72765  0.05598  1.0000
  C   C798      1.0  0.15635  0.67623  0.07519  1.0000
  H   H629      1.0  0.24463  0.74162  0.14058  1.0000
  C   C799      1.0  0.23473  0.78572  0.43391  1.0000
  H   H630      1.0  0.24390  0.73313  0.41134  1.0000
  C   C800      1.0  0.23827  0.76077  0.17181  1.0000
  C   C801      1.0  0.02838  0.99192  0.02623  1.0000
  C   C802      1.0  0.09939  0.92232  0.98492  1.0000
  H   H631      1.0  0.02692  0.95437  0.47422  1.0000
  C   C803      1.0  0.07723  0.98606  0.20924  1.0000
  H   H632      1.0  0.18538  0.97284  0.47347  1.0000
  C   C804      1.0  0.24211  0.69889  0.10831  1.0000
  H   H633      1.0  0.14160  0.92550  0.46096  1.0000
  C   C805      1.0  0.12974  0.92626  0.47309  1.0000
  C   C806      1.0  0.24528  0.84858  0.12638  1.0000
  H   H634      1.0  0.01534  0.98583  0.38567  1.0000
  C   C807      1.0  0.24327  0.72537  0.39247  1.0000
  H   H635      1.0  0.10621  0.96305  0.98199  1.0000
  H   H636      1.0  0.23601  0.86916  0.42011  1.0000
  H   H637      1.0  0.23952  0.69808  0.32471  1.0000
  C   C808      1.0  0.23613  0.91349  0.41718  1.0000
  C   C809      1.0  0.24445  0.82732  0.36578  1.0000
  C   C810      1.0  0.22778  0.73666  0.28437  1.0000
  C   C811      1.0  0.17087  0.74031  0.98281  1.0000
  C   C812      1.0  0.23629  0.79421  0.12567  1.0000
  C   C813      1.0  0.23738  0.78941  0.09743  1.0000
  C   C814      1.0  0.16935  0.96405  0.43969  1.0000
  H   H638      1.0  0.24377  0.92392  0.40894  1.0000
  H   H639      1.0  0.99694  0.96609  0.16060  1.0000
  C   C815      1.0  0.23935  0.75065  0.06799  1.0000
  C   C816      1.0  0.18802  0.94497  0.46783  1.0000
  H   H640      1.0  0.13649  0.87702  0.47652  1.0000
  Fe  Fe56      1.0  0.05029  0.93351  0.60696  1.0000
  S   S115      1.0  0.04826  0.96235  0.61168  1.0000
  S   S116      1.0  0.02546  0.91818  0.61117  1.0000
  Fe  Fe57      1.0  0.08984  0.93346  0.59672  1.0000
  S   S117      1.0  0.09008  0.96297  0.60160  1.0000
  S   S118      1.0  0.11629  0.91977  0.58463  1.0000
  Fe  Fe58      1.0  0.07222  0.96005  0.63873  1.0000
  C   C817      1.0  0.00179  0.93495  0.90497  1.0000
  Fe  Fe59      1.0  0.06598  0.96326  0.57482  1.0000
  H   H641      1.0  0.20712  0.78460  0.65809  1.0000
  S   S119      1.0  0.07354  0.93054  0.63598  1.0000
  S   S120      1.0  0.06657  0.93431  0.56798  1.0000
  H   H642      1.0  0.12862  0.97479  0.80566  1.0000
  C   C818      1.0  0.07597  0.96962  0.49862  1.0000
  C   C819      1.0  0.00888  0.97821  0.64970  1.0000
  Fe  Fe60      1.0  0.17042  0.83904  0.50347  1.0000
  H   H643      1.0  0.10242  0.97407  0.54269  1.0000
  S   S121      1.0  0.14362  0.85050  0.51851  1.0000
  C   C820      1.0  0.07976  0.96870  0.72845  1.0000
  H   H644      1.0  0.12894  0.89508  0.68049  1.0000
  S   S122      1.0  0.21742  0.67295  0.97162  1.0000
  Fe  Fe61      1.0  0.20916  0.83618  0.51599  1.0000
  H   H645      1.0  0.01934  0.97870  0.50306  1.0000
  Fe  Fe62      1.0  0.20186  0.82905  0.95803  1.0000
  S   S123      1.0  0.21415  0.82040  0.91626  1.0000
  S   S124      1.0  0.18680  0.82009  0.52968  1.0000
  H   H646      1.0  0.14351  0.92072  0.97784  1.0000
  C   C821      1.0  0.22288  0.82868  0.88468  1.0000
  P   P26       1.0  0.20776  0.71427  0.60308  1.0000
  H   H647      1.0  0.21577  0.86489  0.61228  1.0000
  H   H648      1.0  0.23196  0.77907  0.51081  1.0000
  H   H649      1.0  0.17645  0.98414  0.97221  1.0000
  H   H650      1.0  0.22047  0.88504  0.54553  1.0000
  H   H651      1.0  0.23574  0.68577  0.76454  1.0000
  C   C822      1.0  0.22115  0.82367  0.61941  1.0000
  C   C823      1.0  0.21973  0.82853  0.59129  1.0000
  H   H652      1.0  0.21073  0.81671  0.62905  1.0000
  H   H653      1.0  0.20820  0.82544  0.57955  1.0000
  C   C824      1.0  0.16378  0.67476  0.60660  1.0000
  C   C825      1.0  0.17131  0.68062  0.63126  1.0000
  C   C826      1.0  0.10696  0.96468  0.95962  1.0000
  H   H654      1.0  0.23356  0.80351  0.87221  1.0000
  H   H655      1.0  0.05560  0.93785  0.48298  1.0000
  C   C827      1.0  0.18356  0.91612  0.51738  1.0000
  H   H656      1.0  0.03248  0.93970  0.51892  1.0000
  C   C828      1.0  0.07765  0.98738  0.77025  1.0000
  H   H657      1.0  0.22786  0.88540  0.90566  1.0000
  C   C829      1.0  0.21943  0.71505  0.54792  1.0000
  C   C830      1.0  0.09917  0.92780  0.50474  1.0000
  H   H658      1.0  0.15321  0.66577  0.60738  1.0000
  S   S125      1.0  0.08185  0.99002  0.80672  1.0000
  H   H659      1.0  0.17729  0.93754  0.93633  1.0000
  H   H660      1.0  0.14130  0.94038  0.50697  1.0000
  H   H661      1.0  0.01846  0.97832  0.89637  1.0000
  H   H662      1.0  0.24065  0.68815  0.68240  1.0000
  H   H663      1.0  0.00747  0.97651  0.96933  1.0000
  H   H664      1.0  0.21177  0.72950  0.84767  1.0000
  C   C831      1.0  0.16992  0.83143  0.60060  1.0000
  C   C832      1.0  0.08227  0.97134  0.75736  1.0000
  C   C833      1.0  0.12348  0.90044  0.56596  1.0000
  C   C834      1.0  0.14144  0.89776  0.56022  1.0000
  C   C835      1.0  0.14788  0.88272  0.54580  1.0000
  C   C836      1.0  0.13645  0.86987  0.53714  1.0000
  C   C837      1.0  0.11851  0.87249  0.54307  1.0000
  C   C838      1.0  0.11204  0.88768  0.55705  1.0000
  H   H665      1.0  0.15044  0.90739  0.56713  1.0000
  H   H666      1.0  0.16170  0.88103  0.54155  1.0000
  H   H667      1.0  0.10949  0.86264  0.53689  1.0000
  H   H668      1.0  0.09823  0.88936  0.56136  1.0000
  H   H669      1.0  0.04235  0.97210  0.80080  1.0000
  C   C839      1.0  0.20045  0.76492  0.57774  1.0000
  C   C840      1.0  0.01664  0.94508  0.74660  1.0000
  H   H670      1.0  0.01409  0.95076  0.58444  1.0000
  C   C841      1.0  0.17177  0.75351  0.58481  1.0000
  H   H671      1.0  0.19355  0.88616  0.75379  1.0000
  C   C842      1.0  0.02500  0.95187  0.72340  1.0000
  C   C843      1.0  0.19029  0.95312  0.90601  1.0000
  H   H672      1.0  0.15635  0.87717  0.68255  1.0000
  C   C844      1.0  0.24218  0.76039  0.87421  1.0000
  C   C845      1.0  0.13483  0.98059  0.84851  1.0000
  C   C846      1.0  0.23692  0.90307  0.61214  1.0000
  C   C847      1.0  0.13021  0.98494  0.82112  1.0000
  C   C848      1.0  0.00468  0.92881  0.60706  1.0000
  H   H673      1.0  0.10801  0.97246  0.87998  1.0000
  C   C849      1.0  0.23889  0.69692  0.77730  1.0000
  C   C850      1.0  0.23518  0.87884  0.92211  1.0000
  H   H674      1.0  0.20427  0.69928  0.83659  1.0000
  H   H675      1.0  0.08769  0.92817  0.51775  1.0000
  H   H676      1.0  0.23912  0.69058  0.59895  1.0000
  C   C851      1.0  0.01331  0.97423  0.76645  1.0000
  C   C852      1.0  0.18973  0.75479  0.49039  1.0000
  C   C853      1.0  0.15217  0.91617  0.63153  1.0000
  H   H677      1.0  0.16695  0.76419  0.51263  1.0000
  H   H678      1.0  0.23373  0.74372  0.68485  1.0000
  C   C854      1.0  0.12079  0.97354  0.94807  1.0000
  C   C855      1.0  0.12959  0.93460  0.49899  1.0000
  H   H679      1.0  0.19004  0.69720  0.64977  1.0000
  C   C856      1.0  0.13990  0.89833  0.66750  1.0000
  C   C857      1.0  0.23357  0.76330  0.97538  1.0000
  H   H680      1.0  0.22416  0.73816  0.79267  1.0000
  C   C858      1.0  0.22774  0.85201  0.85146  1.0000
  H   H681      1.0  0.17281  0.92438  0.50996  1.0000
  C   C859      1.0  0.19243  0.72300  0.48491  1.0000
  H   H682      1.0  0.15768  0.75512  0.58357  1.0000
  C   C860      1.0  0.23075  0.71056  0.52604  1.0000
  H   H683      1.0  0.20367  0.91265  0.65702  1.0000
  C   C861      1.0  0.16098  0.95941  0.92299  1.0000
  C   C862      1.0  0.06480  0.98307  0.50823  1.0000
  C   C863      1.0  0.05280  0.92639  0.49509  1.0000
  C   C864      1.0  0.23845  0.71606  0.68616  1.0000
  C   C865      1.0  0.02774  0.96973  0.72184  1.0000
  H   H684      1.0  0.08801  0.96090  0.76979  1.0000
  C   C866      1.0  0.06600  0.98879  0.96674  1.0000
  H   H685      1.0  0.21716  0.71290  0.76259  1.0000
  C   C867      1.0  0.02076  0.99074  0.65763  1.0000
  H   H686      1.0  0.21837  0.78385  0.70658  1.0000
  C   C868      1.0  0.23207  0.77773  0.63975  1.0000
  H   H687      1.0  0.17641  0.77923  0.56907  1.0000
  S   S126      1.0  0.24507  0.84857  0.80125  1.0000
  C   C869      1.0  0.20919  0.85931  0.68946  1.0000
  C   C870      1.0  0.19774  0.87855  0.73582  1.0000
  C   C871      1.0  0.21833  0.87835  0.61717  1.0000
  P   P27       1.0  0.00723  0.98817  0.79557  1.0000
  H   H688      1.0  0.20139  0.90186  0.57843  1.0000
  H   H689      1.0  0.11426  0.94143  0.53519  1.0000
  H   H690      1.0  0.15033  0.95578  0.93623  1.0000
  C   C872      1.0  0.21581  0.85529  0.71591  1.0000
  H   H691      1.0  0.17811  0.90903  0.61828  1.0000
  C   C873      1.0  0.22431  0.77323  0.82732  1.0000
  C   C874      1.0  0.21159  0.90519  0.64226  1.0000
  C   C875      1.0  0.00730  0.98388  0.51194  1.0000
  C   C876      1.0  0.21933  0.71508  0.63607  1.0000
  C   C877      1.0  0.17868  0.86141  0.60316  1.0000
  H   H692      1.0  0.17149  0.81701  0.63898  1.0000
  C   C878      1.0  0.09431  0.96136  0.91382  1.0000
  H   H693      1.0  0.22347  0.68705  0.63915  1.0000
  H   H694      1.0  0.03494  0.97482  0.70444  1.0000
  H   H695      1.0  0.21650  0.88843  0.49519  1.0000
  H   H696      1.0  0.01492  0.93115  0.74807  1.0000
  C   C879      1.0  0.10822  0.97011  0.90214  1.0000
  C   C880      1.0  0.11432  0.93530  0.51482  1.0000
  H   H697      1.0  0.24146  0.70098  0.85829  1.0000
  C   C881      1.0  0.06266  0.91079  0.49127  1.0000
  H   H698      1.0  0.16502  0.82067  0.58855  1.0000
  C   C882      1.0  0.17361  0.97815  0.88844  1.0000
  H   H699      1.0  0.11103  0.85380  0.48459  1.0000
  C   C883      1.0  0.00273  0.94463  0.59281  1.0000
  H   H700      1.0  0.21548  0.86183  0.75955  1.0000
  H   H701      1.0  0.04825  0.96577  0.88891  1.0000
  C   C884      1.0  0.21010  0.86488  0.73911  1.0000
  Fe  Fe63      1.0  0.19166  0.80462  0.49018  1.0000
  H   H702      1.0  0.11685  0.91179  0.95355  1.0000
  C   C885      1.0  0.22583  0.69961  0.64850  1.0000
  C   C886      1.0  0.03965  0.92749  0.51528  1.0000
  C   C887      1.0  0.17967  0.84340  0.64454  1.0000
  H   H703      1.0  0.21414  0.77411  0.94775  1.0000
  H   H704      1.0  0.18200  0.84164  0.66659  1.0000
  C   C888      1.0  0.04622  0.89757  0.52846  1.0000
  C   C889      1.0  0.01105  0.95616  0.76824  1.0000
  H   H705      1.0  0.08371  0.95720  0.90069  1.0000
  C   C890      1.0  0.17675  0.72098  0.49920  1.0000
  H   H706      1.0  0.19972  0.97085  0.87522  1.0000
  H   H707      1.0  0.02976  0.94328  0.70688  1.0000
  C   C891      1.0  0.19454  0.90698  0.49854  1.0000
  H   H708      1.0  0.23834  0.72471  0.92319  1.0000
  H   H709      1.0  0.04400  0.88661  0.54206  1.0000
  C   C892      1.0  0.23583  0.82796  0.63526  1.0000
  H   H710      1.0  0.02535  0.94701  0.96143  1.0000
  H   H711      1.0  0.23250  0.68581  0.90073  1.0000
  H   H712      1.0  0.21409  0.85206  0.67159  1.0000
  H   H713      1.0  0.24134  0.87834  0.59148  1.0000
  C   C893      1.0  0.23155  0.73146  0.67453  1.0000
  C   C894      1.0  0.20335  0.70401  0.85785  1.0000
  H   H714      1.0  0.02863  0.94164  0.91108  1.0000
  C   C895      1.0  0.03641  0.91310  0.53201  1.0000
  H   H715      1.0  0.20855  0.77541  0.57103  1.0000
  H   H716      1.0  0.18770  0.69684  0.55980  1.0000
  H   H717      1.0  0.19742  0.94340  0.48460  1.0000
  C   C896      1.0  0.03659  0.97292  0.82139  1.0000
  C   C897      1.0  0.15954  0.97417  0.90573  1.0000
  C   C898      1.0  0.19784  0.69290  0.87883  1.0000
  C   C899      1.0  0.19684  0.69883  0.90633  1.0000
  C   C900      1.0  0.20140  0.71584  0.91293  1.0000
  C   C901      1.0  0.20679  0.72718  0.89195  1.0000
  C   C902      1.0  0.20769  0.72114  0.86430  1.0000
  P   P28       1.0  0.21190  0.74941  0.90064  1.0000
  C   C903      1.0  0.19213  0.76246  0.90632  1.0000
  C   C904      1.0  0.22495  0.74944  0.93208  1.0000
  C   C905      1.0  0.22962  0.88040  0.94973  1.0000
  H   H718      1.0  0.13699  0.96700  0.85396  1.0000
  C   C906      1.0  0.07265  0.98214  0.71186  1.0000
  C   C907      1.0  0.19226  0.78061  0.90264  1.0000
  C   C908      1.0  0.17732  0.79099  0.90816  1.0000
  C   C909      1.0  0.16211  0.78336  0.91747  1.0000
  C   C910      1.0  0.16182  0.76530  0.92110  1.0000
  C   C911      1.0  0.17676  0.75487  0.91561  1.0000
  C   C912      1.0  0.22399  0.75898  0.87253  1.0000
  C   C913      1.0  0.21512  0.76542  0.84885  1.0000
  H   H719      1.0  0.22602  0.86558  0.84572  1.0000
  C   C914      1.0  0.19102  0.88257  0.70935  1.0000
  H   H720      1.0  0.20213  0.94497  0.90601  1.0000
  C   C915      1.0  0.23544  0.70013  0.67326  1.0000
  C   C916      1.0  0.23191  0.81709  0.86650  1.0000
  H   H721      1.0  0.19444  0.67963  0.87388  1.0000
  H   H722      1.0  0.19250  0.69020  0.92258  1.0000
  H   H723      1.0  0.20049  0.72018  0.93440  1.0000
  S   S127      1.0  0.06965  0.97994  0.67498  1.0000
  H   H724      1.0  0.20811  0.72346  0.54353  1.0000
  P   P29       1.0  0.18892  0.87822  0.65140  1.0000
  H   H725      1.0  0.01326  0.96697  0.63756  1.0000
  H   H726      1.0  0.20402  0.78686  0.89606  1.0000
  H   H727      1.0  0.17772  0.80503  0.90573  1.0000
  H   H728      1.0  0.15065  0.79148  0.92221  1.0000
  H   H729      1.0  0.15010  0.75939  0.92869  1.0000
  H   H730      1.0  0.17625  0.74099  0.91918  1.0000
  H   H731      1.0  0.20106  0.76456  0.84716  1.0000
  C   C917      1.0  0.04007  0.96919  0.87117  1.0000
  H   H732      1.0  0.13071  0.97849  0.96172  1.0000
  H   H733      1.0  0.23400  0.80377  0.54395  1.0000
  C   C918      1.0  0.02182  0.98093  0.74309  1.0000
  C   C919      1.0  0.18230  0.76710  0.57666  1.0000
  H   H734      1.0  0.16360  0.67661  0.56178  1.0000
  H   H735      1.0  0.08007  0.95930  0.51265  1.0000
  C   C920      1.0  0.18477  0.69247  0.63035  1.0000
  C   C921      1.0  0.01410  0.94324  0.94939  1.0000
  C   C922      1.0  0.18340  0.69230  0.57992  1.0000
  C   C923      1.0  0.17354  0.82940  0.62898  1.0000
  C   C924      1.0  0.16964  0.89236  0.65168  1.0000
  Fe  Fe64      1.0  0.18121  0.67409  0.49185  1.0000
  C   C925      1.0  0.19763  0.73527  0.59461  1.0000
  H   H736      1.0  0.12602  0.91975  0.64738  1.0000
  C   C926      1.0  0.23679  0.69673  0.57909  1.0000
  S   S128      1.0  0.23639  0.82206  0.67074  1.0000
  C   C927      1.0  0.23669  0.84041  0.83320  1.0000
  C   C928      1.0  0.22702  0.78065  0.68936  1.0000
  C   C929      1.0  0.20810  0.74910  0.58669  1.0000
  C   C930      1.0  0.13825  0.91226  0.64892  1.0000
  C   C931      1.0  0.19107  0.69824  0.60462  1.0000
  H   H737      1.0  0.00032  0.98771  0.85653  1.0000
  C   C932      1.0  0.22839  0.71216  0.77636  1.0000
  C   C933      1.0  0.15547  0.88830  0.66872  1.0000
  C   C934      1.0  0.16971  0.68074  0.58097  1.0000
  H   H738      1.0  0.06687  0.88429  0.50612  1.0000
  H   H739      1.0  0.06002  0.96263  0.84094  1.0000
  C   C935      1.0  0.17937  0.73765  0.59380  1.0000
  C   C936      1.0  0.01306  0.98181  0.85256  1.0000
  H   H740      1.0  0.22556  0.84482  0.71837  1.0000
  H   H741      1.0  0.18027  0.87381  0.59291  1.0000
  C   C937      1.0  0.22070  0.78107  0.66203  1.0000
  H   H742      1.0  0.22691  0.77841  0.61883  1.0000
  S   S129      1.0  0.19277  0.85560  0.49129  1.0000
  H   H743      1.0  0.08355  0.95635  0.71896  1.0000
  H   H744      1.0  0.08275  0.95214  0.95159  1.0000
  C   C938      1.0  0.17243  0.84746  0.58775  1.0000
  C   C939      1.0  0.23303  0.83769  0.57870  1.0000
  H   H745      1.0  0.21740  0.77841  0.80927  1.0000
  H   H746      1.0  0.17777  0.92162  0.56048  1.0000
  H   H747      1.0  0.15557  0.73457  0.52045  1.0000
  H   H748      1.0  0.21371  0.85520  0.89044  1.0000
  C   C940      1.0  0.16770  0.73597  0.50933  1.0000
  C   C941      1.0  0.22083  0.84619  0.87695  1.0000
  C   C942      1.0  0.18253  0.85944  0.63161  1.0000
  C   C943      1.0  0.05929  0.89637  0.50815  1.0000
  H   H749      1.0  0.22218  0.74746  0.58681  1.0000
  C   C944      1.0  0.17412  0.75280  0.50493  1.0000
  H   H750      1.0  0.08769  0.91846  0.97417  1.0000
  C   C945      1.0  0.21034  0.89399  0.53772  1.0000
  C   C946      1.0  0.16778  0.90620  0.63271  1.0000
  H   H751      1.0  0.00332  0.93257  0.88283  1.0000
  C   C947      1.0  0.22201  0.73103  0.64965  1.0000
  C   C948      1.0  0.17631  0.94897  0.92312  1.0000
  H   H752      1.0  0.16658  0.67615  0.65114  1.0000
  H   H753      1.0  0.02674  0.91420  0.54847  1.0000
  H   H754      1.0  0.15054  0.92663  0.61651  1.0000
  C   C949      1.0  0.22338  0.76332  0.95117  1.0000
  C   C950      1.0  0.01603  0.94013  0.92084  1.0000
  H   H755      1.0  0.17090  0.72723  0.59945  1.0000
  C   C951      1.0  0.09374  0.95855  0.94250  1.0000
  S   S130      1.0  0.23119  0.84495  0.54388  1.0000
  H   H756      1.0  0.21798  0.88819  0.95477  1.0000
  C   C952      1.0  0.20736  0.88807  0.63525  1.0000
  C   C953      1.0  0.04670  0.96744  0.84420  1.0000
  C   C954      1.0  0.19647  0.87271  0.68603  1.0000
  H   H757      1.0  0.21684  0.74317  0.64122  1.0000
  H   H758      1.0  0.18187  0.89353  0.70720  1.0000
  H   H759      1.0  0.16933  0.84913  0.56587  1.0000
  H   H760      1.0  0.00521  0.95064  0.78659  1.0000
  C   C955      1.0  0.23232  0.72636  0.79330  1.0000
  C   C956      1.0  0.01966  0.98019  0.82533  1.0000
  H   H761      1.0  0.15917  0.89713  0.48985  1.0000
  H   H762      1.0  0.13053  0.96995  0.56794  1.0000
  C   C957      1.0  0.22250  0.70838  0.57484  1.0000
  H   H763      1.0  0.15830  0.73857  0.97307  1.0000
  S   S131      1.0  0.05763  0.98382  0.54307  1.0000
  C   C958      1.0  0.23876  0.82288  0.84095  1.0000
  C   C959      1.0  0.18893  0.96770  0.88866  1.0000
  C   C960      1.0  0.02325  0.97634  0.87534  1.0000
  S   S132      1.0  0.16789  0.70007  0.50443  1.0000
  C   C961      1.0  0.00009  0.91176  0.48528  1.0000
  C   C962      1.0  0.12165  0.97623  0.91921  1.0000
  C   C963      1.0  0.23691  0.73557  0.93758  1.0000
  H   H764      1.0  0.22817  0.71563  0.50537  1.0000
  C   C964      1.0  0.19952  0.90333  0.55624  1.0000
  C   C965      1.0  0.18620  0.91446  0.54609  1.0000
  H   H765      1.0  0.04977  0.96718  0.97606  1.0000
  C   C966      1.0  0.23297  0.88590  0.60550  1.0000
  C   C967      1.0  0.20799  0.89592  0.50900  1.0000
  C   C968      1.0  0.22626  0.91270  0.63058  1.0000
  C   C969      1.0  0.23939  0.79098  0.54952  1.0000
  C   C970      1.0  0.24466  0.77665  0.69445  1.0000
  C   C971      1.0  0.23886  0.87159  0.97082  1.0000
  H   H766      1.0  0.22955  0.92589  0.63616  1.0000
  C   C972      1.0  0.24238  0.77477  0.82932  1.0000
  C   C973      1.0  0.23834  0.77709  0.53078  1.0000
  S   S133      1.0  0.17636  0.81765  0.97137  1.0000
  H   H767      1.0  0.17273  0.98933  0.87470  1.0000
  C   C974      1.0  0.19888  0.73978  0.48059  1.0000
  H   H768      1.0  0.15306  0.99243  0.56447  1.0000
  S   S134      1.0  0.19852  0.77551  0.48350  1.0000
  H   H769      1.0  0.24487  0.75002  0.52302  1.0000
  C   C975      1.0  0.11581  0.91858  0.97333  1.0000
  C   C976      1.0  0.13574  0.99365  0.86898  1.0000
  H   H770      1.0  0.10143  0.88416  0.49505  1.0000
  H   H771      1.0  0.23966  0.79682  0.94825  1.0000
  P   P30       1.0  0.13980  0.98777  0.90492  1.0000
  C   C977      1.0  0.12808  0.98158  0.55554  1.0000
  S   S135      1.0  0.05590  0.99246  0.93403  1.0000
  C   C978      1.0  0.11224  0.98388  0.54137  1.0000
  H   H772      1.0  0.03437  0.98929  0.65159  1.0000
  C   C979      1.0  0.24510  0.69923  0.53069  1.0000
  C   C980      1.0  0.14071  0.99428  0.55368  1.0000
  C   C981      1.0  0.99778  0.94155  0.96221  1.0000
  H   H773      1.0  0.99586  0.89651  0.52216  1.0000
  S   S136      1.0  0.21537  0.81964  0.47848  1.0000
  S   S137      1.0  0.17489  0.70478  0.97815  1.0000
  C   C982      1.0  0.09906  0.91983  0.47840  1.0000
  Fe  Fe65      1.0  0.26091  0.15350  0.26554  1.0000
  S   S138      1.0  0.28799  0.15432  0.28289  1.0000
  C   C983      1.0  0.25352  0.29604  0.38293  1.0000
  Fe  Fe66      1.0  0.27319  0.15104  0.20444  1.0000
  S   S139      1.0  0.30158  0.15132  0.21840  1.0000
  H   H774      1.0  0.26452  0.30126  0.39401  1.0000
  Fe  Fe67      1.0  0.29485  0.13260  0.25282  1.0000
  S   S140      1.0  0.30821  0.10638  0.26702  1.0000
  Fe  Fe68      1.0  0.29261  0.17300  0.24760  1.0000
  S   S141      1.0  0.30880  0.19662  0.25793  1.0000
  S   S142      1.0  0.26701  0.13079  0.23680  1.0000
  S   S143      1.0  0.26495  0.17367  0.23224  1.0000
  C   C984      1.0  0.24747  0.09848  0.34531  1.0000
  H   H775      1.0  0.40647  0.05642  0.27224  1.0000
  Fe  Fe69      1.0  0.29295  0.30465  0.24487  1.0000
  S   S144      1.0  0.30796  0.28012  0.25955  1.0000
  C   C985      1.0  0.25616  0.25191  0.41777  1.0000
  Fe  Fe70      1.0  0.39157  0.01798  0.39485  1.0000
  S   S145      1.0  0.40335  0.04403  0.38677  1.0000
  S   S146      1.0  0.38271  0.01135  0.43955  1.0000
  Fe  Fe71      1.0  0.39694  0.00742  0.33322  1.0000
  S   S147      1.0  0.41003  0.03215  0.32214  1.0000
  H   H776      1.0  0.27448  0.15846  0.00047  1.0000
  Fe  Fe72      1.0  0.42421  0.02886  0.36308  1.0000
  S   S148      1.0  0.45268  0.02809  0.37735  1.0000
  Fe  Fe73      1.0  0.38783  0.04533  0.34645  1.0000
  S   S149      1.0  0.37529  0.07146  0.33029  1.0000
  C   C986      1.0  0.39712  0.00293  0.22416  1.0000
  S   S150      1.0  0.37429  0.02038  0.35628  1.0000
  H   H777      1.0  0.36296  0.00959  0.29629  1.0000
  H   H778      1.0  0.37160  0.01122  0.14279  1.0000
  C   C987      1.0  0.36050  0.02015  0.14601  1.0000
  C   C988      1.0  0.25126  0.14976  0.13066  1.0000
  H   H779      1.0  0.37419  0.03949  0.29454  1.0000
  C   C989      1.0  0.25198  0.23786  0.40067  1.0000
  C   C990      1.0  0.47270  0.03196  0.36053  1.0000
  C   C991      1.0  0.47367  0.04231  0.33675  1.0000
  C   C992      1.0  0.41427  0.05298  0.20271  1.0000
  H   H780      1.0  0.46185  0.04802  0.32776  1.0000
  H   H781      1.0  0.24634  0.17497  0.00413  1.0000
  C   C993      1.0  0.32685  0.09719  0.28525  1.0000
  C   C994      1.0  0.34135  0.10690  0.29258  1.0000
  C   C995      1.0  0.35591  0.09881  0.30627  1.0000
  C   C996      1.0  0.35635  0.08089  0.31291  1.0000
  C   C997      1.0  0.34186  0.07120  0.30549  1.0000
  C   C998      1.0  0.32729  0.07927  0.29189  1.0000
  H   H782      1.0  0.34139  0.12063  0.28755  1.0000
  H   H783      1.0  0.36698  0.10654  0.31173  1.0000
  H   H784      1.0  0.34185  0.05745  0.31019  1.0000
  H   H785      1.0  0.31624  0.07154  0.28644  1.0000
  C   C999      1.0  0.30659  0.21985  0.25769  1.0000
  C   C1000     1.0  0.31877  0.22890  0.27338  1.0000
  C   C1001     1.0  0.31862  0.24717  0.27367  1.0000
  C   C1002     1.0  0.30633  0.25698  0.25818  1.0000
  C   C1003     1.0  0.29391  0.24809  0.24235  1.0000
  C   C1004     1.0  0.29404  0.22951  0.24212  1.0000
  H   H786      1.0  0.32863  0.22171  0.28523  1.0000
  H   H787      1.0  0.32833  0.25377  0.28579  1.0000
  H   H788      1.0  0.28449  0.25550  0.22999  1.0000
  H   H789      1.0  0.28475  0.22269  0.22950  1.0000
  H   H790      1.0  0.38705  0.11322  0.19883  1.0000
  C   C1005     1.0  0.26424  0.23085  0.38158  1.0000
  C   C1006     1.0  0.45033  0.99516  0.43205  1.0000
  H   H791      1.0  0.29035  0.23340  0.36508  1.0000
  C   C1007     1.0  0.27372  0.10556  0.42811  1.0000
  H   H792      1.0  0.26582  0.29738  0.34272  1.0000
  H   H793      1.0  0.28967  0.15681  0.37120  1.0000
  H   H794      1.0  0.39451  0.06663  0.22717  1.0000
  H   H795      1.0  0.45622  0.04188  0.43829  1.0000
  H   H796      1.0  0.30422  0.07215  0.43021  1.0000
  H   H797      1.0  0.26523  0.14480  0.33064  1.0000
  C   C1008     1.0  0.44073  0.00640  0.01211  1.0000
  H   H798      1.0  0.27178  0.11319  0.29167  1.0000
  C   C1009     1.0  0.49007  0.04576  0.32514  1.0000
  S   S151      1.0  0.26817  0.15129  0.15663  1.0000
  H   H799      1.0  0.48868  0.99574  0.15070  1.0000
  H   H800      1.0  0.39761  0.01544  0.21390  1.0000
  C   C1010     1.0  0.26866  0.10828  0.31212  1.0000
  H   H801      1.0  0.48747  0.01674  0.39050  1.0000
  C   C1011     1.0  0.29004  0.16959  0.36183  1.0000
  C   C1012     1.0  0.47075  0.01223  0.02357  1.0000
  H   H802      1.0  0.48378  0.01567  0.01785  1.0000
  H   H803      1.0  0.39742  0.01409  0.26559  1.0000
  C   C1013     1.0  0.48819  0.02486  0.37225  1.0000
  H   H804      1.0  0.44600  0.00761  0.42357  1.0000
  C   C1014     1.0  0.29385  0.08115  0.43675  1.0000
  C   C1015     1.0  0.27263  0.25909  0.41605  1.0000
  C   C1016     1.0  0.45722  0.01200  0.00370  1.0000
  C   C1017     1.0  0.27634  0.18179  0.36633  1.0000
  H   H805      1.0  0.30324  0.03789  0.33966  1.0000
  H   H806      1.0  0.26839  0.11570  0.41466  1.0000
  C   C1018     1.0  0.41418  0.05115  0.45630  1.0000
  C   C1019     1.0  0.45780  0.00955  0.19778  1.0000
  C   C1020     1.0  0.44244  0.02874  0.47128  1.0000
  C   C1021     1.0  0.27642  0.19819  0.35338  1.0000
  C   C1022     1.0  0.25330  0.14605  0.34253  1.0000
  C   C1023     1.0  0.43776  0.00156  0.03969  1.0000
  C   C1024     1.0  0.42770  0.04126  0.25371  1.0000
  H   H807      1.0  0.40906  0.05752  0.18295  1.0000
  S   S152      1.0  0.30294  0.32434  0.21427  1.0000
  C   C1025     1.0  0.48808  0.06189  0.24390  1.0000
  C   C1026     1.0  0.42926  0.04203  0.20337  1.0000
  C   C1027     1.0  0.45377  0.00040  0.30834  1.0000
  C   C1028     1.0  0.45231  0.00648  0.25863  1.0000
  H   H808      1.0  0.43557  0.03843  0.18395  1.0000
  C   C1029     1.0  0.25469  0.21246  0.29981  1.0000
  C   C1030     1.0  0.41279  0.05230  0.25299  1.0000
  C   C1031     1.0  0.25141  0.10486  0.31893  1.0000
  C   C1032     1.0  0.36686  0.10078  0.22181  1.0000
  C   C1033     1.0  0.37898  0.10191  0.20026  1.0000
  C   C1034     1.0  0.38053  0.08857  0.18040  1.0000
  C   C1035     1.0  0.37001  0.07404  0.18215  1.0000
  C   C1036     1.0  0.35781  0.07283  0.20381  1.0000
  C   C1037     1.0  0.35628  0.08635  0.22350  1.0000
  P   P31       1.0  0.34364  0.05454  0.20630  1.0000
  C   C1038     1.0  0.32172  0.06357  0.21105  1.0000
  C   C1039     1.0  0.34491  0.04167  0.17473  1.0000
  C   C1040     1.0  0.33189  0.04322  0.15415  1.0000
  C   C1041     1.0  0.33320  0.03325  0.12974  1.0000
  C   C1042     1.0  0.34749  0.02173  0.12566  1.0000
  H   H809      1.0  0.29763  0.25794  0.39554  1.0000
  C   C1043     1.0  0.35922  0.03001  0.17051  1.0000
  C   C1044     1.0  0.31018  0.05618  0.23001  1.0000
  C   C1045     1.0  0.29352  0.06377  0.23419  1.0000
  C   C1046     1.0  0.28827  0.07876  0.21952  1.0000
  C   C1047     1.0  0.29963  0.08614  0.20054  1.0000
  C   C1048     1.0  0.31629  0.07861  0.19631  1.0000
  C   C1049     1.0  0.34992  0.04042  0.23495  1.0000
  C   C1050     1.0  0.36105  0.04608  0.25616  1.0000
  C   C1051     1.0  0.36567  0.03498  0.27819  1.0000
  C   C1052     1.0  0.35919  0.01820  0.27932  1.0000
  C   C1053     1.0  0.34809  0.01246  0.25836  1.0000
  C   C1054     1.0  0.34355  0.02346  0.23613  1.0000
  H   H810      1.0  0.36546  0.11117  0.23712  1.0000
  H   H811      1.0  0.38979  0.08958  0.16351  1.0000
  H   H812      1.0  0.37134  0.06396  0.16643  1.0000
  H   H813      1.0  0.34675  0.08580  0.24007  1.0000
  H   H814      1.0  0.32072  0.05207  0.15677  1.0000
  H   H815      1.0  0.32312  0.03449  0.11391  1.0000
  H   H816      1.0  0.48731  0.07602  0.24366  1.0000
  H   H817      1.0  0.26559  0.13829  0.38116  1.0000
  H   H818      1.0  0.36945  0.02856  0.18606  1.0000
  H   H819      1.0  0.31407  0.04485  0.24212  1.0000
  H   H820      1.0  0.28481  0.05833  0.24935  1.0000
  H   H821      1.0  0.27558  0.08497  0.22339  1.0000
  H   H822      1.0  0.29568  0.09804  0.18973  1.0000
  H   H823      1.0  0.32501  0.08473  0.18188  1.0000
  H   H824      1.0  0.36610  0.05906  0.25616  1.0000
  H   H825      1.0  0.49072  0.05415  0.30720  1.0000
  H   H826      1.0  0.46167  0.05937  0.22993  1.0000
  H   H827      1.0  0.25510  0.24307  0.24877  1.0000
  H   H828      1.0  0.33497  0.01880  0.21998  1.0000
  C   C1055     1.0  0.25555  0.15181  0.10229  1.0000
  H   H829      1.0  0.49064  0.01147  0.24695  1.0000
  H   H830      1.0  0.25553  0.25040  0.33719  1.0000
  C   C1056     1.0  0.27206  0.21914  0.02734  1.0000
  P   P32       1.0  0.25835  0.21385  0.35737  1.0000
  H   H831      1.0  0.24646  0.25747  0.43198  1.0000
  C   C1057     1.0  0.28696  0.09395  0.41853  1.0000
  H   H832      1.0  0.43026  0.00429  0.19392  1.0000
  P   P33       1.0  0.29556  0.09614  0.38365  1.0000
  C   C1058     1.0  0.27813  0.09956  0.35852  1.0000
  C   C1059     1.0  0.31004  0.11429  0.38220  1.0000
  C   C1060     1.0  0.32289  0.11480  0.36142  1.0000
  C   C1061     1.0  0.33435  0.12858  0.36040  1.0000
  C   C1062     1.0  0.33311  0.14198  0.38011  1.0000
  C   C1063     1.0  0.32031  0.14167  0.40076  1.0000
  C   C1064     1.0  0.30878  0.12792  0.40181  1.0000
  C   C1065     1.0  0.28195  0.10573  0.33180  1.0000
  H   H833      1.0  0.48033  0.04555  0.99542  1.0000
  C   C1066     1.0  0.43024  0.05244  0.44291  1.0000
  C   C1067     1.0  0.39695  0.00221  0.25348  1.0000
  C   C1068     1.0  0.26080  0.09557  0.36491  1.0000
  C   C1069     1.0  0.30779  0.07644  0.37412  1.0000
  C   C1070     1.0  0.32533  0.07407  0.38239  1.0000
  C   C1071     1.0  0.33480  0.05882  0.37522  1.0000
  C   C1072     1.0  0.32680  0.04573  0.36003  1.0000
  C   C1073     1.0  0.30936  0.04796  0.35174  1.0000
  C   C1074     1.0  0.29986  0.06324  0.35876  1.0000
  H   H834      1.0  0.45751  0.00421  0.32921  1.0000
  C   C1075     1.0  0.25473  0.23761  0.26954  1.0000
  H   H835      1.0  0.25944  0.21636  0.11881  1.0000
  H   H836      1.0  0.48581  0.01247  0.19425  1.0000
  H   H837      1.0  0.32417  0.10447  0.34604  1.0000
  H   H838      1.0  0.34424  0.12880  0.34431  1.0000
  H   H839      1.0  0.34202  0.15265  0.37927  1.0000
  H   H840      1.0  0.31927  0.15214  0.41594  1.0000
  H   H841      1.0  0.29900  0.12805  0.41798  1.0000
  H   H842      1.0  0.29517  0.10857  0.32591  1.0000
  H   H843      1.0  0.46433  0.02296  0.28950  1.0000
  H   H844      1.0  0.25458  0.21101  0.25504  1.0000
  H   H845      1.0  0.33176  0.08404  0.39426  1.0000
  H   H846      1.0  0.34845  0.05726  0.38107  1.0000
  H   H847      1.0  0.33424  0.03400  0.35432  1.0000
  H   H848      1.0  0.37035  0.00272  0.99359  1.0000
  H   H849      1.0  0.28639  0.06474  0.35211  1.0000
  C   C1076     1.0  0.28493  0.25222  0.39720  1.0000
  C   C1077     1.0  0.44423  0.04116  0.45007  1.0000
  H   H850      1.0  0.44877  0.99849  0.08067  1.0000
  H   H851      1.0  0.40314  0.05945  0.45003  1.0000
  S   S153      1.0  0.26561  0.30590  0.22815  1.0000
  C   C1078     1.0  0.25348  0.14239  0.37125  1.0000
  C   C1079     1.0  0.44314  0.00256  0.18483  1.0000
  H   H852      1.0  0.25186  0.23782  0.03801  1.0000
  H   H853      1.0  0.26556  0.17808  0.37921  1.0000
  H   H854      1.0  0.25696  0.11328  0.46224  1.0000
  H   H855      1.0  0.34304  0.99948  0.25939  1.0000
  Fe  Fe74      1.0  0.26138  0.32764  0.25929  1.0000
  C   C1080     1.0  0.39216  0.99753  0.46619  1.0000
  C   C1081     1.0  0.47353  0.05237  0.23620  1.0000
  C   C1082     1.0  0.27924  0.20240  0.03181  1.0000
  C   C1083     1.0  0.25522  0.22341  0.32329  1.0000
  C   C1084     1.0  0.47425  0.00715  0.18512  1.0000
  C   C1085     1.0  0.25422  0.29389  0.35406  1.0000
  C   C1086     1.0  0.28077  0.23819  0.38000  1.0000
  H   H856      1.0  0.26888  0.15444  0.09679  1.0000
  H   H857      1.0  0.27838  0.22792  0.01323  1.0000
  C   C1087     1.0  0.40604  0.05808  0.22752  1.0000
  C   C1088     1.0  0.26724  0.10424  0.45517  1.0000
  C   C1089     1.0  0.45765  0.01098  0.28567  1.0000
  S   S154      1.0  0.41268  0.00297  0.37223  1.0000
  H   H858      1.0  0.43015  0.00527  0.99745  1.0000
  H   H859      1.0  0.25743  0.09031  0.38497  1.0000
  P   P34       1.0  0.45519  0.02154  0.23016  1.0000
  C   C1090     1.0  0.29047  0.20206  0.33584  1.0000
  C   C1091     1.0  0.30412  0.18984  0.33150  1.0000
  C   C1092     1.0  0.30388  0.17358  0.34435  1.0000
  H   H860      1.0  0.29073  0.21433  0.32472  1.0000
  H   H861      1.0  0.31462  0.19279  0.31732  1.0000
  H   H862      1.0  0.31414  0.16390  0.34002  1.0000
  C   C1093     1.0  0.47595  0.99773  0.16019  1.0000
  H   H863      1.0  0.24866  0.19791  0.41029  1.0000
  C   C1094     1.0  0.25440  0.21956  0.27306  1.0000
  C   C1095     1.0  0.48026  0.02438  0.46974  1.0000
  H   H864      1.0  0.34853  0.01403  0.10671  1.0000
  C   C1096     1.0  0.43593  0.03584  0.22891  1.0000
  H   H865      1.0  0.27574  0.27014  0.42904  1.0000
  C   C1097     1.0  0.48986  0.02551  0.24592  1.0000
  C   C1098     1.0  0.25505  0.24160  0.31959  1.0000
  C   C1099     1.0  0.48879  0.03972  0.97963  1.0000
  H   H866      1.0  0.43280  0.03704  0.27368  1.0000
  H   H867      1.0  0.24724  0.32114  0.05515  1.0000
  H   H868      1.0  0.29107  0.19816  0.02107  1.0000
  H   H869      1.0  0.43168  0.06171  0.42616  1.0000
  C   C1100     1.0  0.47429  0.03407  0.23740  1.0000
  H   H870      1.0  0.24651  0.25786  0.99640  1.0000
  H   H871      1.0  0.25554  0.26259  0.28979  1.0000
  H   H872      1.0  0.32625  0.32152  0.36806  1.0000
  C   C1101     1.0  0.49183  0.01704  0.45000  1.0000
  H   H873      1.0  0.48935  0.00460  0.44039  1.0000
  C   C1102     1.0  0.25498  0.24862  0.29274  1.0000
  H   H874      1.0  0.25509  0.19837  0.30212  1.0000
  H   H875      1.0  0.26817  0.31431  0.09365  1.0000
  C   C1103     1.0  0.46766  0.00762  0.05127  1.0000
  C   C1104     1.0  0.45116  0.00232  0.05934  1.0000
  H   H876      1.0  0.47817  0.00786  0.06640  1.0000
  C   C1105     1.0  0.25675  0.32261  0.09770  1.0000
  C   C1106     1.0  0.27404  0.09139  0.47307  1.0000
  H   H877      1.0  0.27663  0.17809  0.05361  1.0000
  C   C1107     1.0  0.27111  0.19109  0.05004  1.0000
  S   S155      1.0  0.28808  0.32511  0.27812  1.0000
  C   C1108     1.0  0.41210  0.03856  0.47683  1.0000
  C   C1109     1.0  0.25690  0.22469  0.04143  1.0000
  C   C1110     1.0  0.25585  0.19653  0.06388  1.0000
  C   C1111     1.0  0.28736  0.07988  0.46388  1.0000
  H   H878      1.0  0.49353  0.00014  0.31031  1.0000
  H   H879      1.0  0.42505  0.99696  0.04568  1.0000
  H   H880      1.0  0.24651  0.15177  0.05936  1.0000
  H   H881      1.0  0.26375  0.19860  0.16126  1.0000
  C   C1112     1.0  0.24846  0.20972  0.12749  1.0000
  H   H882      1.0  0.24986  0.18757  0.07810  1.0000
  Fe  Fe75      1.0  0.27484  0.32674  0.19898  1.0000
  S   S156      1.0  0.27003  0.32440  0.15139  1.0000
  C   C1113     1.0  0.25563  0.17842  0.98828  1.0000
  C   C1114     1.0  0.27159  0.16918  0.98635  1.0000
  C   C1115     1.0  0.24871  0.21348  0.06002  1.0000
  C   C1116     1.0  0.25096  0.19971  0.15156  1.0000
  H   H883      1.0  0.29271  0.06999  0.47784  1.0000
  Fe  Fe76      1.0  0.26082  0.14918  0.76611  1.0000
  S   S157      1.0  0.28632  0.15635  0.78490  1.0000
  H   H884      1.0  0.40050  0.06085  0.77412  1.0000
  Fe  Fe77      1.0  0.27302  0.15405  0.70583  1.0000
  S   S158      1.0  0.29981  0.16151  0.72137  1.0000
  S   S159      1.0  0.26859  0.15614  0.65790  1.0000
  Fe  Fe78      1.0  0.29878  0.13912  0.75200  1.0000
  S   S160      1.0  0.32457  0.12337  0.76135  1.0000
  Fe  Fe79      1.0  0.28559  0.17801  0.75340  1.0000
  S   S161      1.0  0.29379  0.20428  0.77070  1.0000
  S   S162      1.0  0.27297  0.13047  0.73437  1.0000
  S   S163      1.0  0.25907  0.17199  0.73664  1.0000
  C   C1117     1.0  0.35339  0.00249  0.78755  1.0000
  C   C1118     1.0  0.27169  0.21028  0.89343  1.0000
  Fe  Fe80      1.0  0.27845  0.30665  0.72923  1.0000
  S   S164      1.0  0.27443  0.27825  0.71708  1.0000
  C   C1119     1.0  0.38490  0.99798  0.49319  1.0000
  Fe  Fe81      1.0  0.39234  0.01631  0.89422  1.0000
  S   S165      1.0  0.39654  0.04480  0.88572  1.0000
  C   C1120     1.0  0.31509  0.31912  0.84790  1.0000
  Fe  Fe82      1.0  0.40063  0.00731  0.83251  1.0000
  S   S166      1.0  0.40626  0.03489  0.82075  1.0000
  H   H885      1.0  0.27219  0.20889  0.61711  1.0000
  Fe  Fe83      1.0  0.42054  0.03526  0.86209  1.0000
  S   S167      1.0  0.44696  0.04566  0.87502  1.0000
  Fe  Fe84      1.0  0.38178  0.04206  0.84520  1.0000
  S   S168      1.0  0.35719  0.05819  0.83112  1.0000
  S   S169      1.0  0.41665  0.00708  0.87194  1.0000
  S   S170      1.0  0.37579  0.01413  0.85542  1.0000
  C   C1121     1.0  0.39993  0.00384  0.72419  1.0000
  H   H886      1.0  0.27724  0.10554  0.97306  1.0000
  H   H887      1.0  0.48491  0.01232  0.57527  1.0000
  C   C1122     1.0  0.25241  0.15225  0.63148  1.0000
  H   H888      1.0  0.39972  0.01649  0.71426  1.0000
  H   H889      1.0  0.40066  0.01450  0.76597  1.0000
  C   C1123     1.0  0.46720  0.04005  0.85894  1.0000
  C   C1124     1.0  0.46816  0.03576  0.83069  1.0000
  C   C1125     1.0  0.26619  0.20100  0.86988  1.0000
  H   H890      1.0  0.45629  0.03539  0.81850  1.0000
  H   H891      1.0  0.28276  0.25112  0.56560  1.0000
  C   C1126     1.0  0.33335  0.10542  0.78157  1.0000
  C   C1127     1.0  0.32277  0.09381  0.79566  1.0000
  C   C1128     1.0  0.33032  0.07954  0.81056  1.0000
  C   C1129     1.0  0.34857  0.07657  0.81181  1.0000
  C   C1130     1.0  0.35916  0.08822  0.79787  1.0000
  C   C1131     1.0  0.35160  0.10242  0.78277  1.0000
  H   H892      1.0  0.30875  0.09569  0.79463  1.0000
  H   H893      1.0  0.32198  0.07065  0.82119  1.0000
  H   H894      1.0  0.37319  0.08631  0.79872  1.0000
  H   H895      1.0  0.36001  0.11118  0.77192  1.0000
  C   C1132     1.0  0.28746  0.22486  0.75660  1.0000
  C   C1133     1.0  0.29374  0.24010  0.76892  1.0000
  C   C1134     1.0  0.28939  0.25669  0.75782  1.0000
  C   C1135     1.0  0.27874  0.25813  0.73419  1.0000
  C   C1136     1.0  0.27188  0.24294  0.72262  1.0000
  C   C1137     1.0  0.27626  0.22637  0.73365  1.0000
  H   H896      1.0  0.30231  0.23904  0.78680  1.0000
  H   H897      1.0  0.29467  0.26828  0.76703  1.0000
  H   H898      1.0  0.26674  0.31147  0.62009  1.0000
  H   H899      1.0  0.27122  0.21477  0.72412  1.0000
  C   C1138     1.0  0.26685  0.10255  0.80024  1.0000
  C   C1139     1.0  0.43726  0.06487  0.94498  1.0000
  C   C1140     1.0  0.26553  0.26548  0.93399  1.0000
  C   C1141     1.0  0.27617  0.22109  0.62614  1.0000
  C   C1142     1.0  0.37855  0.08222  0.72218  1.0000
  S   S171      1.0  0.25327  0.32177  0.72139  1.0000
  C   C1143     1.0  0.24860  0.10588  0.91890  1.0000
  C   C1144     1.0  0.29289  0.31980  0.62629  1.0000
  H   H900      1.0  0.47814  0.03027  0.62919  1.0000
  H   H901      1.0  0.26280  0.15722  0.88506  1.0000
  H   H902      1.0  0.26325  0.15591  0.83340  1.0000
  C   C1145     1.0  0.36332  0.03103  0.67861  1.0000
  H   H903      1.0  0.28500  0.29952  0.83394  1.0000
  C   C1146     1.0  0.39133  0.07868  0.74236  1.0000
  C   C1147     1.0  0.26361  0.19654  0.94912  1.0000
  C   C1148     1.0  0.29626  0.07335  0.71069  1.0000
  H   H904      1.0  0.28935  0.19045  0.93221  1.0000
  C   C1149     1.0  0.30007  0.21340  0.87160  1.0000
  H   H905      1.0  0.45252  0.01197  0.72457  1.0000
  C   C1150     1.0  0.49330  0.01747  0.72104  1.0000
  H   H906      1.0  0.31327  0.21803  0.87230  1.0000
  C   C1151     1.0  0.47438  0.00847  0.56171  1.0000
  C   C1152     1.0  0.24878  0.27962  0.62821  1.0000
  H   H907      1.0  0.27072  0.23711  0.84130  1.0000
  C   C1153     1.0  0.45719  0.99977  0.94491  1.0000
  H   H908      1.0  0.26097  0.28913  0.66565  1.0000
  C   C1154     1.0  0.25465  0.10568  0.94636  1.0000
  H   H909      1.0  0.30281  0.20271  0.83012  1.0000
  H   H910      1.0  0.37386  0.00675  0.49739  1.0000
  S   S172      1.0  0.28398  0.32000  0.77007  1.0000
  C   C1155     1.0  0.25195  0.15166  0.84458  1.0000
  H   H911      1.0  0.32619  0.04576  0.77973  1.0000
  C   C1156     1.0  0.28372  0.17372  0.96620  1.0000
  H   H912      1.0  0.46252  0.00543  0.79937  1.0000
  H   H913      1.0  0.32433  0.02869  0.82282  1.0000
  C   C1157     1.0  0.47448  0.01299  0.53348  1.0000
  C   C1158     1.0  0.27981  0.18738  0.94775  1.0000
  H   H914      1.0  0.29037  0.20829  0.65955  1.0000
  C   C1159     1.0  0.25236  0.25511  0.97623  1.0000
  C   C1160     1.0  0.28187  0.28590  0.83572  1.0000
  C   C1161     1.0  0.36679  0.01991  0.65601  1.0000
  H   H915      1.0  0.45822  0.01522  0.90736  1.0000
  C   C1162     1.0  0.25704  0.32551  0.86579  1.0000
  H   H916      1.0  0.25536  0.10680  0.87568  1.0000
  H   H917      1.0  0.37697  0.04032  0.76698  1.0000
  C   C1163     1.0  0.42929  0.01872  0.63222  1.0000
  C   C1164     1.0  0.25156  0.19194  0.96965  1.0000
  C   C1165     1.0  0.27359  0.25077  0.83970  1.0000
  C   C1166     1.0  0.46450  0.02708  0.63034  1.0000
  C   C1167     1.0  0.42611  0.02738  0.48427  1.0000
  H   H918      1.0  0.48217  0.04454  0.89621  1.0000
  C   C1168     1.0  0.26454  0.28104  0.83313  1.0000
  C   C1169     1.0  0.32432  0.06506  0.90433  1.0000
  C   C1170     1.0  0.34120  0.06962  0.89707  1.0000
  C   C1171     1.0  0.34383  0.08524  0.88309  1.0000
  C   C1172     1.0  0.32961  0.09627  0.87608  1.0000
  C   C1173     1.0  0.31258  0.09184  0.88335  1.0000
  C   C1174     1.0  0.31005  0.07610  0.89749  1.0000
  P   P35       1.0  0.29390  0.10561  0.87366  1.0000
  C   C1175     1.0  0.28397  0.09737  0.84228  1.0000
  C   C1176     1.0  0.27844  0.10557  0.90198  1.0000
  C   C1177     1.0  0.25270  0.23814  0.96543  1.0000
  H   H919      1.0  0.32945  0.29342  0.62507  1.0000
  C   C1178     1.0  0.45654  0.00234  0.91600  1.0000
  H   H920      1.0  0.25822  0.28196  0.96880  1.0000
  C   C1179     1.0  0.28445  0.10541  0.92966  1.0000
  C   C1180     1.0  0.27434  0.10874  0.82476  1.0000
  H   H921      1.0  0.47443  0.04704  0.49549  1.0000
  C   C1181     1.0  0.45350  0.99805  0.72069  1.0000
  C   C1182     1.0  0.27838  0.07351  0.81034  1.0000
  C   C1183     1.0  0.28576  0.07964  0.83505  1.0000
  C   C1184     1.0  0.30062  0.12764  0.86744  1.0000
  C   C1185     1.0  0.29719  0.14103  0.88692  1.0000
  C   C1186     1.0  0.30275  0.15792  0.88180  1.0000
  C   C1187     1.0  0.31191  0.16149  0.85745  1.0000
  C   C1188     1.0  0.31523  0.14829  0.83792  1.0000
  C   C1189     1.0  0.30942  0.13152  0.84273  1.0000
  H   H922      1.0  0.32232  0.05282  0.91486  1.0000
  H   H923      1.0  0.35224  0.06083  0.90154  1.0000
  H   H924      1.0  0.35689  0.08842  0.87660  1.0000
  H   H925      1.0  0.33208  0.10797  0.86451  1.0000
  H   H926      1.0  0.29702  0.07224  0.90292  1.0000
  H   H927      1.0  0.40984  0.07086  0.93892  1.0000
  P   P36       1.0  0.25770  0.21310  0.92363  1.0000
  C   C1190     1.0  0.41961  0.06094  0.94450  1.0000
  C   C1191     1.0  0.26040  0.10596  0.89673  1.0000
  H   H928      1.0  0.29831  0.10547  0.93419  1.0000
  H   H929      1.0  0.27265  0.12244  0.82992  1.0000
  C   C1192     1.0  0.40039  0.00275  0.75350  1.0000
  H   H930      1.0  0.48506  0.02999  0.79588  1.0000
  H   H931      1.0  0.28012  0.05990  0.80457  1.0000
  H   H932      1.0  0.29310  0.07056  0.84807  1.0000
  H   H933      1.0  0.29006  0.13859  0.90586  1.0000
  H   H934      1.0  0.29988  0.16825  0.89665  1.0000
  H   H935      1.0  0.31638  0.17448  0.85353  1.0000
  H   H936      1.0  0.32212  0.15103  0.81877  1.0000
  H   H937      1.0  0.31193  0.12155  0.82716  1.0000
  H   H938      1.0  0.28916  0.05235  0.68354  1.0000
  H   H939      1.0  0.26862  0.16151  0.59838  1.0000
  H   H940      1.0  0.34162  0.00099  0.82812  1.0000
  H   H941      1.0  0.30688  0.09221  0.73881  1.0000
  C   C1193     1.0  0.39077  0.06344  0.75814  1.0000
  C   C1194     1.0  0.28886  0.21620  0.89425  1.0000
  P   P37       1.0  0.26920  0.27361  0.61157  1.0000
  C   C1195     1.0  0.28537  0.28969  0.61823  1.0000
  C   C1196     1.0  0.27604  0.25279  0.62627  1.0000
  C   C1197     1.0  0.28589  0.25225  0.65101  1.0000
  C   C1198     1.0  0.29130  0.23627  0.66261  1.0000
  H   H942      1.0  0.49234  0.99602  0.78582  1.0000
  C   C1199     1.0  0.35856  0.00398  0.65395  1.0000
  C   C1200     1.0  0.30322  0.28482  0.61883  1.0000
  C   C1201     1.0  0.31574  0.29730  0.62400  1.0000
  C   C1202     1.0  0.34671  0.99919  0.67437  1.0000
  C   C1203     1.0  0.49104  0.99551  0.65446  1.0000
  C   C1204     1.0  0.28034  0.30733  0.62141  1.0000
  C   C1205     1.0  0.41460  0.04397  0.94999  1.0000
  H   H943      1.0  0.33352  0.07438  0.74899  1.0000
  C   C1206     1.0  0.29095  0.25569  0.84206  1.0000
  C   C1207     1.0  0.27216  0.26226  0.52802  1.0000
  P   P38       1.0  0.47420  0.00617  0.67545  1.0000
  C   C1208     1.0  0.26585  0.19987  0.53535  1.0000
  C   C1209     1.0  0.25929  0.23470  0.93863  1.0000
  C   C1210     1.0  0.27448  0.26144  0.55694  1.0000
  H   H944      1.0  0.27920  0.19785  0.54245  1.0000
  H   H945      1.0  0.47028  0.04493  0.67767  1.0000
  H   H946      1.0  0.25671  0.20902  0.57494  1.0000
  H   H947      1.0  0.28924  0.26417  0.66168  1.0000
  H   H948      1.0  0.48111  0.06652  0.71078  1.0000
  H   H949      1.0  0.40151  0.08787  0.74611  1.0000
  H   H950      1.0  0.30748  0.27138  0.61549  1.0000
  H   H951      1.0  0.32160  0.30661  0.84401  1.0000
  C   C1211     1.0  0.30878  0.07949  0.72912  1.0000
  C   C1212     1.0  0.25609  0.15629  0.60346  1.0000
  C   C1213     1.0  0.44764  0.99780  0.52667  1.0000
  H   H952      1.0  0.35535  0.07353  0.70211  1.0000
  H   H953      1.0  0.24724  0.22789  0.97768  1.0000
  C   C1214     1.0  0.26217  0.27595  0.51621  1.0000
  C   C1215     1.0  0.47868  0.04047  0.69446  1.0000
  H   H954      1.0  0.24611  0.27229  0.88440  1.0000
  H   H955      1.0  0.29364  0.22283  0.91256  1.0000
  H   H956      1.0  0.26952  0.32137  0.87447  1.0000
  C   C1216     1.0  0.37734  0.05180  0.75399  1.0000
  C   C1217     1.0  0.29885  0.05706  0.69793  1.0000
  C   C1218     1.0  0.43509  0.03013  0.61189  1.0000
  C   C1219     1.0  0.48278  0.04097  0.87441  1.0000
  H   H957      1.0  0.30127  0.24587  0.84483  1.0000
  H   H958      1.0  0.42379  0.01749  0.49954  1.0000
  H   H959      1.0  0.26221  0.23720  0.59642  1.0000
  C   C1220     1.0  0.34221  0.00826  0.80885  1.0000
  C   C1221     1.0  0.29510  0.27322  0.83996  1.0000
  C   C1222     1.0  0.36520  0.07053  0.71776  1.0000
  H   H960      1.0  0.29607  0.16648  0.96467  1.0000
  C   C1223     1.0  0.29425  0.20468  0.84793  1.0000
  H   H961      1.0  0.27137  0.19121  0.49344  1.0000
  C   C1224     1.0  0.45268  0.03438  0.61103  1.0000
  H   H962      1.0  0.31075  0.31418  0.89145  1.0000
  C   C1225     1.0  0.48453  0.03278  0.81790  1.0000
  C   C1226     1.0  0.45871  0.01576  0.65106  1.0000
  H   H963      1.0  0.42594  0.03559  0.59673  1.0000
  C   C1227     1.0  0.25169  0.15238  0.87390  1.0000
  C   C1228     1.0  0.27743  0.19828  0.84724  1.0000
  H   H964      1.0  0.25945  0.11145  0.78686  1.0000
  C   C1229     1.0  0.35454  0.01213  0.76302  1.0000
  H   H965      1.0  0.27316  0.19115  0.82905  1.0000
  C   C1230     1.0  0.24804  0.22668  0.80043  1.0000
  H   H966      1.0  0.44121  0.07782  0.93945  1.0000
  H   H967      1.0  0.31580  0.03448  0.69317  1.0000
  C   C1231     1.0  0.30908  0.32343  0.87458  1.0000
  H   H968      1.0  0.28465  0.08132  0.70614  1.0000
  H   H969      1.0  0.36356  0.00764  0.74701  1.0000
  C   C1232     1.0  0.32391  0.06939  0.73476  1.0000
  C   C1233     1.0  0.46085  0.00798  0.51579  1.0000
  H   H970      1.0  0.37003  0.04317  0.67992  1.0000
  C   C1234     1.0  0.28645  0.22069  0.65020  1.0000
  C   C1235     1.0  0.33348  0.03348  0.78127  1.0000
  H   H971      1.0  0.48528  0.02020  0.52570  1.0000
  H   H972      1.0  0.45716  0.04316  0.59513  1.0000
  H   H973      1.0  0.41566  0.01531  0.63285  1.0000
  C   C1236     1.0  0.48306  0.02266  0.69801  1.0000
  C   C1237     1.0  0.25670  0.28799  0.56214  1.0000
  C   C1238     1.0  0.33234  0.02378  0.80577  1.0000
  H   H974      1.0  0.29893  0.23599  0.68169  1.0000
  H   H975      1.0  0.37880  0.09418  0.71026  1.0000
  C   C1239     1.0  0.44100  0.01158  0.65179  1.0000
  C   C1240     1.0  0.34450  0.02766  0.75962  1.0000
  H   H976      1.0  0.25585  0.20341  0.77783  1.0000
  C   C1241     1.0  0.34313  0.01030  0.69693  1.0000
  H   H977      1.0  0.43611  0.00270  0.66720  1.0000
  C   C1242     1.0  0.44494  0.03491  0.95799  1.0000
  H   H978      1.0  0.30859  0.27693  0.84134  1.0000
  S   S173      1.0  0.38342  0.00823  0.93829  1.0000
  C   C1243     1.0  0.35157  0.02622  0.69940  1.0000
  H   H979      1.0  0.26349  0.24396  0.70450  1.0000
  P   P39       1.0  0.34672  0.04055  0.72852  1.0000
  C   C1244     1.0  0.36440  0.05527  0.73377  1.0000
  C   C1245     1.0  0.32675  0.05312  0.72180  1.0000
  C   C1246     1.0  0.31403  0.04696  0.70345  1.0000
  H   H980      1.0  0.25075  0.29823  0.57495  1.0000
  C   C1247     1.0  0.26897  0.08498  0.79291  1.0000
  C   C1248     1.0  0.26146  0.19614  0.50777  1.0000
  C   C1249     1.0  0.27258  0.10543  0.95174  1.0000
  C   C1250     1.0  0.31056  0.31478  0.62790  1.0000
  H   H981      1.0  0.42298  0.01772  0.95810  1.0000
  C   C1251     1.0  0.26547  0.24859  0.92281  1.0000
  C   C1252     1.0  0.26027  0.26339  0.83467  1.0000
  C   C1253     1.0  0.27073  0.23708  0.61440  1.0000
  C   C1254     1.0  0.25884  0.26876  0.96059  1.0000
  H   H982      1.0  0.26978  0.24661  0.90158  1.0000
  C   C1255     1.0  0.48468  0.05283  0.71340  1.0000
  H   H983      1.0  0.48994  0.00869  0.92862  1.0000
  H   H984      1.0  0.46022  0.99584  0.59435  1.0000
  C   C1256     1.0  0.25460  0.28889  0.53330  1.0000
  H   H985      1.0  0.40095  0.04075  0.94880  1.0000
  H   H986      1.0  0.24696  0.15666  0.56055  1.0000
  H   H987      1.0  0.25455  0.29111  0.82961  1.0000
  C   C1257     1.0  0.44989  0.05195  0.95170  1.0000
  H   H988      1.0  0.37628  0.02338  0.64047  1.0000
  H   H989      1.0  0.33390  0.00640  0.71259  1.0000
  H   H990      1.0  0.25737  0.23448  0.78964  1.0000
  H   H991      1.0  0.26333  0.08029  0.77369  1.0000
  H   H992      1.0  0.27016  0.27621  0.92169  1.0000
  C   C1258     1.0  0.26635  0.27406  0.57425  1.0000
  C   C1259     1.0  0.25299  0.20606  0.55387  1.0000
  H   H993      1.0  0.25331  0.19573  0.86878  1.0000
  H   H994      1.0  0.27824  0.25238  0.51473  1.0000
  C   C1260     1.0  0.24878  0.28651  0.65526  1.0000
  C   C1261     1.0  0.46064  0.99907  0.57247  1.0000
  C   C1262     1.0  0.42721  0.03093  0.95591  1.0000
  C   C1263     1.0  0.49402  0.01905  0.94213  1.0000
  H   H995      1.0  0.31762  0.32781  0.80548  1.0000
  H   H996      1.0  0.24694  0.29962  0.52433  1.0000
  P   P40       1.0  0.46102  0.01808  0.96764  1.0000
  H   H997      1.0  0.26903  0.09045  0.49410  1.0000
  H   H998      1.0  0.26029  0.27660  0.49385  1.0000
  C   C1264     1.0  0.24742  0.20893  0.79392  1.0000
  S   S174      1.0  0.29432  0.32541  0.70441  1.0000
  H   H999      1.0  0.32019  0.32446  0.63214  1.0000
  H   H1000     1.0  0.36174  0.99517  0.63686  1.0000
  H   H1001     1.0  0.39939  0.03700  0.48620  1.0000
  C   C1265     1.0  0.48292  0.02599  0.96296  1.0000
  H   H1002     1.0  0.46341  0.05536  0.95098  1.0000
  C   C1266     1.0  0.49487  0.04753  0.73620  1.0000
  C   C1267     1.0  0.48354  0.04091  0.48094  1.0000
  P   P41       1.0  0.46048  0.01363  0.47916  1.0000
  C   C1268     1.0  0.25506  0.60660  0.12103  1.0000
  H   H1003     1.0  0.40247  0.35657  0.25851  1.0000
  C   C1269     1.0  0.48267  0.54303  0.99583  1.0000
  C   C1270     1.0  0.33372  0.41449  0.35851  1.0000
  Fe  Fe85      1.0  0.29596  0.34497  0.24658  1.0000
  S   S175      1.0  0.31001  0.37050  0.25770  1.0000
  S   S176      1.0  0.26847  0.34871  0.22916  1.0000
  Fe  Fe86      1.0  0.38892  0.42840  0.33420  1.0000
  S   S177      1.0  0.37651  0.45542  0.33894  1.0000
  S   S178      1.0  0.37536  0.40253  0.32370  1.0000
  Fe  Fe87      1.0  0.42537  0.44124  0.35367  1.0000
  S   S179      1.0  0.41488  0.46870  0.35895  1.0000
  S   S180      1.0  0.45291  0.43701  0.37175  1.0000
  Fe  Fe88      1.0  0.39164  0.45752  0.37957  1.0000
  S   S181      1.0  0.37985  0.46609  0.42194  1.0000
  Fe  Fe89      1.0  0.40113  0.46437  0.31812  1.0000
  S   S182      1.0  0.40444  0.48681  0.28781  1.0000
  S   S183      1.0  0.40252  0.42998  0.37599  1.0000
  S   S184      1.0  0.41302  0.43741  0.31144  1.0000
  Fe  Fe90      1.0  0.39847  0.50986  0.13137  1.0000
  S   S185      1.0  0.40527  0.53522  0.15108  1.0000
  S   S186      1.0  0.39150  0.48615  0.15683  1.0000
  Fe  Fe91      1.0  0.40426  0.52271  0.07194  1.0000
  S   S187      1.0  0.41121  0.54946  0.08814  1.0000
  S   S188      1.0  0.40885  0.51714  0.02501  1.0000
  Fe  Fe92      1.0  0.42742  0.53512  0.12031  1.0000
  S   S189      1.0  0.45396  0.54264  0.13762  1.0000
  Fe  Fe93      1.0  0.38837  0.54788  0.11800  1.0000
  S   S190      1.0  0.37157  0.57316  0.12687  1.0000
  S   S191      1.0  0.42181  0.50872  0.10301  1.0000
  S   S192      1.0  0.38018  0.52218  0.09935  1.0000
  H   H1004     1.0  0.29820  0.62443  0.13479  1.0000
  H   H1005     1.0  0.31480  0.36326  0.19230  1.0000
  P   P42       1.0  0.26795  0.61830  0.44130  1.0000
  Fe  Fe94      1.0  0.27036  0.65097  0.25922  1.0000
  C   C1271     1.0  0.37388  0.41948  0.17759  1.0000
  H   H1006     1.0  0.26892  0.42724  0.43575  1.0000
  Fe  Fe95      1.0  0.29391  0.63312  0.21237  1.0000
  S   S193      1.0  0.30977  0.60736  0.20330  1.0000
  S   S194      1.0  0.26608  0.62987  0.22715  1.0000
  C   C1272     1.0  0.35419  0.58228  0.14822  1.0000
  C   C1273     1.0  0.34942  0.60015  0.14564  1.0000
  C   C1274     1.0  0.33591  0.60804  0.16202  1.0000
  C   C1275     1.0  0.32683  0.59817  0.18138  1.0000
  C   C1276     1.0  0.33143  0.58025  0.18367  1.0000
  C   C1277     1.0  0.34496  0.57239  0.16736  1.0000
  H   H1007     1.0  0.35629  0.60800  0.13085  1.0000
  H   H1008     1.0  0.33263  0.62177  0.15973  1.0000
  H   H1009     1.0  0.32447  0.57235  0.19824  1.0000
  H   H1010     1.0  0.34813  0.55863  0.16946  1.0000
  C   C1278     1.0  0.47396  0.53958  0.11936  1.0000
  C   C1279     1.0  0.31130  0.43188  0.33501  1.0000
  H   H1011     1.0  0.40395  0.57522  0.33646  1.0000
  C   C1280     1.0  0.48229  0.55751  0.21493  1.0000
  C   C1281     1.0  0.44783  0.48881  0.03324  1.0000
  H   H1012     1.0  0.28199  0.58610  0.41553  1.0000
  C   C1282     1.0  0.25260  0.59227  0.47239  1.0000
  H   H1013     1.0  0.47248  0.54663  0.28157  1.0000
  C   C1283     1.0  0.40367  0.50136  0.99875  1.0000
  C   C1284     1.0  0.39199  0.48800  0.00328  1.0000
  C   C1285     1.0  0.43239  0.43358  0.46206  1.0000
  H   H1014     1.0  0.35267  0.43694  0.16439  1.0000
  H   H1015     1.0  0.25633  0.60941  0.34106  1.0000
  H   H1016     1.0  0.37605  0.40659  0.25690  1.0000
  H   H1017     1.0  0.40691  0.49245  0.42721  1.0000
  C   C1286     1.0  0.40122  0.48580  0.25134  1.0000
  C   C1287     1.0  0.39201  0.47247  0.23874  1.0000
  C   C1288     1.0  0.38925  0.47252  0.20969  1.0000
  C   C1289     1.0  0.39566  0.48595  0.19309  1.0000
  C   C1290     1.0  0.40517  0.49905  0.20570  1.0000
  C   C1291     1.0  0.40783  0.49900  0.23463  1.0000
  H   H1018     1.0  0.38699  0.46224  0.25147  1.0000
  H   H1019     1.0  0.38195  0.46227  0.20012  1.0000
  H   H1020     1.0  0.41045  0.50928  0.19323  1.0000
  H   H1021     1.0  0.41514  0.50925  0.24401  1.0000
  H   H1022     1.0  0.38968  0.43108  0.44285  1.0000
  C   C1292     1.0  0.47340  0.43642  0.35450  1.0000
  C   C1293     1.0  0.47554  0.42939  0.32776  1.0000
  H   H1023     1.0  0.44490  0.39827  0.21654  1.0000
  H   H1024     1.0  0.46424  0.42526  0.31624  1.0000
  C   C1294     1.0  0.32796  0.37883  0.27736  1.0000
  C   C1295     1.0  0.34060  0.36816  0.29068  1.0000
  C   C1296     1.0  0.35477  0.37563  0.30498  1.0000
  C   C1297     1.0  0.35673  0.39387  0.30601  1.0000
  C   C1298     1.0  0.34405  0.40449  0.29275  1.0000
  C   C1299     1.0  0.32971  0.39703  0.27901  1.0000
  H   H1025     1.0  0.33955  0.35415  0.28980  1.0000
  H   H1026     1.0  0.36442  0.36717  0.31504  1.0000
  H   H1027     1.0  0.34520  0.41847  0.29323  1.0000
  H   H1028     1.0  0.31982  0.40542  0.26954  1.0000
  H   H1029     1.0  0.31218  0.65272  0.13151  1.0000
  C   C1300     1.0  0.37705  0.44413  0.14661  1.0000
  C   C1301     1.0  0.42600  0.40436  0.44612  1.0000
  C   C1302     1.0  0.26080  0.40105  0.44312  1.0000
  H   H1030     1.0  0.41414  0.54530  0.34979  1.0000
  C   C1303     1.0  0.39466  0.36630  0.24733  1.0000
  C   C1304     1.0  0.46475  0.45239  0.11302  1.0000
  H   H1031     1.0  0.47867  0.43787  0.24204  1.0000
  H   H1032     1.0  0.30463  0.36755  0.40770  1.0000
  C   C1305     1.0  0.26158  0.61218  0.38496  1.0000
  H   H1033     1.0  0.34715  0.41272  0.36548  1.0000
  C   C1306     1.0  0.29281  0.59323  0.42386  1.0000
  P   P43       1.0  0.49425  0.49056  0.99126  1.0000
  C   C1307     1.0  0.49238  0.53375  0.25650  1.0000
  C   C1308     1.0  0.27921  0.59536  0.14904  1.0000
  P   P44       1.0  0.36021  0.40702  0.20008  1.0000
  H   H1034     1.0  0.42678  0.46078  0.22498  1.0000
  C   C1309     1.0  0.46473  0.49301  0.02532  1.0000
  H   H1035     1.0  0.38577  0.48693  0.02336  1.0000
  H   H1036     1.0  0.40787  0.43808  0.24319  1.0000
  C   C1310     1.0  0.44889  0.49997  0.42792  1.0000
  H   H1037     1.0  0.33640  0.38051  0.21736  1.0000
  C   C1311     1.0  0.26953  0.37966  0.40823  1.0000
  C   C1312     1.0  0.38808  0.47616  0.98161  1.0000
  H   H1038     1.0  0.33699  0.58920  0.43106  1.0000
  H   H1039     1.0  0.45384  0.52308  0.19393  1.0000
  H   H1040     1.0  0.31053  0.36701  0.14143  1.0000
  C   C1313     1.0  0.39020  0.38221  0.26008  1.0000
  C   C1314     1.0  0.30663  0.35986  0.38897  1.0000
  C   C1315     1.0  0.37107  0.59238  0.24571  1.0000
  H   H1041     1.0  0.37391  0.37234  0.18542  1.0000
  H   H1042     1.0  0.44833  0.52626  0.24472  1.0000
  C   C1316     1.0  0.43780  0.41618  0.45692  1.0000
  H   H1043     1.0  0.32805  0.38830  0.11563  1.0000
  H   H1044     1.0  0.44570  0.45989  0.08173  1.0000
  C   C1317     1.0  0.25429  0.33919  0.36336  1.0000
  H   H1045     1.0  0.44966  0.51191  0.41607  1.0000
  H   H1046     1.0  0.47441  0.40300  0.38393  1.0000
  C   C1318     1.0  0.32098  0.61075  0.44652  1.0000
  C   C1319     1.0  0.45097  0.49869  0.25283  1.0000
  H   H1047     1.0  0.42604  0.47246  0.02536  1.0000
  H   H1048     1.0  0.26549  0.33680  0.32233  1.0000
  C   C1320     1.0  0.28987  0.60941  0.43712  1.0000
  C   C1321     1.0  0.48137  0.52507  0.99163  1.0000
  H   H1049     1.0  0.26663  0.34196  0.37306  1.0000
  C   C1322     1.0  0.25372  0.33607  0.33451  1.0000
  H   H1050     1.0  0.28378  0.41995  0.39168  1.0000
  H   H1051     1.0  0.26347  0.62187  0.05692  1.0000
  C   C1323     1.0  0.44444  0.48453  0.41456  1.0000
  H   H1052     1.0  0.32062  0.33919  0.41074  1.0000
  C   C1324     1.0  0.37965  0.39463  0.24614  1.0000
  H   H1053     1.0  0.27532  0.61426  0.38161  1.0000
  H   H1054     1.0  0.43962  0.45730  0.41905  1.0000
  H   H1055     1.0  0.44199  0.48444  0.39235  1.0000
  C   C1325     1.0  0.45228  0.49998  0.45652  1.0000
  C   C1326     1.0  0.26043  0.60856  0.47309  1.0000
  H   H1056     1.0  0.29279  0.59118  0.15139  1.0000
  C   C1327     1.0  0.31313  0.34000  0.34095  1.0000
  H   H1057     1.0  0.43028  0.39105  0.44159  1.0000
  C   C1328     1.0  0.32988  0.38674  0.13787  1.0000
  H   H1058     1.0  0.31586  0.33245  0.32223  1.0000
  H   H1059     1.0  0.28007  0.56759  0.06049  1.0000
  C   C1329     1.0  0.34447  0.39465  0.18089  1.0000
  H   H1060     1.0  0.46484  0.38711  0.34205  1.0000
  C   C1330     1.0  0.26339  0.60870  0.04893  1.0000
  C   C1331     1.0  0.36355  0.51916  0.19275  1.0000
  C   C1332     1.0  0.35684  0.50721  0.21145  1.0000
  C   C1333     1.0  0.35696  0.51082  0.24000  1.0000
  C   C1334     1.0  0.36407  0.52623  0.24988  1.0000
  C   C1335     1.0  0.37166  0.53788  0.23129  1.0000
  C   C1336     1.0  0.37080  0.53449  0.20259  1.0000
  P   P45       1.0  0.38198  0.55727  0.24392  1.0000
  C   C1337     1.0  0.36594  0.57498  0.24723  1.0000
  C   C1338     1.0  0.39227  0.55350  0.27747  1.0000
  C   C1339     1.0  0.39451  0.56740  0.29613  1.0000
  C   C1340     1.0  0.41493  0.43876  0.45725  1.0000
  C   C1341     1.0  0.40820  0.54764  0.32959  1.0000
  C   C1342     1.0  0.40621  0.53379  0.31105  1.0000
  C   C1343     1.0  0.39837  0.53672  0.28510  1.0000
  C   C1344     1.0  0.34831  0.57155  0.25190  1.0000
  C   C1345     1.0  0.33600  0.58532  0.25478  1.0000
  C   C1346     1.0  0.44873  0.45952  0.10380  1.0000
  C   C1347     1.0  0.27749  0.40973  0.40295  1.0000
  H   H1061     1.0  0.41561  0.51115  0.46701  1.0000
  C   C1348     1.0  0.39868  0.56290  0.21925  1.0000
  C   C1349     1.0  0.39448  0.57372  0.19646  1.0000
  C   C1350     1.0  0.40725  0.57774  0.17698  1.0000
  C   C1351     1.0  0.42425  0.57079  0.17980  1.0000
  C   C1352     1.0  0.42846  0.55972  0.20206  1.0000
  C   C1353     1.0  0.41574  0.55575  0.22173  1.0000
  H   H1062     1.0  0.36358  0.51632  0.17061  1.0000
  H   H1063     1.0  0.35178  0.49508  0.20377  1.0000
  H   H1064     1.0  0.35183  0.50151  0.25450  1.0000
  H   H1065     1.0  0.36398  0.52880  0.27206  1.0000
  H   H1066     1.0  0.37589  0.54353  0.18768  1.0000
  H   H1067     1.0  0.39013  0.58051  0.29081  1.0000
  C   C1354     1.0  0.25410  0.32942  0.12476  1.0000
  C   C1355     1.0  0.25110  0.65382  0.36026  1.0000
  H   H1068     1.0  0.47846  0.56672  0.19876  1.0000
  H   H1069     1.0  0.39689  0.52577  0.27125  1.0000
  H   H1070     1.0  0.34395  0.55831  0.25294  1.0000
  H   H1071     1.0  0.45933  0.49411  0.17346  1.0000
  H   H1072     1.0  0.40313  0.44901  0.13308  1.0000
  C   C1356     1.0  0.43938  0.47527  0.01984  1.0000
  C   C1357     1.0  0.25570  0.65115  0.45931  1.0000
  H   H1073     1.0  0.38123  0.57869  0.19315  1.0000
  H   H1074     1.0  0.40375  0.58570  0.15904  1.0000
  H   H1075     1.0  0.43396  0.57339  0.16407  1.0000
  H   H1076     1.0  0.44146  0.55380  0.20335  1.0000
  H   H1077     1.0  0.41911  0.54677  0.23835  1.0000
  C   C1358     1.0  0.30359  0.58324  0.09580  1.0000
  C   C1359     1.0  0.32027  0.58617  0.08508  1.0000
  C   C1360     1.0  0.33357  0.57333  0.08736  1.0000
  C   C1361     1.0  0.33041  0.55756  0.10054  1.0000
  C   C1362     1.0  0.31383  0.55447  0.11111  1.0000
  C   C1363     1.0  0.30041  0.56720  0.10858  1.0000
  H   H1078     1.0  0.32316  0.59837  0.07516  1.0000
  H   H1079     1.0  0.34654  0.57577  0.07958  1.0000
  H   H1080     1.0  0.34097  0.54789  0.10293  1.0000
  H   H1081     1.0  0.31146  0.54226  0.12148  1.0000
  H   H1082     1.0  0.28760  0.56456  0.11674  1.0000
  C   C1364     1.0  0.25085  0.60944  0.36187  1.0000
  S   S195      1.0  0.26475  0.65164  0.30685  1.0000
  H   H1083     1.0  0.25155  0.37811  0.35934  1.0000
  C   C1365     1.0  0.44648  0.46905  0.45854  1.0000
  C   C1366     1.0  0.34211  0.39667  0.15205  1.0000
  C   C1367     1.0  0.35870  0.60609  0.24841  1.0000
  C   C1368     1.0  0.30022  0.36589  0.36317  1.0000
  C   C1369     1.0  0.30382  0.35595  0.33909  1.0000
  P   P46       1.0  0.28889  0.38690  0.36056  1.0000
  C   C1370     1.0  0.47607  0.43582  0.44915  1.0000
  C   C1371     1.0  0.30460  0.40330  0.35309  1.0000
  C   C1372     1.0  0.29937  0.41873  0.33927  1.0000
  C   C1373     1.0  0.32190  0.40124  0.36257  1.0000
  H   H1084     1.0  0.27422  0.59316  0.19295  1.0000
  C   C1374     1.0  0.27786  0.39250  0.39287  1.0000
  C   C1375     1.0  0.27268  0.57827  0.05100  1.0000
  C   C1376     1.0  0.32002  0.37472  0.15235  1.0000
  C   C1377     1.0  0.39502  0.44059  0.14520  1.0000
  C   C1378     1.0  0.27299  0.38550  0.33282  1.0000
  C   C1379     1.0  0.37913  0.47813  0.47643  1.0000
  C   C1380     1.0  0.38877  0.36285  0.22041  1.0000
  H   H1085     1.0  0.25430  0.40427  0.46258  1.0000
  C   C1381     1.0  0.26652  0.38500  0.28324  1.0000
  C   C1382     1.0  0.27815  0.38789  0.30510  1.0000
  C   C1383     1.0  0.37837  0.37528  0.20629  1.0000
  C   C1384     1.0  0.40311  0.42686  0.44687  1.0000
  H   H1086     1.0  0.37886  0.46607  0.98539  1.0000
  H   H1087     1.0  0.39459  0.38477  0.28113  1.0000
  H   H1088     1.0  0.29963  0.36043  0.31873  1.0000
  H   H1089     1.0  0.28606  0.42065  0.33200  1.0000
  H   H1090     1.0  0.32636  0.38946  0.37309  1.0000
  C   C1385     1.0  0.38721  0.47938  0.45017  1.0000
  C   C1386     1.0  0.27850  0.65096  0.42443  1.0000
  H   H1091     1.0  0.46778  0.43606  0.43078  1.0000
  C   C1387     1.0  0.31219  0.65306  0.08664  1.0000
  H   H1092     1.0  0.48740  0.48202  0.47617  1.0000
  H   H1093     1.0  0.31102  0.64942  0.04218  1.0000
  H   H1094     1.0  0.27092  0.38613  0.26189  1.0000
  H   H1095     1.0  0.29143  0.39121  0.30023  1.0000
  H   H1096     1.0  0.37139  0.45532  0.13568  1.0000
  C   C1388     1.0  0.33088  0.42407  0.22382  1.0000
  C   C1389     1.0  0.32250  0.43695  0.24014  1.0000
  C   C1390     1.0  0.33230  0.44880  0.25515  1.0000
  C   C1391     1.0  0.35051  0.44796  0.25353  1.0000
  C   C1392     1.0  0.35893  0.43521  0.23698  1.0000
  C   C1393     1.0  0.31905  0.33389  0.36677  1.0000
  C   C1394     1.0  0.25302  0.58843  0.01441  1.0000
  C   C1395     1.0  0.26262  0.57490  0.02732  1.0000
  H   H1097     1.0  0.35807  0.45720  0.26517  1.0000
  H   H1098     1.0  0.26468  0.64803  0.13156  1.0000
  C   C1396     1.0  0.32386  0.59483  0.43275  1.0000
  H   H1099     1.0  0.46419  0.42083  0.19859  1.0000
  C   C1397     1.0  0.30858  0.64592  0.11263  1.0000
  C   C1398     1.0  0.30799  0.64402  0.06234  1.0000
  H   H1100     1.0  0.24657  0.64443  0.47231  1.0000
  C   C1399     1.0  0.25376  0.65028  0.09021  1.0000
  H   H1101     1.0  0.26956  0.36631  0.40097  1.0000
  H   H1102     1.0  0.46322  0.56742  0.24435  1.0000
  H   H1103     1.0  0.26238  0.56180  0.01885  1.0000
  H   H1104     1.0  0.49400  0.42070  0.29634  1.0000
  H   H1105     1.0  0.32293  0.41501  0.21257  1.0000
  H   H1106     1.0  0.34969  0.40574  0.14036  1.0000
  H   H1107     1.0  0.43082  0.47107  0.16613  1.0000
  C   C1400     1.0  0.34921  0.42290  0.22247  1.0000
  C   C1401     1.0  0.48397  0.45420  0.20637  1.0000
  C   C1402     1.0  0.45098  0.51347  0.23584  1.0000
  C   C1403     1.0  0.48858  0.44361  0.22926  1.0000
  C   C1404     1.0  0.49126  0.52879  0.08011  1.0000
  H   H1108     1.0  0.45104  0.41166  0.46122  1.0000
  H   H1109     1.0  0.31198  0.57360  0.41115  1.0000
  C   C1405     1.0  0.49245  0.42674  0.31659  1.0000
  S   S196      1.0  0.29879  0.65274  0.24667  1.0000
  C   C1406     1.0  0.37360  0.39124  0.21912  1.0000
  H   H1110     1.0  0.32581  0.45865  0.26803  1.0000
  C   C1407     1.0  0.40058  0.49123  0.44718  1.0000
  C   C1408     1.0  0.30403  0.61797  0.44888  1.0000
  C   C1409     1.0  0.27240  0.60017  0.12287  1.0000
  H   H1111     1.0  0.47111  0.55152  0.99434  1.0000
  H   H1112     1.0  0.46315  0.52707  0.08336  1.0000
  C   C1410     1.0  0.24959  0.37981  0.28886  1.0000
  H   H1113     1.0  0.48544  0.36647  0.31786  1.0000
  P   P47       1.0  0.28630  0.59974  0.09250  1.0000
  H   H1114     1.0  0.33187  0.61742  0.45564  1.0000
  H   H1115     1.0  0.36259  0.61948  0.24647  1.0000
  H   H1116     1.0  0.32229  0.58269  0.25744  1.0000
  C   C1411     1.0  0.27322  0.59525  0.06196  1.0000
  H   H1117     1.0  0.39807  0.40518  0.18725  1.0000
  C   C1412     1.0  0.46867  0.45198  0.14152  1.0000
  C   C1413     1.0  0.24720  0.65191  0.33170  1.0000
  C   C1414     1.0  0.40250  0.42651  0.15985  1.0000
  C   C1415     1.0  0.25585  0.38053  0.33832  1.0000
  C   C1416     1.0  0.31585  0.34384  0.39077  1.0000
  H   H1118     1.0  0.44102  0.49645  0.04912  1.0000
  C   C1417     1.0  0.26768  0.64181  0.44241  1.0000
  H   H1119     1.0  0.45387  0.47079  0.25470  1.0000
  H   H1120     1.0  0.41054  0.52067  0.31681  1.0000
  H   H1121     1.0  0.42401  0.47141  0.11604  1.0000
  C   C1418     1.0  0.47371  0.55787  0.24058  1.0000
  H   H1122     1.0  0.33777  0.43988  0.34135  1.0000
  H   H1123     1.0  0.44822  0.50001  0.27489  1.0000
  C   C1419     1.0  0.32242  0.37257  0.18098  1.0000
  H   H1124     1.0  0.41648  0.42396  0.15898  1.0000
  C   C1420     1.0  0.30008  0.62789  0.06402  1.0000
  H   H1125     1.0  0.37304  0.43494  0.23548  1.0000
  H   H1126     1.0  0.41684  0.40688  0.23928  1.0000
  C   C1421     1.0  0.25445  0.61291  0.41189  1.0000
  C   C1422     1.0  0.40242  0.56446  0.32209  1.0000
  C   C1423     1.0  0.47314  0.48396  0.00338  1.0000
  H   H1127     1.0  0.26452  0.65535  0.36654  1.0000
  C   C1424     1.0  0.34118  0.60256  0.25299  1.0000
  H   H1128     1.0  0.30726  0.44369  0.32415  1.0000
  H   H1129     1.0  0.29733  0.62089  0.04498  1.0000
  C   C1425     1.0  0.47495  0.53133  0.09336  1.0000
  C   C1426     1.0  0.44311  0.46913  0.42981  1.0000
  C   C1427     1.0  0.26872  0.59658  0.17279  1.0000
  H   H1130     1.0  0.47095  0.50365  0.03585  1.0000
  C   C1428     1.0  0.29593  0.62087  0.09007  1.0000
  C   C1429     1.0  0.32844  0.42980  0.34478  1.0000
  C   C1430     1.0  0.45690  0.49512  0.19563  1.0000
  C   C1431     1.0  0.47807  0.38508  0.34974  1.0000
  C   C1432     1.0  0.45124  0.48455  0.47173  1.0000
  Fe  Fe96      1.0  0.25933  0.65165  0.19719  1.0000
  C   C1433     1.0  0.45396  0.51168  0.20727  1.0000
  C   C1434     1.0  0.33465  0.38241  0.19516  1.0000
  C   C1435     1.0  0.26902  0.41396  0.42800  1.0000
  H   H1131     1.0  0.39205  0.35043  0.21059  1.0000
  C   C1436     1.0  0.42023  0.43438  0.23362  1.0000
  C   C1437     1.0  0.42527  0.41677  0.23136  1.0000
  C   C1438     1.0  0.44111  0.41195  0.21866  1.0000
  C   C1439     1.0  0.45206  0.42476  0.20871  1.0000
  C   C1440     1.0  0.44737  0.44252  0.21187  1.0000
  C   C1441     1.0  0.43112  0.44723  0.22361  1.0000
  P   P48       1.0  0.46129  0.45884  0.19779  1.0000
  H   H1132     1.0  0.38459  0.59538  0.24219  1.0000
  C   C1442     1.0  0.45669  0.45910  0.16091  1.0000
  C   C1443     1.0  0.30057  0.62985  0.11439  1.0000
  H   H1133     1.0  0.48360  0.47524  0.42643  1.0000
  C   C1444     1.0  0.36652  0.43372  0.16291  1.0000
  C   C1445     1.0  0.43654  0.46607  0.12308  1.0000
  C   C1446     1.0  0.44047  0.46586  0.15151  1.0000
  C   C1447     1.0  0.39197  0.41591  0.17591  1.0000
  H   H1134     1.0  0.47410  0.44712  0.09804  1.0000
  H   H1135     1.0  0.30837  0.43756  0.24136  1.0000
  C   C1448     1.0  0.48350  0.39409  0.37336  1.0000
  H   H1136     1.0  0.33149  0.61317  0.25434  1.0000
  C   C1449     1.0  0.45667  0.48018  0.21249  1.0000
  C   C1450     1.0  0.45392  0.48211  0.24125  1.0000
  C   C1451     1.0  0.48828  0.44138  0.36940  1.0000
  C   C1452     1.0  0.47889  0.54612  0.26147  1.0000
  S   S197      1.0  0.28660  0.65400  0.18109  1.0000
  H   H1137     1.0  0.24967  0.61121  0.10149  1.0000
  H   H1138     1.0  0.39954  0.40063  0.43244  1.0000
  C   C1453     1.0  0.25290  0.65013  0.11945  1.0000
  C   C1454     1.0  0.40866  0.40970  0.44108  1.0000
  H   H1139     1.0  0.48672  0.44687  0.39001  1.0000
  H   H1140     1.0  0.28726  0.64400  0.41027  1.0000
  H   H1141     1.0  0.25465  0.37385  0.44482  1.0000
  H   H1142     1.0  0.49392  0.47113  0.17459  1.0000
  C   C1455     1.0  0.44797  0.46564  0.99894  1.0000
  H   H1143     1.0  0.24601  0.61590  0.01526  1.0000
  C   C1456     1.0  0.26104  0.38392  0.43320  1.0000
  C   C1457     1.0  0.30977  0.58606  0.42150  1.0000
  H   H1144     1.0  0.26633  0.64873  0.08015  1.0000
  H   H1145     1.0  0.48856  0.55238  0.15111  1.0000
  H   H1146     1.0  0.48096  0.44602  0.14822  1.0000
  C   C1458     1.0  0.25341  0.60533  0.02523  1.0000
  H   H1147     1.0  0.45564  0.51196  0.46694  1.0000
  C   C1459     1.0  0.25146  0.60290  0.17072  1.0000
  C   C1460     1.0  0.48939  0.54534  0.13171  1.0000
  H   H1148     1.0  0.30197  0.63012  0.46016  1.0000
  C   C1461     1.0  0.40547  0.50187  0.46985  1.0000
  H   H1149     1.0  0.44130  0.45522  0.98846  1.0000
  C   C1462     1.0  0.49358  0.43029  0.44660  1.0000
  H   H1150     1.0  0.48867  0.47284  0.27886  1.0000
  C   C1463     1.0  0.48970  0.37354  0.33607  1.0000
  H   H1151     1.0  0.46875  0.51993  0.98651  1.0000
  H   H1152     1.0  0.48921  0.51411  0.18340  1.0000
  C   C1464     1.0  0.46488  0.46980  0.99095  1.0000
  H   H1153     1.0  0.48952  0.49687  0.24462  1.0000
  H   H1154     1.0  0.41041  0.45201  0.46158  1.0000
  H   H1155     1.0  0.25051  0.58565  0.45278  1.0000
  C   C1465     1.0  0.46935  0.44109  0.47515  1.0000
  H   H1156     1.0  0.49185  0.52283  0.05972  1.0000
  H   H1157     1.0  0.48815  0.50354  0.13504  1.0000
  P   P49       1.0  0.44690  0.44885  0.47767  1.0000
  C   C1466     1.0  0.48123  0.43078  0.72111  1.0000
  H   H1158     1.0  0.25969  0.36305  0.59812  1.0000
  C   C1467     1.0  0.47836  0.40931  0.81861  1.0000
  H   H1159     1.0  0.29243  0.40915  0.84069  1.0000
  Fe  Fe97      1.0  0.29775  0.34045  0.74488  1.0000
  S   S198      1.0  0.32479  0.35115  0.75692  1.0000
  S   S199      1.0  0.27352  0.35722  0.73722  1.0000
  Fe  Fe98      1.0  0.38369  0.43023  0.83498  1.0000
  S   S200      1.0  0.37872  0.45864  0.84647  1.0000
  S   S201      1.0  0.35866  0.41559  0.82271  1.0000
  Fe  Fe99      1.0  0.42347  0.43380  0.84636  1.0000
  S   S202      1.0  0.42078  0.46208  0.85812  1.0000
  S   S203      1.0  0.44923  0.41787  0.84894  1.0000
  Fe  Fe100     1.0  0.39721  0.45467  0.88292  1.0000
  S   S204      1.0  0.38980  0.46216  0.92830  1.0000
  Fe  Fe101     1.0  0.40259  0.46371  0.82097  1.0000
  S   S205      1.0  0.40504  0.48636  0.79100  1.0000
  S   S206      1.0  0.40072  0.42590  0.87303  1.0000
  S   S207      1.0  0.40673  0.43588  0.80753  1.0000
  Fe  Fe102     1.0  0.39565  0.50853  0.63315  1.0000
  S   S208      1.0  0.41046  0.53089  0.65013  1.0000
  S   S209      1.0  0.38581  0.48736  0.66168  1.0000
  Fe  Fe103     1.0  0.40130  0.51890  0.57144  1.0000
  S   S210      1.0  0.41587  0.54242  0.58580  1.0000
  S   S211      1.0  0.40445  0.51436  0.52396  1.0000
  Fe  Fe104     1.0  0.42992  0.52472  0.61608  1.0000
  S   S212      1.0  0.45867  0.51593  0.61912  1.0000
  Fe  Fe105     1.0  0.39477  0.54676  0.61854  1.0000
  S   S213      1.0  0.38372  0.57456  0.62910  1.0000
  S   S214      1.0  0.41590  0.50123  0.60117  1.0000
  S   S215      1.0  0.37927  0.52436  0.60226  1.0000
  Fe  Fe106     1.0  0.26277  0.65139  0.69142  1.0000
  H   H1160     1.0  0.38186  0.55111  0.51399  1.0000
  H   H1161     1.0  0.46112  0.51254  0.53789  1.0000
  Fe  Fe107     1.0  0.27532  0.64768  0.75250  1.0000
  Fe  Fe108     1.0  0.25977  0.33619  0.76050  1.0000
  C   C1468     1.0  0.44231  0.62758  0.55984  1.0000
  Fe  Fe109     1.0  0.29842  0.63311  0.70245  1.0000
  S   S216      1.0  0.31438  0.60830  0.68797  1.0000
  S   S217      1.0  0.27098  0.62824  0.71779  1.0000
  C   C1469     1.0  0.36418  0.58369  0.64518  1.0000
  C   C1470     1.0  0.36284  0.60179  0.65058  1.0000
  C   C1471     1.0  0.34781  0.60959  0.66340  1.0000
  C   C1472     1.0  0.33375  0.59941  0.67113  1.0000
  C   C1473     1.0  0.33512  0.58133  0.66570  1.0000
  C   C1474     1.0  0.35011  0.57354  0.65284  1.0000
  H   H1162     1.0  0.37350  0.60989  0.64477  1.0000
  H   H1163     1.0  0.34711  0.62348  0.66731  1.0000
  H   H1164     1.0  0.32435  0.57333  0.67132  1.0000
  H   H1165     1.0  0.35073  0.55967  0.64879  1.0000
  C   C1475     1.0  0.47871  0.52682  0.61813  1.0000
  H   H1166     1.0  0.32918  0.36975  0.85608  1.0000
  C   C1476     1.0  0.47987  0.54465  0.62368  1.0000
  H   H1167     1.0  0.44878  0.48695  0.66968  1.0000
  H   H1168     1.0  0.46816  0.55239  0.62805  1.0000
  H   H1169     1.0  0.34891  0.41516  0.89559  1.0000
  H   H1170     1.0  0.47931  0.44492  0.68207  1.0000
  C   C1477     1.0  0.38426  0.48852  0.49928  1.0000
  H   H1171     1.0  0.25814  0.40524  0.77050  1.0000
  H   H1172     1.0  0.34867  0.46963  0.80817  1.0000
  C   C1478     1.0  0.37075  0.41971  0.74857  1.0000
  H   H1173     1.0  0.43648  0.51718  0.72579  1.0000
  H   H1174     1.0  0.37788  0.48731  0.51921  1.0000
  H   H1175     1.0  0.29692  0.34303  0.90063  1.0000
  C   C1479     1.0  0.38610  0.40931  0.74827  1.0000
  C   C1480     1.0  0.40002  0.48577  0.75501  1.0000
  C   C1481     1.0  0.39209  0.47159  0.74236  1.0000
  C   C1482     1.0  0.38765  0.47226  0.71382  1.0000
  C   C1483     1.0  0.39146  0.48690  0.69761  1.0000
  C   C1484     1.0  0.39957  0.50092  0.71035  1.0000
  C   C1485     1.0  0.40360  0.50042  0.73890  1.0000
  H   H1176     1.0  0.38918  0.46024  0.75461  1.0000
  H   H1177     1.0  0.38136  0.46134  0.70425  1.0000
  H   H1178     1.0  0.40247  0.51233  0.69845  1.0000
  H   H1179     1.0  0.40941  0.51152  0.74872  1.0000
  H   H1180     1.0  0.36029  0.55128  0.80017  1.0000
  C   C1486     1.0  0.47079  0.42160  0.83693  1.0000
  C   C1487     1.0  0.48156  0.43412  0.84901  1.0000
  C   C1488     1.0  0.30958  0.38661  0.87612  1.0000
  H   H1181     1.0  0.47606  0.44324  0.86409  1.0000
  C   C1489     1.0  0.33386  0.36903  0.77587  1.0000
  C   C1490     1.0  0.35216  0.37051  0.77692  1.0000
  C   C1491     1.0  0.36000  0.38451  0.79107  1.0000
  C   C1492     1.0  0.34966  0.39733  0.80461  1.0000
  C   C1493     1.0  0.33138  0.39570  0.80385  1.0000
  C   C1494     1.0  0.32352  0.38190  0.78933  1.0000
  H   H1182     1.0  0.36039  0.36076  0.76659  1.0000
  H   H1183     1.0  0.37406  0.38531  0.79159  1.0000
  H   H1184     1.0  0.32321  0.40517  0.81479  1.0000
  H   H1185     1.0  0.30945  0.38135  0.78836  1.0000
  C   C1495     1.0  0.25774  0.37012  0.88759  1.0000
  H   H1186     1.0  0.47593  0.44607  0.51824  1.0000
  H   H1187     1.0  0.45421  0.48469  0.49376  1.0000
  C   C1496     1.0  0.42872  0.61602  0.51838  1.0000
  C   C1497     1.0  0.36068  0.40475  0.70737  1.0000
  C   C1498     1.0  0.39582  0.47731  0.95505  1.0000
  C   C1499     1.0  0.46617  0.48798  0.55820  1.0000
  C   C1500     1.0  0.48784  0.58210  0.55553  1.0000
  H   H1188     1.0  0.36094  0.50947  0.73963  1.0000
  H   H1189     1.0  0.39780  0.58807  0.57518  1.0000
  P   P50       1.0  0.29119  0.37396  0.86548  1.0000
  C   C1501     1.0  0.31997  0.41785  0.71657  1.0000
  C   C1502     1.0  0.33794  0.40710  0.89062  1.0000
  H   H1190     1.0  0.45011  0.52297  0.68014  1.0000
  H   H1191     1.0  0.37517  0.57010  0.55492  1.0000
  H   H1192     1.0  0.34467  0.61093  0.73298  1.0000
  H   H1193     1.0  0.32441  0.45874  0.83617  1.0000
  C   C1503     1.0  0.48233  0.46560  0.79939  1.0000
  C   C1504     1.0  0.30609  0.42522  0.70090  1.0000
  H   H1194     1.0  0.31926  0.60959  0.76447  1.0000
  H   H1195     1.0  0.36897  0.42909  0.76522  1.0000
  C   C1505     1.0  0.30623  0.38977  0.71433  1.0000
  C   C1506     1.0  0.24564  0.36917  0.90924  1.0000
  H   H1196     1.0  0.25275  0.37454  0.78250  1.0000
  H   H1197     1.0  0.42065  0.51261  0.96843  1.0000
  H   H1198     1.0  0.45301  0.40590  0.70639  1.0000
  C   C1507     1.0  0.40774  0.49049  0.95067  1.0000
  H   H1199     1.0  0.43035  0.56088  0.71216  1.0000
  H   H1200     1.0  0.43084  0.40070  0.80291  1.0000
  H   H1201     1.0  0.41384  0.49164  0.93051  1.0000
  H   H1202     1.0  0.44006  0.57599  0.66099  1.0000
  C   C1508     1.0  0.49165  0.41894  0.73663  1.0000
  C   C1509     1.0  0.42085  0.46781  0.54626  1.0000
  C   C1510     1.0  0.42542  0.45570  0.56689  1.0000
  C   C1511     1.0  0.43641  0.44134  0.56040  1.0000
  C   C1512     1.0  0.44302  0.43925  0.53338  1.0000
  C   C1513     1.0  0.28097  0.38390  0.83510  1.0000
  H   H1203     1.0  0.37243  0.52546  0.69336  1.0000
  H   H1204     1.0  0.35834  0.51409  0.65145  1.0000
  H   H1205     1.0  0.29440  0.37599  0.92647  1.0000
  S   S218      1.0  0.28961  0.65545  0.67461  1.0000
  C   C1514     1.0  0.34074  0.39159  0.87574  1.0000
  H   H1206     1.0  0.32688  0.52059  0.64238  1.0000
  C   C1515     1.0  0.47028  0.50155  0.54034  1.0000
  H   H1207     1.0  0.28187  0.42050  0.67950  1.0000
  H   H1208     1.0  0.26765  0.36072  0.82258  1.0000
  C   C1516     1.0  0.26151  0.38203  0.79519  1.0000
  H   H1209     1.0  0.47030  0.49008  0.94322  1.0000
  C   C1517     1.0  0.47531  0.51213  0.69213  1.0000
  H   H1210     1.0  0.41183  0.47865  0.55082  1.0000
  H   H1211     1.0  0.42009  0.45727  0.58768  1.0000
  H   H1212     1.0  0.43948  0.43164  0.57616  1.0000
  C   C1518     1.0  0.39738  0.50063  0.49610  1.0000
  H   H1213     1.0  0.48918  0.51167  0.51221  1.0000
  H   H1214     1.0  0.30641  0.37601  0.71943  1.0000
  C   C1519     1.0  0.46000  0.50569  0.74361  1.0000
  C   C1520     1.0  0.35869  0.52844  0.68992  1.0000
  H   H1215     1.0  0.37608  0.56249  0.69022  1.0000
  H   H1216     1.0  0.48864  0.46448  0.62536  1.0000
  C   C1521     1.0  0.28382  0.40139  0.82830  1.0000
  H   H1217     1.0  0.40647  0.56814  0.67847  1.0000
  H   H1218     1.0  0.35384  0.38780  0.86902  1.0000
  C   C1522     1.0  0.26990  0.37425  0.81810  1.0000
  C   C1523     1.0  0.30116  0.33982  0.87968  1.0000
  C   C1524     1.0  0.27565  0.40904  0.80504  1.0000
  H   H1219     1.0  0.44475  0.42757  0.78860  1.0000
  C   C1525     1.0  0.29247  0.41485  0.69185  1.0000
  C   C1526     1.0  0.27538  0.37310  0.89337  1.0000
  C   C1527     1.0  0.32665  0.38140  0.86840  1.0000
  H   H1220     1.0  0.31168  0.58150  0.78586  1.0000
  H   H1221     1.0  0.36399  0.48822  0.77744  1.0000
  C   C1528     1.0  0.42754  0.46582  0.51937  1.0000
  H   H1222     1.0  0.32920  0.55469  0.77539  1.0000
  C   C1529     1.0  0.43543  0.40195  0.78166  1.0000
  C   C1530     1.0  0.44333  0.41727  0.77339  1.0000
  C   C1531     1.0  0.48913  0.56390  0.55600  1.0000
  C   C1532     1.0  0.35069  0.52188  0.66611  1.0000
  C   C1533     1.0  0.43533  0.61344  0.54541  1.0000
  C   C1534     1.0  0.25110  0.37073  0.93688  1.0000
  H   H1223     1.0  0.30949  0.53855  0.67611  1.0000
  H   H1224     1.0  0.39579  0.41083  0.76447  1.0000
  C   C1535     1.0  0.25067  0.35268  0.60114  1.0000
  H   H1225     1.0  0.40039  0.38826  0.72800  1.0000
  C   C1536     1.0  0.43588  0.64653  0.52062  1.0000
  H   H1226     1.0  0.30341  0.35642  0.81409  1.0000
  C   C1537     1.0  0.43381  0.38816  0.76289  1.0000
  H   H1227     1.0  0.36249  0.58455  0.72249  1.0000
  H   H1228     1.0  0.49337  0.50306  0.60899  1.0000
  S   S219      1.0  0.27097  0.64423  0.80008  1.0000
  H   H1229     1.0  0.25332  0.36787  0.86658  1.0000
  H   H1230     1.0  0.48721  0.41441  0.75666  1.0000
  C   C1538     1.0  0.29890  0.35193  0.85797  1.0000
  C   C1539     1.0  0.45013  0.51370  0.72244  1.0000
  C   C1540     1.0  0.30473  0.34734  0.83115  1.0000
  C   C1541     1.0  0.40099  0.58029  0.55695  1.0000
  H   H1231     1.0  0.47049  0.39913  0.81008  1.0000
  C   C1542     1.0  0.35780  0.41744  0.72821  1.0000
  C   C1543     1.0  0.42139  0.56953  0.52189  1.0000
  C   C1544     1.0  0.29258  0.39710  0.69845  1.0000
  H   H1232     1.0  0.36290  0.52954  0.83789  1.0000
  H   H1233     1.0  0.27797  0.42247  0.79977  1.0000
  C   C1545     1.0  0.32102  0.41235  0.89851  1.0000
  C   C1546     1.0  0.42898  0.63251  0.50608  1.0000
  H   H1234     1.0  0.27321  0.64029  0.85969  1.0000
  H   H1235     1.0  0.44758  0.62587  0.58065  1.0000
  C   C1547     1.0  0.46793  0.47470  0.81072  1.0000
  C   C1548     1.0  0.45144  0.47310  0.79873  1.0000
  C   C1549     1.0  0.44928  0.46239  0.77544  1.0000
  C   C1550     1.0  0.46365  0.45297  0.76417  1.0000
  Fe  Fe110     1.0  0.26912  0.34096  0.69849  1.0000
  P   P51       1.0  0.46039  0.43832  0.73516  1.0000
  C   C1551     1.0  0.44960  0.41893  0.74615  1.0000
  C   C1552     1.0  0.44755  0.45014  0.70936  1.0000
  C   C1553     1.0  0.43165  0.44383  0.69953  1.0000
  C   C1554     1.0  0.42224  0.45291  0.67886  1.0000
  C   C1555     1.0  0.42860  0.46828  0.66790  1.0000
  C   C1556     1.0  0.44411  0.47489  0.67808  1.0000
  C   C1557     1.0  0.45338  0.46605  0.69917  1.0000
  C   C1558     1.0  0.44011  0.38966  0.73574  1.0000
  C   C1559     1.0  0.44802  0.40497  0.72740  1.0000
  H   H1236     1.0  0.44647  0.57242  0.61115  1.0000
  H   H1237     1.0  0.46945  0.48276  0.82908  1.0000
  H   H1238     1.0  0.44024  0.48001  0.80775  1.0000
  H   H1239     1.0  0.43631  0.46119  0.76665  1.0000
  C   C1560     1.0  0.37597  0.39428  0.70729  1.0000
  H   H1240     1.0  0.40979  0.44827  0.67168  1.0000
  H   H1241     1.0  0.41235  0.61686  0.59292  1.0000
  H   H1242     1.0  0.42126  0.47534  0.65198  1.0000
  H   H1243     1.0  0.43604  0.65931  0.51108  1.0000
  H   H1244     1.0  0.46519  0.47146  0.70738  1.0000
  H   H1245     1.0  0.43902  0.37888  0.72128  1.0000
  H   H1246     1.0  0.48086  0.51432  0.67182  1.0000
  C   C1561     1.0  0.48054  0.44130  0.49831  1.0000
  P   P52       1.0  0.33790  0.43094  0.72781  1.0000
  C   C1562     1.0  0.33326  0.43994  0.76197  1.0000
  C   C1563     1.0  0.34022  0.44857  0.70343  1.0000
  C   C1564     1.0  0.33180  0.46487  0.70825  1.0000
  C   C1565     1.0  0.33328  0.47837  0.68899  1.0000
  C   C1566     1.0  0.34294  0.47560  0.66464  1.0000
  C   C1567     1.0  0.35123  0.45942  0.65962  1.0000
  C   C1568     1.0  0.34988  0.44593  0.67888  1.0000
  C   C1569     1.0  0.34358  0.45317  0.77279  1.0000
  C   C1570     1.0  0.34030  0.45995  0.79940  1.0000
  C   C1571     1.0  0.32657  0.45381  0.81524  1.0000
  C   C1572     1.0  0.31596  0.44100  0.80437  1.0000
  C   C1573     1.0  0.31926  0.43405  0.77784  1.0000
  H   H1247     1.0  0.35098  0.40275  0.69133  1.0000
  H   H1248     1.0  0.32403  0.46719  0.72677  1.0000
  H   H1249     1.0  0.32703  0.49101  0.69297  1.0000
  H   H1250     1.0  0.34427  0.48602  0.64975  1.0000
  H   H1251     1.0  0.35905  0.45751  0.64100  1.0000
  H   H1252     1.0  0.35645  0.43356  0.67451  1.0000
  H   H1253     1.0  0.35442  0.45795  0.76089  1.0000
  H   H1254     1.0  0.45391  0.50301  0.76342  1.0000
  C   C1574     1.0  0.25854  0.60847  0.52363  1.0000
  H   H1255     1.0  0.30557  0.43605  0.81696  1.0000
  H   H1256     1.0  0.31120  0.42374  0.77022  1.0000
  H   H1257     1.0  0.30580  0.43891  0.69549  1.0000
  H   H1258     1.0  0.49508  0.46654  0.80898  1.0000
  H   H1259     1.0  0.42324  0.54804  0.75802  1.0000
  H   H1260     1.0  0.29381  0.40656  0.89717  1.0000
  H   H1261     1.0  0.28216  0.38897  0.69115  1.0000
  C   C1575     1.0  0.38867  0.39655  0.72777  1.0000
  C   C1576     1.0  0.25559  0.32911  0.83718  1.0000
  P   P53       1.0  0.43499  0.59220  0.56151  1.0000
  C   C1577     1.0  0.43039  0.59473  0.59827  1.0000
  C   C1578     1.0  0.45615  0.58111  0.55788  1.0000
  C   C1579     1.0  0.45762  0.56279  0.55827  1.0000
  C   C1580     1.0  0.47403  0.55426  0.55726  1.0000
  H   H1262     1.0  0.48419  0.47982  0.66987  1.0000
  H   H1263     1.0  0.48490  0.49481  0.75591  1.0000
  C   C1581     1.0  0.47144  0.59069  0.55647  1.0000
  C   C1582     1.0  0.43795  0.58313  0.61776  1.0000
  C   C1583     1.0  0.25474  0.64666  0.82703  1.0000
  C   C1584     1.0  0.42289  0.59853  0.65524  1.0000
  C   C1585     1.0  0.41513  0.60999  0.63597  1.0000
  C   C1586     1.0  0.41883  0.60811  0.60759  1.0000
  H   H1264     1.0  0.32338  0.55024  0.71804  1.0000
  H   H1265     1.0  0.33029  0.39417  0.73563  1.0000
  C   C1587     1.0  0.31980  0.40011  0.72347  1.0000
  H   H1266     1.0  0.36503  0.49800  0.82663  1.0000
  H   H1267     1.0  0.37785  0.38424  0.69156  1.0000
  H   H1268     1.0  0.44617  0.55505  0.56006  1.0000
  C   C1588     1.0  0.24739  0.64480  0.87698  1.0000
  H   H1269     1.0  0.47507  0.54016  0.55849  1.0000
  C   C1589     1.0  0.30687  0.40217  0.89128  1.0000
  C   C1590     1.0  0.25310  0.64777  0.58348  1.0000
  C   C1591     1.0  0.41795  0.57969  0.54579  1.0000
  H   H1270     1.0  0.41975  0.59985  0.67716  1.0000
  H   H1271     1.0  0.40590  0.62008  0.64297  1.0000
  C   C1592     1.0  0.40836  0.55935  0.51042  1.0000
  H   H1272     1.0  0.39284  0.54246  0.77019  1.0000
  C   C1593     1.0  0.28078  0.37447  0.92127  1.0000
  H   H1273     1.0  0.42782  0.37627  0.76956  1.0000
  C   C1594     1.0  0.32310  0.58211  0.77267  1.0000
  C   C1595     1.0  0.32740  0.59798  0.76076  1.0000
  C   C1596     1.0  0.34182  0.59875  0.74313  1.0000
  C   C1597     1.0  0.35190  0.58366  0.73719  1.0000
  C   C1598     1.0  0.34779  0.56766  0.74926  1.0000
  C   C1599     1.0  0.33315  0.56698  0.76681  1.0000
  P   P54       1.0  0.35955  0.54778  0.73922  1.0000
  C   C1600     1.0  0.38202  0.55224  0.73116  1.0000
  C   C1601     1.0  0.35968  0.53202  0.76705  1.0000
  C   C1602     1.0  0.36072  0.51411  0.76093  1.0000
  C   C1603     1.0  0.36237  0.50194  0.78241  1.0000
  C   C1604     1.0  0.36309  0.50748  0.81011  1.0000
  C   C1605     1.0  0.36201  0.52527  0.81641  1.0000
  C   C1606     1.0  0.36042  0.53753  0.79497  1.0000
  C   C1607     1.0  0.39554  0.54821  0.75018  1.0000
  C   C1608     1.0  0.41290  0.55133  0.74333  1.0000
  C   C1609     1.0  0.41691  0.55857  0.71755  1.0000
  C   C1610     1.0  0.40353  0.56271  0.69864  1.0000
  C   C1611     1.0  0.38621  0.55947  0.70534  1.0000
  C   C1612     1.0  0.34904  0.53883  0.70889  1.0000
  C   C1613     1.0  0.33116  0.54219  0.70394  1.0000
  C   C1614     1.0  0.32318  0.53554  0.68011  1.0000
  C   C1615     1.0  0.33297  0.52547  0.66110  1.0000
  S   S220      1.0  0.26192  0.35333  0.65609  1.0000
  C   C1616     1.0  0.24914  0.34522  0.62780  1.0000
  C   C1617     1.0  0.26372  0.61641  0.49895  1.0000
  H   H1274     1.0  0.27293  0.37409  0.96439  1.0000
  H   H1275     1.0  0.45394  0.48859  0.56961  1.0000
  C   C1618     1.0  0.45781  0.51700  0.69677  1.0000
  C   C1619     1.0  0.43428  0.58509  0.64614  1.0000
  H   H1276     1.0  0.49155  0.44748  0.76864  1.0000
  C   C1620     1.0  0.48022  0.45469  0.77635  1.0000
  H   H1277     1.0  0.44790  0.65492  0.55876  1.0000
  C   C1621     1.0  0.26447  0.39936  0.78853  1.0000
  H   H1278     1.0  0.26510  0.64536  0.57207  1.0000
  H   H1279     1.0  0.42629  0.43211  0.70798  1.0000
  H   H1280     1.0  0.31055  0.65426  0.81497  1.0000
  H   H1281     1.0  0.42330  0.60536  0.50675  1.0000
  C   C1622     1.0  0.47762  0.50105  0.73918  1.0000
  C   C1623     1.0  0.38799  0.57013  0.54537  1.0000
  H   H1282     1.0  0.31891  0.42442  0.90998  1.0000
  C   C1624     1.0  0.25357  0.64859  0.61280  1.0000
  H   H1283     1.0  0.27016  0.62874  0.50023  1.0000
  C   C1625     1.0  0.47790  0.47379  0.56164  1.0000
  H   H1284     1.0  0.42332  0.47504  0.50356  1.0000
  C   C1626     1.0  0.26866  0.37334  0.94289  1.0000
  H   H1285     1.0  0.43423  0.56913  0.51250  1.0000
  H   H1286     1.0  0.47083  0.60478  0.55659  1.0000
  S   S221      1.0  0.30339  0.65100  0.73896  1.0000
  H   H1287     1.0  0.26585  0.64677  0.62374  1.0000
  C   C1627     1.0  0.44256  0.64405  0.54747  1.0000
  C   C1628     1.0  0.24757  0.58429  0.49714  1.0000
  H   H1288     1.0  0.42379  0.63444  0.48526  1.0000
  C   C1629     1.0  0.48547  0.50431  0.71334  1.0000
  H   H1289     1.0  0.47461  0.46332  0.57553  1.0000
  H   H1290     1.0  0.26066  0.61489  0.54346  1.0000
  H   H1291     1.0  0.41124  0.55083  0.49285  1.0000
  C   C1630     1.0  0.48614  0.50100  0.52592  1.0000
  C   C1631     1.0  0.39172  0.55952  0.52230  1.0000
  H   H1292     1.0  0.25151  0.64221  0.89815  1.0000
  C   C1632     1.0  0.48329  0.48620  0.93612  1.0000
  H   H1293     1.0  0.28889  0.33337  0.62901  1.0000
  C   C1633     1.0  0.25972  0.64371  0.85500  1.0000
  C   C1634     1.0  0.43909  0.45182  0.51289  1.0000
  H   H1294     1.0  0.45094  0.42772  0.52834  1.0000
  C   C1635     1.0  0.49384  0.47323  0.54739  1.0000
  C   C1636     1.0  0.31283  0.33104  0.82618  1.0000
  C   C1637     1.0  0.48570  0.48146  0.90818  1.0000
  H   H1295     1.0  0.47460  0.48141  0.89414  1.0000
  C   C1638     1.0  0.25046  0.59244  0.52275  1.0000
  C   C1639     1.0  0.48715  0.43621  0.69495  1.0000
  H   H1296     1.0  0.47129  0.46219  0.97469  1.0000
  H   H1297     1.0  0.26699  0.32788  0.82403  1.0000
  H   H1298     1.0  0.36878  0.46903  0.47912  1.0000
  C   C1640     1.0  0.41156  0.50241  0.97229  1.0000
  C   C1641     1.0  0.49412  0.51685  0.61321  1.0000
  H   H1299     1.0  0.24645  0.58637  0.54195  1.0000
  Fe  Fe111     1.0  0.39764  0.96405  0.14512  1.0000
  S   S222      1.0  0.40024  0.93725  0.16334  1.0000
  H   H1300     1.0  0.39411  0.91340  0.29940  1.0000
  Fe  Fe112     1.0  0.40170  0.95085  0.08426  1.0000
  S   S223      1.0  0.40436  0.92276  0.09923  1.0000
  S   S224      1.0  0.40925  0.95789  0.03887  1.0000
  Fe  Fe113     1.0  0.38197  0.92893  0.12928  1.0000
  S   S225      1.0  0.35691  0.91291  0.13715  1.0000
  Fe  Fe114     1.0  0.42217  0.93323  0.13245  1.0000
  S   S226      1.0  0.44833  0.92275  0.14935  1.0000
  S   S227      1.0  0.37828  0.95651  0.11200  1.0000
  S   S228      1.0  0.42057  0.96050  0.11638  1.0000
  Fe  Fe115     1.0  0.28931  0.67340  0.21625  1.0000
  S   S229      1.0  0.30349  0.69891  0.21056  1.0000
  H   H1301     1.0  0.25733  0.84939  0.13804  1.0000
  H   H1302     1.0  0.46280  0.92404  0.98336  1.0000
  S   S230      1.0  0.27723  0.82388  0.18682  1.0000
  C   C1642     1.0  0.26978  0.78642  0.02852  1.0000
  Fe  Fe116     1.0  0.26408  0.83295  0.26553  1.0000
  S   S231      1.0  0.28964  0.81996  0.25198  1.0000
  S   S232      1.0  0.25840  0.83017  0.31280  1.0000
  Fe  Fe117     1.0  0.29116  0.84080  0.21824  1.0000
  S   S233      1.0  0.31748  0.85462  0.21015  1.0000
  Fe  Fe118     1.0  0.27400  0.80439  0.22161  1.0000
  S   S234      1.0  0.26787  0.77531  0.22008  1.0000
  S   S235      1.0  0.26656  0.85486  0.23408  1.0000
  C   C1643     1.0  0.34910  0.97331  0.16499  1.0000
  C   C1644     1.0  0.29354  0.72012  0.21400  1.0000
  C   C1645     1.0  0.27548  0.72259  0.21680  1.0000
  C   C1646     1.0  0.26795  0.73955  0.21905  1.0000
  C   C1647     1.0  0.27839  0.75430  0.21875  1.0000
  C   C1648     1.0  0.29651  0.75186  0.21660  1.0000
  C   C1649     1.0  0.30402  0.73486  0.21391  1.0000
  H   H1303     1.0  0.26732  0.71139  0.21699  1.0000
  S   S236      1.0  0.39445  0.98444  0.30366  1.0000
  H   H1304     1.0  0.30472  0.76307  0.21647  1.0000
  H   H1305     1.0  0.31803  0.73311  0.21185  1.0000
  C   C1650     1.0  0.34619  0.89685  0.15820  1.0000
  C   C1651     1.0  0.32860  0.89302  0.15255  1.0000
  C   C1652     1.0  0.31963  0.88036  0.16808  1.0000
  C   C1653     1.0  0.32806  0.87109  0.18969  1.0000
  C   C1654     1.0  0.34558  0.87506  0.19555  1.0000
  C   C1655     1.0  0.35452  0.88780  0.18013  1.0000
  H   H1306     1.0  0.32185  0.89986  0.13583  1.0000
  H   H1307     1.0  0.30620  0.87771  0.16315  1.0000
  H   H1308     1.0  0.35236  0.86818  0.21219  1.0000
  H   H1309     1.0  0.36796  0.89044  0.18504  1.0000
  C   C1656     1.0  0.46865  0.92823  0.13460  1.0000
  C   C1657     1.0  0.48419  0.92473  0.14959  1.0000
  C   C1658     1.0  0.46969  0.93524  0.10784  1.0000
  H   H1310     1.0  0.48350  0.91932  0.17032  1.0000
  H   H1311     1.0  0.45785  0.93790  0.09602  1.0000
  C   C1659     1.0  0.30102  0.91420  0.22215  1.0000
  H   H1312     1.0  0.31195  0.94865  0.27159  1.0000
  C   C1660     1.0  0.40197  0.97226  0.01140  1.0000
  C   C1661     1.0  0.26259  0.79390  0.05288  1.0000
  C   C1662     1.0  0.30396  0.89764  0.23358  1.0000
  H   H1313     1.0  0.36540  0.92842  0.29367  1.0000
  H   H1314     1.0  0.25393  0.74125  0.22091  1.0000
  C   C1663     1.0  0.31933  0.89383  0.24834  1.0000
  C   C1664     1.0  0.25341  0.77903  0.39454  1.0000
  C   C1665     1.0  0.33193  0.90646  0.25140  1.0000
  H   H1315     1.0  0.29077  0.73553  0.27831  1.0000
  C   C1666     1.0  0.39614  0.97152  0.22172  1.0000
  H   H1316     1.0  0.39528  0.95828  0.26112  1.0000
  H   H1317     1.0  0.39565  0.95962  0.20978  1.0000
  C   C1667     1.0  0.37294  0.92488  0.27534  1.0000
  H   H1318     1.0  0.26545  0.69255  0.44110  1.0000
  H   H1319     1.0  0.31048  0.88239  0.99436  1.0000
  H   H1320     1.0  0.25593  0.81914  0.36994  1.0000
  C   C1668     1.0  0.29985  0.78445  0.15077  1.0000
  C   C1669     1.0  0.39578  0.97081  0.25094  1.0000
  C   C1670     1.0  0.34375  0.95613  0.16291  1.0000
  H   H1321     1.0  0.25725  0.85387  0.08675  1.0000
  H   H1322     1.0  0.34387  0.90306  0.26246  1.0000
  C   C1671     1.0  0.34249  0.94591  0.18682  1.0000
  C   C1672     1.0  0.32915  0.92312  0.23983  1.0000
  C   C1673     1.0  0.25084  0.73128  0.36789  1.0000
  H   H1323     1.0  0.30300  0.81071  0.13639  1.0000
  C   C1674     1.0  0.44808  0.98007  0.41623  1.0000
  C   C1675     1.0  0.35260  0.96256  0.28747  1.0000
  H   H1324     1.0  0.28079  0.80879  0.09953  1.0000
  C   C1676     1.0  0.34823  0.97320  0.31027  1.0000
  C   C1677     1.0  0.45288  0.96375  0.42715  1.0000
  C   C1678     1.0  0.44295  0.99121  0.25479  1.0000
  C   C1679     1.0  0.28038  0.69799  0.31153  1.0000
  H   H1325     1.0  0.29455  0.88756  0.23045  1.0000
  C   C1680     1.0  0.27952  0.75559  0.33198  1.0000
  C   C1681     1.0  0.31350  0.92696  0.22542  1.0000
  H   H1326     1.0  0.27949  0.79119  0.98720  1.0000
  H   H1327     1.0  0.39972  0.90999  0.21050  1.0000
  C   C1682     1.0  0.39592  0.98614  0.26698  1.0000
  H   H1328     1.0  0.29538  0.77603  0.34824  1.0000
  H   H1329     1.0  0.25261  0.71004  0.04617  1.0000
  C   C1683     1.0  0.47830  0.95062  0.24952  1.0000
  H   H1330     1.0  0.35624  0.97542  0.23455  1.0000
  H   H1331     1.0  0.28539  0.74574  0.34550  1.0000
  C   C1684     1.0  0.32224  0.95541  0.28211  1.0000
  H   H1332     1.0  0.33893  0.93243  0.18456  1.0000
  C   C1685     1.0  0.26727  0.69779  0.15059  1.0000
  H   H1333     1.0  0.48687  0.98224  0.26920  1.0000
  P   P55       1.0  0.34536  0.93951  0.24391  1.0000
  H   H1334     1.0  0.30938  0.78549  0.16738  1.0000
  H   H1335     1.0  0.43804  0.98758  0.23456  1.0000
  C   C1686     1.0  0.26612  0.67843  0.44151  1.0000
  C   C1687     1.0  0.46742  0.93572  0.99328  1.0000
  C   C1688     1.0  0.45162  0.94817  0.22279  1.0000
  C   C1689     1.0  0.45992  0.95496  0.19958  1.0000
  H   H1336     1.0  0.26174  0.68576  0.08309  1.0000
  C   C1690     1.0  0.29499  0.68767  0.30384  1.0000
  H   H1337     1.0  0.35838  0.97995  0.32131  1.0000
  H   H1338     1.0  0.48674  0.94286  0.07468  1.0000
  C   C1691     1.0  0.38916  0.91620  0.27869  1.0000
  H   H1339     1.0  0.26185  0.83654  0.03300  1.0000
  H   H1340     1.0  0.31915  0.68653  0.28093  1.0000
  C   C1692     1.0  0.46023  0.96255  0.45376  1.0000
  C   C1693     1.0  0.33088  0.97504  0.31894  1.0000
  C   C1694     1.0  0.25351  0.72339  0.05346  1.0000
  H   H1341     1.0  0.28595  0.67618  0.40983  1.0000
  C   C1695     1.0  0.27773  0.66921  0.42402  1.0000
  H   H1342     1.0  0.25369  0.81811  0.07239  1.0000
  C   C1696     1.0  0.37621  0.92312  0.22523  1.0000
  C   C1697     1.0  0.43913  0.98066  0.27752  1.0000
  C   C1698     1.0  0.46129  0.99061  0.14774  1.0000
  C   C1699     1.0  0.38722  0.98344  0.01386  1.0000
  C   C1700     1.0  0.45678  0.94468  0.01254  1.0000
  C   C1701     1.0  0.44489  0.99318  0.15998  1.0000
  H   H1343     1.0  0.45287  0.95622  0.18004  1.0000
  H   H1344     1.0  0.31848  0.66547  0.08536  1.0000
  C   C1702     1.0  0.28530  0.77267  0.33349  1.0000
  H   H1345     1.0  0.28397  0.68457  0.12075  1.0000
  H   H1346     1.0  0.43812  0.94442  0.22119  1.0000
  C   C1703     1.0  0.26590  0.78101  0.29574  1.0000
  C   C1704     1.0  0.25569  0.75806  0.07203  1.0000
  H   H1347     1.0  0.27040  0.69200  0.32368  1.0000
  H   H1348     1.0  0.32757  0.98325  0.33669  1.0000
  C   C1705     1.0  0.47739  0.95957  0.20123  1.0000
  C   C1706     1.0  0.35210  0.97005  0.21491  1.0000
  C   C1707     1.0  0.33968  0.95342  0.27332  1.0000
  H   H1349     1.0  0.25343  0.89307  0.40112  1.0000
  H   H1350     1.0  0.48387  0.97693  0.03057  1.0000
  C   C1708     1.0  0.31788  0.96618  0.30481  1.0000
  S   S237      1.0  0.39625  0.98892  0.17132  1.0000
  C   C1709     1.0  0.39235  0.91433  0.22865  1.0000
  H   H1351     1.0  0.26634  0.77780  0.38557  1.0000
  C   C1710     1.0  0.27869  0.71545  0.30275  1.0000
  C   C1711     1.0  0.26645  0.75117  0.31285  1.0000
  H   H1352     1.0  0.27215  0.77252  0.02674  1.0000
  C   C1712     1.0  0.39890  0.91099  0.25534  1.0000
  C   C1713     1.0  0.44442  0.98531  0.30429  1.0000
  C   C1714     1.0  0.26404  0.82254  0.03171  1.0000
  C   C1715     1.0  0.46083  0.94595  0.24775  1.0000
  H   H1353     1.0  0.45067  0.95206  0.41512  1.0000
  H   H1354     1.0  0.42284  0.96387  0.98394  1.0000
  C   C1716     1.0  0.34641  0.95288  0.21310  1.0000
  C   C1717     1.0  0.48610  0.93804  0.09579  1.0000
  C   C1718     1.0  0.49011  0.95681  0.00011  1.0000
  H   H1355     1.0  0.31101  0.93973  0.21646  1.0000
  C   C1719     1.0  0.25141  0.78401  0.42239  1.0000
  C   C1720     1.0  0.36654  0.92882  0.24856  1.0000
  C   C1721     1.0  0.30809  0.69467  0.28759  1.0000
  H   H1356     1.0  0.41141  0.90416  0.25788  1.0000
  H   H1357     1.0  0.28919  0.91703  0.21038  1.0000
  C   C1722     1.0  0.29625  0.79864  0.13327  1.0000
  H   H1358     1.0  0.36610  0.96144  0.28103  1.0000
  H   H1359     1.0  0.37126  0.92527  0.20432  1.0000
  C   C1723     1.0  0.26982  0.73059  0.05753  1.0000
  C   C1724     1.0  0.47940  0.96558  0.01971  1.0000
  H   H1360     1.0  0.46369  0.94989  0.46245  1.0000
  H   H1361     1.0  0.43140  0.96923  0.27455  1.0000
  S   S238      1.0  0.26145  0.67249  0.23010  1.0000
  C   C1725     1.0  0.27092  0.74784  0.06673  1.0000
  H   H1362     1.0  0.26108  0.79078  0.28112  1.0000
  H   H1363     1.0  0.44389  0.94008  0.01745  1.0000
  C   C1726     1.0  0.30664  0.71204  0.27910  1.0000
  C   C1727     1.0  0.25076  0.70545  0.15562  1.0000
  C   C1728     1.0  0.29193  0.72234  0.28629  1.0000
  C   C1729     1.0  0.26016  0.76393  0.29402  1.0000
  C   C1730     1.0  0.39662  0.98758  0.20814  1.0000
  H   H1364     1.0  0.45442  0.94053  0.26568  1.0000
  P   P56       1.0  0.25945  0.72883  0.31099  1.0000
  C   C1731     1.0  0.27459  0.78199  0.10857  1.0000
  C   C1732     1.0  0.27826  0.76783  0.12637  1.0000
  C   C1733     1.0  0.29093  0.76903  0.14718  1.0000
  H   H1365     1.0  0.28162  0.72279  0.05359  1.0000
  H   H1366     1.0  0.44226  0.98109  0.39569  1.0000
  H   H1367     1.0  0.32945  0.85801  0.01190  1.0000
  H   H1368     1.0  0.46262  0.98297  0.12876  1.0000
  H   H1369     1.0  0.28369  0.75327  0.06960  1.0000
  H   H1370     1.0  0.26277  0.78656  0.43507  1.0000
  H   H1371     1.0  0.25598  0.70348  0.26528  1.0000
  H   H1372     1.0  0.45456  0.96619  0.04109  1.0000
  C   C1734     1.0  0.28363  0.79747  0.11230  1.0000
  H   H1373     1.0  0.48350  0.96434  0.18268  1.0000
  H   H1374     1.0  0.27121  0.75590  0.12456  1.0000
  H   H1375     1.0  0.29363  0.75806  0.16083  1.0000
  H   H1376     1.0  0.32172  0.88082  0.25657  1.0000
  C   C1735     1.0  0.27127  0.81504  0.00770  1.0000
  C   C1736     1.0  0.31983  0.85562  0.99583  1.0000
  H   H1377     1.0  0.25733  0.74349  0.36843  1.0000
  C   C1737     1.0  0.41142  0.97241  0.98619  1.0000
  C   C1738     1.0  0.30913  0.86937  0.98595  1.0000
  H   H1378     1.0  0.24756  0.79315  0.13924  1.0000
  C   C1739     1.0  0.27403  0.79698  0.00599  1.0000
  S   S239      1.0  0.24869  0.81696  0.23596  1.0000
  C   C1740     1.0  0.46282  0.95952  0.02585  1.0000
  H   H1379     1.0  0.31660  0.71730  0.26585  1.0000
  H   H1380     1.0  0.25016  0.76777  0.16874  1.0000
  C   C1741     1.0  0.35328  0.98026  0.19099  1.0000
  H   H1381     1.0  0.25135  0.76081  0.27729  1.0000
  H   H1382     1.0  0.34109  0.95046  0.14268  1.0000
  C   C1742     1.0  0.25950  0.81203  0.05407  1.0000
  C   C1743     1.0  0.24983  0.72148  0.34318  1.0000
  C   C1744     1.0  0.25516  0.66939  0.45919  1.0000
  H   H1383     1.0  0.35055  0.98105  0.14636  1.0000
  H   H1384     1.0  0.29592  0.67407  0.30994  1.0000
  H   H1385     1.0  0.30442  0.96756  0.31157  1.0000
  H   H1386     1.0  0.27699  0.69719  0.16705  1.0000
  C   C1745     1.0  0.27832  0.78544  0.31561  1.0000
  C   C1746     1.0  0.45776  0.99409  0.45872  1.0000
  P   P57       1.0  0.25753  0.78063  0.08265  1.0000
  H   H1387     1.0  0.44079  0.97749  0.32198  1.0000
  H   H1388     1.0  0.26040  0.85424  0.98092  1.0000
  H   H1389     1.0  0.28280  0.79870  0.31660  1.0000
  Fe  Fe119     1.0  0.25295  0.83727  0.20350  1.0000
  C   C1747     1.0  0.27126  0.69077  0.12444  1.0000
  H   H1390     1.0  0.24795  0.71085  0.17604  1.0000
  H   H1391     1.0  0.43342  0.98782  0.15045  1.0000
  C   C1748     1.0  0.48671  0.95768  0.22634  1.0000
  C   C1749     1.0  0.25873  0.69145  0.10327  1.0000
  H   H1392     1.0  0.25274  0.74915  0.00006  1.0000
  H   H1393     1.0  0.32646  0.82821  0.99268  1.0000
  H   H1394     1.0  0.37976  0.98357  0.03297  1.0000
  H   H1395     1.0  0.41219  0.98541  0.44075  1.0000
  H   H1396     1.0  0.27463  0.82327  0.99045  1.0000
  C   C1750     1.0  0.40642  0.98602  0.46127  1.0000
  H   H1397     1.0  0.48531  0.94861  0.26893  1.0000
  C   C1751     1.0  0.46288  0.97767  0.46935  1.0000
  H   H1398     1.0  0.24605  0.67645  0.47262  1.0000
  C   C1752     1.0  0.31812  0.83884  0.98498  1.0000
  H   H1399     1.0  0.35815  0.99331  0.19248  1.0000
  C   C1753     1.0  0.48406  0.94168  0.98721  1.0000
  C   C1754     1.0  0.38189  0.99432  0.99140  1.0000
  H   H1400     1.0  0.49456  0.96812  0.40399  1.0000
  Fe  Fe120     1.0  0.40552  0.96671  0.64365  1.0000
  S   S240      1.0  0.41187  0.94029  0.66070  1.0000
  C   C1755     1.0  0.45880  0.96180  0.80739  1.0000
  Fe  Fe121     1.0  0.41103  0.95509  0.58295  1.0000
  S   S241      1.0  0.41783  0.92756  0.59713  1.0000
  S   S242      1.0  0.41498  0.96125  0.53614  1.0000
  Fe  Fe122     1.0  0.39346  0.92818  0.62731  1.0000
  S   S243      1.0  0.36251  0.89586  0.63621  1.0000
  Fe  Fe123     1.0  0.43415  0.94008  0.63026  1.0000
  S   S244      1.0  0.46095  0.93400  0.64992  1.0000
  S   S245      1.0  0.38742  0.95687  0.61076  1.0000
  S   S246      1.0  0.42856  0.96718  0.61494  1.0000
  Fe  Fe124     1.0  0.29248  0.67299  0.71219  1.0000
  S   S247      1.0  0.30505  0.69947  0.70754  1.0000
  C   C1756     1.0  0.45358  0.98838  0.89802  1.0000
  S   S248      1.0  0.26500  0.67046  0.72713  1.0000
  S   S249      1.0  0.28462  0.81209  0.70211  1.0000
  H   H1401     1.0  0.44868  0.95643  0.94605  1.0000
  Fe  Fe125     1.0  0.26034  0.83466  0.76586  1.0000
  S   S250      1.0  0.28749  0.82265  0.76856  1.0000
  H   H1402     1.0  0.43674  0.98624  0.56308  1.0000
  Fe  Fe126     1.0  0.29270  0.83581  0.72704  1.0000
  S   S251      1.0  0.31758  0.85221  0.72396  1.0000
  Fe  Fe127     1.0  0.27724  0.80024  0.74322  1.0000
  S   S252      1.0  0.27581  0.77185  0.75766  1.0000
  S   S253      1.0  0.26592  0.84911  0.72600  1.0000
  C   C1757     1.0  0.29577  0.67794  0.82400  1.0000
  C   C1758     1.0  0.29582  0.71970  0.71960  1.0000
  C   C1759     1.0  0.30457  0.73518  0.71422  1.0000
  C   C1760     1.0  0.29803  0.75144  0.72421  1.0000
  C   C1761     1.0  0.28280  0.75236  0.74021  1.0000
  C   C1762     1.0  0.27386  0.73693  0.74514  1.0000
  C   C1763     1.0  0.28029  0.72071  0.73490  1.0000
  H   H1403     1.0  0.31671  0.73455  0.70276  1.0000
  H   H1404     1.0  0.30519  0.76312  0.72057  1.0000
  H   H1405     1.0  0.26208  0.73747  0.75750  1.0000
  H   H1406     1.0  0.27348  0.70894  0.73944  1.0000
  C   C1764     1.0  0.34885  0.88517  0.66096  1.0000
  C   C1765     1.0  0.33701  0.87276  0.65135  1.0000
  C   C1766     1.0  0.32685  0.86307  0.67007  1.0000
  C   C1767     1.0  0.32854  0.86540  0.69892  1.0000
  C   C1768     1.0  0.34023  0.87794  0.70849  1.0000
  C   C1769     1.0  0.35010  0.88787  0.68976  1.0000
  H   H1407     1.0  0.33585  0.87047  0.62920  1.0000
  H   H1408     1.0  0.31806  0.85348  0.66218  1.0000
  H   H1409     1.0  0.34178  0.87988  0.73066  1.0000
  H   H1410     1.0  0.35905  0.89725  0.69769  1.0000
  C   C1770     1.0  0.48155  0.93324  0.63303  1.0000
  C   C1771     1.0  0.48324  0.92885  0.60486  1.0000
  C   C1772     1.0  0.45415  0.97954  0.80752  1.0000
  H   H1411     1.0  0.47170  0.92667  0.59249  1.0000
  C   C1773     1.0  0.29666  0.86633  0.96533  1.0000
  H   H1412     1.0  0.43667  0.99232  0.75504  1.0000
  H   H1413     1.0  0.43757  0.99284  0.51330  1.0000
  C   C1774     1.0  0.40572  0.97541  0.50973  1.0000
  H   H1414     1.0  0.25020  0.73461  0.61171  1.0000
  C   C1775     1.0  0.31930  0.67574  0.79044  1.0000
  C   C1776     1.0  0.38014  0.92008  0.66140  1.0000
  H   H1415     1.0  0.45499  0.98061  0.97771  1.0000
  H   H1416     1.0  0.38762  0.86733  0.64389  1.0000
  H   H1417     1.0  0.26516  0.77010  0.85468  1.0000
  H   H1418     1.0  0.29554  0.69209  0.88130  1.0000
  C   C1777     1.0  0.25361  0.86118  0.96430  1.0000
  H   H1419     1.0  0.45434  0.94835  0.70592  1.0000
  H   H1420     1.0  0.40026  0.95875  0.75996  1.0000
  H   H1421     1.0  0.39976  0.96062  0.70845  1.0000
  H   H1422     1.0  0.30459  0.82265  0.95637  1.0000
  C   C1778     1.0  0.39119  0.86955  0.71456  1.0000
  H   H1423     1.0  0.49015  0.97335  0.89602  1.0000
  H   H1424     1.0  0.25375  0.86713  0.89388  1.0000
  H   H1425     1.0  0.28616  0.67704  0.92389  1.0000
  C   C1779     1.0  0.37298  0.84584  0.70045  1.0000
  C   C1780     1.0  0.38091  0.85546  0.72143  1.0000
  C   C1781     1.0  0.40613  0.98335  0.96375  1.0000
  C   C1782     1.0  0.48320  0.98625  0.79166  1.0000
  H   H1426     1.0  0.36935  0.84275  0.65627  1.0000
  H   H1427     1.0  0.45303  0.99058  0.87574  1.0000
  H   H1428     1.0  0.30791  0.77359  0.85560  1.0000
  H   H1429     1.0  0.25459  0.67393  0.93364  1.0000
  C   C1783     1.0  0.45468  0.98302  0.95557  1.0000
  C   C1784     1.0  0.25391  0.75817  0.56349  1.0000
  H   H1430     1.0  0.25992  0.74555  0.56792  1.0000
  C   C1785     1.0  0.24986  0.77388  0.64472  1.0000
  C   C1786     1.0  0.28339  0.81036  0.91570  1.0000
  C   C1787     1.0  0.31624  0.69319  0.78326  1.0000
  H   H1431     1.0  0.32920  0.66797  0.77956  1.0000
  H   H1432     1.0  0.24953  0.73634  0.82430  1.0000
  P   P58       1.0  0.27816  0.84568  0.92845  1.0000
  C   C1788     1.0  0.28642  0.85087  0.89436  1.0000
  H   H1433     1.0  0.47901  0.94241  0.79947  1.0000
  C   C1789     1.0  0.48802  0.96841  0.79144  1.0000
  C   C1790     1.0  0.30049  0.86198  0.89116  1.0000
  C   C1791     1.0  0.30672  0.86577  0.86454  1.0000
  C   C1792     1.0  0.29897  0.85853  0.84100  1.0000
  C   C1793     1.0  0.28496  0.84751  0.84406  1.0000
  C   C1794     1.0  0.27865  0.84375  0.87058  1.0000
  C   C1795     1.0  0.27223  0.82306  0.92809  1.0000
  C   C1796     1.0  0.29971  0.74949  0.87375  1.0000
  C   C1797     1.0  0.26335  0.78784  0.92780  1.0000
  C   C1798     1.0  0.39476  0.90175  0.62120  1.0000
  H   H1434     1.0  0.24950  0.78093  0.81269  1.0000
  C   C1799     1.0  0.24994  0.86841  0.91549  1.0000
  C   C1800     1.0  0.39356  0.90623  0.65187  1.0000
  C   C1801     1.0  0.45444  0.96218  0.71049  1.0000
  H   H1435     1.0  0.36047  0.93046  0.59505  1.0000
  H   H1436     1.0  0.44105  0.98389  0.81356  1.0000
  S   S254      1.0  0.40269  0.98410  0.80300  1.0000
  C   C1802     1.0  0.39165  0.98712  0.51480  1.0000
  H   H1437     1.0  0.24841  0.90879  0.60332  1.0000
  H   H1438     1.0  0.30666  0.86780  0.90904  1.0000
  H   H1439     1.0  0.31751  0.87441  0.86209  1.0000
  H   H1440     1.0  0.30368  0.86152  0.82032  1.0000
  H   H1441     1.0  0.27883  0.84206  0.82579  1.0000
  H   H1442     1.0  0.26757  0.83543  0.87246  1.0000
  C   C1803     1.0  0.29474  0.84946  0.95447  1.0000
  H   H1443     1.0  0.48779  0.96309  0.94418  1.0000
  C   C1804     1.0  0.36827  0.92928  0.64052  1.0000
  S   S255      1.0  0.40007  0.99043  0.67096  1.0000
  C   C1805     1.0  0.25933  0.85958  0.93659  1.0000
  C   C1806     1.0  0.29636  0.72862  0.64408  1.0000
  C   C1807     1.0  0.28593  0.71424  0.64021  1.0000
  C   C1808     1.0  0.26942  0.71646  0.62817  1.0000
  C   C1809     1.0  0.26328  0.73306  0.62003  1.0000
  C   C1810     1.0  0.27378  0.74759  0.62342  1.0000
  C   C1811     1.0  0.29025  0.74527  0.63613  1.0000
  P   P59       1.0  0.26484  0.76928  0.61651  1.0000
  H   H1444     1.0  0.34050  0.98674  0.67290  1.0000
  C   C1812     1.0  0.28177  0.78508  0.61639  1.0000
  C   C1813     1.0  0.27967  0.80089  0.63101  1.0000
  C   C1814     1.0  0.29256  0.81335  0.62976  1.0000
  C   C1815     1.0  0.30755  0.81019  0.61378  1.0000
  C   C1816     1.0  0.30960  0.79461  0.59877  1.0000
  C   C1817     1.0  0.29669  0.78215  0.59988  1.0000
  C   C1818     1.0  0.41116  0.90602  0.70731  1.0000
  C   C1819     1.0  0.28611  0.74217  0.82116  1.0000
  H   H1445     1.0  0.32365  0.69890  0.76656  1.0000
  H   H1446     1.0  0.29073  0.72457  0.88592  1.0000
  C   C1820     1.0  0.44440  0.98695  0.73799  1.0000
  C   C1821     1.0  0.25444  0.77192  0.58288  1.0000
  C   C1822     1.0  0.40030  0.97134  0.75001  1.0000
  C   C1823     1.0  0.30320  0.70314  0.79681  1.0000
  C   C1824     1.0  0.47823  0.95753  0.54072  1.0000
  C   C1825     1.0  0.43630  0.89562  0.64551  1.0000
  H   H1447     1.0  0.36441  0.83540  0.70581  1.0000
  H   H1448     1.0  0.30897  0.72685  0.65414  1.0000
  H   H1449     1.0  0.29051  0.70145  0.64727  1.0000
  H   H1450     1.0  0.26125  0.70530  0.62590  1.0000
  H   H1451     1.0  0.26140  0.68395  0.79538  1.0000
  H   H1452     1.0  0.29823  0.75629  0.64079  1.0000
  H   H1453     1.0  0.26804  0.80376  0.64321  1.0000
  H   H1454     1.0  0.29089  0.82551  0.64119  1.0000
  H   H1455     1.0  0.31750  0.81990  0.61292  1.0000
  H   H1456     1.0  0.32114  0.79227  0.58613  1.0000
  H   H1457     1.0  0.29831  0.77025  0.58783  1.0000
  C   C1826     1.0  0.39324  0.87442  0.68657  1.0000
  C   C1827     1.0  0.38290  0.91096  0.60021  1.0000
  H   H1458     1.0  0.47999  0.92024  0.50227  1.0000
  C   C1828     1.0  0.44479  0.96904  0.73283  1.0000
  H   H1459     1.0  0.26971  0.77024  0.67666  1.0000
  C   C1829     1.0  0.45681  0.87173  0.63566  1.0000
  C   C1830     1.0  0.28173  0.69117  0.88562  1.0000
  H   H1460     1.0  0.35831  0.93859  0.64759  1.0000
  H   H1461     1.0  0.41346  0.98313  0.94452  1.0000
  H   H1462     1.0  0.46872  0.86684  0.62581  1.0000
  C   C1831     1.0  0.42838  0.91103  0.71248  1.0000
  H   H1463     1.0  0.39732  0.87660  0.73121  1.0000
  H   H1464     1.0  0.25830  0.84871  0.58478  1.0000
  H   H1465     1.0  0.24957  0.77636  0.71560  1.0000
  H   H1466     1.0  0.43887  0.90751  0.69833  1.0000
  H   H1467     1.0  0.38464  0.90734  0.72297  1.0000
  C   C1832     1.0  0.25779  0.71032  0.81137  1.0000
  C   C1833     1.0  0.29150  0.73372  0.86898  1.0000
  H   H1468     1.0  0.44553  0.92471  0.73992  1.0000
  C   C1834     1.0  0.45068  0.97184  0.90881  1.0000
  H   H1469     1.0  0.42197  0.93371  0.77294  1.0000
  H   H1470     1.0  0.25984  0.77430  0.92782  1.0000
  C   C1835     1.0  0.48365  0.93288  0.51007  1.0000
  S   S256      1.0  0.24999  0.81193  0.74282  1.0000
  H   H1471     1.0  0.43268  0.90926  0.64366  1.0000
  H   H1472     1.0  0.39159  0.92509  0.76409  1.0000
  H   H1473     1.0  0.45055  0.84693  0.65330  1.0000
  C   C1836     1.0  0.36953  0.92453  0.60986  1.0000
  H   H1474     1.0  0.28099  0.73962  0.80061  1.0000
  C   C1837     1.0  0.24696  0.73552  0.96196  1.0000
  C   C1838     1.0  0.44731  0.99372  0.55494  1.0000
  C   C1839     1.0  0.45122  0.96916  0.93758  1.0000
  C   C1840     1.0  0.37574  0.84998  0.67255  1.0000
  C   C1841     1.0  0.26923  0.69805  0.86681  1.0000
  C   C1842     1.0  0.45169  0.88928  0.63295  1.0000
  H   H1475     1.0  0.37872  0.85221  0.74304  1.0000
  H   H1476     1.0  0.40351  0.89132  0.61411  1.0000
  C   C1843     1.0  0.25141  0.69626  0.87263  1.0000
  C   C1844     1.0  0.43226  0.92089  0.73613  1.0000
  C   C1845     1.0  0.46390  0.97319  0.69346  1.0000
  C   C1846     1.0  0.40189  0.92107  0.74976  1.0000
  C   C1847     1.0  0.44660  0.86055  0.65116  1.0000
  C   C1848     1.0  0.42586  0.88453  0.66091  1.0000
  H   H1477     1.0  0.29547  0.81407  0.90601  1.0000
  C   C1849     1.0  0.25644  0.81797  0.93975  1.0000
  H   H1478     1.0  0.30513  0.75225  0.89408  1.0000
  H   H1479     1.0  0.48543  0.95022  0.73766  1.0000
  C   C1850     1.0  0.24925  0.83696  0.62267  1.0000
  C   C1851     1.0  0.25605  0.77322  0.67226  1.0000
  P   P60       1.0  0.40593  0.89298  0.67700  1.0000
  H   H1480     1.0  0.47036  0.96387  0.55672  1.0000
  H   H1481     1.0  0.46162  0.93551  0.53790  1.0000
  C   C1852     1.0  0.40074  0.98644  0.76649  1.0000
  C   C1853     1.0  0.24561  0.76071  0.53773  1.0000
  H   H1482     1.0  0.44771  0.96119  0.89490  1.0000
  H   H1483     1.0  0.43726  0.96060  0.74584  1.0000
  P   P61       1.0  0.27606  0.70857  0.83510  1.0000
  C   C1854     1.0  0.47335  0.94141  0.53022  1.0000
  C   C1855     1.0  0.29446  0.75783  0.82589  1.0000
  H   H1484     1.0  0.42361  0.85803  0.67591  1.0000
  H   H1485     1.0  0.44927  0.95241  0.81345  1.0000
  H   H1486     1.0  0.37840  0.92313  0.68313  1.0000
  C   C1856     1.0  0.49289  0.92391  0.72633  1.0000
  H   H1487     1.0  0.45968  0.89808  0.62128  1.0000
  Fe  Fe128     1.0  0.25776  0.82499  0.70319  1.0000
  C   C1857     1.0  0.41903  0.92592  0.75474  1.0000
  C   C1858     1.0  0.28482  0.72979  0.84248  1.0000
  H   H1488     1.0  0.30088  0.71646  0.79022  1.0000
  H   H1489     1.0  0.28738  0.67143  0.83847  1.0000
  C   C1859     1.0  0.43123  0.86692  0.66387  1.0000
  H   H1490     1.0  0.47291  0.97969  0.63165  1.0000
  C   C1860     1.0  0.38597  0.86409  0.66563  1.0000
  C   C1861     1.0  0.25352  0.69597  0.79477  1.0000
  C   C1862     1.0  0.39797  0.91116  0.72623  1.0000
  C   C1863     1.0  0.40002  0.97239  0.72079  1.0000
  C   C1864     1.0  0.25208  0.80044  0.93964  1.0000
  C   C1865     1.0  0.29307  0.69571  0.81778  1.0000
  H   H1491     1.0  0.38341  0.90722  0.57847  1.0000
  H   H1492     1.0  0.28757  0.78310  0.90596  1.0000
  C   C1866     1.0  0.27897  0.79281  0.91565  1.0000
  C   C1867     1.0  0.47565  0.95623  0.79938  1.0000
  H   H1493     1.0  0.29563  0.76711  0.80903  1.0000
  C   C1868     1.0  0.30133  0.76148  0.85213  1.0000
  H   H1494     1.0  0.47124  0.96745  0.67641  1.0000
  H   H1495     1.0  0.46862  0.97647  0.48984  1.0000
  C   C1869     1.0  0.27648  0.68268  0.90979  1.0000
  H   H1496     1.0  0.26054  0.84045  0.63476  1.0000
  C   C1870     1.0  0.30567  0.83575  0.96433  1.0000
  C   C1871     1.0  0.48639  0.98330  0.63408  1.0000
  H   H1497     1.0  0.24610  0.71645  0.70517  1.0000
  C   C1872     1.0  0.24683  0.72536  0.81102  1.0000
  C   C1873     1.0  0.49319  0.96537  0.53066  1.0000
  H   H1498     1.0  0.48278  0.92299  0.71053  1.0000
  H   H1499     1.0  0.24723  0.82743  0.94862  1.0000
  C   C1874     1.0  0.24809  0.69232  0.55717  1.0000
  C   C1875     1.0  0.40000  0.98865  0.70771  1.0000
  C   C1876     1.0  0.46631  0.99171  0.79956  1.0000
  C   C1877     1.0  0.25873  0.68096  0.91537  1.0000
  H   H1500     1.0  0.28850  0.87717  0.95791  1.0000
  H   H1501     1.0  0.25583  0.72457  0.96638  1.0000
  H   H1502     1.0  0.24939  0.75535  0.89195  1.0000
  H   H1503     1.0  0.25886  0.68303  0.56055  1.0000
  C   C1878     1.0  0.24789  0.84169  0.59440  1.0000
  H   H1504     1.0  0.25369  0.69544  0.51370  1.0000
  C   C1879     1.0  0.24739  0.78842  0.57545  1.0000
  H   H1505     1.0  0.38581  0.98770  0.53527  1.0000
  H   H1506     1.0  0.36154  0.99077  0.79034  1.0000
  C   C1880     1.0  0.41303  0.97501  0.48276  1.0000
  C   C1881     1.0  0.25125  0.76853  0.85291  1.0000
  H   H1507     1.0  0.49230  0.93443  0.97262  1.0000
  C   C1882     1.0  0.30892  0.66807  0.81056  1.0000
  C   C1883     1.0  0.46336  0.99127  0.69825  1.0000
  H   H1508     1.0  0.24811  0.79936  0.58973  1.0000
  C   C1884     1.0  0.49438  0.93929  0.74174  1.0000
  C   C1885     1.0  0.24623  0.68776  0.89681  1.0000
  H   H1509     1.0  0.24563  0.81382  0.82724  1.0000
  H   H1510     1.0  0.49546  0.96578  0.60162  1.0000
  C   C1886     1.0  0.39120  0.99434  0.96608  1.0000
  H   H1511     1.0  0.42391  0.96608  0.47840  1.0000
  Fe  Fe129     1.0  0.70996  0.14718  0.21224  1.0000
  S   S257      1.0  0.68182  0.14999  0.22706  1.0000
  S   S258      1.0  0.71453  0.14429  0.16456  1.0000
  Fe  Fe130     1.0  0.72342  0.14786  0.27295  1.0000
  S   S259      1.0  0.69663  0.15104  0.29094  1.0000
  C   C1887     1.0  0.62299  0.00847  0.28536  1.0000
  Fe  Fe131     1.0  0.68849  0.13028  0.26074  1.0000
  S   S260      1.0  0.67479  0.10516  0.27515  1.0000
  Fe  Fe132     1.0  0.69205  0.17042  0.25638  1.0000
  S   S261      1.0  0.67747  0.19589  0.26756  1.0000
  S   S262      1.0  0.71600  0.12607  0.24405  1.0000
  S   S263      1.0  0.71953  0.16864  0.24008  1.0000
  Fe  Fe133     1.0  0.70099  0.29944  0.23514  1.0000
  S   S264      1.0  0.72673  0.31019  0.22265  1.0000
  S   S265      1.0  0.70544  0.26988  0.23180  1.0000
  S   S266      1.0  0.68614  0.31707  0.20536  1.0000
  Fe  Fe134     1.0  0.55242  0.03426  0.33900  1.0000
  S   S267      1.0  0.55866  0.00742  0.35536  1.0000
  S   S268      1.0  0.52592  0.04364  0.32183  1.0000
  Fe  Fe135     1.0  0.59146  0.04479  0.33944  1.0000
  S   S269      1.0  0.60022  0.01831  0.35666  1.0000
  S   S270      1.0  0.60627  0.06937  0.32555  1.0000
  Fe  Fe136     1.0  0.58119  0.00733  0.32536  1.0000
  H   H1512     1.0  0.64479  0.03675  0.12537  1.0000
  Fe  Fe137     1.0  0.57683  0.02025  0.38575  1.0000
  S   S271      1.0  0.57298  0.01489  0.43300  1.0000
  S   S272      1.0  0.57384  0.03330  0.30718  1.0000
  S   S273      1.0  0.56924  0.04752  0.37054  1.0000
  H   H1513     1.0  0.72226  0.10860  0.30272  1.0000
  H   H1514     1.0  0.52025  0.99976  0.22310  1.0000
  C   C1888     1.0  0.71145  0.25943  0.16055  1.0000
  H   H1515     1.0  0.72468  0.18684  0.30792  1.0000
  C   C1889     1.0  0.50341  0.05321  0.25288  1.0000
  H   H1516     1.0  0.71766  0.25616  0.18020  1.0000
  H   H1517     1.0  0.61931  0.09693  0.38069  1.0000
  H   H1518     1.0  0.57122  0.01031  0.26049  1.0000
  C   C1890     1.0  0.50433  0.03502  0.25378  1.0000
  C   C1891     1.0  0.50560  0.03886  0.33709  1.0000
  C   C1892     1.0  0.50457  0.02829  0.36065  1.0000
  C   C1893     1.0  0.70952  0.24668  0.13981  1.0000
  H   H1519     1.0  0.51641  0.02294  0.37007  1.0000
  C   C1894     1.0  0.65552  0.09563  0.28934  1.0000
  C   C1895     1.0  0.63976  0.10511  0.29351  1.0000
  C   C1896     1.0  0.62498  0.09687  0.30447  1.0000
  C   C1897     1.0  0.62549  0.07897  0.31124  1.0000
  C   C1898     1.0  0.64124  0.06949  0.30693  1.0000
  C   C1899     1.0  0.65606  0.07775  0.29619  1.0000
  H   H1520     1.0  0.63892  0.11880  0.28822  1.0000
  H   H1521     1.0  0.61298  0.10445  0.30765  1.0000
  H   H1522     1.0  0.64216  0.05584  0.31227  1.0000
  H   H1523     1.0  0.66808  0.07019  0.29315  1.0000
  C   C1900     1.0  0.68587  0.21655  0.25935  1.0000
  C   C1901     1.0  0.67611  0.23186  0.26609  1.0000
  C   C1902     1.0  0.68199  0.24842  0.25843  1.0000
  C   C1903     1.0  0.69768  0.24976  0.24388  1.0000
  C   C1904     1.0  0.70759  0.23449  0.23775  1.0000
  C   C1905     1.0  0.70179  0.21799  0.24552  1.0000
  H   H1524     1.0  0.66380  0.23088  0.27684  1.0000
  H   H1525     1.0  0.67422  0.26007  0.26325  1.0000
  H   H1526     1.0  0.71975  0.23542  0.22660  1.0000
  H   H1527     1.0  0.70943  0.20639  0.24018  1.0000
  H   H1528     1.0  0.74213  0.08764  0.32742  1.0000
  C   C1906     1.0  0.61895  0.06423  0.21508  1.0000
  C   C1907     1.0  0.61496  0.03370  0.17769  1.0000
  C   C1908     1.0  0.72983  0.14932  0.13755  1.0000
  C   C1909     1.0  0.72637  0.14403  0.10995  1.0000
  H   H1529     1.0  0.51607  0.02835  0.26156  1.0000
  H   H1530     1.0  0.52970  0.01872  0.06717  1.0000
  H   H1531     1.0  0.71455  0.13717  0.10561  1.0000
  H   H1532     1.0  0.50980  0.05697  0.98840  1.0000
  H   H1533     1.0  0.51442  0.06057  0.26007  1.0000
  H   H1534     1.0  0.69970  0.20684  0.31971  1.0000
  C   C1910     1.0  0.72990  0.15413  0.37973  1.0000
  C   C1911     1.0  0.73049  0.15212  0.35061  1.0000
  H   H1535     1.0  0.71749  0.15650  0.38989  1.0000
  H   H1536     1.0  0.71853  0.15278  0.33873  1.0000
  C   C1912     1.0  0.73035  0.19282  0.06668  1.0000
  H   H1537     1.0  0.68871  0.28616  0.38725  1.0000
  H   H1538     1.0  0.52363  0.02537  0.01750  1.0000
  P   P62       1.0  0.73634  0.25862  0.33103  1.0000
  C   C1913     1.0  0.70497  0.27648  0.15646  1.0000
  C   C1914     1.0  0.52739  0.00278  0.18039  1.0000
  S   S274      1.0  0.69706  0.31803  0.27139  1.0000
  H   H1539     1.0  0.64253  0.11851  0.38245  1.0000
  C   C1915     1.0  0.57631  0.04929  0.23683  1.0000
  C   C1916     1.0  0.74325  0.25886  0.27393  1.0000
  H   H1540     1.0  0.71805  0.13340  0.45953  1.0000
  C   C1917     1.0  0.61071  0.01156  0.14212  1.0000
  H   H1541     1.0  0.53805  0.30841  0.42439  1.0000
  H   H1542     1.0  0.73536  0.21951  0.00144  1.0000
  C   C1918     1.0  0.50657  0.02606  0.44188  1.0000
  C   C1919     1.0  0.65468  0.06919  0.37568  1.0000
  H   H1543     1.0  0.55704  0.01156  0.98945  1.0000
  H   H1544     1.0  0.53475  0.00180  0.13711  1.0000
  H   H1545     1.0  0.60354  0.00057  0.13441  1.0000
  H   H1546     1.0  0.55444  0.31531  0.38155  1.0000
  H   H1547     1.0  0.70447  0.23763  0.33086  1.0000
  H   H1548     1.0  0.74069  0.11662  0.40077  1.0000
  C   C1920     1.0  0.63561  0.09591  0.22310  1.0000
  C   C1921     1.0  0.73984  0.20954  0.10649  1.0000
  C   C1922     1.0  0.70555  0.12827  0.45363  1.0000
  H   H1549     1.0  0.66076  0.11329  0.98242  1.0000
  H   H1550     1.0  0.64205  0.10810  0.22675  1.0000
  C   C1923     1.0  0.69326  0.28285  0.36650  1.0000
  H   H1551     1.0  0.73354  0.18448  0.04900  1.0000
  C   C1924     1.0  0.69634  0.28095  0.13175  1.0000
  C   C1925     1.0  0.62107  0.02650  0.28881  1.0000
  C   C1926     1.0  0.63670  0.06434  0.22251  1.0000
  C   C1927     1.0  0.49838  0.04977  0.47297  1.0000
  H   H1552     1.0  0.71147  0.12813  0.41003  1.0000
  C   C1928     1.0  0.64611  0.10478  0.38052  1.0000
  C   C1929     1.0  0.73618  0.22473  0.16854  1.0000
  H   H1553     1.0  0.62693  0.06546  0.37705  1.0000
  C   C1930     1.0  0.52256  0.01217  0.02509  1.0000
  C   C1931     1.0  0.62909  0.03986  0.16238  1.0000
  C   C1932     1.0  0.61479  0.02980  0.23940  1.0000
  H   H1554     1.0  0.58151  0.04708  0.16641  1.0000
  C   C1933     1.0  0.61704  0.03714  0.26597  1.0000
  C   C1934     1.0  0.70524  0.27475  0.31290  1.0000
  C   C1935     1.0  0.56599  0.00068  0.98518  1.0000
  C   C1936     1.0  0.61792  0.09594  0.21585  1.0000
  H   H1555     1.0  0.74438  0.29425  0.14434  1.0000
  C   C1937     1.0  0.55811  0.05135  0.23777  1.0000
  H   H1556     1.0  0.55158  0.05268  0.25775  1.0000
  H   H1557     1.0  0.54949  0.05064  0.16827  1.0000
  H   H1558     1.0  0.52126  0.04929  0.44679  1.0000
  H   H1559     1.0  0.73542  0.24742  0.27250  1.0000
  H   H1560     1.0  0.64410  0.05222  0.22558  1.0000
  C   C1938     1.0  0.50990  0.04233  0.45345  1.0000
  C   C1939     1.0  0.70178  0.12525  0.42556  1.0000
  C   C1940     1.0  0.57440  0.99880  0.24834  1.0000
  H   H1561     1.0  0.70647  0.28620  0.17270  1.0000
  C   C1941     1.0  0.72239  0.21303  0.11415  1.0000
  C   C1942     1.0  0.70007  0.21302  0.16346  1.0000
  C   C1943     1.0  0.69993  0.19471  0.16230  1.0000
  C   C1944     1.0  0.68699  0.18573  0.17613  1.0000
  C   C1945     1.0  0.67418  0.19490  0.19144  1.0000
  C   C1946     1.0  0.67415  0.21309  0.19257  1.0000
  C   C1947     1.0  0.68706  0.22216  0.17873  1.0000
  C   C1948     1.0  0.70895  0.20643  0.09761  1.0000
  C   C1949     1.0  0.71294  0.19635  0.07398  1.0000
  H   H1562     1.0  0.54143  0.99701  0.41184  1.0000
  C   C1950     1.0  0.73810  0.14728  0.08792  1.0000
  C   C1951     1.0  0.70934  0.27394  0.36292  1.0000
  C   C1952     1.0  0.60960  0.08016  0.21172  1.0000
  C   C1953     1.0  0.68902  0.28333  0.31657  1.0000
  H   H1563     1.0  0.68762  0.27187  0.09179  1.0000
  H   H1564     1.0  0.53189  0.01588  0.18350  1.0000
  C   C1954     1.0  0.69433  0.26836  0.11094  1.0000
  C   C1955     1.0  0.70093  0.25128  0.11489  1.0000
  H   H1565     1.0  0.61525  0.05107  0.26931  1.0000
  P   P63       1.0  0.60844  0.04368  0.21045  1.0000
  H   H1566     1.0  0.58360  0.04935  0.25611  1.0000
  C   C1956     1.0  0.52898  0.99486  0.15421  1.0000
  H   H1567     1.0  0.63637  0.05081  0.16965  1.0000
  H   H1568     1.0  0.71000  0.18726  0.15117  1.0000
  H   H1569     1.0  0.68710  0.17161  0.17533  1.0000
  H   H1570     1.0  0.66451  0.18790  0.20300  1.0000
  H   H1571     1.0  0.66452  0.22015  0.20514  1.0000
  C   C1957     1.0  0.68311  0.28756  0.34332  1.0000
  H   H1572     1.0  0.69541  0.20861  0.10349  1.0000
  H   H1573     1.0  0.70255  0.19083  0.06181  1.0000
  C   C1958     1.0  0.71558  0.27008  0.33602  1.0000
  H   H1574     1.0  0.70963  0.27175  0.29198  1.0000
  H   H1575     1.0  0.62225  0.03225  0.30932  1.0000
  H   H1576     1.0  0.68927  0.12515  0.99632  1.0000
  H   H1577     1.0  0.73242  0.24376  0.46130  1.0000
  C   C1959     1.0  0.73958  0.24515  0.98511  1.0000
  C   C1960     1.0  0.62101  0.00107  0.25898  1.0000
  H   H1578     1.0  0.69911  0.24172  0.09866  1.0000
  H   H1579     1.0  0.59589  0.08047  0.20623  1.0000
  C   C1961     1.0  0.73868  0.21227  0.18968  1.0000
  C   C1962     1.0  0.63722  0.07483  0.37786  1.0000
  C   C1963     1.0  0.71285  0.21166  0.31975  1.0000
  H   H1580     1.0  0.65865  0.08018  0.23227  1.0000
  H   H1581     1.0  0.56633  0.01064  0.20954  1.0000
  H   H1582     1.0  0.69136  0.29424  0.12879  1.0000
  H   H1583     1.0  0.73520  0.14293  0.06703  1.0000
  C   C1964     1.0  0.52599  0.00843  0.05305  1.0000
  H   H1584     1.0  0.53433  0.05328  0.21384  1.0000
  H   H1585     1.0  0.62845  0.01162  0.10744  1.0000
  C   C1965     1.0  0.67696  0.11854  0.46638  1.0000
  C   C1966     1.0  0.61686  0.01164  0.23609  1.0000
  C   C1967     1.0  0.52127  0.99564  0.30722  1.0000
  H   H1586     1.0  0.71688  0.27019  0.38116  1.0000
  H   H1587     1.0  0.72925  0.20232  0.19320  1.0000
  C   C1968     1.0  0.58497  0.04723  0.21125  1.0000
  C   C1969     1.0  0.60585  0.01949  0.16731  1.0000
  C   C1970     1.0  0.55696  0.05019  0.18745  1.0000
  P   P64       1.0  0.71717  0.22447  0.14618  1.0000
  H   H1588     1.0  0.61063  0.10821  0.21375  1.0000
  C   C1971     1.0  0.63293  0.09262  0.37998  1.0000
  C   C1972     1.0  0.71566  0.22918  0.32603  1.0000
  C   C1973     1.0  0.74378  0.20672  0.31181  1.0000
  C   C1974     1.0  0.64499  0.08012  0.22625  1.0000
  C   C1975     1.0  0.72690  0.20041  0.31281  1.0000
  H   H1589     1.0  0.51526  0.02069  0.42609  1.0000
  C   C1976     1.0  0.73262  0.23564  0.32526  1.0000
  S   S275      1.0  0.74343  0.15395  0.43264  1.0000
  C   C1977     1.0  0.74374  0.19949  0.08285  1.0000
  C   C1978     1.0  0.72801  0.32745  0.36561  1.0000
  H   H1590     1.0  0.68707  0.23621  0.18078  1.0000
  C   C1979     1.0  0.71930  0.10456  0.32375  1.0000
  C   C1980     1.0  0.73046  0.09274  0.33767  1.0000
  C   C1981     1.0  0.72653  0.08755  0.36475  1.0000
  C   C1982     1.0  0.71161  0.09444  0.37811  1.0000
  C   C1983     1.0  0.70038  0.10644  0.36430  1.0000
  C   C1984     1.0  0.70420  0.11118  0.33684  1.0000
  P   P65       1.0  0.68079  0.11487  0.38130  1.0000
  C   C1985     1.0  0.66374  0.09921  0.37865  1.0000
  C   C1986     1.0  0.68555  0.11881  0.41765  1.0000
  C   C1987     1.0  0.62473  0.01778  0.12700  1.0000
  C   C1988     1.0  0.67313  0.11552  0.43830  1.0000
  C   C1989     1.0  0.66791  0.08131  0.37602  1.0000
  C   C1990     1.0  0.57517  0.04808  0.18648  1.0000
  C   C1991     1.0  0.67377  0.13512  0.36486  1.0000
  C   C1992     1.0  0.66374  0.13474  0.34038  1.0000
  C   C1993     1.0  0.65882  0.15022  0.32675  1.0000
  C   C1994     1.0  0.66411  0.16622  0.33722  1.0000
  C   C1995     1.0  0.67409  0.16674  0.36160  1.0000
  C   C1996     1.0  0.67884  0.15127  0.37548  1.0000
  H   H1591     1.0  0.59493  0.01453  0.17873  1.0000
  C   C1997     1.0  0.54842  0.05169  0.21308  1.0000
  H   H1592     1.0  0.51525  0.00213  0.98531  1.0000
  H   H1593     1.0  0.70880  0.09039  0.39916  1.0000
  H   H1594     1.0  0.69555  0.11992  0.32532  1.0000
  H   H1595     1.0  0.67068  0.29452  0.34604  1.0000
  H   H1596     1.0  0.66047  0.11065  0.43289  1.0000
  H   H1597     1.0  0.68130  0.07661  0.37414  1.0000
  H   H1598     1.0  0.65789  0.05541  0.37327  1.0000
  H   H1599     1.0  0.66015  0.12242  0.33140  1.0000
  H   H1600     1.0  0.65144  0.14976  0.30749  1.0000
  H   H1601     1.0  0.66082  0.17817  0.32603  1.0000
  H   H1602     1.0  0.67839  0.17913  0.36948  1.0000
  H   H1603     1.0  0.68664  0.15201  0.39418  1.0000
  H   H1604     1.0  0.73518  0.07838  0.37555  1.0000
  H   H1605     1.0  0.68112  0.28682  0.29855  1.0000
  C   C1998     1.0  0.63392  0.03192  0.13712  1.0000
  H   H1606     1.0  0.61485  0.00544  0.21620  1.0000
  C   C1999     1.0  0.69317  0.12491  0.47404  1.0000
  C   C2000     1.0  0.58040  1.00000  0.45973  1.0000
  C   C2001     1.0  0.74188  0.23171  0.00442  1.0000
  H   H1607     1.0  0.71564  0.32637  0.37618  1.0000
  H   H1608     1.0  0.72722  0.28490  0.10378  1.0000
  C   C2002     1.0  0.74060  0.28016  0.10608  1.0000
  S   S276      1.0  0.74239  0.32671  0.41819  1.0000
  C   C2003     1.0  0.57164  0.99895  0.21935  1.0000
  H   H1609     1.0  0.52414  0.00390  0.32486  1.0000
  H   H1610     1.0  0.62548  0.00016  0.30323  1.0000
  C   C2004     1.0  0.51802  0.99885  0.00675  1.0000
  C   C2005     1.0  0.53752  0.32158  0.41622  1.0000
  H   H1611     1.0  0.74035  0.26537  0.06825  1.0000
  C   C2006     1.0  0.54678  0.32547  0.39210  1.0000
  H   H1612     1.0  0.70054  0.29991  0.98570  1.0000
  H   H1613     1.0  0.74400  0.29014  0.36302  1.0000
  C   C2007     1.0  0.74352  0.32774  0.38128  1.0000
  C   C2008     1.0  0.74520  0.15825  0.14260  1.0000
  C   C2009     1.0  0.74522  0.15304  0.39582  1.0000
  Fe  Fe138     1.0  0.70388  0.14430  0.71030  1.0000
  S   S277      1.0  0.67536  0.14738  0.72292  1.0000
  S   S278      1.0  0.71007  0.14121  0.66320  1.0000
  Fe  Fe139     1.0  0.71544  0.14727  0.77157  1.0000
  S   S279      1.0  0.68824  0.15102  0.78781  1.0000
  C   C2010     1.0  0.50543  0.04627  0.97567  1.0000
  Fe  Fe140     1.0  0.68112  0.12903  0.75896  1.0000
  S   S280      1.0  0.66704  0.10422  0.77406  1.0000
  Fe  Fe141     1.0  0.68454  0.16897  0.75099  1.0000
  S   S281      1.0  0.66983  0.19513  0.75622  1.0000
  S   S282      1.0  0.70908  0.12439  0.74429  1.0000
  S   S283      1.0  0.71239  0.16676  0.73676  1.0000
  Fe  Fe142     1.0  0.70023  0.29760  0.73982  1.0000
  S   S284      1.0  0.72527  0.30898  0.72517  1.0000
  S   S285      1.0  0.70611  0.26818  0.74124  1.0000
  H   H1614     1.0  0.73381  0.14106  0.56749  1.0000
  Fe  Fe143     1.0  0.54748  0.02828  0.83545  1.0000
  H   H1615     1.0  0.51907  0.02049  0.92183  1.0000
  S   S286      1.0  0.52034  0.03062  0.81557  1.0000
  Fe  Fe144     1.0  0.58472  0.04396  0.83804  1.0000
  S   S287      1.0  0.59624  0.01928  0.85767  1.0000
  S   S288      1.0  0.59780  0.06967  0.82480  1.0000
  Fe  Fe145     1.0  0.58012  0.00515  0.82557  1.0000
  H   H1616     1.0  0.61366  0.09347  0.87815  1.0000
  Fe  Fe146     1.0  0.57187  0.01872  0.88463  1.0000
  H   H1617     1.0  0.65524  0.12004  0.83057  1.0000
  S   S289      1.0  0.56980  0.02960  0.80529  1.0000
  S   S290      1.0  0.56130  0.04452  0.86714  1.0000
  H   H1618     1.0  0.71671  0.10718  0.80352  1.0000
  C   C2011     1.0  0.63177  0.00728  0.73365  1.0000
  C   C2012     1.0  0.58091  0.05539  0.73044  1.0000
  H   H1619     1.0  0.73460  0.21900  0.49444  1.0000
  H   H1620     1.0  0.72010  0.18825  0.87633  1.0000
  H   H1621     1.0  0.73397  0.11599  0.90342  1.0000
  H   H1622     1.0  0.57446  0.00850  0.71005  1.0000
  H   H1623     1.0  0.57793  0.00849  0.76084  1.0000
  H   H1624     1.0  0.72979  0.07720  0.87653  1.0000
  C   C2013     1.0  0.74432  0.20557  0.92779  1.0000
  C   C2014     1.0  0.54058  0.99801  0.55980  1.0000
  C   C2015     1.0  0.67933  0.11610  0.91812  1.0000
  H   H1625     1.0  0.51106  0.03863  0.87375  1.0000
  C   C2016     1.0  0.64744  0.09482  0.78757  1.0000
  C   C2017     1.0  0.63212  0.10474  0.79313  1.0000
  C   C2018     1.0  0.61719  0.09679  0.80419  1.0000
  C   C2019     1.0  0.61706  0.07872  0.80962  1.0000
  C   C2020     1.0  0.63223  0.06871  0.80345  1.0000
  C   C2021     1.0  0.64726  0.07671  0.79277  1.0000
  H   H1626     1.0  0.63177  0.11859  0.78905  1.0000
  H   H1627     1.0  0.60563  0.10477  0.80870  1.0000
  H   H1628     1.0  0.63252  0.05483  0.80736  1.0000
  H   H1629     1.0  0.65888  0.06877  0.78849  1.0000
  C   C2022     1.0  0.67984  0.21542  0.75092  1.0000
  C   C2023     1.0  0.66989  0.23106  0.75416  1.0000
  C   C2024     1.0  0.67754  0.24739  0.75065  1.0000
  C   C2025     1.0  0.69531  0.24821  0.74435  1.0000
  C   C2026     1.0  0.70521  0.23258  0.74100  1.0000
  C   C2027     1.0  0.69749  0.21630  0.74385  1.0000
  H   H1630     1.0  0.65620  0.23053  0.75944  1.0000
  H   H1631     1.0  0.66975  0.25931  0.75317  1.0000
  H   H1632     1.0  0.71898  0.23306  0.73616  1.0000
  H   H1633     1.0  0.70525  0.20445  0.74083  1.0000
  C   C2028     1.0  0.72617  0.29104  0.92929  1.0000
  C   C2029     1.0  0.54987  0.04979  0.73279  1.0000
  C   C2030     1.0  0.71613  0.26215  0.86714  1.0000
  C   C2031     1.0  0.72687  0.14522  0.63806  1.0000
  C   C2032     1.0  0.72363  0.14173  0.60967  1.0000
  H   H1634     1.0  0.64005  0.99786  0.72263  1.0000
  H   H1635     1.0  0.60182  0.07324  0.66458  1.0000
  H   H1636     1.0  0.71104  0.13699  0.60357  1.0000
  C   C2033     1.0  0.65805  0.09659  0.87820  1.0000
  C   C2034     1.0  0.74058  0.19231  0.57620  1.0000
  H   H1637     1.0  0.52480  0.99467  0.79271  1.0000
  C   C2035     1.0  0.72236  0.15190  0.87871  1.0000
  C   C2036     1.0  0.72272  0.14995  0.84958  1.0000
  H   H1638     1.0  0.70999  0.15215  0.88942  1.0000
  H   H1639     1.0  0.71069  0.14837  0.83819  1.0000
  H   H1640     1.0  0.53609  0.06091  0.76817  1.0000
  H   H1641     1.0  0.59652  0.01872  0.68370  1.0000
  H   H1642     1.0  0.69209  0.29211  0.82956  1.0000
  C   C2037     1.0  0.73657  0.14402  0.58905  1.0000
  C   C2038     1.0  0.70829  0.19282  0.83630  1.0000
  C   C2039     1.0  0.65215  0.14787  0.82758  1.0000
  C   C2040     1.0  0.64958  0.06648  0.87290  1.0000
  C   C2041     1.0  0.60753  0.08717  0.71750  1.0000
  C   C2042     1.0  0.50012  0.03376  0.83326  1.0000
  H   H1643     1.0  0.64401  0.11120  0.72198  1.0000
  C   C2043     1.0  0.73858  0.27988  0.60035  1.0000
  S   S291      1.0  0.56736  0.01462  0.93196  1.0000
  H   H1644     1.0  0.70406  0.25350  0.93595  1.0000
  S   S292      1.0  0.73970  0.14765  0.79873  1.0000
  H   H1645     1.0  0.60207  0.04063  0.77370  1.0000
  H   H1646     1.0  0.58405  0.31928  0.97211  1.0000
  H   H1647     1.0  0.73548  0.29752  0.91634  1.0000
  H   H1648     1.0  0.74362  0.27407  0.84076  1.0000
  C   C2044     1.0  0.69443  0.10446  0.86466  1.0000
  C   C2045     1.0  0.64030  0.10180  0.87969  1.0000
  C   C2046     1.0  0.71369  0.10309  0.82450  1.0000
  H   H1649     1.0  0.61483  0.01516  0.79802  1.0000
  H   H1650     1.0  0.71937  0.23485  0.85544  1.0000
  C   C2047     1.0  0.56315  0.06763  0.76810  1.0000
  C   C2048     1.0  0.65784  0.13238  0.84047  1.0000
  S   S293      1.0  0.69687  0.31640  0.77589  1.0000
  S   S294      1.0  0.73670  0.15552  0.93074  1.0000
  H   H1651     1.0  0.69612  0.12735  0.49577  1.0000
  H   H1652     1.0  0.68694  0.26592  0.80081  1.0000
  H   H1653     1.0  0.63643  0.11541  0.88224  1.0000
  C   C2049     1.0  0.67043  0.11596  0.96670  1.0000
  C   C2050     1.0  0.62444  0.02170  0.71954  1.0000
  H   H1654     1.0  0.65795  0.08171  0.72253  1.0000
  C   C2051     1.0  0.73679  0.23933  0.90720  1.0000
  C   C2052     1.0  0.52174  0.00218  0.51024  1.0000
  C   C2053     1.0  0.49918  0.03765  0.86172  1.0000
  H   H1655     1.0  0.56223  0.07497  0.78743  1.0000
  C   C2054     1.0  0.71079  0.19874  0.80924  1.0000
  H   H1656     1.0  0.67607  0.07437  0.87318  1.0000
  C   C2055     1.0  0.74141  0.23087  0.49877  1.0000
  C   C2056     1.0  0.53484  0.01465  0.55135  1.0000
  C   C2057     1.0  0.51063  0.02568  0.93817  1.0000
  C   C2058     1.0  0.71871  0.30031  0.95165  1.0000
  C   C2059     1.0  0.70997  0.19541  0.56414  1.0000
  C   C2060     1.0  0.70626  0.29265  0.96839  1.0000
  H   H1657     1.0  0.49919  0.05703  0.75130  1.0000
  H   H1658     1.0  0.73131  0.24331  0.96718  1.0000
  C   C2061     1.0  0.72001  0.20528  0.60947  1.0000
  C   C2062     1.0  0.70645  0.20296  0.59019  1.0000
  P   P66       1.0  0.71525  0.21459  0.64343  1.0000
  C   C2063     1.0  0.69630  0.20417  0.65709  1.0000
  C   C2064     1.0  0.73359  0.21003  0.66635  1.0000
  H   H1659     1.0  0.54011  0.01553  0.76359  1.0000
  C   C2065     1.0  0.58114  0.99681  0.74928  1.0000
  H   H1660     1.0  0.57617  0.31451  0.92257  1.0000
  C   C2066     1.0  0.53762  0.00046  0.72586  1.0000
  H   H1661     1.0  0.54814  0.99641  0.57878  1.0000
  C   C2067     1.0  0.68416  0.21351  0.67375  1.0000
  C   C2068     1.0  0.66973  0.20521  0.68468  1.0000
  C   C2069     1.0  0.66746  0.18751  0.67947  1.0000
  C   C2070     1.0  0.67946  0.17813  0.66291  1.0000
  C   C2071     1.0  0.69380  0.18641  0.65169  1.0000
  C   C2072     1.0  0.71092  0.23792  0.64157  1.0000
  C   C2073     1.0  0.71312  0.24839  0.66533  1.0000
  C   C2074     1.0  0.70906  0.26629  0.66444  1.0000
  C   C2075     1.0  0.70251  0.27388  0.64003  1.0000
  C   C2076     1.0  0.70016  0.26357  0.61634  1.0000
  C   C2077     1.0  0.70446  0.24569  0.61700  1.0000
  H   H1662     1.0  0.69944  0.19344  0.54949  1.0000
  C   C2078     1.0  0.59520  0.03906  0.62118  1.0000
  H   H1663     1.0  0.59270  0.01236  0.63403  1.0000
  C   C2079     1.0  0.59776  0.05618  0.62996  1.0000
  H   H1664     1.0  0.69311  0.20674  0.59549  1.0000
  H   H1665     1.0  0.72349  0.18615  0.68315  1.0000
  C   C2080     1.0  0.50863  0.99995  0.65694  1.0000
  C   C2081     1.0  0.73412  0.19509  0.68319  1.0000
  C   C2082     1.0  0.57309  0.00149  0.48665  1.0000
  C   C2083     1.0  0.74326  0.15145  0.64538  1.0000
  H   H1666     1.0  0.68586  0.22709  0.67887  1.0000
  H   H1667     1.0  0.66059  0.21236  0.69801  1.0000
  H   H1668     1.0  0.65658  0.18100  0.68880  1.0000
  H   H1669     1.0  0.67789  0.16432  0.65922  1.0000
  H   H1670     1.0  0.70316  0.17877  0.63941  1.0000
  H   H1671     1.0  0.71764  0.24272  0.68479  1.0000
  H   H1672     1.0  0.71074  0.27429  0.68284  1.0000
  H   H1673     1.0  0.69933  0.28779  0.63951  1.0000
  H   H1674     1.0  0.69507  0.26950  0.59741  1.0000
  H   H1675     1.0  0.70252  0.23804  0.59840  1.0000
  C   C2084     1.0  0.61761  0.01705  0.77614  1.0000
  H   H1676     1.0  0.73668  0.08637  0.82849  1.0000
  H   H1677     1.0  0.70507  0.12583  0.91083  1.0000
  H   H1678     1.0  0.65309  0.05282  0.86982  1.0000
  C   C2085     1.0  0.73822  0.19926  0.84768  1.0000
  H   H1679     1.0  0.70300  0.08857  0.89966  1.0000
  H   H1680     1.0  0.53794  0.02594  0.56380  1.0000
  H   H1681     1.0  0.64522  0.14739  0.80790  1.0000
  H   H1682     1.0  0.71683  0.20154  0.92388  1.0000
  C   C2086     1.0  0.71306  0.24732  0.85078  1.0000
  H   H1683     1.0  0.50664  0.02585  0.75817  1.0000
  C   C2087     1.0  0.66718  0.13281  0.86561  1.0000
  C   C2088     1.0  0.63599  0.09985  0.72036  1.0000
  C   C2089     1.0  0.61535  0.07033  0.71802  1.0000
  H   H1684     1.0  0.68979  0.11825  0.82579  1.0000
  C   C2090     1.0  0.70240  0.24867  0.82709  1.0000
  H   H1685     1.0  0.69117  0.26992  0.97526  1.0000
  C   C2091     1.0  0.59975  0.04644  0.67811  1.0000
  C   C2092     1.0  0.72703  0.19006  0.55717  1.0000
  C   C2093     1.0  0.67079  0.14900  0.87768  1.0000
  H   H1686     1.0  0.59348  0.08899  0.71598  1.0000
  H   H1687     1.0  0.65181  0.17593  0.82914  1.0000
  H   H1688     1.0  0.56321  0.01158  0.49069  1.0000
  C   C2094     1.0  0.54846  0.05967  0.75725  1.0000
  H   H1689     1.0  0.70030  0.23733  0.81410  1.0000
  H   H1690     1.0  0.52110  0.02964  0.51980  1.0000
  C   C2095     1.0  0.72151  0.27380  0.92380  1.0000
  S   S295      1.0  0.68401  0.31454  0.71073  1.0000
  H   H1691     1.0  0.72869  0.20937  0.78009  1.0000
  C   C2096     1.0  0.61017  0.03140  0.76207  1.0000
  H   H1692     1.0  0.69586  0.18758  0.84213  1.0000
  H   H1693     1.0  0.49641  0.00379  0.72469  1.0000
  H   H1694     1.0  0.59814  0.06658  0.61478  1.0000
  H   H1695     1.0  0.70021  0.19815  0.79430  1.0000
  H   H1696     1.0  0.51262  0.00955  0.67201  1.0000
  H   H1697     1.0  0.67797  0.14976  0.89703  1.0000
  C   C2097     1.0  0.51638  0.03920  0.95501  1.0000
  C   C2098     1.0  0.62817  0.00485  0.76186  1.0000
  H   H1698     1.0  0.62191  0.06226  0.87263  1.0000
  C   C2099     1.0  0.74289  0.25948  0.78123  1.0000
  H   H1699     1.0  0.59367  0.03615  0.59921  1.0000
  C   C2100     1.0  0.72101  0.08620  0.86560  1.0000
  C   C2101     1.0  0.61305  0.03355  0.73342  1.0000
  C   C2102     1.0  0.69842  0.10949  0.83737  1.0000
  C   C2103     1.0  0.62736  0.08942  0.87776  1.0000
  C   C2104     1.0  0.73785  0.15378  0.89397  1.0000
  C   C2105     1.0  0.57319  0.99880  0.95824  1.0000
  C   C2106     1.0  0.63200  0.07178  0.87456  1.0000
  C   C2107     1.0  0.52538  0.01673  0.52660  1.0000
  H   H1700     1.0  0.54426  0.00972  0.71306  1.0000
  H   H1701     1.0  0.65425  0.10772  0.93298  1.0000
  C   C2108     1.0  0.70833  0.27828  0.85946  1.0000
  C   C2109     1.0  0.69775  0.27957  0.83574  1.0000
  C   C2110     1.0  0.69484  0.26480  0.81953  1.0000
  C   C2111     1.0  0.69535  0.12293  0.92622  1.0000
  H   H1702     1.0  0.59062  0.07132  0.76410  1.0000
  C   C2112     1.0  0.73859  0.15023  0.83531  1.0000
  H   H1703     1.0  0.66811  0.17696  0.87388  1.0000
  C   C2113     1.0  0.70586  0.09275  0.87868  1.0000
  C   C2114     1.0  0.69892  0.12617  0.95428  1.0000
  C   C2115     1.0  0.63362  0.06844  0.71955  1.0000
  H   H1704     1.0  0.71132  0.13155  0.96024  1.0000
  C   C2116     1.0  0.59992  0.05989  0.65830  1.0000
  H   H1705     1.0  0.72256  0.31355  0.95589  1.0000
  C   C2117     1.0  0.74017  0.24480  0.48011  1.0000
  H   H1706     1.0  0.71005  0.23093  0.90512  1.0000
  C   C2118     1.0  0.72194  0.19323  0.85554  1.0000
  H   H1707     1.0  0.73374  0.26960  0.78854  1.0000
  C   C2119     1.0  0.59469  0.02567  0.64075  1.0000
  P   P67       1.0  0.67473  0.11262  0.88161  1.0000
  C   C2120     1.0  0.72342  0.22739  0.91059  1.0000
  C   C2121     1.0  0.56603  0.04761  0.71943  1.0000
  H   H1708     1.0  0.61176  0.11482  0.71902  1.0000
  C   C2122     1.0  0.66680  0.11278  0.93858  1.0000
  C   C2123     1.0  0.61783  0.10186  0.71886  1.0000
  C   C2124     1.0  0.72493  0.09140  0.83855  1.0000
  C   C2125     1.0  0.66258  0.07881  0.87470  1.0000
  C   C2126     1.0  0.58217  0.32651  0.92885  1.0000
  H   H1709     1.0  0.53847  0.04360  0.72450  1.0000
  C   C2127     1.0  0.65592  0.16394  0.83954  1.0000
  H   H1710     1.0  0.66732  0.11600  0.48221  1.0000
  H   H1711     1.0  0.62752  0.02341  0.69777  1.0000
  C   C2128     1.0  0.66519  0.16450  0.86462  1.0000
  H   H1712     1.0  0.73988  0.26702  0.56083  1.0000
  C   C2129     1.0  0.72696  0.20500  0.80131  1.0000
  C   C2130     1.0  0.64387  0.08317  0.72064  1.0000
  C   C2131     1.0  0.59686  0.02934  0.66905  1.0000
  C   C2132     1.0  0.57929  0.06550  0.75480  1.0000
  H   H1713     1.0  0.72978  0.18388  0.53723  1.0000
  C   C2133     1.0  0.72717  0.21068  0.92110  1.0000
  P   P68       1.0  0.73167  0.26145  0.89558  1.0000
  S   S296      1.0  0.55688  0.00277  0.85374  1.0000
  C   C2134     1.0  0.73711  0.19985  0.60225  1.0000
  H   H1714     1.0  0.56693  0.03966  0.70083  1.0000
  P   P69       1.0  0.60216  0.05134  0.71486  1.0000
  H   H1715     1.0  0.71089  0.29001  0.87123  1.0000
  C   C2135     1.0  0.70850  0.26643  0.94019  1.0000
  H   H1716     1.0  0.64002  0.05566  0.72002  1.0000
  C   C2136     1.0  0.74093  0.20508  0.82035  1.0000
  Fe  Fe147     1.0  0.70921  0.32667  0.69760  1.0000
  H   H1717     1.0  0.74107  0.24400  0.81809  1.0000
  H   H1718     1.0  0.51439  0.00403  0.49119  1.0000
  H   H1719     1.0  0.74054  0.29136  0.64115  1.0000
  C   C2137     1.0  0.68648  0.12264  0.97455  1.0000
  C   C2138     1.0  0.53517  0.00379  0.75420  1.0000
  C   C2139     1.0  0.70104  0.27576  0.96252  1.0000
  C   C2140     1.0  0.57926  0.99681  0.72025  1.0000
  H   H1720     1.0  0.72627  0.28664  0.59570  1.0000
  H   H1721     1.0  0.52929  0.04424  0.95178  1.0000
  C   C2141     1.0  0.49914  0.02987  0.74001  1.0000
  H   H1722     1.0  0.50075  0.06259  0.48141  1.0000
  H   H1723     1.0  0.53500  0.99511  0.64212  1.0000
  Fe  Fe148     1.0  0.68411  0.33690  0.24068  1.0000
  S   S297      1.0  0.70918  0.34938  0.22766  1.0000
  S   S298      1.0  0.65787  0.35282  0.24604  1.0000
  C   C2142     1.0  0.50066  0.39188  0.38301  1.0000
  H   H1724     1.0  0.57776  0.39051  0.21940  1.0000
  C   C2143     1.0  0.63309  0.53181  0.22736  1.0000
  C   C2144     1.0  0.74301  0.64392  0.07177  1.0000
  H   H1725     1.0  0.57272  0.37316  0.38094  1.0000
  Fe  Fe149     1.0  0.57959  0.46509  0.31915  1.0000
  S   S299      1.0  0.57577  0.43859  0.30074  1.0000
  S   S300      1.0  0.58238  0.48943  0.29257  1.0000
  Fe  Fe150     1.0  0.57706  0.45230  0.37982  1.0000
  S   S301      1.0  0.57316  0.42462  0.36464  1.0000
  S   S302      1.0  0.57541  0.45634  0.42777  1.0000
  Fe  Fe151     1.0  0.59475  0.42861  0.33332  1.0000
  S   S303      1.0  0.61876  0.40964  0.32657  1.0000
  Fe  Fe152     1.0  0.55456  0.43674  0.33311  1.0000
  S   S304      1.0  0.52836  0.42707  0.31724  1.0000
  S   S305      1.0  0.59975  0.45559  0.35050  1.0000
  S   S306      1.0  0.55727  0.46389  0.34960  1.0000
  Fe  Fe153     1.0  0.71566  0.64866  0.19190  1.0000
  H   H1726     1.0  0.53238  0.38985  0.32298  1.0000
  C   C2145     1.0  0.63185  0.45135  0.18893  1.0000
  Fe  Fe154     1.0  0.70251  0.64689  0.25289  1.0000
  C   C2146     1.0  0.72747  0.64107  0.08629  1.0000
  H   H1727     1.0  0.52491  0.46571  0.18727  1.0000
  Fe  Fe155     1.0  0.68177  0.62962  0.20341  1.0000
  S   S307      1.0  0.66849  0.60383  0.19006  1.0000
  S   S308      1.0  0.70951  0.62635  0.22041  1.0000
  Fe  Fe156     1.0  0.59042  0.54405  0.11191  1.0000
  S   S309      1.0  0.60404  0.51753  0.10774  1.0000
  S   S310      1.0  0.60241  0.57000  0.12728  1.0000
  Fe  Fe157     1.0  0.55485  0.52925  0.09261  1.0000
  S   S311      1.0  0.56654  0.50215  0.08858  1.0000
  S   S312      1.0  0.52694  0.53027  0.07542  1.0000
  Fe  Fe158     1.0  0.58012  0.50757  0.12905  1.0000
  S   S313      1.0  0.57970  0.48522  0.16005  1.0000
  Fe  Fe159     1.0  0.58898  0.51420  0.06722  1.0000
  S   S314      1.0  0.60095  0.50237  0.02684  1.0000
  S   S315      1.0  0.56686  0.53388  0.13484  1.0000
  S   S316      1.0  0.57707  0.54147  0.06970  1.0000
  S   S317      1.0  0.68866  0.65117  0.17367  1.0000
  H   H1728     1.0  0.50449  0.39889  0.40143  1.0000
  H   H1729     1.0  0.74161  0.63060  0.30398  1.0000
  C   C2147     1.0  0.72995  0.32933  0.09274  1.0000
  C   C2148     1.0  0.58853  0.39930  0.21899  1.0000
  C   C2149     1.0  0.65036  0.59497  0.17103  1.0000
  C   C2150     1.0  0.65041  0.57691  0.16515  1.0000
  C   C2151     1.0  0.63616  0.56911  0.15152  1.0000
  C   C2152     1.0  0.62134  0.57917  0.14364  1.0000
  C   C2153     1.0  0.62138  0.59727  0.14919  1.0000
  C   C2154     1.0  0.63575  0.60511  0.16247  1.0000
  H   H1730     1.0  0.66168  0.56886  0.17094  1.0000
  H   H1731     1.0  0.63666  0.55526  0.14719  1.0000
  H   H1732     1.0  0.61016  0.60534  0.14317  1.0000
  H   H1733     1.0  0.63537  0.61899  0.16646  1.0000
  C   C2155     1.0  0.57868  0.47272  0.45395  1.0000
  C   C2156     1.0  0.58184  0.49013  0.44757  1.0000
  H   H1734     1.0  0.58434  0.61040  0.21695  1.0000
  C   C2157     1.0  0.59138  0.49054  0.99865  1.0000
  C   C2158     1.0  0.52923  0.47799  0.05337  1.0000
  C   C2159     1.0  0.60140  0.42630  0.23346  1.0000
  H   H1735     1.0  0.58290  0.49401  0.42602  1.0000
  H   H1736     1.0  0.56529  0.49050  0.01513  1.0000
  C   C2160     1.0  0.55861  0.39022  0.30812  1.0000
  H   H1737     1.0  0.52013  0.33153  0.44811  1.0000
  C   C2161     1.0  0.58189  0.48807  0.25570  1.0000
  C   C2162     1.0  0.57927  0.47229  0.24193  1.0000
  C   C2163     1.0  0.57881  0.47164  0.21266  1.0000
  C   C2164     1.0  0.58055  0.48682  0.19681  1.0000
  C   C2165     1.0  0.58284  0.50268  0.21053  1.0000
  C   C2166     1.0  0.58382  0.50323  0.23984  1.0000
  H   H1738     1.0  0.57757  0.46058  0.25378  1.0000
  H   H1739     1.0  0.57698  0.45930  0.20224  1.0000
  H   H1740     1.0  0.58390  0.51449  0.19857  1.0000
  H   H1741     1.0  0.58596  0.51546  0.25025  1.0000
  C   C2167     1.0  0.54312  0.42405  0.41968  1.0000
  H   H1742     1.0  0.60256  0.53954  0.16388  1.0000
  H   H1743     1.0  0.59506  0.37915  0.34542  1.0000
  H   H1744     1.0  0.51647  0.44295  0.36967  1.0000
  H   H1745     1.0  0.60467  0.38245  0.19299  1.0000
  C   C2168     1.0  0.64732  0.36851  0.26904  1.0000
  C   C2169     1.0  0.63086  0.37586  0.26150  1.0000
  C   C2170     1.0  0.62214  0.38863  0.27833  1.0000
  C   C2171     1.0  0.62945  0.39398  0.30362  1.0000
  C   C2172     1.0  0.64592  0.38661  0.31117  1.0000
  C   C2173     1.0  0.65483  0.37411  0.29403  1.0000
  H   H1746     1.0  0.62491  0.37182  0.24219  1.0000
  H   H1747     1.0  0.60983  0.39437  0.27155  1.0000
  H   H1748     1.0  0.65188  0.39058  0.33053  1.0000
  H   H1749     1.0  0.66746  0.36872  0.30030  1.0000
  C   C2174     1.0  0.57366  0.48658  0.99793  1.0000
  H   H1750     1.0  0.51193  0.45606  0.98633  1.0000
  C   C2175     1.0  0.58737  0.41509  0.23356  1.0000
  H   H1751     1.0  0.60677  0.56322  0.19720  1.0000
  H   H1752     1.0  0.61228  0.53142  0.27144  1.0000
  C   C2176     1.0  0.50577  0.54229  0.11894  1.0000
  C   C2177     1.0  0.62654  0.46585  0.25068  1.0000
  H   H1753     1.0  0.64828  0.40511  0.24638  1.0000
  C   C2178     1.0  0.61331  0.55075  0.20099  1.0000
  H   H1754     1.0  0.60032  0.43840  0.24505  1.0000
  C   C2179     1.0  0.62423  0.54805  0.22419  1.0000
  C   C2180     1.0  0.72341  0.64654  0.32774  1.0000
  H   H1755     1.0  0.69730  0.56788  0.28510  1.0000
  C   C2181     1.0  0.68381  0.56662  0.27874  1.0000
  C   C2182     1.0  0.64280  0.46561  0.18647  1.0000
  C   C2183     1.0  0.60264  0.59061  0.23200  1.0000
  C   C2184     1.0  0.59748  0.53803  0.30771  1.0000
  H   H1756     1.0  0.61723  0.51062  0.17076  1.0000
  C   C2185     1.0  0.51703  0.50877  0.18840  1.0000
  C   C2186     1.0  0.63054  0.51834  0.20823  1.0000
  C   C2187     1.0  0.61095  0.53731  0.18178  1.0000
  H   H1757     1.0  0.55311  0.34504  0.36244  1.0000
  H   H1758     1.0  0.71460  0.64068  0.12631  1.0000
  C   C2188     1.0  0.52746  0.33462  0.42960  1.0000
  P   P70       1.0  0.63464  0.43647  0.21788  1.0000
  H   H1759     1.0  0.51755  0.54665  0.12885  1.0000
  C   C2189     1.0  0.51369  0.53904  0.00435  1.0000
  H   H1760     1.0  0.59409  0.52460  0.31149  1.0000
  H   H1761     1.0  0.64318  0.56458  0.30640  1.0000
  C   C2190     1.0  0.68232  0.41684  0.19065  1.0000
  H   H1762     1.0  0.54331  0.47824  0.46585  1.0000
  C   C2191     1.0  0.54609  0.34243  0.38143  1.0000
  H   H1763     1.0  0.68963  0.56725  0.23482  1.0000
  C   C2192     1.0  0.50679  0.53396  0.09302  1.0000
  H   H1764     1.0  0.58349  0.54812  0.34342  1.0000
  H   H1765     1.0  0.65292  0.46769  0.20181  1.0000
  C   C2193     1.0  0.51475  0.45943  0.19880  1.0000
  H   H1766     1.0  0.63005  0.47456  0.31994  1.0000
  C   C2194     1.0  0.67291  0.39826  0.22785  1.0000
  C   C2195     1.0  0.67065  0.56584  0.29877  1.0000
  C   C2196     1.0  0.59585  0.56854  0.32069  1.0000
  H   H1767     1.0  0.60623  0.45913  0.13180  1.0000
  C   C2197     1.0  0.53020  0.47779  0.45753  1.0000
  C   C2198     1.0  0.56858  0.37754  0.36048  1.0000
  H   H1768     1.0  0.52616  0.54437  0.00994  1.0000
  H   H1769     1.0  0.62102  0.47183  0.23212  1.0000
  C   C2199     1.0  0.61666  0.46072  0.14681  1.0000
  H   H1770     1.0  0.69668  0.39382  0.20480  1.0000
  H   H1771     1.0  0.64464  0.42782  0.27590  1.0000
  C   C2200     1.0  0.64070  0.47727  0.16428  1.0000
  C   C2201     1.0  0.50065  0.53296  0.23042  1.0000
  C   C2202     1.0  0.63401  0.44883  0.25007  1.0000
  H   H1772     1.0  0.51572  0.36216  0.33510  1.0000
  C   C2203     1.0  0.51553  0.49626  0.13348  1.0000
  H   H1773     1.0  0.57567  0.41860  0.24520  1.0000
  C   C2204     1.0  0.51260  0.38071  0.36893  1.0000
  H   H1774     1.0  0.54160  0.50787  0.47557  1.0000
  C   C2205     1.0  0.60024  0.56083  0.97920  1.0000
  C   C2206     1.0  0.59776  0.60736  0.22279  1.0000
  C   C2207     1.0  0.61026  0.62013  0.22064  1.0000
  C   C2208     1.0  0.62760  0.61618  0.22785  1.0000
  C   C2209     1.0  0.63254  0.59940  0.23675  1.0000
  H   H1775     1.0  0.60660  0.63303  0.21304  1.0000
  H   H1776     1.0  0.63743  0.62594  0.22569  1.0000
  H   H1777     1.0  0.64616  0.59680  0.24165  1.0000
  H   H1778     1.0  0.56177  0.39774  0.46905  1.0000
  C   C2210     1.0  0.73407  0.33008  0.12138  1.0000
  H   H1779     1.0  0.72965  0.65774  0.39648  1.0000
  C   C2211     1.0  0.51568  0.48102  0.47482  1.0000
  H   H1780     1.0  0.73541  0.36707  0.39173  1.0000
  Fe  Fe160     1.0  0.72198  0.32964  0.25704  1.0000
  H   H1781     1.0  0.64912  0.48828  0.16247  1.0000
  S   S318      1.0  0.70746  0.64986  0.30049  1.0000
  C   C2212     1.0  0.60139  0.54270  0.98157  1.0000
  H   H1782     1.0  0.62573  0.48399  0.12750  1.0000
  C   C2213     1.0  0.63966  0.44114  0.27518  1.0000
  C   C2214     1.0  0.68515  0.40224  0.20759  1.0000
  H   H1783     1.0  0.51084  0.49891  0.04498  1.0000
  S   S319      1.0  0.71670  0.32968  0.14645  1.0000
  C   C2215     1.0  0.58377  0.50259  0.46914  1.0000
  C   C2216     1.0  0.55923  0.54108  0.26042  1.0000
  C   C2217     1.0  0.56805  0.54811  0.23789  1.0000
  C   C2218     1.0  0.56150  0.54627  0.21091  1.0000
  C   C2219     1.0  0.54634  0.53697  0.20636  1.0000
  C   C2220     1.0  0.53794  0.52907  0.22877  1.0000
  C   C2221     1.0  0.54417  0.53169  0.25593  1.0000
  P   P71       1.0  0.51821  0.51728  0.22342  1.0000
  C   C2222     1.0  0.55174  0.41915  0.44424  1.0000
  C   C2223     1.0  0.52676  0.35160  0.41901  1.0000
  H   H1784     1.0  0.59128  0.57880  0.33470  1.0000
  H   H1785     1.0  0.61954  0.48820  0.27606  1.0000
  C   C2224     1.0  0.50734  0.43144  0.33171  1.0000
  C   C2225     1.0  0.53133  0.49550  0.14809  1.0000
  C   C2226     1.0  0.53208  0.50159  0.17553  1.0000
  C   C2227     1.0  0.51764  0.49861  0.24609  1.0000
  C   C2228     1.0  0.53319  0.49084  0.25639  1.0000
  C   C2229     1.0  0.53264  0.47719  0.27552  1.0000
  C   C2230     1.0  0.49884  0.47994  0.46340  1.0000
  C   C2231     1.0  0.50106  0.47804  0.27275  1.0000
  C   C2232     1.0  0.64880  0.56427  0.26213  1.0000
  H   H1786     1.0  0.56423  0.54259  0.28135  1.0000
  H   H1787     1.0  0.58005  0.55480  0.24136  1.0000
  H   H1788     1.0  0.56824  0.55192  0.19345  1.0000
  H   H1789     1.0  0.50970  0.43262  0.25422  1.0000
  H   H1790     1.0  0.53755  0.52626  0.27365  1.0000
  H   H1791     1.0  0.65897  0.56504  0.22021  1.0000
  H   H1792     1.0  0.54312  0.49043  0.13804  1.0000
  H   H1793     1.0  0.54447  0.50091  0.18649  1.0000
  H   H1794     1.0  0.54675  0.45554  0.05651  1.0000
  H   H1795     1.0  0.54576  0.49540  0.24993  1.0000
  H   H1796     1.0  0.54471  0.47149  0.28384  1.0000
  C   C2233     1.0  0.55458  0.40150  0.45043  1.0000
  C   C2234     1.0  0.72033  0.65418  0.35413  1.0000
  C   C2235     1.0  0.51246  0.52110  0.99999  1.0000
  H   H1797     1.0  0.50294  0.54550  0.19058  1.0000
  H   H1798     1.0  0.54131  0.53591  0.18535  1.0000
  C   C2236     1.0  0.61669  0.42180  0.21865  1.0000
  H   H1799     1.0  0.53283  0.44651  0.22700  1.0000
  C   C2237     1.0  0.57627  0.38729  0.31437  1.0000
  C   C2238     1.0  0.65317  0.56477  0.29055  1.0000
  C   C2239     1.0  0.53632  0.35569  0.39514  1.0000
  H   H1800     1.0  0.53419  0.48419  0.07192  1.0000
  S   S320      1.0  0.67435  0.64871  0.23801  1.0000
  C   C2240     1.0  0.51015  0.47898  0.01284  1.0000
  C   C2241     1.0  0.62014  0.58635  0.23860  1.0000
  C   C2242     1.0  0.60367  0.39477  0.20407  1.0000
  C   C2243     1.0  0.52988  0.45395  0.02062  1.0000
  C   C2244     1.0  0.59147  0.55128  0.32563  1.0000
  C   C2245     1.0  0.55077  0.38036  0.35432  1.0000
  C   C2246     1.0  0.51658  0.47100  0.28404  1.0000
  C   C2247     1.0  0.73894  0.63664  0.32396  1.0000
  C   C2248     1.0  0.52798  0.47402  0.42928  1.0000
  C   C2249     1.0  0.63136  0.46749  0.30045  1.0000
  C   C2250     1.0  0.67954  0.56614  0.25045  1.0000
  H   H1801     1.0  0.55201  0.37514  0.43650  1.0000
  C   C2251     1.0  0.72658  0.64322  0.11540  1.0000
  H   H1802     1.0  0.55678  0.42909  0.45791  1.0000
  H   H1803     1.0  0.60991  0.43834  0.17039  1.0000
  C   C2252     1.0  0.73238  0.65186  0.37639  1.0000
  H   H1804     1.0  0.49871  0.42637  0.42644  1.0000
  H   H1805     1.0  0.67398  0.56642  0.32069  1.0000
  C   C2253     1.0  0.61944  0.52108  0.18545  1.0000
  C   C2254     1.0  0.61767  0.40601  0.20376  1.0000
  C   C2255     1.0  0.60785  0.54200  0.28482  1.0000
  H   H1806     1.0  0.64164  0.52942  0.24503  1.0000
  S   S321      1.0  0.74335  0.64099  0.03513  1.0000
  C   C2256     1.0  0.61235  0.55932  0.27967  1.0000
  H   H1807     1.0  0.51800  0.42558  0.46793  1.0000
  C   C2257     1.0  0.53628  0.46186  0.04466  1.0000
  C   C2258     1.0  0.65483  0.42358  0.21441  1.0000
  P   P72       1.0  0.62631  0.56464  0.25077  1.0000
  H   H1808     1.0  0.59277  0.58097  0.23362  1.0000
  C   C2259     1.0  0.51923  0.44854  0.22113  1.0000
  C   C2260     1.0  0.60628  0.57256  0.29786  1.0000
  C   C2261     1.0  0.66723  0.42745  0.19395  1.0000
  H   H1809     1.0  0.53934  0.47182  0.41610  1.0000
  C   C2262     1.0  0.66213  0.56486  0.24219  1.0000
  H   H1810     1.0  0.60978  0.58597  0.29460  1.0000
  H   H1811     1.0  0.63702  0.50572  0.21120  1.0000
  C   C2263     1.0  0.62759  0.47484  0.14450  1.0000
  C   C2264     1.0  0.50448  0.42997  0.46995  1.0000
  H   H1812     1.0  0.62928  0.40227  0.19205  1.0000
  H   H1813     1.0  0.60092  0.53668  0.00196  1.0000
  C   C2265     1.0  0.61874  0.44900  0.16890  1.0000
  C   C2266     1.0  0.74123  0.64840  0.13028  1.0000
  C   C2267     1.0  0.50616  0.44066  0.23639  1.0000
  C   C2268     1.0  0.51605  0.48641  0.03778  1.0000
  H   H1814     1.0  0.52420  0.51288  0.00154  1.0000
  Fe  Fe161     1.0  0.71201  0.32844  0.19419  1.0000
  C   C2269     1.0  0.54895  0.38871  0.43193  1.0000
  H   H1815     1.0  0.67496  0.38675  0.24069  1.0000
  H   H1816     1.0  0.71605  0.63701  0.07498  1.0000
  P   P73       1.0  0.53477  0.37752  0.38134  1.0000
  H   H1817     1.0  0.58613  0.39040  0.29930  1.0000
  C   C2270     1.0  0.63830  0.45043  0.30022  1.0000
  C   C2271     1.0  0.50686  0.37121  0.34580  1.0000
  C   C2272     1.0  0.65781  0.40880  0.23116  1.0000
  H   H1818     1.0  0.69172  0.41976  0.17466  1.0000
  C   C2273     1.0  0.62549  0.47519  0.27569  1.0000
  H   H1819     1.0  0.66524  0.43837  0.18007  1.0000
  H   H1820     1.0  0.58641  0.51593  0.46382  1.0000
  C   C2274     1.0  0.50159  0.49164  0.25348  1.0000
  C   C2275     1.0  0.50514  0.43912  0.35797  1.0000
  H   H1821     1.0  0.64221  0.44415  0.31957  1.0000
  H   H1822     1.0  0.73956  0.32949  0.05024  1.0000
  H   H1823     1.0  0.55477  0.39573  0.28820  1.0000
  C   C2276     1.0  0.51672  0.46238  0.00491  1.0000
  C   C2277     1.0  0.53756  0.41131  0.40110  1.0000
  C   C2278     1.0  0.58127  0.38091  0.34048  1.0000
  H   H1824     1.0  0.54160  0.43773  0.41434  1.0000
  H   H1825     1.0  0.51506  0.49213  0.11192  1.0000
  H   H1826     1.0  0.59890  0.56884  0.99778  1.0000
  C   C2279     1.0  0.54027  0.39356  0.40719  1.0000
  H   H1827     1.0  0.53182  0.41527  0.38135  1.0000
  C   C2280     1.0  0.50108  0.50893  0.17390  1.0000
  C   C2281     1.0  0.54589  0.38677  0.32799  1.0000
  H   H1828     1.0  0.51876  0.36155  0.42937  1.0000
  H   H1829     1.0  0.50950  0.47052  0.39606  1.0000
  C   C2282     1.0  0.51119  0.47324  0.41804  1.0000
  H   H1830     1.0  0.51618  0.46054  0.29905  1.0000
  H   H1831     1.0  0.59834  0.34648  0.98630  1.0000
  C   C2283     1.0  0.74419  0.33060  0.32243  1.0000
  H   H1832     1.0  0.53530  0.44141  0.01391  1.0000
  C   C2284     1.0  0.49663  0.47605  0.43514  1.0000
  H   H1833     1.0  0.71643  0.32848  0.08650  1.0000
  H   H1834     1.0  0.71624  0.32895  0.32465  1.0000
  S   S322      1.0  0.74090  0.65070  0.16702  1.0000
  H   H1835     1.0  0.74474  0.64722  0.25634  1.0000
  C   C2285     1.0  0.74308  0.32989  0.07204  1.0000
  C   C2286     1.0  0.72832  0.32885  0.33634  1.0000
  C   C2287     1.0  0.49719  0.46238  0.19159  1.0000
  C   C2288     1.0  0.50037  0.50276  0.14651  1.0000
  S   S323      1.0  0.74515  0.33394  0.28588  1.0000
  H   H1836     1.0  0.49972  0.56382  0.00661  1.0000
  C   C2289     1.0  0.49594  0.54532  0.21012  1.0000
  H   H1837     1.0  0.49644  0.52500  0.27310  1.0000
  C   C2290     1.0  0.49878  0.54998  0.00257  1.0000
  C   C2291     1.0  0.49614  0.51388  0.99486  1.0000
  H   H1838     1.0  0.66180  0.35814  0.88582  1.0000
  S   S324      1.0  0.70668  0.34779  0.73078  1.0000
  S   S325      1.0  0.65599  0.34942  0.75482  1.0000
  H   H1839     1.0  0.50801  0.44346  0.85262  1.0000
  S   S326      1.0  0.73555  0.64574  0.53804  1.0000
  C   C2292     1.0  0.67319  0.44061  0.62455  1.0000
  C   C2293     1.0  0.54204  0.54685  0.69904  1.0000
  H   H1840     1.0  0.61456  0.48994  0.82075  1.0000
  Fe  Fe162     1.0  0.57763  0.46208  0.81740  1.0000
  S   S327      1.0  0.57611  0.43483  0.80105  1.0000
  S   S328      1.0  0.57987  0.48594  0.78999  1.0000
  Fe  Fe163     1.0  0.57430  0.45112  0.87897  1.0000
  S   S329      1.0  0.57247  0.42272  0.86620  1.0000
  S   S330      1.0  0.56765  0.46075  0.92366  1.0000
  Fe  Fe164     1.0  0.59456  0.42726  0.83578  1.0000
  S   S331      1.0  0.62053  0.41104  0.83023  1.0000
  Fe  Fe165     1.0  0.55423  0.43257  0.83225  1.0000
  S   S332      1.0  0.52965  0.42019  0.81533  1.0000
  S   S333      1.0  0.59736  0.45516  0.85079  1.0000
  S   S334      1.0  0.55481  0.46034  0.84634  1.0000
  Fe  Fe166     1.0  0.71708  0.64133  0.69851  1.0000
  C   C2294     1.0  0.52472  0.54760  0.68999  1.0000
  C   C2295     1.0  0.53856  0.51715  0.71439  1.0000
  Fe  Fe167     1.0  0.70716  0.64223  0.76029  1.0000
  C   C2296     1.0  0.58030  0.51372  0.86433  1.0000
  C   C2297     1.0  0.52103  0.51782  0.70560  1.0000
  Fe  Fe168     1.0  0.68100  0.62881  0.71473  1.0000
  S   S335      1.0  0.65585  0.61341  0.70778  1.0000
  S   S336      1.0  0.70839  0.62041  0.72816  1.0000
  Fe  Fe169     1.0  0.59798  0.53862  0.62182  1.0000
  S   S337      1.0  0.60174  0.51111  0.60503  1.0000
  S   S338      1.0  0.62370  0.55126  0.63530  1.0000
  Fe  Fe170     1.0  0.55793  0.53715  0.61369  1.0000
  S   S339      1.0  0.55926  0.50980  0.59707  1.0000
  S   S340      1.0  0.53216  0.55269  0.61886  1.0000
  Fe  Fe171     1.0  0.57867  0.50501  0.63182  1.0000
  S   S341      1.0  0.57704  0.48037  0.65769  1.0000
  Fe  Fe172     1.0  0.58209  0.51810  0.57139  1.0000
  S   S342      1.0  0.58530  0.51438  0.52374  1.0000
  S   S343      1.0  0.57588  0.53186  0.65025  1.0000
  S   S344      1.0  0.57981  0.54616  0.58632  1.0000
  C   C2298     1.0  0.51053  0.52455  0.61380  1.0000
  C   C2299     1.0  0.51173  0.54242  0.61888  1.0000
  C   C2300     1.0  0.61353  0.53869  0.87138  1.0000
  H   H1841     1.0  0.52224  0.51662  0.61029  1.0000
  C   C2301     1.0  0.61789  0.36259  0.87423  1.0000
  C   C2302     1.0  0.64724  0.59605  0.68730  1.0000
  C   C2303     1.0  0.62903  0.59383  0.68686  1.0000
  C   C2304     1.0  0.62153  0.58037  0.67106  1.0000
  C   C2305     1.0  0.63218  0.56861  0.65589  1.0000
  C   C2306     1.0  0.65039  0.57062  0.65678  1.0000
  C   C2307     1.0  0.65787  0.58434  0.67199  1.0000
  H   H1842     1.0  0.62063  0.60276  0.69859  1.0000
  H   H1843     1.0  0.60752  0.57914  0.67060  1.0000
  H   H1844     1.0  0.65878  0.56146  0.64555  1.0000
  H   H1845     1.0  0.67187  0.58571  0.67220  1.0000
  C   C2308     1.0  0.57728  0.47224  0.95216  1.0000
  H   H1846     1.0  0.51959  0.55917  0.67947  1.0000
  H   H1847     1.0  0.62855  0.54938  0.57424  1.0000
  C   C2309     1.0  0.58241  0.49797  0.49747  1.0000
  C   C2310     1.0  0.57907  0.48059  0.50382  1.0000
  C   C2311     1.0  0.58742  0.39859  0.92504  1.0000
  C   C2312     1.0  0.67522  0.42246  0.62304  1.0000
  H   H1848     1.0  0.70193  0.55548  0.63940  1.0000
  H   H1849     1.0  0.57817  0.47671  0.52536  1.0000
  H   H1850     1.0  0.60332  0.47215  0.93584  1.0000
  C   C2313     1.0  0.57858  0.48412  0.75327  1.0000
  C   C2314     1.0  0.58185  0.49878  0.73692  1.0000
  C   C2315     1.0  0.58150  0.49774  0.70768  1.0000
  C   C2316     1.0  0.57752  0.48210  0.69445  1.0000
  C   C2317     1.0  0.57402  0.46748  0.71077  1.0000
  C   C2318     1.0  0.57456  0.46847  0.74006  1.0000
  H   H1851     1.0  0.58477  0.51100  0.74684  1.0000
  H   H1852     1.0  0.58460  0.50897  0.69543  1.0000
  H   H1853     1.0  0.57086  0.45534  0.70073  1.0000
  H   H1854     1.0  0.57174  0.45715  0.75234  1.0000
  C   C2319     1.0  0.53856  0.51490  0.49449  1.0000
  H   H1855     1.0  0.66929  0.64836  0.51695  1.0000
  C   C2320     1.0  0.58612  0.55334  0.76717  1.0000
  H   H1856     1.0  0.71575  0.33331  0.87832  1.0000
  C   C2321     1.0  0.60083  0.56856  0.95293  1.0000
  C   C2322     1.0  0.64669  0.36712  0.77531  1.0000
  C   C2323     1.0  0.62910  0.37251  0.77087  1.0000
  C   C2324     1.0  0.62094  0.38597  0.78704  1.0000
  C   C2325     1.0  0.63019  0.39425  0.80825  1.0000
  C   C2326     1.0  0.64784  0.38902  0.81245  1.0000
  C   C2327     1.0  0.65604  0.37567  0.79611  1.0000
  H   H1857     1.0  0.62167  0.36613  0.75485  1.0000
  H   H1858     1.0  0.60745  0.38983  0.78319  1.0000
  H   H1859     1.0  0.65523  0.39522  0.82871  1.0000
  H   H1860     1.0  0.66951  0.37176  0.80004  1.0000
  C   C2328     1.0  0.54892  0.53166  0.71138  1.0000
  C   C2329     1.0  0.73894  0.64207  0.63345  1.0000
  H   H1861     1.0  0.69970  0.64142  0.50159  1.0000
  H   H1862     1.0  0.69430  0.61777  0.61330  1.0000
  C   C2330     1.0  0.58555  0.33925  0.90898  1.0000
  C   C2331     1.0  0.67794  0.61248  0.55717  1.0000
  C   C2332     1.0  0.59805  0.35729  0.94492  1.0000
  H   H1863     1.0  0.53277  0.45148  0.49494  1.0000
  C   C2333     1.0  0.52767  0.48621  0.66157  1.0000
  P   P74       1.0  0.66806  0.59874  0.58273  1.0000
  H   H1864     1.0  0.55317  0.47409  0.97520  1.0000
  C   C2334     1.0  0.73025  0.64236  0.83250  1.0000
  C   C2335     1.0  0.64855  0.34876  0.84945  1.0000
  C   C2336     1.0  0.66861  0.62680  0.54565  1.0000
  C   C2337     1.0  0.63248  0.34713  0.83608  1.0000
  C   C2338     1.0  0.55272  0.50242  0.87928  1.0000
  S   S345      1.0  0.71291  0.63995  0.80760  1.0000
  H   H1865     1.0  0.55525  0.53578  0.48325  1.0000
  C   C2339     1.0  0.60253  0.55816  0.92900  1.0000
  C   C2340     1.0  0.72283  0.64235  0.61976  1.0000
  C   C2341     1.0  0.58837  0.41545  0.93604  1.0000
  H   H1866     1.0  0.51884  0.50532  0.76457  1.0000
  S   S346      1.0  0.74053  0.63808  0.66971  1.0000
  H   H1867     1.0  0.60274  0.43905  0.93708  1.0000
  C   C2342     1.0  0.62572  0.55921  0.82763  1.0000
  H   H1868     1.0  0.52552  0.48169  0.95809  1.0000
  H   H1869     1.0  0.50416  0.47249  0.87701  1.0000
  H   H1870     1.0  0.71586  0.33308  0.82652  1.0000
  C   C2343     1.0  0.57978  0.56045  0.74224  1.0000
  H   H1871     1.0  0.71096  0.64135  0.63164  1.0000
  C   C2344     1.0  0.70867  0.59906  0.63828  1.0000
  C   C2345     1.0  0.51428  0.53316  0.69308  1.0000
  C   C2346     1.0  0.58473  0.51739  0.89213  1.0000
  H   H1872     1.0  0.58407  0.56284  0.69804  1.0000
  C   C2347     1.0  0.52810  0.48083  0.78148  1.0000
  H   H1873     1.0  0.68974  0.54627  0.71248  1.0000
  H   H1874     1.0  0.65346  0.46903  0.92101  1.0000
  H   H1875     1.0  0.56247  0.53089  0.71779  1.0000
  P   P75       1.0  0.59816  0.37085  0.89099  1.0000
  C   C2348     1.0  0.58009  0.37396  0.86709  1.0000
  C   C2349     1.0  0.60047  0.39200  0.90696  1.0000
  C   C2350     1.0  0.61434  0.40262  0.89985  1.0000
  C   C2351     1.0  0.61524  0.41946  0.91086  1.0000
  C   C2352     1.0  0.60228  0.42587  0.92897  1.0000
  C   C2353     1.0  0.50235  0.47648  0.89850  1.0000
  C   C2354     1.0  0.72804  0.33256  0.86724  1.0000
  H   H1876     1.0  0.70963  0.64286  0.58003  1.0000
  C   C2355     1.0  0.58292  0.38086  0.84051  1.0000
  C   C2356     1.0  0.56292  0.37103  0.87568  1.0000
  H   H1877     1.0  0.62420  0.39818  0.88513  1.0000
  H   H1878     1.0  0.62578  0.42769  0.90474  1.0000
  H   H1879     1.0  0.71687  0.60874  0.64770  1.0000
  C   C2357     1.0  0.60198  0.48504  0.97606  1.0000
  C   C2358     1.0  0.49809  0.48685  0.52942  1.0000
  C   C2359     1.0  0.51665  0.47660  0.91662  1.0000
  H   H1880     1.0  0.56026  0.36653  0.89653  1.0000
  C   C2360     1.0  0.73858  0.32801  0.57455  1.0000
  C   C2361     1.0  0.51427  0.48145  0.94449  1.0000
  C   C2362     1.0  0.66803  0.44860  0.64953  1.0000
  H   H1881     1.0  0.69997  0.38074  0.77522  1.0000
  C   C2363     1.0  0.63074  0.47810  0.89806  1.0000
  H   H1882     1.0  0.67806  0.65647  0.58041  1.0000
  H   H1883     1.0  0.57807  0.42071  0.94939  1.0000
  H   H1884     1.0  0.63350  0.56493  0.75613  1.0000
  H   H1885     1.0  0.53176  0.48638  0.80135  1.0000
  C   C2364     1.0  0.51669  0.48441  0.73446  1.0000
  C   C2365     1.0  0.58885  0.55726  0.71744  1.0000
  C   C2366     1.0  0.61068  0.53964  0.74247  1.0000
  C   C2367     1.0  0.60421  0.54690  0.71753  1.0000
  P   P76       1.0  0.63144  0.52766  0.74245  1.0000
  C   C2368     1.0  0.63103  0.51250  0.71348  1.0000
  C   C2369     1.0  0.66437  0.53811  0.72553  1.0000
  C   C2370     1.0  0.62552  0.49535  0.71709  1.0000
  C   C2371     1.0  0.62369  0.48431  0.69409  1.0000
  C   C2372     1.0  0.62734  0.49025  0.66734  1.0000
  C   C2373     1.0  0.63314  0.50715  0.66361  1.0000
  C   C2374     1.0  0.63499  0.51822  0.68653  1.0000
  C   C2375     1.0  0.63532  0.51600  0.77480  1.0000
  C   C2376     1.0  0.62200  0.50650  0.78699  1.0000
  C   C2377     1.0  0.62496  0.49736  0.81178  1.0000
  C   C2378     1.0  0.64131  0.49757  0.82465  1.0000
  C   C2379     1.0  0.65469  0.50697  0.81275  1.0000
  C   C2380     1.0  0.65174  0.51615  0.78794  1.0000
  H   H1886     1.0  0.61111  0.54488  0.69807  1.0000
  H   H1887     1.0  0.66669  0.52480  0.71850  1.0000
  H   H1888     1.0  0.62200  0.49054  0.73734  1.0000
  H   H1889     1.0  0.61873  0.47138  0.69690  1.0000
  H   H1890     1.0  0.62523  0.48192  0.64945  1.0000
  H   H1891     1.0  0.63566  0.51196  0.64283  1.0000
  H   H1892     1.0  0.63895  0.53145  0.68296  1.0000
  H   H1893     1.0  0.60931  0.50606  0.77722  1.0000
  H   H1894     1.0  0.64365  0.49033  0.84371  1.0000
  H   H1895     1.0  0.66741  0.50706  0.82267  1.0000
  H   H1896     1.0  0.66234  0.52325  0.77910  1.0000
  H   H1897     1.0  0.57635  0.51502  0.93512  1.0000
  C   C2381     1.0  0.53015  0.47735  0.63635  1.0000
  H   H1898     1.0  0.64101  0.57463  0.59801  1.0000
  C   C2382     1.0  0.63108  0.53721  0.86301  1.0000
  C   C2383     1.0  0.66554  0.57461  0.53888  1.0000
  Fe  Fe173     1.0  0.68247  0.33463  0.74583  1.0000
  C   C2384     1.0  0.51392  0.41883  0.70097  1.0000
  C   C2385     1.0  0.62075  0.50800  0.90722  1.0000
  H   H1899     1.0  0.50279  0.46219  0.55048  1.0000
  C   C2386     1.0  0.64507  0.55117  0.53818  1.0000
  H   H1900     1.0  0.72114  0.40452  0.77509  1.0000
  H   H1901     1.0  0.56784  0.56845  0.74211  1.0000
  C   C2387     1.0  0.63889  0.55642  0.56433  1.0000
  H   H1902     1.0  0.51607  0.40432  0.73932  1.0000
  H   H1903     1.0  0.52664  0.41438  0.69342  1.0000
  H   H1904     1.0  0.65724  0.49731  0.94518  1.0000
  C   C2388     1.0  0.67750  0.55018  0.72227  1.0000
  C   C2389     1.0  0.64450  0.47996  0.91686  1.0000
  C   C2390     1.0  0.64662  0.49588  0.93049  1.0000
  C   C2391     1.0  0.50798  0.41313  0.72676  1.0000
  H   H1905     1.0  0.51682  0.51255  0.55622  1.0000
  H   H1906     1.0  0.60299  0.56453  0.90902  1.0000
  C   C2392     1.0  0.55189  0.38079  0.83084  1.0000
  H   H1907     1.0  0.54049  0.49641  0.87439  1.0000
  C   C2393     1.0  0.60211  0.55045  0.85744  1.0000
  C   C2394     1.0  0.64932  0.35695  0.87544  1.0000
  C   C2395     1.0  0.61717  0.35385  0.84849  1.0000
  C   C2396     1.0  0.61893  0.49207  0.89316  1.0000
  H   H1908     1.0  0.63195  0.34087  0.81581  1.0000
  C   C2397     1.0  0.54348  0.54022  0.52337  1.0000
  H   H1909     1.0  0.67923  0.41626  0.60365  1.0000
  C   C2398     1.0  0.65841  0.56024  0.52549  1.0000
  C   C2399     1.0  0.54889  0.37435  0.85753  1.0000
  C   C2400     1.0  0.60164  0.54319  0.76740  1.0000
  H   H1910     1.0  0.65068  0.54628  0.83489  1.0000
  C   C2401     1.0  0.69506  0.60861  0.54813  1.0000
  C   C2402     1.0  0.70268  0.61887  0.52785  1.0000
  H   H1911     1.0  0.60652  0.53825  0.78706  1.0000
  H   H1912     1.0  0.54847  0.50205  0.92360  1.0000
  H   H1913     1.0  0.72082  0.57765  0.66071  1.0000
  H   H1914     1.0  0.57628  0.39089  0.93005  1.0000
  C   C2403     1.0  0.53265  0.53358  0.54380  1.0000
  C   C2404     1.0  0.72562  0.32853  0.59562  1.0000
  H   H1915     1.0  0.73711  0.63867  0.90315  1.0000
  C   C2405     1.0  0.72807  0.33239  0.83788  1.0000
  C   C2406     1.0  0.60823  0.56075  0.83579  1.0000
  H   H1916     1.0  0.53881  0.49205  0.67139  1.0000
  H   H1917     1.0  0.60824  0.49027  0.87878  1.0000
  H   H1918     1.0  0.67561  0.44847  0.60632  1.0000
  H   H1919     1.0  0.58930  0.51612  0.84752  1.0000
  H   H1920     1.0  0.56107  0.50338  0.83653  1.0000
  C   C2407     1.0  0.51963  0.46647  0.72978  1.0000
  C   C2408     1.0  0.64599  0.57075  0.57777  1.0000
  C   C2409     1.0  0.63403  0.36368  0.88794  1.0000
  H   H1921     1.0  0.52959  0.47269  0.90925  1.0000
  C   C2410     1.0  0.59497  0.47618  0.95290  1.0000
  P   P77       1.0  0.50824  0.49841  0.70697  1.0000
  H   H1922     1.0  0.52912  0.44201  0.74725  1.0000
  C   C2411     1.0  0.56889  0.38412  0.82239  1.0000
  C   C2412     1.0  0.49631  0.55243  0.62384  1.0000
  H   H1923     1.0  0.50118  0.53402  0.68486  1.0000
  C   C2413     1.0  0.65043  0.61058  0.60030  1.0000
  H   H1924     1.0  0.60457  0.36893  0.95142  1.0000
  H   H1925     1.0  0.54098  0.38364  0.81699  1.0000
  H   H1926     1.0  0.58855  0.55187  0.86370  1.0000
  H   H1927     1.0  0.70253  0.59762  0.55661  1.0000
  H   H1928     1.0  0.64978  0.33651  0.67434  1.0000
  P   P78       1.0  0.60575  0.52617  0.90041  1.0000
  C   C2414     1.0  0.63383  0.61195  0.58777  1.0000
  C   C2415     1.0  0.62002  0.62086  0.60123  1.0000
  C   C2416     1.0  0.62268  0.62862  0.62718  1.0000
  C   C2417     1.0  0.63916  0.62753  0.63963  1.0000
  C   C2418     1.0  0.65297  0.61851  0.62635  1.0000
  H   H1929     1.0  0.67581  0.58141  0.52857  1.0000
  C   C2419     1.0  0.68733  0.57416  0.61438  1.0000
  H   H1930     1.0  0.49709  0.56626  0.62788  1.0000
  H   H1931     1.0  0.65681  0.58593  0.75049  1.0000
  C   C2420     1.0  0.67641  0.63721  0.52563  1.0000
  Fe  Fe174     1.0  0.72094  0.32864  0.75941  1.0000
  H   H1932     1.0  0.65537  0.63003  0.55207  1.0000
  S   S347      1.0  0.67911  0.64913  0.74884  1.0000
  H   H1933     1.0  0.65851  0.65849  0.62154  1.0000
  H   H1934     1.0  0.68479  0.57688  0.72854  1.0000
  H   H1935     1.0  0.62902  0.46571  0.88762  1.0000
  H   H1936     1.0  0.63150  0.60596  0.56770  1.0000
  H   H1937     1.0  0.60718  0.62155  0.59169  1.0000
  H   H1938     1.0  0.61194  0.63529  0.63787  1.0000
  H   H1939     1.0  0.64117  0.63327  0.66002  1.0000
  H   H1940     1.0  0.66540  0.61752  0.63701  1.0000
  C   C2421     1.0  0.71089  0.58153  0.64563  1.0000
  H   H1941     1.0  0.53563  0.37232  0.86428  1.0000
  C   C2422     1.0  0.60312  0.53229  0.95773  1.0000
  C   C2423     1.0  0.65929  0.58004  0.56513  1.0000
  C   C2424     1.0  0.52087  0.49150  0.76057  1.0000
  H   H1942     1.0  0.59945  0.57004  0.82546  1.0000
  H   H1943     1.0  0.53661  0.45471  0.79269  1.0000
  C   C2425     1.0  0.55715  0.50571  0.90698  1.0000
  C   C2426     1.0  0.69802  0.39179  0.76139  1.0000
  C   C2427     1.0  0.70992  0.40518  0.76129  1.0000
  C   C2428     1.0  0.70736  0.41936  0.74334  1.0000
  C   C2429     1.0  0.69295  0.42010  0.72533  1.0000
  C   C2430     1.0  0.68108  0.40654  0.72503  1.0000
  C   C2431     1.0  0.68362  0.39250  0.74345  1.0000
  P   P79       1.0  0.66227  0.40728  0.70221  1.0000
  C   C2432     1.0  0.64371  0.41764  0.71956  1.0000
  C   C2433     1.0  0.66684  0.42016  0.67170  1.0000
  C   C2434     1.0  0.67204  0.41225  0.64646  1.0000
  C   C2435     1.0  0.73739  0.64470  0.57475  1.0000
  H   H1944     1.0  0.57905  0.55577  0.78638  1.0000
  S   S348      1.0  0.69003  0.64832  0.68335  1.0000
  C   C2436     1.0  0.66490  0.43844  0.67302  1.0000
  C   C2437     1.0  0.64370  0.42018  0.74852  1.0000
  C   C2438     1.0  0.62984  0.42944  0.76130  1.0000
  C   C2439     1.0  0.61579  0.43597  0.74544  1.0000
  C   C2440     1.0  0.61553  0.43320  0.71668  1.0000
  C   C2441     1.0  0.62943  0.42405  0.70376  1.0000
  C   C2442     1.0  0.65796  0.38505  0.69238  1.0000
  C   C2443     1.0  0.64112  0.37851  0.69464  1.0000
  C   C2444     1.0  0.63817  0.36109  0.68791  1.0000
  C   C2445     1.0  0.65198  0.35010  0.67893  1.0000
  C   C2446     1.0  0.66877  0.35650  0.67669  1.0000
  C   C2447     1.0  0.67179  0.37384  0.68365  1.0000
  S   S349      1.0  0.74467  0.33362  0.78654  1.0000
  C   C2448     1.0  0.52672  0.45583  0.75083  1.0000
  C   C2449     1.0  0.74006  0.64095  0.88148  1.0000
  H   H1945     1.0  0.69124  0.43116  0.71161  1.0000
  H   H1946     1.0  0.67458  0.38196  0.74381  1.0000
  H   H1947     1.0  0.67359  0.39825  0.64454  1.0000
  H   H1948     1.0  0.55023  0.55787  0.69565  1.0000
  H   H1949     1.0  0.54446  0.50527  0.72285  1.0000
  H   H1950     1.0  0.60488  0.35217  0.83787  1.0000
  H   H1951     1.0  0.65432  0.41508  0.76135  1.0000
  H   H1952     1.0  0.62995  0.43147  0.78364  1.0000
  H   H1953     1.0  0.60507  0.44309  0.75550  1.0000
  H   H1954     1.0  0.60458  0.43821  0.70441  1.0000
  H   H1955     1.0  0.62911  0.42211  0.68140  1.0000
  H   H1956     1.0  0.63034  0.38661  0.70230  1.0000
  H   H1957     1.0  0.62529  0.35594  0.69048  1.0000
  C   C2450     1.0  0.54631  0.53095  0.49865  1.0000
  H   H1958     1.0  0.67953  0.34791  0.67009  1.0000
  H   H1959     1.0  0.68500  0.37841  0.68249  1.0000
  H   H1960     1.0  0.66641  0.46267  0.65068  1.0000
  C   C2451     1.0  0.50709  0.42165  0.82438  1.0000
  H   H1961     1.0  0.66040  0.34380  0.83948  1.0000
  H   H1962     1.0  0.63048  0.56727  0.81095  1.0000
  H   H1963     1.0  0.67915  0.56432  0.60554  1.0000
  P   P80       1.0  0.51878  0.48656  0.51122  1.0000
  C   C2452     1.0  0.52777  0.50800  0.51506  1.0000
  H   H1964     1.0  0.57115  0.38966  0.80204  1.0000
  H   H1965     1.0  0.57505  0.45470  0.48758  1.0000
  C   C2453     1.0  0.63490  0.50991  0.92551  1.0000
  C   C2454     1.0  0.51107  0.48737  0.67390  1.0000
  C   C2455     1.0  0.68493  0.59178  0.60705  1.0000
  H   H1966     1.0  0.71660  0.42973  0.74329  1.0000
  C   C2456     1.0  0.69347  0.63326  0.51680  1.0000
  C   C2457     1.0  0.70027  0.56907  0.63362  1.0000
  C   C2458     1.0  0.59315  0.35490  0.91700  1.0000
  H   H1967     1.0  0.51669  0.46069  0.70986  1.0000
  C   C2459     1.0  0.52479  0.51759  0.53971  1.0000
  C   C2460     1.0  0.53375  0.47098  0.52767  1.0000
  C   C2461     1.0  0.53811  0.45488  0.51498  1.0000
  C   C2462     1.0  0.54985  0.44308  0.52788  1.0000
  C   C2463     1.0  0.55740  0.44728  0.55344  1.0000
  C   C2464     1.0  0.55303  0.46317  0.56633  1.0000
  C   C2465     1.0  0.54113  0.47490  0.55363  1.0000
  C   C2466     1.0  0.72681  0.63967  0.86100  1.0000
  H   H1968     1.0  0.50174  0.39959  0.79838  1.0000
  C   C2467     1.0  0.56431  0.50638  0.85797  1.0000
  C   C2468     1.0  0.65897  0.57250  0.74387  1.0000
  H   H1969     1.0  0.58228  0.33690  0.88735  1.0000
  H   H1970     1.0  0.51810  0.46277  0.60359  1.0000
  C   C2469     1.0  0.60365  0.53988  0.93118  1.0000
  C   C2470     1.0  0.57309  0.51311  0.91343  1.0000
  C   C2471     1.0  0.64833  0.54325  0.73768  1.0000
  H   H1971     1.0  0.66093  0.44487  0.69222  1.0000
  C   C2472     1.0  0.67479  0.56737  0.73144  1.0000
  H   H1972     1.0  0.55351  0.43089  0.51766  1.0000
  H   H1973     1.0  0.56690  0.43837  0.56304  1.0000
  H   H1974     1.0  0.55924  0.46660  0.58583  1.0000
  H   H1975     1.0  0.53795  0.48713  0.56391  1.0000
  H   H1976     1.0  0.55009  0.55229  0.52704  1.0000
  H   H1977     1.0  0.63946  0.54009  0.52778  1.0000
  C   C2473     1.0  0.72210  0.64332  0.59054  1.0000
  H   H1978     1.0  0.54306  0.47660  0.62717  1.0000
  H   H1979     1.0  0.63681  0.52216  0.93619  1.0000
  C   C2474     1.0  0.53097  0.46301  0.77660  1.0000
  H   H1980     1.0  0.61574  0.48781  0.97637  1.0000
  C   C2475     1.0  0.63710  0.54740  0.84115  1.0000
  H   H1981     1.0  0.59998  0.58264  0.95116  1.0000
  C   C2476     1.0  0.64575  0.56054  0.74688  1.0000
  H   H1982     1.0  0.59593  0.38401  0.83399  1.0000
  C   C2477     1.0  0.69586  0.60415  0.61888  1.0000
  H   H1983     1.0  0.64019  0.52833  0.87344  1.0000
  H   H1984     1.0  0.53079  0.54061  0.56319  1.0000
  H   H1985     1.0  0.63482  0.36981  0.90822  1.0000
  H   H1986     1.0  0.49962  0.58954  0.55499  1.0000
  C   C2478     1.0  0.51612  0.46951  0.62324  1.0000
  H   H1987     1.0  0.71378  0.63639  0.86730  1.0000
  H   H1988     1.0  0.66320  0.55614  0.50519  1.0000
  C   C2479     1.0  0.50347  0.43027  0.68499  1.0000
  H   H1989     1.0  0.50809  0.43465  0.66497  1.0000
  H   H1990     1.0  0.60400  0.51830  0.96012  1.0000
  H   H1991     1.0  0.50643  0.43531  0.51388  1.0000
  C   C2480     1.0  0.49796  0.43548  0.49580  1.0000
  C   C2481     1.0  0.59465  0.34452  0.96474  1.0000
  C   C2482     1.0  0.57733  0.46811  0.48227  1.0000
  C   C2483     1.0  0.49971  0.43412  0.84279  1.0000
  C   C2484     1.0  0.49707  0.47925  0.66080  1.0000
  H   H1992     1.0  0.71595  0.61591  0.52105  1.0000
  H   H1993     1.0  0.50186  0.55729  0.55609  1.0000
  C   C2485     1.0  0.56676  0.47735  0.97504  1.0000
  C   C2486     1.0  0.49621  0.40946  0.81221  1.0000
  C   C2487     1.0  0.49959  0.47041  0.63553  1.0000
  S   S350      1.0  0.71294  0.32915  0.64979  1.0000
  C   C2488     1.0  0.49748  0.48563  0.95472  1.0000
  C   C2489     1.0  0.58664  0.32918  0.95674  1.0000
  H   H1994     1.0  0.74087  0.60000  0.60596  1.0000
  C   C2490     1.0  0.73010  0.32828  0.62416  1.0000
  H   H1995     1.0  0.71198  0.32924  0.58971  1.0000
  S   S351      1.0  0.74321  0.33394  0.91916  1.0000
  H   H1996     1.0  0.73479  0.32834  0.55284  1.0000
  C   C2491     1.0  0.74379  0.33227  0.88233  1.0000
  C   C2492     1.0  0.74390  0.33205  0.82335  1.0000
  C   C2493     1.0  0.57597  0.98423  0.20298  1.0000
  S   S352      1.0  0.66844  0.69613  0.20397  1.0000
  C   C2494     1.0  0.72500  0.83454  0.12896  1.0000
  Fe  Fe175     1.0  0.71832  0.83108  0.20649  1.0000
  S   S353      1.0  0.69368  0.82058  0.18885  1.0000
  H   H1997     1.0  0.73912  0.77359  0.43899  1.0000
  Fe  Fe176     1.0  0.70615  0.82838  0.26786  1.0000
  S   S354      1.0  0.68028  0.81814  0.25362  1.0000
  S   S355      1.0  0.70964  0.82914  0.31564  1.0000
  Fe  Fe177     1.0  0.69585  0.80085  0.22400  1.0000
  S   S356      1.0  0.70038  0.77113  0.22415  1.0000
  Fe  Fe178     1.0  0.68010  0.83888  0.21974  1.0000
  S   S357      1.0  0.65730  0.85925  0.21264  1.0000
  S   S358      1.0  0.72152  0.81056  0.23945  1.0000
  S   S359      1.0  0.70505  0.85009  0.23621  1.0000
  Fe  Fe179     1.0  0.58114  0.95386  0.07399  1.0000
  S   S360      1.0  0.57188  0.92674  0.08133  1.0000
  S   S361      1.0  0.58917  0.95964  0.02859  1.0000
  Fe  Fe180     1.0  0.57530  0.96249  0.13657  1.0000
  S   S362      1.0  0.56523  0.93604  0.14689  1.0000
  H   H1998     1.0  0.72479  0.70228  0.00298  1.0000
  Fe  Fe181     1.0  0.58817  0.92591  0.12082  1.0000
  S   S363      1.0  0.60616  0.90114  0.12670  1.0000
  Fe  Fe182     1.0  0.55013  0.93924  0.10666  1.0000
  S   S364      1.0  0.52181  0.93631  0.09294  1.0000
  S   S365      1.0  0.59879  0.95250  0.11205  1.0000
  S   S366      1.0  0.55894  0.96621  0.09790  1.0000
  H   H1999     1.0  0.54164  0.84651  0.09738  1.0000
  C   C2495     1.0  0.61515  0.88496  0.04315  1.0000
  C   C2496     1.0  0.51641  0.92693  0.23127  1.0000
  C   C2497     1.0  0.71651  0.87887  0.06433  1.0000
  H   H2000     1.0  0.51378  0.89457  0.11536  1.0000
  C   C2498     1.0  0.62141  0.89079  0.15065  1.0000
  C   C2499     1.0  0.62254  0.89552  0.17880  1.0000
  C   C2500     1.0  0.63375  0.88595  0.19720  1.0000
  C   C2501     1.0  0.64427  0.87163  0.18786  1.0000
  C   C2502     1.0  0.64347  0.86722  0.15957  1.0000
  C   C2503     1.0  0.63215  0.87665  0.14127  1.0000
  H   H2001     1.0  0.61445  0.90627  0.18661  1.0000
  H   H2002     1.0  0.63413  0.88957  0.21898  1.0000
  H   H2003     1.0  0.65109  0.85612  0.15201  1.0000
  H   H2004     1.0  0.63157  0.87283  0.11968  1.0000
  C   C2504     1.0  0.67731  0.71695  0.21012  1.0000
  C   C2505     1.0  0.66674  0.73213  0.20628  1.0000
  C   C2506     1.0  0.67345  0.74886  0.21060  1.0000
  C   C2507     1.0  0.69088  0.75056  0.21864  1.0000
  C   C2508     1.0  0.70141  0.73537  0.22248  1.0000
  C   C2509     1.0  0.69468  0.71870  0.21831  1.0000
  H   H2005     1.0  0.65326  0.73093  0.19997  1.0000
  H   H2006     1.0  0.66513  0.76038  0.20775  1.0000
  H   H2007     1.0  0.71489  0.73649  0.22867  1.0000
  H   H2008     1.0  0.70288  0.70717  0.22144  1.0000
  C   C2510     1.0  0.53292  0.98420  0.44899  1.0000
  C   C2511     1.0  0.72688  0.70305  0.30973  1.0000
  H   H2009     1.0  0.51680  0.98686  0.38300  1.0000
  H   H2010     1.0  0.56823  0.82317  0.12666  1.0000
  C   C2512     1.0  0.71399  0.70043  0.28942  1.0000
  H   H2011     1.0  0.68929  0.76479  0.28182  1.0000
  C   C2513     1.0  0.58556  0.96904  0.24503  1.0000
  C   C2514     1.0  0.58279  0.96918  0.21598  1.0000
  C   C2515     1.0  0.55174  0.92947  0.21779  1.0000
  H   H2012     1.0  0.71302  0.83395  0.14064  1.0000
  H   H2013     1.0  0.59112  0.95745  0.25488  1.0000
  H   H2014     1.0  0.58627  0.95779  0.20359  1.0000
  H   H2015     1.0  0.54661  0.95702  0.21521  1.0000
  H   H2016     1.0  0.70481  0.74467  0.40707  1.0000
  C   C2516     1.0  0.67016  0.82993  0.08409  1.0000
  H   H2017     1.0  0.73771  0.95551  0.43300  1.0000
  H   H2018     1.0  0.63494  0.86617  0.05642  1.0000
  C   C2517     1.0  0.73241  0.70466  0.02155  1.0000
  S   S367      1.0  0.57337  0.98557  0.16635  1.0000
  C   C2518     1.0  0.69674  0.69776  0.29724  1.0000
  P   P81       1.0  0.69100  0.88422  0.10517  1.0000
  C   C2519     1.0  0.68292  0.86292  0.09696  1.0000
  H   H2019     1.0  0.68625  0.91706  0.13647  1.0000
  H   H2020     1.0  0.71216  0.83381  0.08895  1.0000
  H   H2021     1.0  0.70544  0.95972  0.43384  1.0000
  C   C2520     1.0  0.56949  0.82144  0.10433  1.0000
  H   H2022     1.0  0.52540  0.97134  0.13035  1.0000
  C   C2521     1.0  0.72540  0.75498  0.16657  1.0000
  C   C2522     1.0  0.72010  0.76748  0.14669  1.0000
  C   C2523     1.0  0.72730  0.78410  0.14764  1.0000
  P   P82       1.0  0.70354  0.76304  0.12097  1.0000
  C   C2524     1.0  0.70121  0.73979  0.11633  1.0000
  C   C2525     1.0  0.68247  0.77155  0.13220  1.0000
  C   C2526     1.0  0.66751  0.76780  0.11665  1.0000
  C   C2527     1.0  0.65103  0.77403  0.12538  1.0000
  C   C2528     1.0  0.64939  0.78400  0.14972  1.0000
  C   C2529     1.0  0.66423  0.78773  0.16531  1.0000
  C   C2530     1.0  0.68071  0.78152  0.15662  1.0000
  C   C2531     1.0  0.69320  0.73022  0.13738  1.0000
  C   C2532     1.0  0.69094  0.71231  0.13424  1.0000
  C   C2533     1.0  0.69649  0.70380  0.10993  1.0000
  C   C2534     1.0  0.70418  0.71324  0.08864  1.0000
  C   C2535     1.0  0.70644  0.73118  0.09170  1.0000
  C   C2536     1.0  0.71035  0.77394  0.08968  1.0000
  C   C2537     1.0  0.72662  0.76943  0.07789  1.0000
  C   C2538     1.0  0.73074  0.88385  0.39273  1.0000
  Fe  Fe183     1.0  0.68331  0.66993  0.20933  1.0000
  C   C2539     1.0  0.70741  0.79811  0.05715  1.0000
  C   C2540     1.0  0.70082  0.78850  0.07927  1.0000
  C   C2541     1.0  0.70070  0.93223  0.43142  1.0000
  C   C2542     1.0  0.57545  0.83294  0.05848  1.0000
  C   C2543     1.0  0.50033  0.98315  0.27570  1.0000
  H   H2023     1.0  0.71985  0.74222  0.16697  1.0000
  H   H2024     1.0  0.72321  0.79416  0.13300  1.0000
  H   H2025     1.0  0.66859  0.75987  0.09798  1.0000
  H   H2026     1.0  0.63950  0.77088  0.11354  1.0000
  H   H2027     1.0  0.63662  0.78859  0.15680  1.0000
  H   H2028     1.0  0.66297  0.79511  0.18455  1.0000
  H   H2029     1.0  0.69198  0.78421  0.16931  1.0000
  H   H2030     1.0  0.68868  0.73659  0.15634  1.0000
  H   H2031     1.0  0.68484  0.70502  0.15069  1.0000
  C   C2544     1.0  0.73708  0.92745  0.43094  1.0000
  H   H2032     1.0  0.70831  0.70659  0.06972  1.0000
  H   H2033     1.0  0.71199  0.73820  0.07463  1.0000
  C   C2545     1.0  0.52487  0.99136  0.06271  1.0000
  C   C2546     1.0  0.72353  0.79332  0.04535  1.0000
  H   H2034     1.0  0.58159  0.94073  0.47488  1.0000
  H   H2035     1.0  0.70037  0.80966  0.04965  1.0000
  H   H2036     1.0  0.68867  0.79286  0.08878  1.0000
  C   C2547     1.0  0.72017  0.88103  0.18913  1.0000
  C   C2548     1.0  0.67448  0.91494  0.12459  1.0000
  H   H2037     1.0  0.59905  0.98547  0.43469  1.0000
  C   C2549     1.0  0.61032  0.86200  0.07647  1.0000
  H   H2038     1.0  0.57304  0.88647  0.06483  1.0000
  H   H2039     1.0  0.56196  0.79464  0.10557  1.0000
  C   C2550     1.0  0.51784  0.98306  0.40469  1.0000
  H   H2040     1.0  0.57252  0.81499  0.02428  1.0000
  C   C2551     1.0  0.56585  0.80530  0.09244  1.0000
  H   H2041     1.0  0.68090  0.86771  0.05264  1.0000
  C   C2552     1.0  0.51758  0.96834  0.17294  1.0000
  H   H2042     1.0  0.56542  0.93052  0.21252  1.0000
  H   H2043     1.0  0.62382  0.89185  0.02954  1.0000
  H   H2044     1.0  0.70730  0.71616  0.43102  1.0000
  S   S368      1.0  0.73863  0.83713  0.04734  1.0000
  H   H2045     1.0  0.66984  0.83867  0.04148  1.0000
  H   H2046     1.0  0.71036  0.82467  0.37476  1.0000
  C   C2553     1.0  0.72062  0.87986  0.13875  1.0000
  C   C2554     1.0  0.69869  0.75018  0.31744  1.0000
  C   C2555     1.0  0.72220  0.70317  0.33800  1.0000
  H   H2047     1.0  0.72697  0.87983  0.20888  1.0000
  C   C2556     1.0  0.70882  0.75046  0.34173  1.0000
  H   H2048     1.0  0.71590  0.86515  0.06913  1.0000
  H   H2049     1.0  0.51434  0.95484  0.16990  1.0000
  C   C2557     1.0  0.71747  0.73802  0.40881  1.0000
  P   P83       1.0  0.51192  0.96405  0.99272  1.0000
  C   C2558     1.0  0.71177  0.86878  0.36070  1.0000
  C   C2559     1.0  0.69842  0.80279  0.42056  1.0000
  C   C2560     1.0  0.70573  0.79157  0.40037  1.0000
  H   H2050     1.0  0.67225  0.82483  0.12815  1.0000
  C   C2561     1.0  0.72725  0.82969  0.34018  1.0000
  C   C2562     1.0  0.72949  0.94428  0.43241  1.0000
  P   P84       1.0  0.57856  0.85633  0.10282  1.0000
  H   H2051     1.0  0.63196  0.90849  0.08243  1.0000
  S   S369      1.0  0.74191  0.83691  0.17988  1.0000
  C   C2563     1.0  0.59283  0.86778  0.07962  1.0000
  H   H2052     1.0  0.70084  0.86044  0.35696  1.0000
  H   H2053     1.0  0.69210  0.73845  0.31148  1.0000
  C   C2564     1.0  0.55768  0.88599  0.11515  1.0000
  C   C2565     1.0  0.73238  0.74551  0.39757  1.0000
  C   C2566     1.0  0.52329  0.94344  0.22679  1.0000
  C   C2567     1.0  0.67268  0.84204  0.06291  1.0000
  C   C2568     1.0  0.53453  0.91990  0.02714  1.0000
  C   C2569     1.0  0.53131  0.97712  0.26918  1.0000
  C   C2570     1.0  0.62141  0.87056  0.05834  1.0000
  H   H2054     1.0  0.73631  0.70102  0.43634  1.0000
  H   H2055     1.0  0.69979  0.79133  0.37992  1.0000
  H   H2056     1.0  0.52175  0.89917  0.23246  1.0000
  H   H2057     1.0  0.72876  0.76331  0.26399  1.0000
  H   H2058     1.0  0.68699  0.69522  0.28142  1.0000
  H   H2059     1.0  0.54357  0.98912  0.46122  1.0000
  C   C2571     1.0  0.66056  0.92714  0.12666  1.0000
  C   C2572     1.0  0.64529  0.92479  0.11138  1.0000
  H   H2060     1.0  0.66149  0.93833  0.14033  1.0000
  H   H2061     1.0  0.63433  0.93401  0.11338  1.0000
  C   C2573     1.0  0.58160  0.98391  0.26134  1.0000
  H   H2062     1.0  0.56414  0.79044  0.05442  1.0000
  C   C2574     1.0  0.57179  0.81677  0.04665  1.0000
  C   C2575     1.0  0.52605  0.88718  0.11344  1.0000
  H   H2063     1.0  0.68711  0.81104  0.41542  1.0000
  H   H2064     1.0  0.72105  0.68546  0.15627  1.0000
  H   H2065     1.0  0.72628  0.79367  0.47419  1.0000
  H   H2066     1.0  0.73444  0.75880  0.08643  1.0000
  H   H2067     1.0  0.69984  0.90434  0.42844  1.0000
  H   H2068     1.0  0.67893  0.69503  0.33139  1.0000
  C   C2576     1.0  0.73313  0.77897  0.05569  1.0000
  C   C2577     1.0  0.70584  0.80359  0.44713  1.0000
  C   C2578     1.0  0.52070  0.97795  0.04433  1.0000
  H   H2069     1.0  0.70994  0.73877  0.35410  1.0000
  C   C2579     1.0  0.70250  0.88324  0.13799  1.0000
  H   H2070     1.0  0.51248  0.92465  0.14918  1.0000
  C   C2580     1.0  0.54180  0.89535  0.11810  1.0000
  H   H2071     1.0  0.72797  0.87751  0.11983  1.0000
  C   C2581     1.0  0.68042  0.85063  0.11809  1.0000
  H   H2072     1.0  0.70146  0.70003  0.36760  1.0000
  C   C2582     1.0  0.70206  0.88390  0.18856  1.0000
  H   H2073     1.0  0.69474  0.88499  0.20785  1.0000
  C   C2583     1.0  0.52716  0.91186  0.22909  1.0000
  C   C2584     1.0  0.72061  0.78111  0.40662  1.0000
  H   H2074     1.0  0.50277  0.92552  0.23614  1.0000
  C   C2585     1.0  0.58221  0.97473  0.00189  1.0000
  C   C2586     1.0  0.51595  0.97614  0.19934  1.0000
  H   H2075     1.0  0.70839  0.86901  0.40492  1.0000
  C   C2587     1.0  0.50685  0.96748  0.44448  1.0000
  H   H2076     1.0  0.65631  0.88679  0.07864  1.0000
  C   C2588     1.0  0.67900  0.85848  0.06929  1.0000
  H   H2077     1.0  0.50979  0.93347  0.02934  1.0000
  H   H2078     1.0  0.69478  0.68988  0.10761  1.0000
  H   H2079     1.0  0.57885  0.84357  0.04495  1.0000
  C   C2589     1.0  0.59772  0.89063  0.04574  1.0000
  H   H2080     1.0  0.72861  0.83328  0.46939  1.0000
  H   H2081     1.0  0.72263  0.79219  0.33755  1.0000
  C   C2590     1.0  0.73973  0.78801  0.16783  1.0000
  C   C2591     1.0  0.70583  0.78006  0.30799  1.0000
  H   H2082     1.0  0.54165  0.90902  0.12371  1.0000
  H   H2083     1.0  0.73957  0.85362  0.43428  1.0000
  H   H2084     1.0  0.55712  0.96157  0.46815  1.0000
  C   C2592     1.0  0.58991  0.85279  0.13564  1.0000
  C   C2593     1.0  0.58660  0.86373  0.15870  1.0000
  C   C2594     1.0  0.59561  0.86096  0.18376  1.0000
  C   C2595     1.0  0.60802  0.84729  0.18607  1.0000
  C   C2596     1.0  0.61137  0.83628  0.16337  1.0000
  C   C2597     1.0  0.60235  0.83897  0.13830  1.0000
  C   C2598     1.0  0.72168  0.87430  0.33822  1.0000
  H   H2085     1.0  0.72881  0.80107  0.02871  1.0000
  C   C2599     1.0  0.55143  0.91962  0.01634  1.0000
  H   H2086     1.0  0.53094  0.91035  0.04251  1.0000
  H   H2087     1.0  0.70843  0.66187  0.35746  1.0000
  H   H2088     1.0  0.73625  0.87447  0.03299  1.0000
  C   C2600     1.0  0.50165  0.93422  0.11052  1.0000
  C   C2601     1.0  0.73568  0.72169  0.02993  1.0000
  C   C2602     1.0  0.52391  0.97769  0.15045  1.0000
  C   C2603     1.0  0.73998  0.83558  0.08411  1.0000
  C   C2604     1.0  0.52066  0.97330  0.46102  1.0000
  C   C2605     1.0  0.57460  0.83530  0.08747  1.0000
  C   C2606     1.0  0.53489  0.98743  0.29241  1.0000
  C   C2607     1.0  0.57030  0.98869  0.00673  1.0000
  H   H2089     1.0  0.71971  0.92793  0.04657  1.0000
  H   H2090     1.0  0.57747  0.87471  0.15742  1.0000
  H   H2091     1.0  0.59343  0.86982  0.20112  1.0000
  H   H2092     1.0  0.61544  0.84560  0.20521  1.0000
  H   H2093     1.0  0.62127  0.82592  0.16513  1.0000
  H   H2094     1.0  0.60524  0.83034  0.12093  1.0000
  H   H2095     1.0  0.54831  0.98926  0.29872  1.0000
  H   H2096     1.0  0.73019  0.69895  0.20054  1.0000
  H   H2097     1.0  0.62196  0.98702  0.25653  1.0000
  C   C2608     1.0  0.71882  0.72193  0.42242  1.0000
  H   H2098     1.0  0.56468  0.99045  0.02723  1.0000
  C   C2609     1.0  0.71598  0.78038  0.33221  1.0000
  C   C2610     1.0  0.72694  0.87647  0.45272  1.0000
  H   H2099     1.0  0.74350  0.88924  0.32534  1.0000
  C   C2611     1.0  0.73113  0.85857  0.45078  1.0000
  H   H2100     1.0  0.61551  0.85103  0.08822  1.0000
  H   H2101     1.0  0.55315  0.90148  0.22082  1.0000
  C   C2612     1.0  0.54102  0.94453  0.21965  1.0000
  C   C2613     1.0  0.54431  0.94582  0.99012  1.0000
  H   H2102     1.0  0.56976  0.89266  0.11840  1.0000
  C   C2614     1.0  0.64398  0.91034  0.09384  1.0000
  C   C2615     1.0  0.72046  0.79301  0.45366  1.0000
  C   C2616     1.0  0.67407  0.83421  0.11166  1.0000
  H   H2103     1.0  0.67910  0.88654  0.16317  1.0000
  H   H2104     1.0  0.69922  0.91879  0.08271  1.0000
  H   H2105     1.0  0.66525  0.81720  0.07915  1.0000
  C   C2617     1.0  0.59874  0.97564  0.47705  1.0000
  C   C2618     1.0  0.65777  0.89800  0.09196  1.0000
  C   C2619     1.0  0.70491  0.70046  0.34576  1.0000
  C   C2620     1.0  0.72942  0.87895  0.16424  1.0000
  C   C2621     1.0  0.72360  0.82714  0.36860  1.0000
  S   S370      1.0  0.58626  0.98351  0.29761  1.0000
  H   H2106     1.0  0.68334  0.85362  0.13962  1.0000
  C   C2622     1.0  0.71883  0.91422  0.05158  1.0000
  C   C2623     1.0  0.72454  0.83451  0.09965  1.0000
  C   C2624     1.0  0.67309  0.90012  0.10752  1.0000
  H   H2107     1.0  0.59295  0.90197  0.03423  1.0000
  C   C2625     1.0  0.69714  0.76500  0.30066  1.0000
  H   H2108     1.0  0.73187  0.70497  0.35415  1.0000
  C   C2626     1.0  0.72773  0.78169  0.43360  1.0000
  C   C2627     1.0  0.69221  0.69766  0.32540  1.0000
  C   C2628     1.0  0.70582  0.89119  0.07845  1.0000
  H   H2109     1.0  0.71733  0.70007  0.26753  1.0000
  H   H2110     1.0  0.70467  0.79156  0.29493  1.0000
  H   H2111     1.0  0.74334  0.87591  0.16472  1.0000
  C   C2629     1.0  0.72930  0.90182  0.03746  1.0000
  C   C2630     1.0  0.69321  0.88482  0.16312  1.0000
  C   C2631     1.0  0.70716  0.90895  0.07204  1.0000
  H   H2112     1.0  0.73074  0.73263  0.01768  1.0000
  C   C2632     1.0  0.71736  0.76567  0.34952  1.0000
  C   C2633     1.0  0.72815  0.88415  0.04389  1.0000
  C   C2634     1.0  0.50536  0.97248  0.41653  1.0000
  H   H2113     1.0  0.54221  0.97133  0.25781  1.0000
  C   C2635     1.0  0.54482  0.91314  0.22247  1.0000
  C   C2636     1.0  0.55635  0.93263  0.99800  1.0000
  C   C2637     1.0  0.73510  0.71336  0.42537  1.0000
  P   P85       1.0  0.50955  0.96308  0.22864  1.0000
  H   H2114     1.0  0.71396  0.89655  0.47788  1.0000
  H   H2115     1.0  0.73365  0.82605  0.41079  1.0000
  C   C2638     1.0  0.59322  0.98686  0.45510  1.0000
  C   C2639     1.0  0.71132  0.94667  0.43280  1.0000
  C   C2640     1.0  0.73924  0.69060  0.03696  1.0000
  C   C2641     1.0  0.70824  0.91540  0.42995  1.0000
  C   C2642     1.0  0.71625  0.87351  0.38787  1.0000
  C   C2643     1.0  0.74023  0.88992  0.36994  1.0000
  C   C2644     1.0  0.73768  0.73815  0.27930  1.0000
  C   C2645     1.0  0.51398  0.97489  0.26052  1.0000
  C   C2646     1.0  0.56704  0.80294  0.06362  1.0000
  C   C2647     1.0  0.52614  0.86955  0.10611  1.0000
  P   P86       1.0  0.73043  0.76659  0.38092  1.0000
  H   H2116     1.0  0.52017  0.96475  0.05217  1.0000
  H   H2117     1.0  0.68660  0.93410  0.43129  1.0000
  H   H2118     1.0  0.72450  0.73394  0.28225  1.0000
  C   C2648     1.0  0.52712  0.94606  0.00038  1.0000
  C   C2649     1.0  0.53168  0.98880  0.42090  1.0000
  C   C2650     1.0  0.55795  0.86827  0.10764  1.0000
  C   C2651     1.0  0.51733  0.98157  0.01614  1.0000
  P   P87       1.0  0.73591  0.89106  0.42752  1.0000
  C   C2652     1.0  0.52248  0.93310  0.01942  1.0000
  C   C2653     1.0  0.58652  0.88194  0.06356  1.0000
  C   C2654     1.0  0.74438  0.83323  0.33256  1.0000
  C   C2655     1.0  0.73138  0.69481  0.15629  1.0000
  H   H2119     1.0  0.49716  0.95914  0.45294  1.0000
  C   C2656     1.0  0.73677  0.82817  0.38915  1.0000
  S   S371      1.0  0.71070  0.66887  0.22536  1.0000
  H   H2120     1.0  0.56973  0.93297  0.99072  1.0000
  C   C2657     1.0  0.72492  0.84702  0.47060  1.0000
  C   C2658     1.0  0.72649  0.91286  0.43032  1.0000
  H   H2121     1.0  0.73828  0.90586  0.02150  1.0000
  H   H2122     1.0  0.56090  0.90970  0.02298  1.0000
  C   C2659     1.0  0.54199  0.86010  0.10324  1.0000
  C   C2660     1.0  0.74089  0.83587  0.14305  1.0000
  H   H2123     1.0  0.51388  0.86324  0.10255  1.0000
  C   C2661     1.0  0.50063  0.92782  0.13770  1.0000
  C   C2662     1.0  0.73587  0.88493  0.34282  1.0000
  C   C2663     1.0  0.52085  0.99351  0.20290  1.0000
  C   C2664     1.0  0.74003  0.75489  0.26884  1.0000
  H   H2124     1.0  0.60884  0.96574  0.47315  1.0000
  C   C2665     1.0  0.73990  0.69871  0.13147  1.0000
  H   H2125     1.0  0.73885  0.66950  0.29220  1.0000
  C   C2666     1.0  0.73771  0.75906  0.18695  1.0000
  C   C2667     1.0  0.73655  0.70238  0.18131  1.0000
  H   H2126     1.0  0.52754  0.98840  0.08435  1.0000
  H   H2127     1.0  0.70027  0.81244  0.46262  1.0000
  H   H2128     1.0  0.71841  0.87014  0.31728  1.0000
  C   C2668     1.0  0.71679  0.88274  0.47517  1.0000
  H   H2129     1.0  0.73595  0.69216  0.11265  1.0000
  C   C2669     1.0  0.50400  0.99347  0.29895  1.0000
  H   H2130     1.0  0.74116  0.74967  0.20294  1.0000
  H   H2131     1.0  0.73682  0.67737  0.03038  1.0000
  H   H2132     1.0  0.74515  0.80085  0.16852  1.0000
  C   C2670     1.0  0.74488  0.77555  0.18755  1.0000
  H   H2133     1.0  0.72925  0.76016  0.60668  1.0000
  S   S372      1.0  0.67649  0.69452  0.71096  1.0000
  H   H2134     1.0  0.71387  0.82392  0.58534  1.0000
  Fe  Fe184     1.0  0.72343  0.82593  0.70309  1.0000
  S   S373      1.0  0.69890  0.81261  0.69088  1.0000
  C   C2671     1.0  0.51770  0.91112  0.75109  1.0000
  Fe  Fe185     1.0  0.71337  0.82875  0.76573  1.0000
  S   S374      1.0  0.68808  0.81559  0.75694  1.0000
  S   S375      1.0  0.71797  0.83800  0.81097  1.0000
  Fe  Fe186     1.0  0.70374  0.79672  0.72991  1.0000
  S   S376      1.0  0.71062  0.76767  0.73490  1.0000
  Fe  Fe187     1.0  0.68533  0.83297  0.71866  1.0000
  S   S377      1.0  0.65924  0.84899  0.71235  1.0000
  S   S378      1.0  0.72903  0.80929  0.74059  1.0000
  S   S379      1.0  0.70999  0.84698  0.72890  1.0000
  Fe  Fe188     1.0  0.59096  0.95408  0.57506  1.0000
  S   S380      1.0  0.58588  0.92555  0.58036  1.0000
  S   S381      1.0  0.59922  0.96259  0.53089  1.0000
  Fe  Fe189     1.0  0.58357  0.96018  0.63765  1.0000
  S   S382      1.0  0.57763  0.93215  0.64643  1.0000
  C   C2672     1.0  0.69382  0.90186  0.72852  1.0000
  Fe  Fe190     1.0  0.60164  0.92582  0.62029  1.0000
  S   S383      1.0  0.62412  0.90499  0.62672  1.0000
  Fe  Fe191     1.0  0.56249  0.93413  0.60604  1.0000
  S   S384      1.0  0.53582  0.92400  0.59364  1.0000
  S   S385      1.0  0.60826  0.95405  0.61347  1.0000
  S   S386      1.0  0.56692  0.96247  0.59891  1.0000
  H   H2135     1.0  0.50658  0.83672  0.70587  1.0000
  C   C2673     1.0  0.51515  0.92888  0.60888  1.0000
  C   C2674     1.0  0.51345  0.93396  0.63677  1.0000
  H   H2136     1.0  0.51505  0.86062  0.73757  1.0000
  H   H2137     1.0  0.52504  0.93591  0.64913  1.0000
  C   C2675     1.0  0.63387  0.88984  0.65127  1.0000
  C   C2676     1.0  0.62783  0.88813  0.67860  1.0000
  C   C2677     1.0  0.63598  0.87592  0.69700  1.0000
  C   C2678     1.0  0.65024  0.86504  0.68850  1.0000
  C   C2679     1.0  0.65637  0.86686  0.66124  1.0000
  C   C2680     1.0  0.64818  0.87904  0.64283  1.0000
  H   H2138     1.0  0.61691  0.89626  0.68559  1.0000
  H   H2139     1.0  0.63117  0.87489  0.71805  1.0000
  H   H2140     1.0  0.66724  0.85866  0.65415  1.0000
  H   H2141     1.0  0.65292  0.88005  0.62173  1.0000
  C   C2681     1.0  0.68637  0.71478  0.71666  1.0000
  C   C2682     1.0  0.67645  0.73032  0.71247  1.0000
  C   C2683     1.0  0.68362  0.74669  0.71778  1.0000
  C   C2684     1.0  0.70083  0.74761  0.72725  1.0000
  C   C2685     1.0  0.71083  0.73207  0.73103  1.0000
  C   C2686     1.0  0.70365  0.71573  0.72575  1.0000
  H   H2142     1.0  0.66307  0.72969  0.70540  1.0000
  H   H2143     1.0  0.67582  0.75855  0.71475  1.0000
  H   H2144     1.0  0.72418  0.73267  0.73825  1.0000
  H   H2145     1.0  0.71139  0.70387  0.72903  1.0000
  C   C2687     1.0  0.71739  0.72413  0.55998  1.0000
  C   C2688     1.0  0.51613  0.98264  0.90126  1.0000
  C   C2689     1.0  0.59140  0.97709  0.50392  1.0000
  C   C2690     1.0  0.58728  0.98184  0.76310  1.0000
  C   C2691     1.0  0.68811  0.89496  0.64259  1.0000
  H   H2146     1.0  0.53751  0.90264  0.67932  1.0000
  C   C2692     1.0  0.59168  0.96683  0.74731  1.0000
  C   C2693     1.0  0.58963  0.96680  0.71804  1.0000
  C   C2694     1.0  0.68445  0.88704  0.73512  1.0000
  C   C2695     1.0  0.67137  0.68044  0.63926  1.0000
  H   H2147     1.0  0.59668  0.95525  0.75780  1.0000
  H   H2148     1.0  0.59302  0.95526  0.70599  1.0000
  C   C2696     1.0  0.52254  0.85791  0.71884  1.0000
  C   C2697     1.0  0.73269  0.83222  0.83891  1.0000
  C   C2698     1.0  0.51364  0.97090  0.95661  1.0000
  C   C2699     1.0  0.72047  0.70841  0.57443  1.0000
  H   H2149     1.0  0.71803  0.84760  0.86899  1.0000
  C   C2700     1.0  0.67987  0.66649  0.59595  1.0000
  C   C2701     1.0  0.72290  0.72577  0.53236  1.0000
  C   C2702     1.0  0.72779  0.82583  0.62434  1.0000
  C   C2703     1.0  0.72643  0.82574  0.59507  1.0000
  H   H2150     1.0  0.71632  0.82412  0.63697  1.0000
  H   H2151     1.0  0.56575  0.95939  0.83240  1.0000
  H   H2152     1.0  0.74309  0.78135  0.83202  1.0000
  C   C2704     1.0  0.56925  0.92691  0.50796  1.0000
  H   H2153     1.0  0.74046  0.67769  0.91892  1.0000
  H   H2154     1.0  0.54755  0.96353  0.79074  1.0000
  C   C2705     1.0  0.73686  0.71586  0.79745  1.0000
  H   H2155     1.0  0.59211  0.85081  0.65813  1.0000
  C   C2706     1.0  0.68688  0.87872  0.76075  1.0000
  H   H2156     1.0  0.71053  0.78809  0.53478  1.0000
  H   H2157     1.0  0.66300  0.68123  0.65745  1.0000
  Fe  Fe192     1.0  0.68994  0.66799  0.71826  1.0000
  C   C2707     1.0  0.68495  0.69203  0.63648  1.0000
  H   H2158     1.0  0.58985  0.89874  0.71281  1.0000
  C   C2708     1.0  0.71449  0.85328  0.49252  1.0000
  C   C2709     1.0  0.50346  0.95702  0.51001  1.0000
  H   H2159     1.0  0.71981  0.75076  0.96969  1.0000
  C   C2710     1.0  0.71045  0.87113  0.49484  1.0000
  H   H2160     1.0  0.55808  0.94504  0.72634  1.0000
  P   P88       1.0  0.56606  0.87638  0.68118  1.0000
  H   H2161     1.0  0.74369  0.77146  0.97651  1.0000
  H   H2162     1.0  0.69070  0.94735  0.71527  1.0000
  H   H2163     1.0  0.54094  0.87780  0.72704  1.0000
  C   C2711     1.0  0.73286  0.94041  0.67138  1.0000
  H   H2164     1.0  0.72206  0.72839  0.93217  1.0000
  C   C2712     1.0  0.52325  0.95733  0.81133  1.0000
  C   C2713     1.0  0.51931  0.92654  0.76638  1.0000
  C   C2714     1.0  0.52651  0.94929  0.86007  1.0000
  C   C2715     1.0  0.54443  0.95204  0.85863  1.0000
  C   C2716     1.0  0.55185  0.95713  0.83353  1.0000
  C   C2717     1.0  0.54138  0.95962  0.80991  1.0000
  C   C2718     1.0  0.50101  0.97470  0.91027  1.0000
  C   C2719     1.0  0.50752  0.94067  0.76201  1.0000
  C   C2720     1.0  0.51780  0.84439  0.70105  1.0000
  C   C2721     1.0  0.55953  0.93190  0.71802  1.0000
  H   H2165     1.0  0.52979  0.92739  0.78145  1.0000
  C   C2722     1.0  0.58642  0.88312  0.60330  1.0000
  H   H2166     1.0  0.52650  0.97306  0.60715  1.0000
  H   H2167     1.0  0.60283  0.85517  0.75977  1.0000
  C   C2723     1.0  0.49870  0.94058  0.50013  1.0000
  C   C2724     1.0  0.54802  0.90788  0.69158  1.0000
  C   C2725     1.0  0.71805  0.77362  0.57157  1.0000
  C   C2726     1.0  0.52642  0.99193  0.77067  1.0000
  H   H2168     1.0  0.50347  0.89796  0.71886  1.0000
  S   S387      1.0  0.73873  0.82940  0.54173  1.0000
  C   C2727     1.0  0.73109  0.75013  0.95613  1.0000
  H   H2169     1.0  0.74219  0.67477  0.68913  1.0000
  H   H2170     1.0  0.66143  0.68362  0.77796  1.0000
  C   C2728     1.0  0.73146  0.71174  0.51896  1.0000
  H   H2171     1.0  0.59926  0.88446  0.59423  1.0000
  H   H2172     1.0  0.55011  0.84701  0.65296  1.0000
  C   C2729     1.0  0.73473  0.69614  0.53327  1.0000
  C   C2730     1.0  0.74417  0.68233  0.67048  1.0000
  C   C2731     1.0  0.58475  0.88122  0.63210  1.0000
  H   H2173     1.0  0.68679  0.70168  0.65268  1.0000
  C   C2732     1.0  0.52137  0.99192  0.63984  1.0000
  H   H2174     1.0  0.61669  0.83426  0.67958  1.0000
  H   H2175     1.0  0.72471  0.91430  0.66461  1.0000
  C   C2733     1.0  0.57156  0.88397  0.58638  1.0000
  C   C2734     1.0  0.70614  0.92904  0.69032  1.0000
  H   H2176     1.0  0.74313  0.87295  0.52800  1.0000
  H   H2177     1.0  0.52950  0.93730  0.53543  1.0000
  C   C2735     1.0  0.57520  0.92233  0.72187  1.0000
  H   H2178     1.0  0.67971  0.86712  0.76542  1.0000
  C   C2736     1.0  0.72946  0.69454  0.56095  1.0000
  C   C2737     1.0  0.70851  0.89960  0.77340  1.0000
  S   S388      1.0  0.71770  0.66244  0.73143  1.0000
  H   H2179     1.0  0.67796  0.90452  0.63742  1.0000
  P   P89       1.0  0.69109  0.91162  0.69448  1.0000
  C   C2738     1.0  0.66930  0.92114  0.68983  1.0000
  C   C2739     1.0  0.65599  0.91840  0.70928  1.0000
  C   C2740     1.0  0.63936  0.92619  0.70556  1.0000
  C   C2741     1.0  0.63583  0.93666  0.68234  1.0000
  C   C2742     1.0  0.64902  0.93964  0.66310  1.0000
  C   C2743     1.0  0.66573  0.93210  0.66697  1.0000
  C   C2744     1.0  0.69620  0.89486  0.66887  1.0000
  C   C2745     1.0  0.70904  0.88188  0.67483  1.0000
  C   C2746     1.0  0.58322  0.98182  0.70447  1.0000
  H   H2180     1.0  0.70266  0.87597  0.51219  1.0000
  C   C2747     1.0  0.69277  0.88226  0.62271  1.0000
  H   H2181     1.0  0.59040  0.98285  0.93276  1.0000
  H   H2182     1.0  0.62221  0.83638  0.73018  1.0000
  H   H2183     1.0  0.67541  0.88178  0.72022  1.0000
  H   H2184     1.0  0.65823  0.91026  0.72732  1.0000
  H   H2185     1.0  0.62910  0.92383  0.72041  1.0000
  H   H2186     1.0  0.62283  0.94232  0.67906  1.0000
  H   H2187     1.0  0.64619  0.94759  0.64491  1.0000
  H   H2188     1.0  0.67581  0.93468  0.65190  1.0000
  H   H2189     1.0  0.71555  0.88149  0.69486  1.0000
  C   C2748     1.0  0.57842  0.99009  0.50846  1.0000
  C   C2749     1.0  0.70549  0.86938  0.62889  1.0000
  H   H2190     1.0  0.73831  0.84128  0.90853  1.0000
  C   C2750     1.0  0.74447  0.76186  0.95990  1.0000
  H   H2191     1.0  0.68623  0.88224  0.60267  1.0000
  S   S389      1.0  0.58960  0.98159  0.79987  1.0000
  C   C2751     1.0  0.52010  0.97658  0.75889  1.0000
  C   C2752     1.0  0.74116  0.82823  0.57837  1.0000
  H   H2192     1.0  0.59843  0.96206  0.97071  1.0000
  H   H2193     1.0  0.49558  0.93952  0.67054  1.0000
  H   H2194     1.0  0.71353  0.91936  0.74333  1.0000
  H   H2195     1.0  0.73979  0.78716  0.68575  1.0000
  C   C2753     1.0  0.58469  0.98457  0.95320  1.0000
  C   C2754     1.0  0.53203  0.98491  0.71421  1.0000
  C   C2755     1.0  0.58922  0.97274  0.97487  1.0000
  H   H2196     1.0  0.72068  0.73796  0.52138  1.0000
  H   H2197     1.0  0.57287  0.88595  0.56416  1.0000
  C   C2756     1.0  0.60041  0.85436  0.73757  1.0000
  H   H2198     1.0  0.70993  0.84434  0.50814  1.0000
  C   C2757     1.0  0.54098  0.95078  0.50059  1.0000
  H   H2199     1.0  0.73583  0.71300  0.49761  1.0000
  C   C2758     1.0  0.72947  0.83920  0.86570  1.0000
  C   C2759     1.0  0.56823  0.87948  0.64410  1.0000
  C   C2760     1.0  0.60814  0.84247  0.69238  1.0000
  H   H2200     1.0  0.71801  0.90426  0.78818  1.0000
  H   H2201     1.0  0.52082  0.94531  0.87959  1.0000
  C   C2761     1.0  0.55331  0.88097  0.62707  1.0000
  C   C2762     1.0  0.55501  0.88308  0.59830  1.0000
  H   H2202     1.0  0.70173  0.67683  0.57495  1.0000
  C   C2763     1.0  0.53000  0.98467  0.91972  1.0000
  C   C2764     1.0  0.54232  0.85036  0.67114  1.0000
  C   C2765     1.0  0.74097  0.83562  0.88827  1.0000
  C   C2766     1.0  0.69341  0.67814  0.59300  1.0000
  H   H2203     1.0  0.58040  0.91810  0.51135  1.0000
  C   C2767     1.0  0.71390  0.95895  0.69985  1.0000
  C   C2768     1.0  0.57737  0.90560  0.71047  1.0000
  C   C2769     1.0  0.54599  0.92471  0.70272  1.0000
  C   C2770     1.0  0.52775  0.84056  0.67729  1.0000
  H   H2204     1.0  0.51902  0.96115  0.72089  1.0000
  P   P90       1.0  0.52311  0.96668  0.49712  1.0000
  C   C2771     1.0  0.72148  0.92667  0.67457  1.0000
  H   H2205     1.0  0.57840  0.87238  0.73866  1.0000
  H   H2206     1.0  0.50206  0.95006  0.83833  1.0000
  H   H2207     1.0  0.70135  0.87797  0.79924  1.0000
  H   H2208     1.0  0.59639  0.88123  0.64492  1.0000
  H   H2209     1.0  0.55258  0.95035  0.87699  1.0000
  H   H2210     1.0  0.70842  0.76944  0.88418  1.0000
  C   C2772     1.0  0.73234  0.73759  0.93498  1.0000
  H   H2211     1.0  0.74103  0.79227  0.51971  1.0000
  C   C2773     1.0  0.58671  0.86423  0.72546  1.0000
  H   H2212     1.0  0.70475  0.77189  0.57836  1.0000
  C   C2774     1.0  0.68466  0.68080  0.80317  1.0000
  C   C2775     1.0  0.73700  0.70223  0.77782  1.0000
  C   C2776     1.0  0.70591  0.90813  0.74789  1.0000
  H   H2213     1.0  0.54169  0.99099  0.91286  1.0000
  C   C2777     1.0  0.52779  0.98547  0.51827  1.0000
  C   C2778     1.0  0.53706  0.98344  0.54336  1.0000
  C   C2779     1.0  0.54048  0.93793  0.52135  1.0000
  C   C2780     1.0  0.70245  0.94528  0.70298  1.0000
  C   C2781     1.0  0.52314  0.97308  0.73052  1.0000
  C   C2782     1.0  0.71968  0.69281  0.89905  1.0000
  C   C2783     1.0  0.71479  0.70277  0.87577  1.0000
  C   C2784     1.0  0.72698  0.70600  0.85472  1.0000
  H   H2214     1.0  0.73230  0.86664  0.57526  1.0000
  P   P91       1.0  0.72002  0.71762  0.82371  1.0000
  C   C2785     1.0  0.49975  0.96886  0.93776  1.0000
  C   C2786     1.0  0.70092  0.70715  0.81031  1.0000
  C   C2787     1.0  0.69900  0.68916  0.81439  1.0000
  H   H2215     1.0  0.68344  0.66689  0.80612  1.0000
  C   C2788     1.0  0.67224  0.69022  0.78747  1.0000
  C   C2789     1.0  0.67405  0.70807  0.78326  1.0000
  C   C2790     1.0  0.68832  0.71653  0.79456  1.0000
  H   H2216     1.0  0.54184  0.97067  0.55003  1.0000
  C   C2791     1.0  0.71362  0.86921  0.65493  1.0000
  C   C2792     1.0  0.66888  0.66761  0.61909  1.0000
  C   C2793     1.0  0.51661  0.97958  0.61999  1.0000
  C   C2794     1.0  0.56363  0.89807  0.69579  1.0000
  C   C2795     1.0  0.71534  0.74053  0.83074  1.0000
  C   C2796     1.0  0.71350  0.74685  0.85813  1.0000
  C   C2797     1.0  0.70974  0.76459  0.86304  1.0000
  C   C2798     1.0  0.70775  0.77614  0.84071  1.0000
  C   C2799     1.0  0.70976  0.77000  0.81345  1.0000
  C   C2800     1.0  0.71367  0.75233  0.80850  1.0000
  C   C2801     1.0  0.49673  0.93592  0.64884  1.0000
  S   S390      1.0  0.57965  0.98273  0.66806  1.0000
  H   H2217     1.0  0.71013  0.68997  0.91486  1.0000
  H   H2218     1.0  0.70138  0.70756  0.87375  1.0000
  H   H2219     1.0  0.74156  0.68531  0.52302  1.0000
  H   H2220     1.0  0.70875  0.68138  0.82563  1.0000
  C   C2802     1.0  0.72129  0.78265  0.54699  1.0000
  H   H2221     1.0  0.70891  0.85940  0.61365  1.0000
  H   H2222     1.0  0.66466  0.71523  0.77038  1.0000
  H   H2223     1.0  0.68959  0.73023  0.79024  1.0000
  H   H2224     1.0  0.53496  0.98186  0.69265  1.0000
  P   P92       1.0  0.50969  0.96091  0.78081  1.0000
  H   H2225     1.0  0.50669  0.93372  0.48474  1.0000
  H   H2226     1.0  0.58584  0.92805  0.73323  1.0000
  H   H2227     1.0  0.72712  0.69247  0.77812  1.0000
  H   H2228     1.0  0.71499  0.73823  0.87575  1.0000
  C   C2803     1.0  0.73672  0.68591  0.90140  1.0000
  H   H2229     1.0  0.70492  0.78991  0.84445  1.0000
  H   H2230     1.0  0.70838  0.77895  0.79605  1.0000
  H   H2231     1.0  0.71529  0.74787  0.78721  1.0000
  C   C2804     1.0  0.55450  0.92599  0.52484  1.0000
  H   H2232     1.0  0.55413  0.91634  0.54122  1.0000
  C   C2805     1.0  0.68331  0.74973  0.62684  1.0000
  C   C2806     1.0  0.69264  0.75808  0.64774  1.0000
  C   C2807     1.0  0.70848  0.75075  0.65718  1.0000
  C   C2808     1.0  0.71510  0.73509  0.64579  1.0000
  C   C2809     1.0  0.70583  0.72663  0.62474  1.0000
  C   C2810     1.0  0.68984  0.73403  0.61543  1.0000
  P   P93       1.0  0.71373  0.70606  0.61033  1.0000
  C   C2811     1.0  0.73223  0.69789  0.63040  1.0000
  C   C2812     1.0  0.51592  0.95202  0.83659  1.0000
  H   H2233     1.0  0.54346  0.88460  0.58534  1.0000
  H   H2234     1.0  0.73241  0.68242  0.57180  1.0000
  H   H2235     1.0  0.54034  0.88079  0.63592  1.0000
  C   C2813     1.0  0.72976  0.68869  0.65523  1.0000
  C   C2814     1.0  0.69615  0.69097  0.61336  1.0000
  C   C2815     1.0  0.52868  0.97909  0.94729  1.0000
  H   H2236     1.0  0.53400  0.93226  0.69919  1.0000
  H   H2237     1.0  0.71095  0.97146  0.70961  1.0000
  H   H2238     1.0  0.67086  0.75527  0.61991  1.0000
  H   H2239     1.0  0.68747  0.77006  0.65711  1.0000
  H   H2240     1.0  0.71536  0.75704  0.67394  1.0000
  H   H2241     1.0  0.72723  0.72954  0.65389  1.0000
  H   H2242     1.0  0.68232  0.72750  0.59962  1.0000
  H   H2243     1.0  0.72339  0.85915  0.65984  1.0000
  C   C2816     1.0  0.73200  0.76713  0.58773  1.0000
  C   C2817     1.0  0.69906  0.88486  0.77977  1.0000
  C   C2818     1.0  0.56990  0.93964  0.48734  1.0000
  H   H2244     1.0  0.71678  0.68619  0.66280  1.0000
  H   H2245     1.0  0.71091  0.73520  0.56988  1.0000
  H   H2246     1.0  0.53926  0.98171  0.96147  1.0000
  C   C2819     1.0  0.61122  0.84361  0.72099  1.0000
  C   C2820     1.0  0.54681  0.86431  0.68843  1.0000
  C   C2821     1.0  0.53711  0.86772  0.71272  1.0000
  C   C2822     1.0  0.59440  0.85223  0.68023  1.0000
  C   C2823     1.0  0.58393  0.86367  0.69653  1.0000
  C   C2824     1.0  0.74413  0.69911  0.85736  1.0000
  C   C2825     1.0  0.72909  0.95653  0.68403  1.0000
  H   H2247     1.0  0.74459  0.93855  0.65902  1.0000
  H   H2248     1.0  0.52683  0.90029  0.75468  1.0000
  H   H2249     1.0  0.51708  0.98739  0.88006  1.0000
  C   C2826     1.0  0.73846  0.78499  0.53843  1.0000
  C   C2827     1.0  0.55588  0.95156  0.48368  1.0000
  H   H2250     1.0  0.50117  0.92254  0.57138  1.0000
  H   H2251     1.0  0.52427  0.82989  0.66374  1.0000
  H   H2252     1.0  0.73790  0.96717  0.68151  1.0000
  C   C2828     1.0  0.49997  0.92648  0.59297  1.0000
  C   C2829     1.0  0.74392  0.82851  0.63710  1.0000
  C   C2830     1.0  0.49911  0.97543  0.61692  1.0000
  H   H2253     1.0  0.57280  0.99159  0.52894  1.0000
  C   C2831     1.0  0.74488  0.87247  0.57274  1.0000
  H   H2254     1.0  0.54883  0.95599  0.97682  1.0000
  C   C2832     1.0  0.50455  0.90982  0.73100  1.0000
  H   H2255     1.0  0.49663  0.97788  0.53909  1.0000
  H   H2256     1.0  0.63345  0.99348  0.77271  1.0000
  Fe  Fe193     1.0  0.89350  0.00969  0.39843  1.0000
  S   S391      1.0  0.90702  0.03263  0.41620  1.0000
  C   C2833     1.0  0.81082  0.02255  0.31919  1.0000
  Fe  Fe194     1.0  0.89953  0.02050  0.33729  1.0000
  S   S392      1.0  0.91338  0.04463  0.35189  1.0000
  S   S393      1.0  0.89783  0.01637  0.28931  1.0000
  Fe  Fe195     1.0  0.92726  0.02713  0.38298  1.0000
  S   S394      1.0  0.95547  0.02198  0.39719  1.0000
  Fe  Fe196     1.0  0.89182  0.04828  0.38409  1.0000
  S   S395      1.0  0.87971  0.07580  0.39348  1.0000
  H   H2257     1.0  0.76830  0.30191  0.27631  1.0000
  S   S396      1.0  0.87714  0.02540  0.36757  1.0000
  C   C2834     1.0  0.93865  0.06198  0.02129  1.0000
  H   H2258     1.0  0.89683  0.01412  0.01780  1.0000
  S   S397      1.0  0.81568  0.10702  0.46781  1.0000
  P   P94       1.0  0.79658  0.09349  0.36194  1.0000
  C   C2835     1.0  0.84154  0.03053  0.47398  1.0000
  H   H2259     1.0  0.77726  0.09477  0.45995  1.0000
  Fe  Fe197     1.0  0.77392  0.15704  0.01860  1.0000
  S   S398      1.0  0.76922  0.16025  0.06614  1.0000
  Fe  Fe198     1.0  0.76694  0.15334  0.46170  1.0000
  H   H2260     1.0  0.81820  0.10731  0.31758  1.0000
  S   S399      1.0  0.80201  0.15862  0.00418  1.0000
  S   S400      1.0  0.79467  0.15480  0.44707  1.0000
  S   S401      1.0  0.91450  0.00302  0.36708  1.0000
  H   H2261     1.0  0.75972  0.22909  0.31606  1.0000
  H   H2262     1.0  0.79787  0.08760  0.42220  1.0000
  C   C2836     1.0  0.81024  0.11221  0.36019  1.0000
  H   H2263     1.0  0.80561  0.03335  0.39712  1.0000
  C   C2837     1.0  0.94114  0.99974  0.13776  1.0000
  H   H2264     1.0  0.83119  0.29268  0.01707  1.0000
  C   C2838     1.0  0.74796  0.26089  0.98901  1.0000
  H   H2265     1.0  0.76554  0.27524  0.01444  1.0000
  C   C2839     1.0  0.75732  0.10555  0.43269  1.0000
  C   C2840     1.0  0.76175  0.28960  0.27571  1.0000
  H   H2266     1.0  0.76879  0.16827  0.12493  1.0000
  C   C2841     1.0  0.82956  0.04360  0.38183  1.0000
  C   C2842     1.0  0.74662  0.22429  0.31767  1.0000
  H   H2267     1.0  0.77439  0.14675  0.34292  1.0000
  H   H2268     1.0  0.77320  0.14955  0.39442  1.0000
  C   C2843     1.0  0.78432  0.23045  0.07145  1.0000
  H   H2269     1.0  0.82060  0.31115  0.32912  1.0000
  H   H2270     1.0  0.88927  0.12205  0.99352  1.0000
  H   H2271     1.0  0.83929  0.15276  0.35565  1.0000
  H   H2272     1.0  0.86072  0.02119  0.30508  1.0000
  C   C2844     1.0  0.81925  0.11578  0.33552  1.0000
  C   C2845     1.0  0.99118  0.02060  0.39677  1.0000
  H   H2273     1.0  0.78281  0.28958  0.06078  1.0000
  H   H2274     1.0  0.85136  0.05734  0.36578  1.0000
  H   H2275     1.0  0.77315  0.24754  0.17877  1.0000
  C   C2846     1.0  0.86146  0.08424  0.41352  1.0000
  C   C2847     1.0  0.85038  0.07342  0.42816  1.0000
  C   C2848     1.0  0.83626  0.08062  0.44389  1.0000
  C   C2849     1.0  0.83307  0.09881  0.44577  1.0000
  C   C2850     1.0  0.84406  0.10965  0.43092  1.0000
  C   C2851     1.0  0.85805  0.10242  0.41486  1.0000
  H   H2276     1.0  0.85280  0.05949  0.42735  1.0000
  H   H2277     1.0  0.82789  0.07206  0.45513  1.0000
  H   H2278     1.0  0.84195  0.12364  0.43212  1.0000
  H   H2279     1.0  0.86643  0.11103  0.40367  1.0000
  C   C2852     1.0  0.97807  0.04455  0.37089  1.0000
  C   C2853     1.0  0.97614  0.02953  0.38685  1.0000
  H   H2280     1.0  0.76107  0.10984  0.36280  1.0000
  H   H2281     1.0  0.96664  0.05134  0.36258  1.0000
  C   C2854     1.0  0.95494  0.06416  0.44582  1.0000
  H   H2282     1.0  0.84867  0.00282  0.34193  1.0000
  H   H2283     1.0  0.98979  0.00917  0.40938  1.0000
  H   H2284     1.0  0.90307  0.01672  0.22972  1.0000
  P   P95       1.0  0.77660  0.25186  0.05995  1.0000
  H   H2285     1.0  0.77698  0.22590  0.21686  1.0000
  H   H2286     1.0  0.78791  0.05999  0.38625  1.0000
  C   C2855     1.0  0.80176  0.05956  0.38169  1.0000
  H   H2287     1.0  0.78962  0.26652  0.11201  1.0000
  C   C2856     1.0  0.80967  0.07413  0.37015  1.0000
  C   C2857     1.0  0.76190  0.14864  0.35311  1.0000
  H   H2288     1.0  0.83264  0.26056  0.01137  1.0000
  H   H2289     1.0  0.83661  0.13309  0.31483  1.0000
  C   C2858     1.0  0.75028  0.26235  0.36099  1.0000
  C   C2859     1.0  0.81232  0.22006  0.47482  1.0000
  H   H2290     1.0  0.89064  0.01683  0.46442  1.0000
  C   C2860     1.0  0.94308  0.00474  0.25703  1.0000
  H   H2291     1.0  0.78009  0.11837  0.32284  1.0000
  C   C2861     1.0  0.82794  0.22866  0.47087  1.0000
  C   C2862     1.0  0.82792  0.24658  0.46544  1.0000
  C   C2863     1.0  0.76129  0.15042  0.38234  1.0000
  C   C2864     1.0  0.97423  0.00034  0.16239  1.0000
  C   C2865     1.0  0.94982  0.04717  0.01990  1.0000
  C   C2866     1.0  0.81232  0.25657  0.46474  1.0000
  C   C2867     1.0  0.78514  0.09328  0.41702  1.0000
  C   C2868     1.0  0.84676  0.02175  0.30897  1.0000
  C   C2869     1.0  0.80716  0.29287  0.04028  1.0000
  C   C2870     1.0  0.75531  0.28258  0.30032  1.0000
  C   C2871     1.0  0.84155  0.99898  0.47407  1.0000
  C   C2872     1.0  0.76460  0.10579  0.38365  1.0000
  H   H2292     1.0  0.83415  0.08418  0.35552  1.0000
  H   H2293     1.0  0.83738  0.03198  0.38674  1.0000
  C   C2873     1.0  0.88816  0.00535  0.47652  1.0000
  C   C2874     1.0  0.96965  0.01220  0.14132  1.0000
  C   C2875     1.0  0.89665  0.99947  0.26326  1.0000
  C   C2876     1.0  0.77489  0.07205  0.29195  1.0000
  H   H2294     1.0  0.74849  0.10929  0.44943  1.0000
  H   H2295     1.0  0.92869  0.08455  0.38366  1.0000
  C   C2877     1.0  0.81198  0.12335  0.38326  1.0000
  H   H2296     1.0  0.92825  0.99954  0.12837  1.0000
  C   C2878     1.0  0.74649  0.14926  0.33710  1.0000
  H   H2297     1.0  0.75046  0.21401  0.11914  1.0000
  C   C2879     1.0  0.85587  0.00154  0.21599  1.0000
  C   C2880     1.0  0.76992  0.10330  0.28925  1.0000
  C   C2881     1.0  0.85070  0.30281  0.45627  1.0000
  H   H2298     1.0  0.97767  0.06864  0.42025  1.0000
  C   C2882     1.0  0.75895  0.28129  0.25025  1.0000
  C   C2883     1.0  0.75291  0.10970  0.40525  1.0000
  C   C2884     1.0  0.94621  0.00491  0.03666  1.0000
  H   H2299     1.0  0.78138  0.27154  0.42336  1.0000
  C   C2885     1.0  0.79433  0.19646  0.08824  1.0000
  C   C2886     1.0  0.76174  0.24940  0.03104  1.0000
  C   C2887     1.0  0.85644  0.02675  0.18595  1.0000
  C   C2888     1.0  0.78922  0.20896  0.10810  1.0000
  C   C2889     1.0  0.76593  0.26403  0.08784  1.0000
  H   H2300     1.0  0.78936  0.22068  0.02959  1.0000
  C   C2890     1.0  0.79382  0.28286  0.05088  1.0000
  C   C2891     1.0  0.77259  0.26891  0.40623  1.0000
  C   C2892     1.0  0.82201  0.01169  0.33495  1.0000
  H   H2301     1.0  0.84021  0.25280  0.46208  1.0000
  C   C2893     1.0  0.93662  0.06617  0.44703  1.0000
  H   H2302     1.0  0.93494  0.01150  0.02727  1.0000
  C   C2894     1.0  0.89974  0.00357  0.23508  1.0000
  C   C2895     1.0  0.76274  0.28256  0.39423  1.0000
  H   H2303     1.0  0.79815  0.19105  0.04465  1.0000
  H   H2304     1.0  0.86191  0.00029  0.17228  1.0000
  H   H2305     1.0  0.94955  0.02110  0.11273  1.0000
  C   C2896     1.0  0.78079  0.09744  0.38934  1.0000
  H   H2306     1.0  0.94627  0.02737  0.45471  1.0000
  H   H2307     1.0  0.79774  0.18320  0.09453  1.0000
  H   H2308     1.0  0.80863  0.04094  0.28582  1.0000
  C   C2897     1.0  0.82201  0.26673  0.02301  1.0000
  C   C2898     1.0  0.78377  0.07404  0.31722  1.0000
  H   H2309     1.0  0.98694  0.00115  0.17212  1.0000
  H   H2310     1.0  0.80640  0.30693  0.04257  1.0000
  C   C2899     1.0  0.83124  0.14144  0.35687  1.0000
  C   C2900     1.0  0.85831  0.00873  0.18966  1.0000
  H   H2311     1.0  0.74672  0.25992  0.22955  1.0000
  H   H2312     1.0  0.92670  0.00692  0.47750  1.0000
  C   C2901     1.0  0.95422  0.07752  0.39994  1.0000
  C   C2902     1.0  0.92724  0.07346  0.42465  1.0000
  C   C2903     1.0  0.75998  0.24862  0.37364  1.0000
  H   H2313     1.0  0.89327  0.09075  0.46194  1.0000
  C   C2904     1.0  0.82118  0.28484  0.02617  1.0000
  H   H2314     1.0  0.96106  0.08181  0.38160  1.0000
  H   H2315     1.0  0.75901  0.23534  0.36648  1.0000
  H   H2316     1.0  0.95723  0.04323  0.03819  1.0000
  H   H2317     1.0  0.82357  0.14650  0.39937  1.0000
  H   H2318     1.0  0.78881  0.20539  0.12990  1.0000
  C   C2905     1.0  0.76798  0.28045  0.13113  1.0000
  C   C2906     1.0  0.78569  0.09073  0.32880  1.0000
  H   H2319     1.0  0.80541  0.12091  0.40273  1.0000
  C   C2907     1.0  0.82237  0.13793  0.38150  1.0000
  H   H2320     1.0  0.78900  0.06254  0.32763  1.0000
  H   H2321     1.0  0.81679  0.00355  0.35112  1.0000
  C   C2908     1.0  0.75695  0.16148  0.12056  1.0000
  H   H2322     1.0  0.80957  0.24273  0.03028  1.0000
  H   H2323     1.0  0.77990  0.23510  0.11556  1.0000
  H   H2324     1.0  0.76375  0.29570  0.40229  1.0000
  H   H2325     1.0  0.79690  0.02284  0.32317  1.0000
  C   C2909     1.0  0.98791  0.04593  0.46648  1.0000
  H   H2326     1.0  0.92023  0.07863  0.99888  1.0000
  C   C2910     1.0  0.99484  0.05127  0.36692  1.0000
  C   C2911     1.0  0.75038  0.28562  0.12886  1.0000
  C   C2912     1.0  0.82759  0.07313  0.36406  1.0000
  C   C2913     1.0  0.76785  0.08667  0.27809  1.0000
  H   H2327     1.0  0.85043  0.00639  0.25891  1.0000
  H   H2328     1.0  0.77567  0.28517  0.14837  1.0000
  H   H2329     1.0  0.76337  0.28713  0.23114  1.0000
  H   H2330     1.0  0.77866  0.24133  0.40571  1.0000
  H   H2331     1.0  0.97891  0.02171  0.13472  1.0000
  C   C2914     1.0  0.93602  0.07908  0.40108  1.0000
  C   C2915     1.0  0.85175  0.01234  0.23872  1.0000
  H   H2332     1.0  0.95361  0.00785  0.21611  1.0000
  C   C2916     1.0  0.80877  0.25663  0.03379  1.0000
  C   C2917     1.0  0.98733  0.02725  0.99044  1.0000
  C   C2918     1.0  0.75901  0.26302  0.01191  1.0000
  H   H2333     1.0  0.92957  0.06215  0.46527  1.0000
  C   C2919     1.0  0.83743  0.05787  0.36978  1.0000
  H   H2334     1.0  0.93743  0.06932  0.04054  1.0000
  C   C2920     1.0  0.83996  0.01131  0.32985  1.0000
  P   P96       1.0  0.96692  0.05587  0.47583  1.0000
  C   C2921     1.0  0.77345  0.09733  0.43857  1.0000
  C   C2922     1.0  0.75273  0.23390  0.02750  1.0000
  C   C2923     1.0  0.78420  0.22588  0.09979  1.0000
  C   C2924     1.0  0.78953  0.21775  0.05167  1.0000
  C   C2925     1.0  0.75333  0.21275  0.20705  1.0000
  C   C2926     1.0  0.77884  0.10535  0.31442  1.0000
  C   C2927     1.0  0.79460  0.26458  0.04806  1.0000
  C   C2928     1.0  0.74890  0.23724  0.16438  1.0000
  C   C2929     1.0  0.82971  0.13035  0.33390  1.0000
  C   C2930     1.0  0.76573  0.22547  0.20318  1.0000
  H   H2335     1.0  0.77333  0.05917  0.28317  1.0000
  H   H2336     1.0  0.83964  0.32190  0.42793  1.0000
  S   S402      1.0  0.81405  0.27924  0.45778  1.0000
  C   C2931     1.0  0.77579  0.26984  0.11058  1.0000
  C   C2932     1.0  0.96365  0.07003  0.42212  1.0000
  H   H2337     1.0  0.75720  0.19629  0.07753  1.0000
  C   C2933     1.0  0.77110  0.25193  0.39612  1.0000
  H   H2338     1.0  0.93949  0.99665  0.42982  1.0000
  C   C2934     1.0  0.74970  0.26593  0.24937  1.0000
  C   C2935     1.0  0.84147  0.01470  0.45948  1.0000
  C   C2936     1.0  0.79451  0.20087  0.06007  1.0000
  C   C2937     1.0  0.83560  0.03247  0.29270  1.0000
  C   C2938     1.0  0.81755  0.03285  0.29802  1.0000
  P   P97       1.0  0.84448  0.04475  0.26430  1.0000
  C   C2939     1.0  0.82849  0.06119  0.25304  1.0000
  C   C2940     1.0  0.86391  0.05493  0.27699  1.0000
  C   C2941     1.0  0.86371  0.06316  0.30315  1.0000
  C   C2942     1.0  0.87866  0.07096  0.31338  1.0000
  C   C2943     1.0  0.89402  0.07038  0.29774  1.0000
  C   C2944     1.0  0.89442  0.06203  0.27184  1.0000
  C   C2945     1.0  0.87943  0.05434  0.26144  1.0000
  C   C2946     1.0  0.81539  0.05670  0.23403  1.0000
  C   C2947     1.0  0.80284  0.06919  0.22527  1.0000
  C   C2948     1.0  0.80320  0.08624  0.23551  1.0000
  C   C2949     1.0  0.81603  0.09079  0.25466  1.0000
  C   C2950     1.0  0.82865  0.07836  0.26340  1.0000
  C   C2951     1.0  0.84976  0.03048  0.23518  1.0000
  C   C2952     1.0  0.88617  0.06517  0.47545  1.0000
  H   H2339     1.0  0.84191  0.01456  0.43694  1.0000
  H   H2340     1.0  0.75717  0.28970  0.31945  1.0000
  P   P98       1.0  0.96578  0.01849  0.99344  1.0000
  C   C2953     1.0  0.85217  0.03760  0.20859  1.0000
  Fe  Fe199     1.0  0.79750  0.30416  0.46460  1.0000
  H   H2341     1.0  0.84168  0.04258  0.46246  1.0000
  H   H2342     1.0  0.91311  0.07471  0.42538  1.0000
  C   C2954     1.0  0.95311  0.01190  0.12902  1.0000
  H   H2343     1.0  0.93836  0.01819  0.25863  1.0000
  H   H2344     1.0  0.85197  0.06354  0.31560  1.0000
  H   H2345     1.0  0.87845  0.07726  0.33362  1.0000
  H   H2346     1.0  0.90572  0.07609  0.30597  1.0000
  H   H2347     1.0  0.90648  0.06108  0.26014  1.0000
  H   H2348     1.0  0.88026  0.04751  0.24174  1.0000
  H   H2349     1.0  0.81486  0.04352  0.22595  1.0000
  H   H2350     1.0  0.79288  0.06569  0.21039  1.0000
  H   H2351     1.0  0.79352  0.09595  0.22861  1.0000
  H   H2352     1.0  0.81624  0.10404  0.26256  1.0000
  H   H2353     1.0  0.83850  0.08231  0.27802  1.0000
  C   C2955     1.0  0.89560  0.00213  0.00613  1.0000
  C   C2956     1.0  0.81171  0.04442  0.38773  1.0000
  H   H2354     1.0  0.75419  0.22337  0.04230  1.0000
  H   H2355     1.0  0.85848  0.03231  0.16554  1.0000
  H   H2356     1.0  0.85096  0.05157  0.20542  1.0000
  C   C2957     1.0  0.96288  0.00596  0.02476  1.0000
  C   C2958     1.0  0.75361  0.15592  0.09305  1.0000
  S   S403      1.0  0.79370  0.32360  0.42967  1.0000
  C   C2959     1.0  0.75161  0.27933  0.37181  1.0000
  C   C2960     1.0  0.99137  0.02795  0.46997  1.0000
  C   C2961     1.0  0.94390  0.99517  0.06085  1.0000
  Fe  Fe200     1.0  0.76641  0.32641  0.44628  1.0000
  H   H2357     1.0  0.89666  0.05847  0.46426  1.0000
  H   H2358     1.0  0.78423  0.22343  0.47642  1.0000
  C   C2962     1.0  0.74607  0.26707  0.29971  1.0000
  C   C2963     1.0  0.97691  0.99633  0.03654  1.0000
  H   H2359     1.0  0.75496  0.20328  0.22365  1.0000
  H   H2360     1.0  0.84794  0.29183  0.44285  1.0000
  C   C2964     1.0  0.84607  0.31974  0.44780  1.0000
  H   H2361     1.0  0.78436  0.25568  0.46791  1.0000
  H   H2362     1.0  0.76440  0.11466  0.27857  1.0000
  C   C2965     1.0  0.92897  0.06724  0.99788  1.0000
  C   C2966     1.0  0.94482  0.02776  0.47716  1.0000
  C   C2967     1.0  0.74821  0.26922  0.08582  1.0000
  H   H2363     1.0  0.75461  0.19794  0.30624  1.0000
  C   C2968     1.0  0.76357  0.23766  0.18175  1.0000
  S   S404      1.0  0.76890  0.13511  0.98831  1.0000
  H   H2364     1.0  0.74804  0.27091  0.47118  1.0000
  H   H2365     1.0  0.98133  0.01948  0.47705  1.0000
  H   H2366     1.0  0.99256  0.02816  0.03482  1.0000
  C   C2969     1.0  0.81513  0.32426  0.33183  1.0000
  H   H2367     1.0  0.87228  0.09533  0.98716  1.0000
  H   H2368     1.0  0.81522  0.32287  0.37660  1.0000
  S   S405      1.0  0.74773  0.14613  0.30049  1.0000
  H   H2369     1.0  0.74736  0.24679  0.14791  1.0000
  C   C2970     1.0  0.95162  0.99877  0.23291  1.0000
  H   H2370     1.0  0.97602  0.09853  0.99043  1.0000
  H   H2371     1.0  0.76075  0.08517  0.25871  1.0000
  H   H2372     1.0  0.74811  0.16252  0.16353  1.0000
  C   C2971     1.0  0.79648  0.24816  0.46882  1.0000
  C   C2972     1.0  0.95130  0.03750  0.99508  1.0000
  C   C2973     1.0  0.79644  0.22986  0.47352  1.0000
  S   S406      1.0  0.76422  0.17800  0.98882  1.0000
  H   H2373     1.0  0.93337  0.99795  0.29747  1.0000
  C   C2974     1.0  0.88431  0.08333  0.47423  1.0000
  H   H2374     1.0  0.98966  0.99635  0.02713  1.0000
  H   H2375     1.0  0.84025  0.22132  0.47175  1.0000
  Fe  Fe201     1.0  0.80052  0.13313  0.47765  1.0000
  Fe  Fe202     1.0  0.89442  0.01105  0.89774  1.0000
  S   S407      1.0  0.90449  0.03594  0.91519  1.0000
  H   H2376     1.0  0.82517  0.10033  0.83271  1.0000
  Fe  Fe203     1.0  0.90038  0.02182  0.83636  1.0000
  S   S408      1.0  0.91072  0.04763  0.85079  1.0000
  S   S409      1.0  0.90368  0.01766  0.78885  1.0000
  Fe  Fe204     1.0  0.92579  0.03232  0.88306  1.0000
  S   S410      1.0  0.95424  0.03070  0.89695  1.0000
  Fe  Fe205     1.0  0.88820  0.04915  0.88154  1.0000
  S   S411      1.0  0.87301  0.07574  0.88610  1.0000
  S   S412      1.0  0.91655  0.00666  0.86761  1.0000
  S   S413      1.0  0.87694  0.02419  0.86517  1.0000
  C   C2975     1.0  0.94779  0.02060  0.75686  1.0000
  C   C2976     1.0  0.96222  0.03009  0.70601  1.0000
  C   C2977     1.0  0.75312  0.14978  0.59646  1.0000
  H   H2377     1.0  0.89082  0.01843  0.51609  1.0000
  C   C2978     1.0  0.76148  0.24753  0.74477  1.0000
  C   C2979     1.0  0.94891  0.09526  0.93427  1.0000
  Fe  Fe206     1.0  0.77656  0.15108  0.52419  1.0000
  S   S414      1.0  0.77046  0.15206  0.57162  1.0000
  Fe  Fe207     1.0  0.76128  0.15623  0.95753  1.0000
  C   C2980     1.0  0.75624  0.15364  0.62478  1.0000
  S   S415      1.0  0.80526  0.15188  0.51311  1.0000
  S   S416      1.0  0.78817  0.15801  0.93962  1.0000
  C   C2981     1.0  0.79316  0.26171  0.54993  1.0000
  C   C2982     1.0  0.92758  0.09977  0.88224  1.0000
  H   H2378     1.0  0.79458  0.17925  0.59051  1.0000
  C   C2983     1.0  0.74863  0.19133  0.70010  1.0000
  C   C2984     1.0  0.95137  0.04049  0.52207  1.0000
  H   H2379     1.0  0.84854  0.07760  0.83653  1.0000
  H   H2380     1.0  0.77407  0.19923  0.71310  1.0000
  H   H2381     1.0  0.76624  0.12273  0.81572  1.0000
  C   C2985     1.0  0.80673  0.08649  0.85787  1.0000
  H   H2382     1.0  0.78369  0.06900  0.82525  1.0000
  H   H2383     1.0  0.78020  0.28656  0.56036  1.0000
  H   H2384     1.0  0.92299  0.00750  0.52892  1.0000
  C   C2986     1.0  0.76546  0.23291  0.76127  1.0000
  H   H2385     1.0  0.95790  0.04992  0.53485  1.0000
  H   H2386     1.0  0.76644  0.15270  0.83963  1.0000
  H   H2387     1.0  0.76577  0.15553  0.89107  1.0000
  C   C2987     1.0  0.82503  0.25061  0.94979  1.0000
  S   S417      1.0  0.80638  0.32477  0.49460  1.0000
  H   H2388     1.0  0.76526  0.15863  0.75154  1.0000
  H   H2389     1.0  0.96901  0.15751  0.90978  1.0000
  H   H2390     1.0  0.81731  0.16990  0.84030  1.0000
  H   H2391     1.0  0.81111  0.15875  0.88757  1.0000
  H   H2392     1.0  0.80995  0.23998  0.53615  1.0000
  H   H2393     1.0  0.96515  0.00199  0.54760  1.0000
  C   C2988     1.0  0.95569  0.15319  0.91037  1.0000
  H   H2394     1.0  0.79922  0.12966  0.89359  1.0000
  C   C2989     1.0  0.85595  0.08558  0.90738  1.0000
  C   C2990     1.0  0.84742  0.07646  0.92830  1.0000
  C   C2991     1.0  0.83447  0.08496  0.94501  1.0000
  C   C2992     1.0  0.82959  0.10269  0.94106  1.0000
  C   C2993     1.0  0.83784  0.11173  0.91973  1.0000
  C   C2994     1.0  0.85092  0.10326  0.90317  1.0000
  H   H2395     1.0  0.85090  0.06286  0.93181  1.0000
  H   H2396     1.0  0.74664  0.27191  0.74173  1.0000
  H   H2397     1.0  0.83430  0.12530  0.91619  1.0000
  H   H2398     1.0  0.85725  0.11051  0.88702  1.0000
  C   C2995     1.0  0.97445  0.05043  0.86174  1.0000
  C   C2996     1.0  0.97372  0.03626  0.87991  1.0000
  C   C2997     1.0  0.96429  0.10309  0.51624  1.0000
  H   H2399     1.0  0.96255  0.05749  0.85591  1.0000
  C   C2998     1.0  0.95868  0.00140  0.82640  1.0000
  C   C2999     1.0  0.82256  0.26416  0.53163  1.0000
  C   C3000     1.0  0.81748  0.05832  0.87505  1.0000
  H   H2400     1.0  0.91056  0.01654  0.72989  1.0000
  C   C3001     1.0  0.75374  0.15410  0.87968  1.0000
  C   C3002     1.0  0.88820  0.00625  0.50581  1.0000
  C   C3003     1.0  0.80239  0.13000  0.82270  1.0000
  C   C3004     1.0  0.77170  0.10176  0.93427  1.0000
  H   H2401     1.0  0.99305  0.06054  0.51953  1.0000
  C   C3005     1.0  0.75695  0.08739  0.77631  1.0000
  H   H2402     1.0  0.78427  0.26453  0.96867  1.0000
  H   H2403     1.0  0.81559  0.04669  0.88724  1.0000
  C   C3006     1.0  0.78124  0.22692  0.56952  1.0000
  C   C3007     1.0  0.76319  0.27504  0.63127  1.0000
  C   C3008     1.0  0.97384  0.99647  0.94818  1.0000
  C   C3009     1.0  0.76662  0.07460  0.79087  1.0000
  P   P99       1.0  0.76202  0.21232  0.80910  1.0000
  C   C3010     1.0  0.75812  0.23150  0.78793  1.0000
  C   C3011     1.0  0.74730  0.11110  0.90537  1.0000
  C   C3012     1.0  0.78398  0.20416  0.60466  1.0000
  C   C3013     1.0  0.74899  0.26008  0.48565  1.0000
  H   H2404     1.0  0.91763  0.32580  0.54684  1.0000
  C   C3014     1.0  0.92247  0.08915  0.82690  1.0000
  C   C3015     1.0  0.97114  0.07380  0.49911  1.0000
  H   H2405     1.0  0.79594  0.09648  0.91332  1.0000
  H   H2406     1.0  0.83171  0.29025  0.52734  1.0000
  C   C3016     1.0  0.80913  0.14659  0.81947  1.0000
  H   H2407     1.0  0.98743  0.99834  0.95293  1.0000
  H   H2408     1.0  0.84393  0.05091  0.86378  1.0000
  C   C3017     1.0  0.96078  0.08926  0.49825  1.0000
  C   C3018     1.0  0.79982  0.18355  0.76780  1.0000
  H   H2409     1.0  0.74621  0.10917  0.95006  1.0000
  H   H2410     1.0  0.92328  0.06172  0.95485  1.0000
  C   C3019     1.0  0.94206  0.00079  0.60530  1.0000
  Fe  Fe208     1.0  0.79644  0.13803  0.97176  1.0000
  H   H2411     1.0  0.78452  0.25927  0.61498  1.0000
  C   C3020     1.0  0.82278  0.08868  0.84450  1.0000
  C   C3021     1.0  0.84200  0.03078  0.50322  1.0000
  C   C3022     1.0  0.94036  0.02876  0.53490  1.0000
  C   C3023     1.0  0.95471  0.07876  0.92464  1.0000
  H   H2412     1.0  0.94464  0.99514  0.58497  1.0000
  H   H2413     1.0  0.93853  0.02924  0.55725  1.0000
  C   C3024     1.0  0.99370  0.03179  0.96415  1.0000
  C   C3025     1.0  0.80174  0.13425  0.87272  1.0000
  C   C3026     1.0  0.80503  0.08736  0.54066  1.0000
  C   C3027     1.0  0.79177  0.08338  0.52192  1.0000
  C   C3028     1.0  0.79404  0.06928  0.50363  1.0000
  C   C3029     1.0  0.80965  0.05927  0.50381  1.0000
  C   C3030     1.0  0.82311  0.06324  0.52248  1.0000
  C   C3031     1.0  0.82062  0.07733  0.54101  1.0000
  P   P100      1.0  0.84390  0.05130  0.52155  1.0000
  H   H2414     1.0  0.76890  0.15817  0.63090  1.0000
  C   C3032     1.0  0.85994  0.06403  0.50379  1.0000
  C   C3033     1.0  0.75400  0.23405  0.91430  1.0000
  C   C3034     1.0  0.77858  0.28577  0.89549  1.0000
  H   H2415     1.0  0.93257  0.00673  0.97077  1.0000
  C   C3035     1.0  0.75772  0.21725  0.92446  1.0000
  H   H2416     1.0  0.74605  0.15426  0.66698  1.0000
  H   H2417     1.0  0.85156  0.31081  0.88436  1.0000
  C   C3036     1.0  0.77139  0.26440  0.61115  1.0000
  H   H2418     1.0  0.83433  0.22392  0.94806  1.0000
  C   C3037     1.0  0.75015  0.26077  0.75472  1.0000
  C   C3038     1.0  0.95247  0.13546  0.91352  1.0000
  C   C3039     1.0  0.85132  0.04640  0.55648  1.0000
  C   C3040     1.0  0.86906  0.04238  0.56153  1.0000
  C   C3041     1.0  0.87464  0.03688  0.58793  1.0000
  C   C3042     1.0  0.86259  0.03543  0.60951  1.0000
  C   C3043     1.0  0.84491  0.03945  0.60470  1.0000
  C   C3044     1.0  0.83925  0.04477  0.57824  1.0000
  H   H2419     1.0  0.80336  0.09852  0.55444  1.0000
  H   H2420     1.0  0.77988  0.09144  0.52128  1.0000
  H   H2421     1.0  0.81932  0.31009  0.88563  1.0000
  C   C3045     1.0  0.87041  0.09189  0.48793  1.0000
  H   H2422     1.0  0.83091  0.08085  0.55527  1.0000
  C   C3046     1.0  0.93380  0.01608  0.49005  1.0000
  C   C3047     1.0  0.90271  0.08833  0.93648  1.0000
  H   H2423     1.0  0.98706  0.07007  0.97179  1.0000
  C   C3048     1.0  0.80862  0.25389  0.53931  1.0000
  H   H2424     1.0  0.96724  0.03404  0.68600  1.0000
  C   C3049     1.0  0.97662  0.00087  0.82100  1.0000
  C   C3050     1.0  0.79202  0.27998  0.55284  1.0000
  C   C3051     1.0  0.76383  0.18199  0.77647  1.0000
  H   H2425     1.0  0.92042  0.08459  0.80580  1.0000
  C   C3052     1.0  0.89960  0.00140  0.76290  1.0000
  H   H2426     1.0  0.87854  0.04292  0.54494  1.0000
  P   P101      1.0  0.93091  0.10694  0.91766  1.0000
  H   H2427     1.0  0.86690  0.03086  0.62981  1.0000
  H   H2428     1.0  0.83554  0.03808  0.62135  1.0000
  H   H2429     1.0  0.82542  0.04716  0.57468  1.0000
  H   H2430     1.0  0.94813  0.04783  0.76744  1.0000
  C   C3053     1.0  0.76280  0.20232  0.70014  1.0000
  P   P102      1.0  0.96284  0.99636  0.68408  1.0000
  H   H2431     1.0  0.86122  0.28673  0.48923  1.0000
  H   H2432     1.0  0.88135  0.07347  0.95141  1.0000
  C   C3054     1.0  0.76294  0.26089  0.58583  1.0000
  H   H2433     1.0  0.77311  0.22969  0.61262  1.0000
  H   H2434     1.0  0.74939  0.08391  0.75812  1.0000
  H   H2435     1.0  0.97326  0.05740  0.92985  1.0000
  H   H2436     1.0  0.94312  0.03628  0.95194  1.0000
  C   C3055     1.0  0.98493  0.07236  0.51840  1.0000
  C   C3056     1.0  0.80853  0.15081  0.86940  1.0000
  H   H2437     1.0  0.76248  0.27364  0.92571  1.0000
  C   C3057     1.0  0.95859  0.04278  0.72637  1.0000
  C   C3058     1.0  0.96057  0.00445  0.96443  1.0000
  H   H2438     1.0  0.98790  0.01812  0.77094  1.0000
  S   S418      1.0  0.80681  0.20258  0.96235  1.0000
  C   C3059     1.0  0.74787  0.32740  0.63121  1.0000
  H   H2439     1.0  0.81211  0.15130  0.79888  1.0000
  C   C3060     1.0  0.77311  0.19544  0.78885  1.0000
  H   H2440     1.0  0.89495  0.09268  0.83561  1.0000
  H   H2441     1.0  0.98887  0.01627  0.90134  1.0000
  S   S419      1.0  0.76908  0.17355  0.49585  1.0000
  C   C3061     1.0  0.94176  0.16532  0.90774  1.0000
  C   C3062     1.0  0.85826  0.08232  0.50262  1.0000
  C   C3063     1.0  0.75409  0.15241  0.85048  1.0000
  H   H2442     1.0  0.74929  0.11460  0.77420  1.0000
  H   H2443     1.0  0.91100  0.02493  0.63990  1.0000
  C   C3064     1.0  0.92298  0.01735  0.63633  1.0000
  C   C3065     1.0  0.93161  0.01652  0.51893  1.0000
  H   H2444     1.0  0.95634  0.11504  0.51531  1.0000
  C   C3066     1.0  0.81109  0.26227  0.95555  1.0000
  C   C3067     1.0  0.82119  0.28228  0.53433  1.0000
  Fe  Fe209     1.0  0.79725  0.17346  0.48331  1.0000
  H   H2445     1.0  0.76619  0.27320  0.51333  1.0000
  C   C3068     1.0  0.82329  0.23262  0.95270  1.0000
  H   H2446     1.0  0.99412  0.00977  0.56609  1.0000
  H   H2447     1.0  0.81375  0.18420  0.76433  1.0000
  H   H2448     1.0  0.78099  0.23217  0.97372  1.0000
  C   C3069     1.0  0.93394  0.01297  0.65876  1.0000
  C   C3070     1.0  0.94197  0.09579  0.86498  1.0000
  H   H2449     1.0  0.77730  0.09929  0.95471  1.0000
  C   C3071     1.0  0.78805  0.21502  0.54968  1.0000
  C   C3072     1.0  0.79298  0.19800  0.55733  1.0000
  H   H2450     1.0  0.77350  0.22559  0.68305  1.0000
  C   C3073     1.0  0.77899  0.22122  0.59705  1.0000
  H   H2451     1.0  0.93014  0.01729  0.67944  1.0000
  H   H2452     1.0  0.79823  0.18897  0.54178  1.0000
  C   C3074     1.0  0.95137  0.03801  0.75181  1.0000
  H   H2453     1.0  0.95054  0.08681  0.82454  1.0000
  C   C3075     1.0  0.98840  0.08623  0.53634  1.0000
  C   C3076     1.0  0.84197  0.01489  0.51773  1.0000
  C   C3077     1.0  0.94923  0.00261  0.65459  1.0000
  H   H2454     1.0  0.96102  0.05635  0.72223  1.0000
  C   C3078     1.0  0.95643  0.10216  0.95845  1.0000
  H   H2455     1.0  0.88824  0.03320  0.59139  1.0000
  H   H2456     1.0  0.75224  0.11303  0.86172  1.0000
  C   C3079     1.0  0.77563  0.21682  0.83893  1.0000
  C   C3080     1.0  0.78271  0.20290  0.85480  1.0000
  C   C3081     1.0  0.79339  0.20616  0.87777  1.0000
  C   C3082     1.0  0.79733  0.22327  0.88476  1.0000
  C   C3083     1.0  0.79048  0.23717  0.86900  1.0000
  C   C3084     1.0  0.77963  0.23400  0.84618  1.0000
  H   H2457     1.0  0.94427  0.17905  0.90525  1.0000
  C   C3085     1.0  0.97016  0.09310  0.97192  1.0000
  C   C3086     1.0  0.80600  0.29015  0.54522  1.0000
  H   H2458     1.0  0.75166  0.32721  0.65292  1.0000
  C   C3087     1.0  0.97636  0.07704  0.96148  1.0000
  C   C3088     1.0  0.77253  0.16923  0.76034  1.0000
  H   H2459     1.0  0.74990  0.18107  0.77941  1.0000
  C   C3089     1.0  0.84168  0.99909  0.50316  1.0000
  H   H2460     1.0  0.76659  0.06115  0.78393  1.0000
  C   C3090     1.0  0.93940  0.09030  0.83751  1.0000
  H   H2461     1.0  0.78940  0.21877  0.52811  1.0000
  S   S420      1.0  0.77225  0.13075  0.49089  1.0000
  H   H2462     1.0  0.79172  0.29777  0.86132  1.0000
  H   H2463     1.0  0.79855  0.20660  0.79336  1.0000
  H   H2464     1.0  0.78823  0.28943  0.91074  1.0000
  H   H2465     1.0  0.76978  0.27783  0.65067  1.0000
  H   H2466     1.0  0.77977  0.18953  0.84962  1.0000
  H   H2467     1.0  0.79855  0.19545  0.89040  1.0000
  H   H2468     1.0  0.80565  0.22575  0.90251  1.0000
  H   H2469     1.0  0.79355  0.25043  0.87462  1.0000
  H   H2470     1.0  0.77458  0.24499  0.83428  1.0000
  C   C3091     1.0  0.96863  0.06991  0.93786  1.0000
  C   C3092     1.0  0.95165  0.00782  0.73675  1.0000
  C   C3093     1.0  0.76093  0.24727  0.52818  1.0000
  C   C3094     1.0  0.79049  0.17004  0.75588  1.0000
  C   C3095     1.0  0.75933  0.26133  0.50959  1.0000
  H   H2471     1.0  0.89934  0.10285  0.88355  1.0000
  C   C3096     1.0  0.88362  0.09750  0.97429  1.0000
  H   H2472     1.0  0.83419  0.25806  0.52260  1.0000
  S   S421      1.0  0.81325  0.11268  0.96348  1.0000
  H   H2473     1.0  0.90615  0.07879  0.92055  1.0000
  C   C3097     1.0  0.80411  0.07111  0.87292  1.0000
  H   H2474     1.0  0.84269  0.01451  0.54023  1.0000
  C   C3098     1.0  0.80750  0.22572  0.96118  1.0000
  C   C3099     1.0  0.91066  0.09921  0.87109  1.0000
  P   P103      1.0  0.77458  0.24883  0.55883  1.0000
  C   C3100     1.0  0.83601  0.07574  0.84633  1.0000
  H   H2475     1.0  0.79174  0.06895  0.88296  1.0000
  C   C3101     1.0  0.79118  0.19619  0.78429  1.0000
  C   C3102     1.0  0.91216  0.10356  0.93943  1.0000
  C   C3103     1.0  0.90753  0.11551  0.96062  1.0000
  C   C3104     1.0  0.81209  0.15704  0.84279  1.0000
  C   C3105     1.0  0.79100  0.19258  0.58481  1.0000
  H   H2476     1.0  0.84730  0.08932  0.51203  1.0000
  H   H2477     1.0  0.95519  0.09676  0.87277  1.0000
  C   C3106     1.0  0.90441  0.00448  0.73503  1.0000
  H   H2478     1.0  0.76469  0.24275  0.91233  1.0000
  H   H2479     1.0  0.86860  0.10592  0.48622  1.0000
  H   H2480     1.0  0.80035  0.12203  0.80441  1.0000
  C   C3107     1.0  0.83341  0.06062  0.86170  1.0000
  C   C3108     1.0  0.90812  0.09372  0.84364  1.0000
  H   H2481     1.0  0.78210  0.19974  0.62581  1.0000
  H   H2482     1.0  0.91492  0.12711  0.96394  1.0000
  H   H2483     1.0  0.76692  0.24854  0.72408  1.0000
  C   C3109     1.0  0.88864  0.08524  0.95403  1.0000
  H   H2484     1.0  0.94851  0.07254  0.90710  1.0000
  H   H2485     1.0  0.80482  0.30422  0.54717  1.0000
  Fe  Fe210     1.0  0.77799  0.32705  0.50801  1.0000
  C   C3110     1.0  0.78058  0.29043  0.86762  1.0000
  C   C3111     1.0  0.79510  0.25559  0.96423  1.0000
  H   H2486     1.0  0.79716  0.16015  0.74328  1.0000
  C   C3112     1.0  0.75777  0.10934  0.88167  1.0000
  H   H2487     1.0  0.95169  0.11455  0.96687  1.0000
  H   H2488     1.0  0.83741  0.25554  0.94311  1.0000
  C   C3113     1.0  0.76658  0.10928  0.80887  1.0000
  C   C3114     1.0  0.77661  0.09661  0.82333  1.0000
  C   C3115     1.0  0.77635  0.07915  0.81435  1.0000
  P   P104      1.0  0.78915  0.10258  0.85372  1.0000
  C   C3116     1.0  0.79836  0.12380  0.84935  1.0000
  C   C3117     1.0  0.77529  0.10361  0.88407  1.0000
  C   C3118     1.0  0.78224  0.10006  0.91063  1.0000
  C   C3119     1.0  0.89396  0.00278  0.97690  1.0000
  H   H2489     1.0  0.75373  0.18776  0.57097  1.0000
  C   C3120     1.0  0.94307  0.00114  0.95818  1.0000
  C   C3121     1.0  0.92458  0.15971  0.90797  1.0000
  H   H2490     1.0  0.78383  0.06636  0.48888  1.0000
  C   C3122     1.0  0.92703  0.01127  0.60960  1.0000
  C   C3123     1.0  0.93524  0.12980  0.91446  1.0000
  H   H2491     1.0  0.95317  0.01108  0.84069  1.0000
  H   H2492     1.0  0.77404  0.22273  0.75297  1.0000
  S   S422      1.0  0.81497  0.28480  0.95100  1.0000
  C   C3124     1.0  0.94184  0.04310  0.97158  1.0000
  H   H2493     1.0  0.77102  0.21329  0.93000  1.0000
  Fe  Fe211     1.0  0.79908  0.30951  0.96149  1.0000
  C   C3125     1.0  0.76394  0.27677  0.90388  1.0000
  H   H2494     1.0  0.98569  0.03028  0.94578  1.0000
  C   C3126     1.0  0.97810  0.10160  0.53523  1.0000
  C   C3127     1.0  0.79328  0.23728  0.96709  1.0000
  C   C3128     1.0  0.92132  0.14199  0.91107  1.0000
  H   H2495     1.0  0.76922  0.29009  0.82655  1.0000
  C   C3129     1.0  0.76795  0.28602  0.84804  1.0000
  H   H2496     1.0  0.90795  0.13779  0.91072  1.0000
  H   H2497     1.0  0.82819  0.07773  0.96125  1.0000
  H   H2498     1.0  0.89380  0.01520  0.96634  1.0000
  H   H2499     1.0  0.91805  0.01386  0.59250  1.0000
  C   C3130     1.0  0.99078  0.05606  0.85238  1.0000
  H   H2500     1.0  0.91378  0.16908  0.90558  1.0000
  H   H2501     1.0  0.90459  0.99503  0.69234  1.0000
  C   C3131     1.0  0.98930  0.02734  0.88756  1.0000
  C   C3132     1.0  0.74687  0.24492  0.79774  1.0000
  H   H2502     1.0  0.96345  0.12622  0.91493  1.0000
  H   H2503     1.0  0.99407  0.01742  0.69590  1.0000
  H   H2504     1.0  0.86682  0.31159  0.52054  1.0000
  C   C3133     1.0  0.84377  0.32090  0.87394  1.0000
  H   H2505     1.0  0.74857  0.19904  0.86298  1.0000
  C   C3134     1.0  0.82557  0.32049  0.87459  1.0000
  C   C3135     1.0  0.93061  0.05776  0.97310  1.0000
  C   C3136     1.0  0.95362  0.04013  0.49304  1.0000
  Fe  Fe212     1.0  0.79168  0.17838  0.97302  1.0000
  C   C3137     1.0  0.95911  0.01245  0.71124  1.0000
  C   C3138     1.0  0.75692  0.10470  0.78535  1.0000
  C   C3139     1.0  0.86143  0.31409  0.50004  1.0000
  H   H2506     1.0  0.98087  0.11239  0.54902  1.0000
  C   C3140     1.0  0.75423  0.10731  0.93166  1.0000
  H   H2507     1.0  0.98475  0.01033  0.83110  1.0000
  H   H2508     1.0  0.78937  0.32247  0.76331  1.0000
  H   H2509     1.0  0.87562  0.04153  0.49054  1.0000
  C   C3141     1.0  0.74676  0.28275  0.62588  1.0000
  H   H2510     1.0  0.95007  0.09077  0.48364  1.0000
  H   H2511     1.0  0.74789  0.23244  0.65320  1.0000
  C   C3142     1.0  0.76246  0.21714  0.68325  1.0000
  C   C3143     1.0  0.87411  0.05558  0.49024  1.0000
  C   C3144     1.0  0.75113  0.27227  0.88436  1.0000
  H   H2512     1.0  0.74723  0.19252  0.93553  1.0000
  C   C3145     1.0  0.75332  0.27694  0.85631  1.0000
  H   H2513     1.0  0.99137  0.06735  0.83903  1.0000
  C   C3146     1.0  0.75159  0.23215  0.52287  1.0000
  C   C3147     1.0  0.99321  0.00152  0.54781  1.0000
  H   H2514     1.0  0.94147  0.01710  0.77611  1.0000
  C   C3148     1.0  0.97689  0.99719  0.53733  1.0000
  H   H2515     1.0  0.74607  0.27142  0.97422  1.0000
  H   H2516     1.0  0.77447  0.32631  0.61601  1.0000
  S   S423      1.0  0.81421  0.19734  0.48242  1.0000
  H   H2517     1.0  0.81121  0.04867  0.48907  1.0000
  S   S424      1.0  0.76975  0.30552  0.47915  1.0000
  C   C3149     1.0  0.74791  0.22101  0.66641  1.0000
  H   H2518     1.0  0.74888  0.17973  0.71292  1.0000
  S   S425      1.0  0.77351  0.32706  0.55599  1.0000
  H   H2519     1.0  0.74775  0.20094  0.61684  1.0000
  H   H2520     1.0  0.75225  0.22124  0.53712  1.0000
  C   C3150     1.0  0.75635  0.32729  0.58159  1.0000
  C   C3151     1.0  0.76083  0.32689  0.61013  1.0000
  C   C3152     1.0  0.85823  0.29996  0.48246  1.0000
  C   C3153     1.0  0.74646  0.26881  0.58054  1.0000
  C   C3154     1.0  0.95312  0.99648  0.62763  1.0000
  C   C3155     1.0  0.89314  0.11258  0.97771  1.0000
  S   S426      1.0  0.77168  0.31084  0.97779  1.0000
  Fe  Fe213     1.0  0.80243  0.62663  0.99281  1.0000
  H   H2521     1.0  0.89037  0.51960  0.46090  1.0000
  S   S427      1.0  0.81750  0.60054  0.00242  1.0000
  Fe  Fe214     1.0  0.76853  0.64614  0.44590  1.0000
  S   S428      1.0  0.76328  0.63747  0.40035  1.0000
  H   H2522     1.0  0.82748  0.60704  0.18047  1.0000
  C   C3156     1.0  0.97288  0.42606  0.28232  1.0000
  C   C3157     1.0  0.84810  0.47948  0.01195  1.0000
  C   C3158     1.0  0.76555  0.60627  0.09754  1.0000
  Fe  Fe215     1.0  0.89914  0.52152  0.13955  1.0000
  S   S429      1.0  0.91424  0.54479  0.12581  1.0000
  S   S430      1.0  0.89283  0.51875  0.18640  1.0000
  Fe  Fe216     1.0  0.89756  0.50786  0.07905  1.0000
  S   S431      1.0  0.91287  0.52962  0.06182  1.0000
  S   S432      1.0  0.89068  0.48477  0.05204  1.0000
  Fe  Fe217     1.0  0.93017  0.52584  0.09953  1.0000
  S   S433      1.0  0.95931  0.51864  0.10102  1.0000
  Fe  Fe218     1.0  0.89549  0.54687  0.08904  1.0000
  S   S434      1.0  0.88481  0.57347  0.07276  1.0000
  S   S435      1.0  0.91581  0.50264  0.11491  1.0000
  S   S436      1.0  0.87920  0.52509  0.10463  1.0000
  Fe  Fe219     1.0  0.90376  0.45707  0.33107  1.0000
  S   S437      1.0  0.91531  0.43109  0.34580  1.0000
  S   S438      1.0  0.90692  0.46173  0.28349  1.0000
  Fe  Fe220     1.0  0.89758  0.46837  0.39262  1.0000
  S   S439      1.0  0.90885  0.44339  0.41015  1.0000
  S   S440      1.0  0.89086  0.49195  0.42012  1.0000
  Fe  Fe221     1.0  0.92998  0.44625  0.37795  1.0000
  S   S441      1.0  0.95841  0.44895  0.39168  1.0000
  Fe  Fe222     1.0  0.89289  0.43034  0.37683  1.0000
  S   S442      1.0  0.87846  0.40435  0.38317  1.0000
  S   S443      1.0  0.91932  0.47194  0.36218  1.0000
  S   S444      1.0  0.88052  0.45550  0.36027  1.0000
  H   H2523     1.0  0.85579  0.54980  0.99064  1.0000
  C   C3159     1.0  0.97300  0.48926  0.05157  1.0000
  H   H2524     1.0  0.96332  0.42528  0.22706  1.0000
  C   C3160     1.0  0.97693  0.50382  0.43886  1.0000
  H   H2525     1.0  0.98707  0.51075  0.24589  1.0000
  C   C3161     1.0  0.80186  0.64198  0.19991  1.0000
  P   P105      1.0  0.97939  0.44711  0.26996  1.0000
  C   C3162     1.0  0.75090  0.63416  0.34628  1.0000
  C   C3163     1.0  0.88282  0.56394  0.44466  1.0000
  H   H2526     1.0  0.98686  0.38335  0.28434  1.0000
  Fe  Fe223     1.0  0.80035  0.34449  0.46068  1.0000
  C   C3164     1.0  0.86054  0.39522  0.40195  1.0000
  C   C3165     1.0  0.85637  0.37766  0.39711  1.0000
  C   C3166     1.0  0.84262  0.36972  0.41159  1.0000
  C   C3167     1.0  0.83280  0.37913  0.43153  1.0000
  C   C3168     1.0  0.83685  0.39672  0.43619  1.0000
  C   C3169     1.0  0.85050  0.40471  0.42153  1.0000
  H   H2527     1.0  0.86385  0.37012  0.38195  1.0000
  H   H2528     1.0  0.83969  0.35628  0.40734  1.0000
  C   C3170     1.0  0.83454  0.41847  0.35790  1.0000
  H   H2529     1.0  0.85336  0.41819  0.42562  1.0000
  C   C3171     1.0  0.97910  0.42472  0.36205  1.0000
  C   C3172     1.0  0.97811  0.44055  0.37659  1.0000
  S   S445      1.0  0.79360  0.65983  0.45488  1.0000
  H   H2530     1.0  0.96736  0.41760  0.35840  1.0000
  C   C3173     1.0  0.84340  0.51014  0.00231  1.0000
  C   C3174     1.0  0.89195  0.48647  0.01534  1.0000
  C   C3175     1.0  0.89219  0.47125  0.99895  1.0000
  H   H2531     1.0  0.98969  0.54136  0.02649  1.0000
  C   C3176     1.0  0.89443  0.49174  0.45668  1.0000
  C   C3177     1.0  0.94819  0.46032  0.18999  1.0000
  C   C3178     1.0  0.89157  0.50272  0.00219  1.0000
  H   H2532     1.0  0.89239  0.45863  0.00897  1.0000
  C   C3179     1.0  0.97838  0.39479  0.28731  1.0000
  C   C3180     1.0  0.77817  0.38635  0.31330  1.0000
  H   H2533     1.0  0.89111  0.51451  0.01457  1.0000
  C   C3181     1.0  0.89748  0.50285  0.21315  1.0000
  C   C3182     1.0  0.90604  0.48675  0.20781  1.0000
  C   C3183     1.0  0.90886  0.47450  0.22956  1.0000
  C   C3184     1.0  0.90329  0.47807  0.25707  1.0000
  C   C3185     1.0  0.89493  0.49425  0.26245  1.0000
  C   C3186     1.0  0.89202  0.50646  0.24068  1.0000
  H   H2534     1.0  0.91032  0.48365  0.18689  1.0000
  H   H2535     1.0  0.91530  0.46206  0.22502  1.0000
  H   H2536     1.0  0.89052  0.49730  0.28334  1.0000
  H   H2537     1.0  0.88538  0.51880  0.24525  1.0000
  H   H2538     1.0  0.90261  0.44169  0.09239  1.0000
  C   C3187     1.0  0.97921  0.52905  0.09470  1.0000
  C   C3188     1.0  0.97994  0.54651  0.08664  1.0000
  H   H2539     1.0  0.80253  0.35249  0.38314  1.0000
  H   H2540     1.0  0.96802  0.55436  0.08476  1.0000
  H   H2541     1.0  0.79347  0.45184  0.12566  1.0000
  C   C3189     1.0  0.75821  0.39672  0.26664  1.0000
  H   H2542     1.0  0.76267  0.62623  0.34306  1.0000
  H   H2543     1.0  0.84875  0.61799  0.02310  1.0000
  C   C3190     1.0  0.75769  0.64912  0.08667  1.0000
  C   C3191     1.0  0.81849  0.52684  0.43802  1.0000
  C   C3192     1.0  0.96869  0.49401  0.41816  1.0000
  C   C3193     1.0  0.83612  0.59343  0.02264  1.0000
  C   C3194     1.0  0.83764  0.57586  0.03120  1.0000
  C   C3195     1.0  0.85227  0.56953  0.04665  1.0000
  C   C3196     1.0  0.86580  0.58063  0.05350  1.0000
  C   C3197     1.0  0.86419  0.59821  0.04513  1.0000
  C   C3198     1.0  0.84952  0.60456  0.02983  1.0000
  H   H2544     1.0  0.82737  0.56709  0.02596  1.0000
  H   H2545     1.0  0.85315  0.55603  0.05306  1.0000
  H   H2546     1.0  0.87447  0.60699  0.05034  1.0000
  H   H2547     1.0  0.77922  0.46130  0.04034  1.0000
  C   C3199     1.0  0.97319  0.46314  0.29622  1.0000
  C   C3200     1.0  0.95667  0.42440  0.29551  1.0000
  C   C3201     1.0  0.95146  0.40808  0.30462  1.0000
  C   C3202     1.0  0.96236  0.39332  0.30076  1.0000
  C   C3203     1.0  0.95624  0.47078  0.29616  1.0000
  C   C3204     1.0  0.95144  0.48347  0.31586  1.0000
  C   C3205     1.0  0.96332  0.48833  0.33633  1.0000
  H   H2548     1.0  0.76709  0.36111  0.30656  1.0000
  H   H2549     1.0  0.83681  0.57711  0.46407  1.0000
  H   H2550     1.0  0.94797  0.43564  0.29882  1.0000
  H   H2551     1.0  0.93898  0.40689  0.31489  1.0000
  H   H2552     1.0  0.95837  0.38075  0.30822  1.0000
  H   H2553     1.0  0.79646  0.38535  0.40351  1.0000
  H   H2554     1.0  0.93829  0.48918  0.31556  1.0000
  H   H2555     1.0  0.95935  0.49780  0.35206  1.0000
  C   C3206     1.0  0.95911  0.53943  0.20925  1.0000
  C   C3207     1.0  0.94031  0.50532  0.43289  1.0000
  H   H2556     1.0  0.99045  0.47941  0.18676  1.0000
  S   S446      1.0  0.79430  0.64678  0.02501  1.0000
  C   C3208     1.0  0.99548  0.41766  0.35344  1.0000
  H   H2557     1.0  0.78646  0.41311  0.31376  1.0000
  H   H2558     1.0  0.82466  0.49923  0.38293  1.0000
  H   H2559     1.0  0.79923  0.48589  0.03862  1.0000
  H   H2560     1.0  0.82789  0.37900  0.32835  1.0000
  H   H2561     1.0  0.79150  0.41363  0.37171  1.0000
  C   C3209     1.0  0.80797  0.39462  0.34985  1.0000
  C   C3210     1.0  0.84927  0.33386  0.46531  1.0000
  H   H2562     1.0  0.93312  0.59058  0.03403  1.0000
  C   C3211     1.0  0.94208  0.48903  0.04121  1.0000
  H   H2563     1.0  0.91209  0.41388  0.06944  1.0000
  H   H2564     1.0  0.77147  0.32923  0.37901  1.0000
  H   H2565     1.0  0.94421  0.51348  0.15757  1.0000
  C   C3212     1.0  0.75669  0.65159  0.11573  1.0000
  H   H2566     1.0  0.82137  0.51331  0.13717  1.0000
  H   H2567     1.0  0.94961  0.53735  0.04755  1.0000
  H   H2568     1.0  0.80112  0.35930  0.29386  1.0000
  H   H2569     1.0  0.96940  0.48018  0.24286  1.0000
  C   C3213     1.0  0.96053  0.50944  0.01745  1.0000
  H   H2570     1.0  0.80120  0.51653  0.40702  1.0000
  C   C3214     1.0  0.98357  0.41105  0.27786  1.0000
  H   H2571     1.0  0.89031  0.37814  0.43558  1.0000
  H   H2572     1.0  0.78450  0.59780  0.03474  1.0000
  C   C3215     1.0  0.81355  0.62766  0.20209  1.0000
  C   C3216     1.0  0.78341  0.60047  0.05688  1.0000
  C   C3217     1.0  0.79848  0.60203  0.07307  1.0000
  C   C3218     1.0  0.79721  0.60662  0.10131  1.0000
  C   C3219     1.0  0.78060  0.60801  0.11372  1.0000
  P   P106      1.0  0.81682  0.61020  0.12134  1.0000
  C   C3220     1.0  0.81143  0.62273  0.15220  1.0000
  C   C3221     1.0  0.82611  0.58896  0.13024  1.0000
  C   C3222     1.0  0.81713  0.57817  0.14849  1.0000
  C   C3223     1.0  0.82430  0.56181  0.15597  1.0000
  C   C3224     1.0  0.84041  0.55606  0.14507  1.0000
  C   C3225     1.0  0.84917  0.56652  0.12631  1.0000
  C   C3226     1.0  0.84200  0.58282  0.11870  1.0000
  C   C3227     1.0  0.80029  0.63756  0.15003  1.0000
  H   H2573     1.0  0.81358  0.32951  0.28785  1.0000
  C   C3228     1.0  0.94827  0.51506  0.45366  1.0000
  H   H2574     1.0  0.98781  0.50804  0.02992  1.0000
  C   C3229     1.0  0.81838  0.61806  0.17833  1.0000
  C   C3230     1.0  0.83203  0.62341  0.10272  1.0000
  C   C3231     1.0  0.84918  0.62488  0.11264  1.0000
  C   C3232     1.0  0.76481  0.33178  0.10825  1.0000
  H   H2575     1.0  0.82595  0.39707  0.99306  1.0000
  C   C3233     1.0  0.83869  0.64288  0.06459  1.0000
  C   C3234     1.0  0.82674  0.63295  0.07910  1.0000
  C   C3235     1.0  0.99524  0.53872  0.00611  1.0000
  H   H2576     1.0  0.98741  0.47958  0.99264  1.0000
  C   C3236     1.0  0.86844  0.55327  0.98295  1.0000
  H   H2577     1.0  0.81112  0.60027  0.06331  1.0000
  C   C3237     1.0  0.76065  0.33127  0.07961  1.0000
  H   H2578     1.0  0.80465  0.58249  0.15714  1.0000
  H   H2579     1.0  0.81745  0.55365  0.17039  1.0000
  H   H2580     1.0  0.84616  0.54352  0.15113  1.0000
  H   H2581     1.0  0.86160  0.56204  0.11766  1.0000
  H   H2582     1.0  0.84891  0.59043  0.10365  1.0000
  H   H2583     1.0  0.79519  0.64158  0.12991  1.0000
  H   H2584     1.0  0.94436  0.48682  0.39963  1.0000
  C   C3238     1.0  0.76769  0.37442  0.29941  1.0000
  C   C3239     1.0  0.76694  0.60283  0.06903  1.0000
  H   H2585     1.0  0.76970  0.53944  0.08146  1.0000
  H   H2586     1.0  0.85343  0.61808  0.13133  1.0000
  H   H2587     1.0  0.75385  0.37016  0.35052  1.0000
  H   H2588     1.0  0.81341  0.63284  0.07181  1.0000
  C   C3240     1.0  0.95326  0.51900  0.17227  1.0000
  C   C3241     1.0  0.94732  0.53175  0.19111  1.0000
  H   H2589     1.0  0.99449  0.50575  0.10440  1.0000
  H   H2590     1.0  0.95455  0.54961  0.22343  1.0000
  C   C3242     1.0  0.80476  0.34766  0.36219  1.0000
  C   C3243     1.0  0.84942  0.49359  0.99394  1.0000
  C   C3244     1.0  0.75974  0.33040  0.33805  1.0000
  C   C3245     1.0  0.97677  0.53408  0.20896  1.0000
  C   C3246     1.0  0.75168  0.33119  0.12895  1.0000
  H   H2591     1.0  0.97204  0.52137  0.47384  1.0000
  S   S447      1.0  0.81554  0.36970  0.45143  1.0000
  C   C3247     1.0  0.78512  0.45501  0.08307  1.0000
  H   H2592     1.0  0.94330  0.46428  0.44698  1.0000
  P   P107      1.0  0.96261  0.52659  0.99209  1.0000
  H   H2593     1.0  0.88713  0.40768  0.45591  1.0000
  C   C3248     1.0  0.83802  0.40292  0.34343  1.0000
  H   H2594     1.0  0.88748  0.56701  0.42403  1.0000
  H   H2595     1.0  0.93360  0.53582  0.19128  1.0000
  S   S448      1.0  0.77248  0.34821  0.47616  1.0000
  H   H2596     1.0  0.80692  0.37523  0.01336  1.0000
  H   H2597     1.0  0.81457  0.36138  0.05851  1.0000
  C   C3249     1.0  0.82514  0.57317  0.47466  1.0000
  H   H2598     1.0  0.75043  0.40067  0.24873  1.0000
  H   H2599     1.0  0.74962  0.37022  0.26586  1.0000
  H   H2600     1.0  0.93652  0.56498  0.06512  1.0000
  C   C3250     1.0  0.75915  0.37347  0.37065  1.0000
  C   C3251     1.0  0.95153  0.44291  0.19735  1.0000
  H   H2601     1.0  0.88092  0.54858  0.02266  1.0000
  C   C3252     1.0  0.86726  0.55511  0.44776  1.0000
  H   H2602     1.0  0.84493  0.52111  0.98861  1.0000
  C   C3253     1.0  0.83013  0.43376  0.00413  1.0000
  C   C3254     1.0  0.89821  0.47624  0.47108  1.0000
  C   C3255     1.0  0.75040  0.65993  0.25442  1.0000
  H   H2603     1.0  0.94161  0.43257  0.45389  1.0000
  C   C3256     1.0  0.97500  0.50280  0.03251  1.0000
  C   C3257     1.0  0.87286  0.42065  0.03672  1.0000
  H   H2604     1.0  0.93262  0.50745  0.01085  1.0000
  C   C3258     1.0  0.79809  0.47855  0.05774  1.0000
  C   C3259     1.0  0.87311  0.39965  0.98546  1.0000
  H   H2605     1.0  0.80105  0.55063  0.98997  1.0000
  C   C3260     1.0  0.81452  0.51680  0.41460  1.0000
  C   C3261     1.0  0.96111  0.43884  0.22145  1.0000
  C   C3262     1.0  0.87812  0.44356  0.07040  1.0000
  C   C3263     1.0  0.86744  0.43612  0.05028  1.0000
  H   H2606     1.0  0.95718  0.46984  0.99188  1.0000
  C   C3264     1.0  0.93879  0.57842  0.02604  1.0000
  C   C3265     1.0  0.84486  0.50738  0.41081  1.0000
  C   C3266     1.0  0.86111  0.63485  0.09815  1.0000
  C   C3267     1.0  0.95655  0.48244  0.05601  1.0000
  C   C3268     1.0  0.84014  0.48175  0.03787  1.0000
  H   H2607     1.0  0.78596  0.65789  0.17213  1.0000
  C   C3269     1.0  0.80447  0.41046  0.36386  1.0000
  S   S449      1.0  0.80908  0.32951  0.99159  1.0000
  C   C3270     1.0  0.89962  0.42008  0.06410  1.0000
  C   C3271     1.0  0.89426  0.43566  0.07714  1.0000
  H   H2608     1.0  0.94312  0.58847  0.98491  1.0000
  H   H2609     1.0  0.97623  0.48551  0.40443  1.0000
  H   H2610     1.0  0.90423  0.57591  0.46576  1.0000
  H   H2611     1.0  0.87407  0.45567  0.08046  1.0000
  H   H2612     1.0  0.85506  0.44250  0.04529  1.0000
  H   H2613     1.0  0.98888  0.51169  0.38507  1.0000
  H   H2614     1.0  0.97516  0.50414  0.15643  1.0000
  P   P108      1.0  0.79068  0.37961  0.34367  1.0000
  C   C3272     1.0  0.80035  0.35798  0.33894  1.0000
  C   C3273     1.0  0.82482  0.39103  0.33938  1.0000
  C   C3274     1.0  0.78386  0.53868  0.08199  1.0000
  C   C3275     1.0  0.79320  0.55398  0.08338  1.0000
  C   C3276     1.0  0.81144  0.55307  0.08410  1.0000
  C   C3277     1.0  0.82036  0.53686  0.08385  1.0000
  C   C3278     1.0  0.81108  0.52142  0.08188  1.0000
  C   C3279     1.0  0.79273  0.52245  0.08108  1.0000
  P   P109      1.0  0.82285  0.50064  0.07955  1.0000
  C   C3280     1.0  0.80788  0.48295  0.08139  1.0000
  C   C3281     1.0  0.83386  0.49832  0.04641  1.0000
  C   C3282     1.0  0.96645  0.51418  0.45691  1.0000
  H   H2615     1.0  0.90986  0.55747  0.00693  1.0000
  C   C3283     1.0  0.81116  0.33460  0.30860  1.0000
  C   C3284     1.0  0.95054  0.49476  0.41525  1.0000
  C   C3285     1.0  0.83558  0.51256  0.02838  1.0000
  H   H2616     1.0  0.85996  0.55168  0.42933  1.0000
  C   C3286     1.0  0.87751  0.36561  0.46976  1.0000
  H   H2617     1.0  0.83900  0.47058  0.05138  1.0000
  C   C3287     1.0  0.79476  0.45933  0.10670  1.0000
  C   C3288     1.0  0.80610  0.47325  0.10593  1.0000
  C   C3289     1.0  0.83802  0.49868  0.10836  1.0000
  C   C3290     1.0  0.85387  0.48908  0.10560  1.0000
  C   C3291     1.0  0.86489  0.48652  0.12858  1.0000
  C   C3292     1.0  0.86025  0.49361  0.15445  1.0000
  C   C3293     1.0  0.84466  0.50341  0.15733  1.0000
  C   C3294     1.0  0.83354  0.50593  0.13442  1.0000
  C   C3295     1.0  0.84652  0.42836  0.99347  1.0000
  H   H2618     1.0  0.78630  0.56655  0.08387  1.0000
  H   H2619     1.0  0.81865  0.56495  0.08468  1.0000
  H   H2620     1.0  0.83452  0.53638  0.08466  1.0000
  H   H2621     1.0  0.78518  0.51081  0.07985  1.0000
  H   H2622     1.0  0.74697  0.37336  0.43872  1.0000
  C   C3296     1.0  0.77647  0.37868  0.37361  1.0000
  H   H2623     1.0  0.77910  0.61084  0.13570  1.0000
  C   C3297     1.0  0.82001  0.44669  0.99058  1.0000
  H   H2624     1.0  0.83088  0.52551  0.03404  1.0000
  C   C3298     1.0  0.82941  0.39135  0.01297  1.0000
  H   H2625     1.0  0.81271  0.59869  0.47083  1.0000
  H   H2626     1.0  0.81345  0.47626  0.12450  1.0000
  H   H2627     1.0  0.85796  0.48373  0.08577  1.0000
  H   H2628     1.0  0.87723  0.47933  0.12623  1.0000
  H   H2629     1.0  0.86887  0.49169  0.17223  1.0000
  H   H2630     1.0  0.84127  0.50903  0.17743  1.0000
  H   H2631     1.0  0.92926  0.48395  0.04496  1.0000
  H   H2632     1.0  0.89937  0.46404  0.45984  1.0000
  C   C3299     1.0  0.84886  0.51744  0.43414  1.0000
  C   C3300     1.0  0.95465  0.47367  0.20651  1.0000
  C   C3301     1.0  0.96450  0.46966  0.23032  1.0000
  C   C3302     1.0  0.96740  0.45221  0.23839  1.0000
  H   H2633     1.0  0.95164  0.48715  0.20125  1.0000
  C   C3303     1.0  0.89226  0.56895  0.46814  1.0000
  H   H2634     1.0  0.77753  0.38277  0.44433  1.0000
  H   H2635     1.0  0.80802  0.53419  0.44817  1.0000
  H   H2636     1.0  0.81516  0.43423  0.37956  1.0000
  C   C3304     1.0  0.83826  0.37561  0.06366  1.0000
  H   H2637     1.0  0.84500  0.42737  0.36168  1.0000
  H   H2638     1.0  0.95491  0.47238  0.07145  1.0000
  C   C3305     1.0  0.81858  0.37897  0.02446  1.0000
  H   H2639     1.0  0.85358  0.46684  0.00598  1.0000
  H   H2640     1.0  0.77830  0.33281  0.11451  1.0000
  C   C3306     1.0  0.95298  0.54672  0.00543  1.0000
  H   H2641     1.0  0.84528  0.34686  0.45879  1.0000
  C   C3307     1.0  0.94792  0.54824  0.03341  1.0000
  H   H2642     1.0  0.76973  0.65140  0.07579  1.0000
  C   C3308     1.0  0.77227  0.38045  0.42372  1.0000
  H   H2643     1.0  0.94034  0.46351  0.17178  1.0000
  H   H2644     1.0  0.85116  0.39990  0.33608  1.0000
  C   C3309     1.0  0.88893  0.41253  0.04406  1.0000
  C   C3310     1.0  0.88264  0.55267  0.00129  1.0000
  C   C3311     1.0  0.94405  0.50244  0.02196  1.0000
  H   H2645     1.0  0.83458  0.64985  0.04594  1.0000
  H   H2646     1.0  0.94654  0.46685  0.28111  1.0000
  H   H2647     1.0  0.77636  0.44420  0.08374  1.0000
  Fe  Fe224     1.0  0.76725  0.64429  0.00792  1.0000
  H   H2648     1.0  0.80727  0.45054  0.99866  1.0000
  C   C3312     1.0  0.81777  0.42225  0.36810  1.0000
  C   C3313     1.0  0.82771  0.50706  0.40101  1.0000
  C   C3314     1.0  0.85590  0.64373  0.07401  1.0000
  C   C3315     1.0  0.78297  0.38202  0.40041  1.0000
  Fe  Fe225     1.0  0.78103  0.33200  0.00651  1.0000
  H   H2649     1.0  0.94635  0.43255  0.18472  1.0000
  H   H2650     1.0  0.76895  0.42202  0.27286  1.0000
  C   C3316     1.0  0.97089  0.51357  0.17197  1.0000
  H   H2651     1.0  0.87910  0.35281  0.46041  1.0000
  H   H2652     1.0  0.98920  0.48399  0.35313  1.0000
  C   C3317     1.0  0.84921  0.38793  0.05209  1.0000
  C   C3318     1.0  0.88415  0.37990  0.45577  1.0000
  H   H2653     1.0  0.77210  0.33151  0.32751  1.0000
  H   H2654     1.0  0.87446  0.63551  0.10548  1.0000
  H   H2655     1.0  0.86222  0.51741  0.44142  1.0000
  C   C3319     1.0  0.83575  0.52733  0.44793  1.0000
  H   H2656     1.0  0.98407  0.48450  0.06371  1.0000
  C   C3320     1.0  0.81206  0.33084  0.35859  1.0000
  C   C3321     1.0  0.79525  0.64695  0.17387  1.0000
  H   H2657     1.0  0.86519  0.65128  0.06257  1.0000
  C   C3322     1.0  0.98008  0.48059  0.33690  1.0000
  C   C3323     1.0  0.75775  0.37958  0.27623  1.0000
  H   H2658     1.0  0.89323  0.40038  0.03430  1.0000
  H   H2659     1.0  0.85513  0.49976  0.40043  1.0000
  S   S450      1.0  0.77791  0.33271  0.05448  1.0000
  H   H2660     1.0  0.86113  0.39097  0.06290  1.0000
  C   C3324     1.0  0.98501  0.46802  0.31701  1.0000
  P   P110      1.0  0.85924  0.41108  0.01043  1.0000
  C   C3325     1.0  0.98268  0.52062  0.19104  1.0000
  H   H2661     1.0  0.76258  0.65403  0.21512  1.0000
  C   C3326     1.0  0.89903  0.55771  0.99238  1.0000
  C   C3327     1.0  0.94432  0.57717  0.99835  1.0000
  H   H2662     1.0  0.82941  0.40425  0.45141  1.0000
  H   H2663     1.0  0.98246  0.46945  0.45281  1.0000
  H   H2664     1.0  0.75275  0.60820  0.10692  1.0000
  C   C3328     1.0  0.84476  0.39602  0.02671  1.0000
  C   C3329     1.0  0.82296  0.37111  0.04982  1.0000
  C   C3330     1.0  0.94658  0.44065  0.47052  1.0000
  H   H2665     1.0  0.92620  0.50576  0.43067  1.0000
  C   C3331     1.0  0.99356  0.44946  0.38143  1.0000
  H   H2666     1.0  0.94023  0.52308  0.46751  1.0000
  C   C3332     1.0  0.94758  0.45859  0.46659  1.0000
  H   H2667     1.0  0.75525  0.60228  0.05630  1.0000
  C   C3333     1.0  0.77856  0.40358  0.30351  1.0000
  C   C3334     1.0  0.76863  0.40871  0.28026  1.0000
  H   H2668     1.0  0.84172  0.36936  0.08320  1.0000
  C   C3335     1.0  0.94067  0.56398  0.04356  1.0000
  H   H2669     1.0  0.75517  0.33177  0.15076  1.0000
  C   C3336     1.0  0.78677  0.46463  0.05861  1.0000
  H   H2670     1.0  0.82506  0.42786  0.02277  1.0000
  H   H2671     1.0  0.81875  0.62387  0.22229  1.0000
  C   C3337     1.0  0.86119  0.55097  0.47443  1.0000
  H   H2672     1.0  0.99303  0.46170  0.39240  1.0000
  C   C3338     1.0  0.74772  0.64162  0.37278  1.0000
  C   C3339     1.0  0.75509  0.37521  0.42058  1.0000
  H   H2673     1.0  0.85755  0.37651  0.98317  1.0000
  C   C3340     1.0  0.89298  0.50747  0.47177  1.0000
  C   C3341     1.0  0.74854  0.37173  0.39406  1.0000
  C   C3342     1.0  0.80395  0.35145  0.31211  1.0000
  H   H2674     1.0  0.76790  0.65605  0.12698  1.0000
  C   C3343     1.0  0.95148  0.56140  0.98810  1.0000
  C   C3344     1.0  0.88239  0.39660  0.46727  1.0000
  C   C3345     1.0  0.99489  0.51920  0.09780  1.0000
  C   C3346     1.0  0.98520  0.53108  0.98513  1.0000
  C   C3347     1.0  0.75943  0.32901  0.36729  1.0000
  H   H2675     1.0  0.79788  0.64917  0.21844  1.0000
  H   H2676     1.0  0.99213  0.43870  0.45111  1.0000
  H   H2677     1.0  0.98581  0.54032  0.22289  1.0000
  H   H2678     1.0  0.89147  0.42045  0.98211  1.0000
  C   C3348     1.0  0.96691  0.46356  0.97855  1.0000
  C   C3349     1.0  0.98422  0.46883  0.97928  1.0000
  Fe  Fe226     1.0  0.79629  0.64284  0.49362  1.0000
  C   C3350     1.0  0.77810  0.60725  0.68933  1.0000
  S   S451      1.0  0.82306  0.62991  0.50585  1.0000
  Fe  Fe227     1.0  0.77887  0.64498  0.94644  1.0000
  H   H2679     1.0  0.83616  0.64355  0.56849  1.0000
  H   H2680     1.0  0.81516  0.39560  0.86904  1.0000
  C   C3351     1.0  0.82361  0.55391  0.96416  1.0000
  C   C3352     1.0  0.77122  0.61727  0.71134  1.0000
  H   H2681     1.0  0.85999  0.55643  0.82811  1.0000
  Fe  Fe228     1.0  0.89856  0.52890  0.63978  1.0000
  S   S452      1.0  0.90007  0.55697  0.62545  1.0000
  S   S453      1.0  0.90030  0.52458  0.68756  1.0000
  Fe  Fe229     1.0  0.89937  0.51618  0.57862  1.0000
  S   S454      1.0  0.90152  0.54300  0.56081  1.0000
  S   S455      1.0  0.89995  0.49149  0.55223  1.0000
  Fe  Fe230     1.0  0.92085  0.54678  0.59576  1.0000
  S   S456      1.0  0.94626  0.56084  0.58866  1.0000
  Fe  Fe231     1.0  0.88054  0.55104  0.59150  1.0000
  S   S457      1.0  0.85465  0.56603  0.57998  1.0000
  S   S458      1.0  0.92022  0.51930  0.61133  1.0000
  S   S459      1.0  0.87747  0.52361  0.60813  1.0000
  Fe  Fe232     1.0  0.89849  0.45954  0.82708  1.0000
  S   S460      1.0  0.91385  0.43469  0.83723  1.0000
  S   S461      1.0  0.89242  0.46485  0.78057  1.0000
  Fe  Fe233     1.0  0.89576  0.46879  0.88991  1.0000
  S   S462      1.0  0.91101  0.44484  0.90352  1.0000
  S   S463      1.0  0.88733  0.49043  0.92013  1.0000
  Fe  Fe234     1.0  0.92911  0.45066  0.86780  1.0000
  S   S464      1.0  0.95800  0.45736  0.87247  1.0000
  Fe  Fe235     1.0  0.89420  0.43090  0.87211  1.0000
  S   S465      1.0  0.88206  0.40396  0.87903  1.0000
  S   S466      1.0  0.91450  0.47555  0.85591  1.0000
  S   S467      1.0  0.87806  0.45482  0.86014  1.0000
  C   C3353     1.0  0.83023  0.61482  0.91814  1.0000
  H   H2682     1.0  0.96910  0.43723  0.62359  1.0000
  S   S468      1.0  0.81743  0.37475  0.94907  1.0000
  Fe  Fe236     1.0  0.80246  0.34964  0.95870  1.0000
  C   C3354     1.0  0.84554  0.39998  0.80517  1.0000
  C   C3355     1.0  0.82939  0.63592  0.58378  1.0000
  H   H2683     1.0  0.85287  0.62774  0.60546  1.0000
  S   S469      1.0  0.80709  0.64703  0.96002  1.0000
  C   C3356     1.0  0.75425  0.64382  0.61773  1.0000
  H   H2684     1.0  0.95824  0.52999  0.67225  1.0000
  C   C3357     1.0  0.80670  0.52781  0.96469  1.0000
  C   C3358     1.0  0.86346  0.39627  0.89757  1.0000
  C   C3359     1.0  0.85944  0.37848  0.89593  1.0000
  C   C3360     1.0  0.84534  0.37167  0.91106  1.0000
  C   C3361     1.0  0.83495  0.38259  0.92818  1.0000
  C   C3362     1.0  0.83870  0.40046  0.92925  1.0000
  C   C3363     1.0  0.85280  0.40724  0.91413  1.0000
  H   H2685     1.0  0.86750  0.36982  0.88318  1.0000
  H   H2686     1.0  0.84269  0.35794  0.90985  1.0000
  H   H2687     1.0  0.83069  0.40914  0.94206  1.0000
  H   H2688     1.0  0.85546  0.42095  0.91523  1.0000
  S   S470      1.0  0.77486  0.62318  0.97704  1.0000
  C   C3364     1.0  0.97879  0.44658  0.86813  1.0000
  C   C3365     1.0  0.98094  0.42847  0.86560  1.0000
  H   H2689     1.0  0.84848  0.35819  0.83733  1.0000
  H   H2690     1.0  0.96959  0.42045  0.86531  1.0000
  C   C3366     1.0  0.89811  0.49206  0.51541  1.0000
  C   C3367     1.0  0.90006  0.47642  0.50027  1.0000
  H   H2691     1.0  0.80888  0.60271  0.89733  1.0000
  C   C3368     1.0  0.89065  0.48853  0.95653  1.0000
  H   H2692     1.0  0.98807  0.51721  0.67924  1.0000
  C   C3369     1.0  0.89467  0.50762  0.50099  1.0000
  H   H2693     1.0  0.90280  0.46432  0.51121  1.0000
  H   H2694     1.0  0.89144  0.46046  0.95728  1.0000
  C   C3370     1.0  0.77806  0.63349  0.71751  1.0000
  H   H2695     1.0  0.89298  0.51975  0.51234  1.0000
  C   C3371     1.0  0.89886  0.50742  0.71275  1.0000
  C   C3372     1.0  0.89309  0.49081  0.70596  1.0000
  C   C3373     1.0  0.89141  0.47801  0.72691  1.0000
  C   C3374     1.0  0.89564  0.48146  0.75497  1.0000
  C   C3375     1.0  0.90185  0.49794  0.76166  1.0000
  C   C3376     1.0  0.90332  0.51081  0.74076  1.0000
  H   H2696     1.0  0.88954  0.48792  0.68467  1.0000
  H   H2697     1.0  0.88658  0.46538  0.72136  1.0000
  H   H2698     1.0  0.90516  0.50089  0.78303  1.0000
  H   H2699     1.0  0.90775  0.52358  0.74639  1.0000
  C   C3377     1.0  0.98225  0.55963  0.58627  1.0000
  C   C3378     1.0  0.96717  0.55046  0.59274  1.0000
  C   C3379     1.0  0.96905  0.53309  0.60125  1.0000
  H   H2700     1.0  0.98092  0.57311  0.57979  1.0000
  H   H2701     1.0  0.95762  0.52586  0.60621  1.0000
  H   H2702     1.0  0.89493  0.33211  0.51130  1.0000
  C   C3380     1.0  0.83985  0.53214  0.53543  1.0000
  C   C3381     1.0  0.94700  0.49635  0.92707  1.0000
  H   H2703     1.0  0.85816  0.61634  0.51514  1.0000
  H   H2704     1.0  0.84064  0.52697  0.57941  1.0000
  H   H2705     1.0  0.84011  0.52337  0.91858  1.0000
  C   C3382     1.0  0.98267  0.50736  0.72031  1.0000
  C   C3383     1.0  0.83142  0.61164  0.52590  1.0000
  C   C3384     1.0  0.82067  0.60080  0.54122  1.0000
  C   C3385     1.0  0.82799  0.58688  0.55721  1.0000
  C   C3386     1.0  0.84621  0.58352  0.55839  1.0000
  C   C3387     1.0  0.85696  0.59423  0.54287  1.0000
  C   C3388     1.0  0.84962  0.60814  0.52682  1.0000
  H   H2706     1.0  0.80668  0.60323  0.54095  1.0000
  H   H2707     1.0  0.81944  0.57870  0.56882  1.0000
  H   H2708     1.0  0.87096  0.59194  0.54341  1.0000
  C   C3389     1.0  0.77941  0.37267  0.90111  1.0000
  H   H2709     1.0  0.76025  0.61270  0.72316  1.0000
  C   C3390     1.0  0.87747  0.52690  0.87379  1.0000
  H   H2710     1.0  0.76535  0.64635  0.57654  1.0000
  C   C3391     1.0  0.84589  0.61215  0.93273  1.0000
  H   H2711     1.0  0.95519  0.48289  0.48381  1.0000
  H   H2712     1.0  0.78578  0.59053  0.49519  1.0000
  H   H2713     1.0  0.85276  0.49670  0.57365  1.0000
  C   C3392     1.0  0.84975  0.50464  0.55552  1.0000
  H   H2714     1.0  0.87439  0.52778  0.91817  1.0000
  C   C3393     1.0  0.82814  0.58365  0.91195  1.0000
  H   H2715     1.0  0.76387  0.61112  0.63619  1.0000
  H   H2716     1.0  0.79720  0.65220  0.70663  1.0000
  H   H2717     1.0  0.87277  0.41201  0.50184  1.0000
  C   C3394     1.0  0.75349  0.64520  0.58847  1.0000
  C   C3395     1.0  0.99176  0.44785  0.94320  1.0000
  C   C3396     1.0  0.95084  0.51892  0.96204  1.0000
  H   H2718     1.0  0.98802  0.50836  0.54024  1.0000
  C   C3397     1.0  0.82127  0.60057  0.90798  1.0000
  H   H2719     1.0  0.91398  0.56734  0.95813  1.0000
  C   C3398     1.0  0.93097  0.50413  0.91943  1.0000
  H   H2720     1.0  0.92786  0.45360  0.77158  1.0000
  C   C3399     1.0  0.87066  0.55851  0.95523  1.0000
  P   P111      1.0  0.86060  0.34957  0.51401  1.0000
  P   P112      1.0  0.97553  0.49535  0.77425  1.0000
  C   C3400     1.0  0.96691  0.47375  0.77111  1.0000
  C   C3401     1.0  0.96472  0.50612  0.80314  1.0000
  C   C3402     1.0  0.96168  0.52427  0.80323  1.0000
  C   C3403     1.0  0.95350  0.53246  0.82606  1.0000
  C   C3404     1.0  0.94859  0.52261  0.84904  1.0000
  C   C3405     1.0  0.95197  0.50460  0.84925  1.0000
  C   C3406     1.0  0.96005  0.49640  0.82649  1.0000
  C   C3407     1.0  0.94875  0.47171  0.77189  1.0000
  C   C3408     1.0  0.94187  0.45509  0.77051  1.0000
  C   C3409     1.0  0.95300  0.44036  0.76830  1.0000
  C   C3410     1.0  0.97106  0.44226  0.76705  1.0000
  C   C3411     1.0  0.97799  0.45889  0.76826  1.0000
  C   C3412     1.0  0.97030  0.50635  0.74179  1.0000
  H   H2721     1.0  0.83518  0.37598  0.79051  1.0000
  C   C3413     1.0  0.81167  0.37056  0.52918  1.0000
  C   C3414     1.0  0.96162  0.52337  0.69158  1.0000
  C   C3415     1.0  0.94904  0.52178  0.71232  1.0000
  C   C3416     1.0  0.95332  0.51332  0.73730  1.0000
  C   C3417     1.0  0.75338  0.59300  0.60719  1.0000
  C   C3418     1.0  0.89170  0.47225  0.96965  1.0000
  C   C3419     1.0  0.87339  0.53486  0.84838  1.0000
  H   H2722     1.0  0.96557  0.53208  0.78569  1.0000
  H   H2723     1.0  0.95094  0.54643  0.82588  1.0000
  H   H2724     1.0  0.94215  0.52888  0.86667  1.0000
  H   H2725     1.0  0.94825  0.49681  0.86688  1.0000
  H   H2726     1.0  0.96257  0.48241  0.82720  1.0000
  H   H2727     1.0  0.97049  0.43311  0.92713  1.0000
  C   C3420     1.0  0.88743  0.34682  0.58786  1.0000
  H   H2728     1.0  0.94759  0.42749  0.76781  1.0000
  C   C3421     1.0  0.79885  0.62963  0.67982  1.0000
  S   S471      1.0  0.77501  0.35361  0.97574  1.0000
  H   H2729     1.0  0.78569  0.37622  0.73890  1.0000
  H   H2730     1.0  0.87810  0.52900  0.82909  1.0000
  H   H2731     1.0  0.85443  0.40112  0.78780  1.0000
  H   H2732     1.0  0.93589  0.52709  0.70895  1.0000
  H   H2733     1.0  0.94328  0.51217  0.75297  1.0000
  C   C3422     1.0  0.75710  0.64492  0.87383  1.0000
  C   C3423     1.0  0.86911  0.38289  0.97606  1.0000
  C   C3424     1.0  0.80532  0.35949  0.54956  1.0000
  C   C3425     1.0  0.93455  0.52647  0.95452  1.0000
  Fe  Fe237     1.0  0.75821  0.64899  0.50833  1.0000
  C   C3426     1.0  0.79190  0.61340  0.67327  1.0000
  C   C3427     1.0  0.80259  0.62388  0.60065  1.0000
  C   C3428     1.0  0.89263  0.33606  0.53272  1.0000
  H   H2734     1.0  0.77173  0.33109  0.87913  1.0000
  C   C3429     1.0  0.83482  0.54640  0.94399  1.0000
  P   P113      1.0  0.85265  0.55880  0.93085  1.0000
  C   C3430     1.0  0.83457  0.38579  0.80677  1.0000
  C   C3431     1.0  0.75962  0.33124  0.83847  1.0000
  C   C3432     1.0  0.79380  0.36990  0.88365  1.0000
  H   H2735     1.0  0.93983  0.48290  0.77405  1.0000
  H   H2736     1.0  0.90958  0.40548  0.94628  1.0000
  H   H2737     1.0  0.85912  0.48508  0.52647  1.0000
  C   C3433     1.0  0.80966  0.54462  0.97452  1.0000
  C   C3434     1.0  0.86314  0.55028  0.84786  1.0000
  C   C3435     1.0  0.81129  0.63453  0.58204  1.0000
  C   C3436     1.0  0.92479  0.51921  0.93302  1.0000
  C   C3437     1.0  0.82326  0.39673  0.85079  1.0000
  H   H2738     1.0  0.96900  0.49735  0.95452  1.0000
  C   C3438     1.0  0.96760  0.46900  0.69450  1.0000
  H   H2739     1.0  0.74725  0.37504  0.85227  1.0000
  H   H2740     1.0  0.86544  0.43299  0.96093  1.0000
  H   H2741     1.0  0.98517  0.52289  0.94180  1.0000
  C   C3439     1.0  0.85687  0.55770  0.87272  1.0000
  C   C3440     1.0  0.82351  0.34755  0.84830  1.0000
  H   H2742     1.0  0.85550  0.49175  0.97373  1.0000
  C   C3441     1.0  0.97844  0.51619  0.69559  1.0000
  C   C3442     1.0  0.96010  0.47814  0.67213  1.0000
  C   C3443     1.0  0.99230  0.47238  0.54131  1.0000
  C   C3444     1.0  0.79471  0.56395  0.50229  1.0000
  C   C3445     1.0  0.98573  0.52488  0.60257  1.0000
  H   H2743     1.0  0.81544  0.50725  0.93681  1.0000
  C   C3446     1.0  0.83414  0.41096  0.84897  1.0000
  H   H2744     1.0  0.92309  0.49820  0.90348  1.0000
  H   H2745     1.0  0.85251  0.62321  0.94136  1.0000
  C   C3447     1.0  0.80262  0.35838  0.79857  1.0000
  C   C3448     1.0  0.85284  0.59523  0.93670  1.0000
  H   H2746     1.0  0.75142  0.37594  0.90349  1.0000
  C   C3449     1.0  0.84294  0.52164  0.55876  1.0000
  H   H2747     1.0  0.88918  0.56771  0.92512  1.0000
  C   C3450     1.0  0.87449  0.35034  0.56786  1.0000
  H   H2748     1.0  0.86480  0.59350  0.94850  1.0000
  H   H2749     1.0  0.78049  0.34508  0.72899  1.0000
  H   H2750     1.0  0.91205  0.52481  0.92758  1.0000
  H   H2751     1.0  0.77189  0.33097  0.82747  1.0000
  H   H2752     1.0  0.94610  0.48076  0.67145  1.0000
  C   C3451     1.0  0.87981  0.37429  0.95647  1.0000
  H   H2753     1.0  0.96478  0.49063  0.63291  1.0000
  C   C3452     1.0  0.79209  0.33601  0.76741  1.0000
  C   C3453     1.0  0.86084  0.54971  0.89838  1.0000
  H   H2754     1.0  0.99361  0.48856  0.92683  1.0000
  S   S472      1.0  0.77223  0.62798  0.48298  1.0000
  C   C3454     1.0  0.84538  0.41251  0.82633  1.0000
  H   H2755     1.0  0.97821  0.53883  0.53510  1.0000
  C   C3455     1.0  0.90131  0.56322  0.96495  1.0000
  C   C3456     1.0  0.82335  0.38403  0.82965  1.0000
  H   H2756     1.0  0.99414  0.45617  0.50445  1.0000
  H   H2757     1.0  0.82094  0.57273  0.90414  1.0000
  P   P114      1.0  0.81031  0.36488  0.83252  1.0000
  C   C3457     1.0  0.83177  0.52950  0.93418  1.0000
  C   C3458     1.0  0.87688  0.34468  0.54025  1.0000
  H   H2758     1.0  0.77244  0.37078  0.82122  1.0000
  C   C3459     1.0  0.76031  0.37412  0.86098  1.0000
  H   H2759     1.0  0.81069  0.33687  0.57480  1.0000
  C   C3460     1.0  0.86884  0.36798  0.49532  1.0000
  H   H2760     1.0  0.75018  0.64882  0.80320  1.0000
  C   C3461     1.0  0.90554  0.33255  0.55276  1.0000
  H   H2761     1.0  0.95589  0.56063  0.96669  1.0000
  C   C3462     1.0  0.95853  0.44370  0.51700  1.0000
  C   C3463     1.0  0.95957  0.46180  0.51324  1.0000
  C   C3464     1.0  0.85284  0.43660  0.96960  1.0000
  P   P115      1.0  0.96874  0.47517  0.54041  1.0000
  C   C3465     1.0  0.96013  0.46759  0.57318  1.0000
  H   H2762     1.0  0.89326  0.56929  0.51300  1.0000
  C   C3466     1.0  0.81774  0.52026  0.94451  1.0000
  C   C3467     1.0  0.76653  0.59934  0.62429  1.0000
  H   H2763     1.0  0.77546  0.55787  0.57952  1.0000
  H   H2764     1.0  0.80956  0.63463  0.66794  1.0000
  H   H2765     1.0  0.80688  0.53844  0.50616  1.0000
  C   C3468     1.0  0.96928  0.45445  0.58818  1.0000
  C   C3469     1.0  0.96205  0.44741  0.61223  1.0000
  C   C3470     1.0  0.94561  0.45337  0.62147  1.0000
  C   C3471     1.0  0.93656  0.46659  0.60699  1.0000
  C   C3472     1.0  0.94375  0.47368  0.58301  1.0000
  C   C3473     1.0  0.96219  0.49785  0.53482  1.0000
  C   C3474     1.0  0.94466  0.50238  0.52884  1.0000
  C   C3475     1.0  0.93922  0.51984  0.52605  1.0000
  C   C3476     1.0  0.95129  0.53298  0.52839  1.0000
  C   C3477     1.0  0.96889  0.52860  0.53294  1.0000
  C   C3478     1.0  0.97436  0.51116  0.53620  1.0000
  H   H2766     1.0  0.88528  0.51484  0.87415  1.0000
  H   H2767     1.0  0.83428  0.42054  0.86559  1.0000
  H   H2768     1.0  0.95157  0.48436  0.91697  1.0000
  H   H2769     1.0  0.96273  0.43767  0.53631  1.0000
  C   C3479     1.0  0.75654  0.57800  0.59118  1.0000
  H   H2770     1.0  0.77251  0.59479  0.68465  1.0000
  H   H2771     1.0  0.91294  0.33518  0.59586  1.0000
  C   C3480     1.0  0.95421  0.46911  0.48770  1.0000
  C   C3481     1.0  0.81595  0.34578  0.55976  1.0000
  H   H2772     1.0  0.99529  0.48743  0.57913  1.0000
  H   H2773     1.0  0.83302  0.37631  0.50249  1.0000
  C   C3482     1.0  0.87418  0.39902  0.49302  1.0000
  H   H2774     1.0  0.93992  0.44785  0.63997  1.0000
  H   H2775     1.0  0.92379  0.47131  0.61407  1.0000
  H   H2776     1.0  0.93621  0.48367  0.57222  1.0000
  H   H2777     1.0  0.93508  0.49240  0.52663  1.0000
  H   H2778     1.0  0.92557  0.52315  0.52238  1.0000
  H   H2779     1.0  0.77245  0.64134  0.73425  1.0000
  C   C3483     1.0  0.83879  0.62692  0.60450  1.0000
  C   C3484     1.0  0.77473  0.37159  0.84341  1.0000
  H   H2780     1.0  0.84901  0.56964  0.87166  1.0000
  C   C3485     1.0  0.82606  0.56513  0.69639  1.0000
  C   C3486     1.0  0.83849  0.55721  0.67877  1.0000
  C   C3487     1.0  0.83931  0.56223  0.65092  1.0000
  C   C3488     1.0  0.82780  0.57522  0.64065  1.0000
  C   C3489     1.0  0.81542  0.58347  0.65823  1.0000
  C   C3490     1.0  0.81453  0.57818  0.68619  1.0000
  P   P116      1.0  0.80066  0.60040  0.64474  1.0000
  C   C3491     1.0  0.82867  0.36801  0.51908  1.0000
  H   H2781     1.0  0.95122  0.41926  0.49869  1.0000
  C   C3492     1.0  0.84412  0.58084  0.92594  1.0000
  H   H2782     1.0  0.78295  0.56045  0.51308  1.0000
  H   H2783     1.0  0.85421  0.42326  0.82548  1.0000
  H   H2784     1.0  0.82486  0.62791  0.91500  1.0000
  C   C3493     1.0  0.79162  0.36937  0.85466  1.0000
  C   C3494     1.0  0.78308  0.59087  0.62530  1.0000
  C   C3495     1.0  0.78617  0.57583  0.60905  1.0000
  C   C3496     1.0  0.77291  0.56939  0.59218  1.0000
  H   H2785     1.0  0.95931  0.46434  0.71097  1.0000
  C   C3497     1.0  0.85013  0.50850  0.50549  1.0000
  C   C3498     1.0  0.84184  0.34769  0.84734  1.0000
  H   H2786     1.0  0.82543  0.56120  0.71800  1.0000
  H   H2787     1.0  0.84755  0.54721  0.68666  1.0000
  H   H2788     1.0  0.84900  0.55612  0.63726  1.0000
  H   H2789     1.0  0.82875  0.57898  0.61901  1.0000
  H   H2790     1.0  0.80512  0.58412  0.70032  1.0000
  H   H2791     1.0  0.78126  0.37302  0.92346  1.0000
  H   H2792     1.0  0.92903  0.53747  0.96587  1.0000
  C   C3499     1.0  0.95686  0.50373  0.94829  1.0000
  C   C3500     1.0  0.97066  0.48380  0.65051  1.0000
  H   H2793     1.0  0.79196  0.36115  0.55681  1.0000
  H   H2794     1.0  0.79885  0.56921  0.60890  1.0000
  S   S473      1.0  0.77463  0.64649  0.89863  1.0000
  H   H2795     1.0  0.79905  0.38486  0.78349  1.0000
  C   C3501     1.0  0.87125  0.53428  0.89869  1.0000
  C   C3502     1.0  0.81197  0.61453  0.62125  1.0000
  H   H2796     1.0  0.86607  0.55369  0.51878  1.0000
  H   H2797     1.0  0.83767  0.60962  0.63930  1.0000
  H   H2798     1.0  0.78862  0.62276  0.59851  1.0000
  H   H2799     1.0  0.88549  0.35115  0.60917  1.0000
  H   H2800     1.0  0.80665  0.36798  0.89280  1.0000
  H   H2801     1.0  0.77356  0.65104  0.83907  1.0000
  C   C3503     1.0  0.76264  0.37457  0.88983  1.0000
  C   C3504     1.0  0.83292  0.34310  0.54951  1.0000
  H   H2802     1.0  0.88957  0.51639  0.96313  1.0000
  C   C3505     1.0  0.88722  0.56347  0.94636  1.0000
  H   H2803     1.0  0.94696  0.54656  0.52722  1.0000
  C   C3506     1.0  0.78701  0.34877  0.74808  1.0000
  H   H2804     1.0  0.81838  0.46442  0.95584  1.0000
  C   C3507     1.0  0.83011  0.61643  0.62340  1.0000
  C   C3508     1.0  0.83950  0.35438  0.52939  1.0000
  H   H2805     1.0  0.80321  0.38074  0.52041  1.0000
  C   C3509     1.0  0.76050  0.64788  0.84537  1.0000
  C   C3510     1.0  0.86759  0.38475  0.50715  1.0000
  C   C3511     1.0  0.95205  0.43319  0.49571  1.0000
  C   C3512     1.0  0.75957  0.33125  0.86779  1.0000
  C   C3513     1.0  0.78988  0.36633  0.75374  1.0000
  C   C3514     1.0  0.90291  0.33786  0.58035  1.0000
  C   C3515     1.0  0.84271  0.44954  0.95612  1.0000
  C   C3516     1.0  0.79757  0.37114  0.77895  1.0000
  C   C3517     1.0  0.85330  0.49807  0.52891  1.0000
  C   C3518     1.0  0.84338  0.52566  0.50856  1.0000
  H   H2806     1.0  0.84071  0.33197  0.55673  1.0000
  H   H2807     1.0  0.84767  0.45565  0.93752  1.0000
  H   H2808     1.0  0.76677  0.64382  0.62820  1.0000
  H   H2809     1.0  0.94847  0.44687  0.95869  1.0000
  H   H2810     1.0  0.87638  0.36156  0.94875  1.0000
  Fe  Fe238     1.0  0.76779  0.33224  0.94586  1.0000
  C   C3519     1.0  0.97440  0.44281  0.94220  1.0000
  H   H2811     1.0  0.98183  0.44935  0.58102  1.0000
  C   C3520     1.0  0.89851  0.39905  0.95510  1.0000
  H   H2812     1.0  0.86134  0.38682  0.52715  1.0000
  H   H2813     1.0  0.83530  0.54553  0.53852  1.0000
  H   H2814     1.0  0.80332  0.33068  0.80745  1.0000
  C   C3521     1.0  0.85731  0.33120  0.49127  1.0000
  C   C3522     1.0  0.96198  0.45062  0.95989  1.0000
  H   H2815     1.0  0.86275  0.35763  0.57395  1.0000
  H   H2816     1.0  0.90212  0.37611  0.92953  1.0000
  H   H2817     1.0  0.82560  0.56702  0.97182  1.0000
  C   C3523     1.0  0.89436  0.38244  0.94572  1.0000
  H   H2818     1.0  0.80413  0.64118  0.56548  1.0000
  C   C3524     1.0  0.82625  0.45449  0.96646  1.0000
  C   C3525     1.0  0.89069  0.50374  0.97296  1.0000
  C   C3526     1.0  0.79191  0.63963  0.70183  1.0000
  C   C3527     1.0  0.80834  0.55157  0.49851  1.0000
  H   H2819     1.0  0.98693  0.51141  0.60878  1.0000
  H   H2820     1.0  0.79580  0.52068  0.97259  1.0000
  C   C3528     1.0  0.87066  0.55624  0.49792  1.0000
  C   C3529     1.0  0.85190  0.33443  0.86018  1.0000
  S   S474      1.0  0.79459  0.32940  0.92750  1.0000
  C   C3530     1.0  0.81546  0.33370  0.86170  1.0000
  C   C3531     1.0  0.88807  0.40755  0.97514  1.0000
  H   H2821     1.0  0.80137  0.33329  0.86262  1.0000
  C   C3532     1.0  0.79995  0.34075  0.79251  1.0000
  C   C3533     1.0  0.99375  0.45671  0.86861  1.0000
  H   H2822     1.0  0.86603  0.33486  0.85991  1.0000
  H   H2823     1.0  0.99115  0.45905  0.71336  1.0000
  H   H2824     1.0  0.97969  0.43081  0.76555  1.0000
  C   C3534     1.0  0.98573  0.46617  0.69589  1.0000
  C   C3535     1.0  0.88613  0.56517  0.49474  1.0000
  H   H2825     1.0  0.99197  0.45997  0.76717  1.0000
  C   C3536     1.0  0.98875  0.48078  0.65167  1.0000
  H   H2826     1.0  0.99218  0.47069  0.87038  1.0000
  C   C3537     1.0  0.74722  0.64665  0.82489  1.0000
  H   H2827     1.0  0.85353  0.50324  0.48525  1.0000
  C   C3538     1.0  0.99266  0.52813  0.95874  1.0000
  C   C3539     1.0  0.79625  0.58087  0.49212  1.0000
  H   H2828     1.0  0.74638  0.57319  0.57774  1.0000
  C   C3540     1.0  0.82370  0.55611  0.48473  1.0000
  H   H2829     1.0  0.99551  0.50120  0.72230  1.0000
  C   C3541     1.0  0.81143  0.58545  0.47828  1.0000
  P   P117      1.0  0.84094  0.53986  0.47875  1.0000
  Fe  Fe239     1.0  0.91792  0.93101  0.10553  1.0000
  S   S475      1.0  0.91600  0.95903  0.11919  1.0000
  S   S476      1.0  0.94368  0.91527  0.10140  1.0000
  Fe  Fe240     1.0  0.87794  0.92791  0.09840  1.0000
  S   S477      1.0  0.87350  0.95599  0.11255  1.0000
  S   S478      1.0  0.85291  0.91281  0.08750  1.0000
  Fe  Fe241     1.0  0.89612  0.96187  0.08450  1.0000
  H   H2830     1.0  0.79201  0.69073  0.39453  1.0000
  Fe  Fe242     1.0  0.89366  0.95118  0.14641  1.0000
  S   S479      1.0  0.89039  0.95742  0.19366  1.0000
  S   S480      1.0  0.89960  0.93439  0.06877  1.0000
  S   S481      1.0  0.89653  0.92259  0.13436  1.0000
  C   C3542     1.0  0.81758  0.91908  0.99164  1.0000
  H   H2831     1.0  0.97866  0.90076  0.09446  1.0000
  H   H2832     1.0  0.78270  0.76505  0.32097  1.0000
  Fe  Fe243     1.0  0.76208  0.82976  0.02033  1.0000
  S   S482      1.0  0.78594  0.81695  0.03929  1.0000
  H   H2833     1.0  0.76051  0.91285  0.13780  1.0000
  Fe  Fe244     1.0  0.77541  0.83174  0.45394  1.0000
  H   H2834     1.0  0.92487  0.96001  0.03106  1.0000
  S   S483      1.0  0.77091  0.83481  0.40663  1.0000
  Fe  Fe245     1.0  0.78323  0.79665  0.00548  1.0000
  S   S484      1.0  0.77711  0.76803  0.01272  1.0000
  Fe  Fe246     1.0  0.80041  0.83306  0.00796  1.0000
  S   S485      1.0  0.82643  0.84656  0.01739  1.0000
  C   C3543     1.0  0.76974  0.76719  0.10990  1.0000
  H   H2835     1.0  0.84868  0.98094  0.06605  1.0000
  C   C3544     1.0  0.75594  0.83646  0.09820  1.0000
  H   H2836     1.0  0.85259  0.97242  0.97818  1.0000
  C   C3545     1.0  0.79189  0.83473  0.21902  1.0000
  C   C3546     1.0  0.75875  0.71794  0.15681  1.0000
  C   C3547     1.0  0.76043  0.66381  0.23119  1.0000
  H   H2837     1.0  0.75852  0.77386  0.25658  1.0000
  H   H2838     1.0  0.94655  0.91456  0.46074  1.0000
  H   H2839     1.0  0.74745  0.83532  0.31088  1.0000
  H   H2840     1.0  0.84203  0.92958  0.03325  1.0000
  C   C3548     1.0  0.77652  0.77088  0.33911  1.0000
  C   C3549     1.0  0.80206  0.71324  0.99916  1.0000
  C   C3550     1.0  0.94594  0.97586  0.27695  1.0000
  C   C3551     1.0  0.78730  0.74749  0.00478  1.0000
  C   C3552     1.0  0.77667  0.73301  0.00216  1.0000
  H   H2841     1.0  0.75343  0.74742  0.12571  1.0000
  H   H2842     1.0  0.76269  0.73505  0.00222  1.0000
  C   C3553     1.0  0.74707  0.67263  0.27479  1.0000
  H   H2843     1.0  0.74587  0.77557  0.04697  1.0000
  H   H2844     1.0  0.79632  0.86830  0.41274  1.0000
  C   C3554     1.0  0.89374  0.97383  0.21993  1.0000
  H   H2845     1.0  0.76790  0.83740  0.08649  1.0000
  C   C3555     1.0  0.85042  0.97856  0.02145  1.0000
  C   C3556     1.0  0.89077  0.96972  0.24813  1.0000
  H   H2846     1.0  0.76265  0.71442  0.41791  1.0000
  C   C3557     1.0  0.94573  0.98777  0.15865  1.0000
  H   H2847     1.0  0.88710  0.95665  0.25344  1.0000
  C   C3558     1.0  0.88050  0.92364  0.99535  1.0000
  C   C3559     1.0  0.89360  0.97078  0.00503  1.0000
  C   C3560     1.0  0.75380  0.83222  0.38163  1.0000
  C   C3561     1.0  0.84773  0.97227  0.04830  1.0000
  H   H2848     1.0  0.95619  0.97846  0.09155  1.0000
  H   H2849     1.0  0.89320  0.95842  0.01570  1.0000
  C   C3562     1.0  0.99136  0.97166  0.20401  1.0000
  S   S486      1.0  0.88348  0.98823  0.42618  1.0000
  C   C3563     1.0  0.84578  0.89487  0.06651  1.0000
  C   C3564     1.0  0.85728  0.88432  0.05063  1.0000
  C   C3565     1.0  0.85108  0.86983  0.03558  1.0000
  C   C3566     1.0  0.83331  0.86552  0.03614  1.0000
  C   C3567     1.0  0.82174  0.87631  0.05149  1.0000
  C   C3568     1.0  0.82791  0.89089  0.06630  1.0000
  H   H2850     1.0  0.87101  0.88716  0.05023  1.0000
  H   H2851     1.0  0.86019  0.86175  0.02367  1.0000
  H   H2852     1.0  0.80804  0.87343  0.05195  1.0000
  H   H2853     1.0  0.81871  0.89907  0.07781  1.0000
  C   C3569     1.0  0.96604  0.94241  0.11060  1.0000
  C   C3570     1.0  0.96446  0.92475  0.10415  1.0000
  C   C3571     1.0  0.97973  0.91445  0.09942  1.0000
  H   H2854     1.0  0.95447  0.95039  0.11483  1.0000
  C   C3572     1.0  0.78353  0.89584  0.46504  1.0000
  C   C3573     1.0  0.94128  0.94919  0.19531  1.0000
  C   C3574     1.0  0.78393  0.71598  0.99953  1.0000
  C   C3575     1.0  0.79250  0.69431  0.07423  1.0000
  H   H2855     1.0  0.97089  0.91217  0.16396  1.0000
  C   C3576     1.0  0.78417  0.69358  0.37615  1.0000
  C   C3577     1.0  0.75362  0.71041  0.13144  1.0000
  H   H2856     1.0  0.80286  0.76058  0.06366  1.0000
  C   C3578     1.0  0.76417  0.69305  0.24906  1.0000
  H   H2857     1.0  0.91218  0.92631  0.46940  1.0000
  H   H2858     1.0  0.85767  0.98758  0.21891  1.0000
  H   H2859     1.0  0.78593  0.69610  0.14443  1.0000
  H   H2860     1.0  0.81705  0.82161  0.21473  1.0000
  C   C3579     1.0  0.75176  0.77358  0.37060  1.0000
  S   S487      1.0  0.75841  0.80877  0.98842  1.0000
  H   H2861     1.0  0.85354  0.99211  0.01844  1.0000
  H   H2862     1.0  0.76534  0.87200  0.40046  1.0000
  C   C3580     1.0  0.93416  0.93332  0.18773  1.0000
  H   H2863     1.0  0.76955  0.72780  0.33705  1.0000
  H   H2864     1.0  0.80818  0.88327  0.45429  1.0000
  H   H2865     1.0  0.76873  0.83784  0.13825  1.0000
  C   C3581     1.0  0.94573  0.95266  0.42771  1.0000
  H   H2866     1.0  0.76967  0.72652  0.15758  1.0000
  C   C3582     1.0  0.96877  0.96591  0.45468  1.0000
  H   H2867     1.0  0.76786  0.85009  0.21822  1.0000
  C   C3583     1.0  0.83406  0.91625  0.97933  1.0000
  H   H2868     1.0  0.75893  0.67302  0.32913  1.0000
  H   H2869     1.0  0.78043  0.72486  0.28551  1.0000
  H   H2870     1.0  0.93536  0.96993  0.98531  1.0000
  H   H2871     1.0  0.75432  0.71961  0.20110  1.0000
  C   C3584     1.0  0.88439  0.98974  0.46301  1.0000
  C   C3585     1.0  0.96446  0.89359  0.45000  1.0000
  C   C3586     1.0  0.77028  0.87921  0.41803  1.0000
  H   H2872     1.0  0.79829  0.78701  0.34871  1.0000
  H   H2873     1.0  0.96927  0.90016  0.43175  1.0000
  H   H2874     1.0  0.88989  0.97883  0.29099  1.0000
  C   C3587     1.0  0.75976  0.76611  0.34691  1.0000
  H   H2875     1.0  0.77550  0.70499  0.99800  1.0000
  C   C3588     1.0  0.80648  0.90517  0.99538  1.0000
  C   C3589     1.0  0.93828  0.95732  0.02488  1.0000
  H   H2876     1.0  0.92028  0.93148  0.19019  1.0000
  C   C3590     1.0  0.98262  0.94973  0.11175  1.0000
  H   H2877     1.0  0.96702  0.93822  0.44657  1.0000
  C   C3591     1.0  0.78795  0.87702  0.42500  1.0000
  C   C3592     1.0  0.75264  0.71060  0.06936  1.0000
  C   C3593     1.0  0.97456  0.98666  0.06080  1.0000
  C   C3594     1.0  0.79171  0.69270  0.12459  1.0000
  H   H2878     1.0  0.78719  0.78440  0.08922  1.0000
  C   C3595     1.0  0.97319  0.95038  0.00939  1.0000
  C   C3596     1.0  0.76342  0.70084  0.32892  1.0000
  C   C3597     1.0  0.84677  0.94949  0.00243  1.0000
  Fe  Fe247     1.0  0.79690  0.66692  0.99116  1.0000
  C   C3598     1.0  0.78447  0.69909  0.09953  1.0000
  H   H2879     1.0  0.98547  0.97938  0.07003  1.0000
  C   C3599     1.0  0.89233  0.98233  0.26959  1.0000
  H   H2880     1.0  0.93611  0.97870  0.16534  1.0000
  C   C3600     1.0  0.78746  0.74030  0.08100  1.0000
  C   C3601     1.0  0.94430  0.96300  0.99919  1.0000
  H   H2881     1.0  0.93921  0.90792  0.16963  1.0000
  C   C3602     1.0  0.93788  0.96910  0.42309  1.0000
  C   C3603     1.0  0.80838  0.83199  0.20710  1.0000
  C   C3604     1.0  0.75021  0.71396  0.18158  1.0000
  H   H2882     1.0  0.78415  0.80055  0.39009  1.0000
  H   H2883     1.0  0.76475  0.87411  0.07311  1.0000
  H   H2884     1.0  0.77692  0.86877  0.17984  1.0000
  C   C3605     1.0  0.76905  0.73316  0.28097  1.0000
  C   C3606     1.0  0.75218  0.72715  0.28567  1.0000
  H   H2885     1.0  0.98102  0.87061  0.44400  1.0000
  H   H2886     1.0  0.92591  0.97042  0.41099  1.0000
  C   C3607     1.0  0.79250  0.75755  0.07804  1.0000
  H   H2887     1.0  0.77483  0.68338  0.21016  1.0000
  C   C3608     1.0  0.81277  0.72778  0.00100  1.0000
  C   C3609     1.0  0.74930  0.69355  0.06072  1.0000
  H   H2888     1.0  0.87773  0.96293  0.46890  1.0000
  C   C3610     1.0  0.76730  0.68036  0.22846  1.0000
  C   C3611     1.0  0.77738  0.79085  0.37810  1.0000
  C   C3612     1.0  0.97108  0.87696  0.45690  1.0000
  C   C3613     1.0  0.94966  0.94844  0.04300  1.0000
  C   C3614     1.0  0.84395  0.94330  0.02951  1.0000
  H   H2889     1.0  0.78735  0.69914  0.05457  1.0000
  C   C3615     1.0  0.96102  0.98242  0.44925  1.0000
  H   H2890     1.0  0.90083  0.99439  0.19224  1.0000
  H   H2891     1.0  0.90544  0.91531  0.01238  1.0000
  S   S488      1.0  0.77636  0.84677  0.98999  1.0000
  C   C3616     1.0  0.75388  0.68931  0.27237  1.0000
  S   S489      1.0  0.77122  0.70778  0.47623  1.0000
  H   H2892     1.0  0.75411  0.77886  0.20365  1.0000
  C   C3617     1.0  0.77356  0.73632  0.09864  1.0000
  C   C3618     1.0  0.96269  0.92243  0.17318  1.0000
  H   H2893     1.0  0.76959  0.70571  0.24638  1.0000
  P   P118      1.0  0.76589  0.71429  0.09994  1.0000
  C   C3619     1.0  0.95450  0.96983  0.25289  1.0000
  H   H2894     1.0  0.77061  0.83770  0.34702  1.0000
  C   C3620     1.0  0.96109  0.95105  0.44348  1.0000
  C   C3621     1.0  0.76551  0.68369  0.33892  1.0000
  C   C3622     1.0  0.81170  0.88841  0.98666  1.0000
  C   C3623     1.0  0.78360  0.77099  0.09234  1.0000
  C   C3624     1.0  0.83698  0.91471  0.15634  1.0000
  C   C3625     1.0  0.84507  0.91264  0.18226  1.0000
  C   C3626     1.0  0.84201  0.89785  0.19820  1.0000
  C   C3627     1.0  0.83099  0.88505  0.18813  1.0000
  C   C3628     1.0  0.82280  0.88705  0.16205  1.0000
  C   C3629     1.0  0.82591  0.90200  0.14626  1.0000
  P   P119      1.0  0.80981  0.86996  0.14749  1.0000
  C   C3630     1.0  0.82293  0.85646  0.12415  1.0000
  C   C3631     1.0  0.80253  0.85610  0.17523  1.0000
  C   C3632     1.0  0.81371  0.84263  0.18532  1.0000
  C   C3633     1.0  0.81468  0.67729  0.09910  1.0000
  H   H2895     1.0  0.78767  0.82645  0.23578  1.0000
  C   C3634     1.0  0.77134  0.74988  0.27028  1.0000
  C   C3635     1.0  0.95730  0.98122  0.23062  1.0000
  C   C3636     1.0  0.81652  0.84061  0.11434  1.0000
  C   C3637     1.0  0.82638  0.83025  0.09579  1.0000
  C   C3638     1.0  0.84293  0.83534  0.08759  1.0000
  C   C3639     1.0  0.84966  0.85074  0.09808  1.0000
  C   C3640     1.0  0.83968  0.86136  0.11610  1.0000
  C   C3641     1.0  0.79100  0.87972  0.12978  1.0000
  C   C3642     1.0  0.78223  0.89437  0.14143  1.0000
  C   C3643     1.0  0.76727  0.90163  0.12859  1.0000
  H   H2896     1.0  0.93104  0.99442  0.07001  1.0000
  C   C3644     1.0  0.76967  0.87987  0.09211  1.0000
  C   C3645     1.0  0.78468  0.87265  0.10482  1.0000
  H   H2897     1.0  0.83970  0.92596  0.14361  1.0000
  H   H2898     1.0  0.85391  0.92240  0.18974  1.0000
  H   H2899     1.0  0.84843  0.89620  0.21819  1.0000
  H   H2900     1.0  0.82911  0.87359  0.20064  1.0000
  H   H2901     1.0  0.82019  0.90364  0.12580  1.0000
  H   H2902     1.0  0.82660  0.84043  0.17647  1.0000
  H   H2903     1.0  0.93267  0.95936  0.20381  1.0000
  H   H2904     1.0  0.94488  0.94421  0.06296  1.0000
  C   C3646     1.0  0.78075  0.84811  0.20918  1.0000
  S   S490      1.0  0.89633  0.98618  0.05732  1.0000
  H   H2905     1.0  0.80371  0.83648  0.12052  1.0000
  H   H2906     1.0  0.82109  0.81845  0.08726  1.0000
  H   H2907     1.0  0.85035  0.82761  0.07252  1.0000
  H   H2908     1.0  0.86238  0.85484  0.09134  1.0000
  H   H2909     1.0  0.84502  0.87351  0.12307  1.0000
  H   H2910     1.0  0.78686  0.90008  0.16063  1.0000
  C   C3647     1.0  0.96174  0.95970  0.99155  1.0000
  H   H2911     1.0  0.95879  0.95625  0.25154  1.0000
  H   H2912     1.0  0.91135  0.95814  0.46264  1.0000
  H   H2913     1.0  0.79116  0.86155  0.09497  1.0000
  C   C3648     1.0  0.80752  0.68343  0.07406  1.0000
  H   H2914     1.0  0.98364  0.93986  0.17713  1.0000
  H   H2915     1.0  0.78830  0.72115  0.37762  1.0000
  C   C3649     1.0  0.95917  0.95197  0.19132  1.0000
  C   C3650     1.0  0.76468  0.74994  0.11297  1.0000
  H   H2916     1.0  0.78439  0.75443  0.26668  1.0000
  H   H2917     1.0  0.84244  0.94969  0.07310  1.0000
  H   H2918     1.0  0.93985  0.94119  0.41907  1.0000
  C   C3651     1.0  0.77151  0.71438  0.34332  1.0000
  C   C3652     1.0  0.79458  0.88537  0.44843  1.0000
  C   C3653     1.0  0.96241  0.98779  0.17090  1.0000
  C   C3654     1.0  0.84432  0.95468  0.05227  1.0000
  H   H2919     1.0  0.79408  0.73027  0.06868  1.0000
  C   C3655     1.0  0.96986  0.93833  0.18054  1.0000
  H   H2920     1.0  0.87508  0.92650  0.01572  1.0000
  H   H2921     1.0  0.76265  0.77770  0.12050  1.0000
  C   C3656     1.0  0.77586  0.68012  0.36237  1.0000
  H   H2922     1.0  0.96712  0.99418  0.45627  1.0000
  C   C3657     1.0  0.94482  0.92000  0.17641  1.0000
  C   C3658     1.0  0.78596  0.85872  0.18729  1.0000
  S   S491      1.0  0.81184  0.69194  0.99710  1.0000
  H   H2923     1.0  0.81373  0.67998  0.05444  1.0000
  C   C3659     1.0  0.78533  0.78322  0.35472  1.0000
  C   C3660     1.0  0.94549  0.98393  0.43394  1.0000
  P   P120      1.0  0.98948  0.96392  0.47284  1.0000
  C   C3661     1.0  0.74595  0.72467  0.05350  1.0000
  H   H2924     1.0  0.77727  0.66686  0.37010  1.0000
  C   C3662     1.0  0.75637  0.83676  0.12754  1.0000
  C   C3663     1.0  0.76064  0.78614  0.38598  1.0000
  C   C3664     1.0  0.78205  0.71070  0.36657  1.0000
  C   C3665     1.0  0.95807  0.98613  0.07298  1.0000
  H   H2925     1.0  0.84211  0.98670  0.46282  1.0000
  H   H2926     1.0  0.98358  0.96346  0.11644  1.0000
  H   H2927     1.0  0.99094  0.97772  0.24822  1.0000
  H   H2928     1.0  0.75915  0.74313  0.47018  1.0000
  C   C3666     1.0  0.84991  0.96726  0.99858  1.0000
  C   C3667     1.0  0.80672  0.68182  0.12432  1.0000
  H   H2929     1.0  0.75110  0.89836  0.37316  1.0000
  C   C3668     1.0  0.75750  0.83462  0.35317  1.0000
  C   C3669     1.0  0.96712  0.94521  0.03556  1.0000
  H   H2930     1.0  0.75115  0.92593  0.42989  1.0000
  H   H2931     1.0  0.81380  0.75585  0.00595  1.0000
  P   P121      1.0  0.96784  0.97311  0.19931  1.0000
  S   S492      1.0  0.80361  0.82812  0.46754  1.0000
  H   H2932     1.0  0.97580  0.93867  0.05027  1.0000
  H   H2933     1.0  0.94356  0.96700  0.29392  1.0000
  C   C3670     1.0  0.89517  0.98618  0.02039  1.0000
  H   H2934     1.0  0.81232  0.67705  0.14369  1.0000
  H   H2935     1.0  0.74899  0.73793  0.05873  1.0000
  C   C3671     1.0  0.80544  0.74484  0.00377  1.0000
  C   C3672     1.0  0.74872  0.73690  0.40094  1.0000
  C   C3673     1.0  0.76579  0.89789  0.45831  1.0000
  H   H2936     1.0  0.99087  0.97971  0.41687  1.0000
  H   H2937     1.0  0.74932  0.89988  0.09412  1.0000
  H   H2938     1.0  0.82682  0.72580  0.00071  1.0000
  C   C3674     1.0  0.75683  0.76080  0.26447  1.0000
  H   H2939     1.0  0.75459  0.68253  0.07227  1.0000
  H   H2940     1.0  0.97926  0.91267  0.01440  1.0000
  H   H2941     1.0  0.75303  0.75660  0.33453  1.0000
  C   C3675     1.0  0.75909  0.88982  0.43444  1.0000
  C   C3676     1.0  0.89776  0.91721  0.99357  1.0000
  H   H2942     1.0  0.82650  0.66918  0.09903  1.0000
  C   C3677     1.0  0.95154  0.90173  0.46652  1.0000
  C   C3678     1.0  0.76097  0.89434  0.10397  1.0000
  C   C3679     1.0  0.99286  0.91181  0.02062  1.0000
  H   H2943     1.0  0.81332  0.93203  0.99833  1.0000
  H   H2944     1.0  0.99050  0.88622  0.03830  1.0000
  P   P122      1.0  0.74932  0.70542  0.29929  1.0000
  H   H2945     1.0  0.76057  0.74260  0.39358  1.0000
  C   C3680     1.0  0.94023  0.99330  0.27900  1.0000
  C   C3681     1.0  0.89852  0.99086  0.21367  1.0000
  H   H2946     1.0  0.75479  0.79255  0.40391  1.0000
  H   H2947     1.0  0.75724  0.90542  0.47206  1.0000
  H   H2948     1.0  0.80330  0.87751  0.99000  1.0000
  S   S493      1.0  0.75247  0.66550  0.47064  1.0000
  H   H2949     1.0  0.79391  0.90732  0.00527  1.0000
  C   C3682     1.0  0.75001  0.72089  0.41474  1.0000
  P   P123      1.0  0.99557  0.94542  0.99919  1.0000
  Fe  Fe248     1.0  0.92206  0.94874  0.60317  1.0000
  S   S494      1.0  0.90905  0.97335  0.61949  1.0000
  S   S495      1.0  0.95034  0.95447  0.59181  1.0000
  Fe  Fe249     1.0  0.88608  0.93079  0.59846  1.0000
  S   S496      1.0  0.87137  0.95488  0.61407  1.0000
  S   S497      1.0  0.87384  0.90425  0.58818  1.0000
  Fe  Fe250     1.0  0.88931  0.96947  0.58565  1.0000
  C   C3683     1.0  0.79685  0.77778  0.90757  1.0000
  Fe  Fe251     1.0  0.89279  0.95681  0.64659  1.0000
  S   S498      1.0  0.88766  0.96090  0.69360  1.0000
  S   S499      1.0  0.90269  0.94547  0.56822  1.0000
  S   S500      1.0  0.90686  0.93194  0.63241  1.0000
  C   C3684     1.0  0.90527  0.87899  0.49248  1.0000
  H   H2950     1.0  0.96154  0.92280  0.62206  1.0000
  C   C3685     1.0  0.95051  0.89710  0.55732  1.0000
  Fe  Fe252     1.0  0.76308  0.82946  0.51486  1.0000
  S   S501      1.0  0.79015  0.82537  0.53200  1.0000
  C   C3686     1.0  0.89162  0.98572  0.76906  1.0000
  Fe  Fe253     1.0  0.77476  0.82412  0.95944  1.0000
  H   H2951     1.0  0.85740  0.97339  0.89349  1.0000
  S   S502      1.0  0.77182  0.82100  0.91161  1.0000
  Fe  Fe254     1.0  0.79359  0.80698  0.49542  1.0000
  C   C3687     1.0  0.94774  0.94230  0.71598  1.0000
  Fe  Fe255     1.0  0.79775  0.84695  0.50303  1.0000
  S   S503      1.0  0.81140  0.87256  0.51515  1.0000
  S   S504      1.0  0.77008  0.85189  0.48744  1.0000
  C   C3688     1.0  0.75924  0.81800  0.85765  1.0000
  H   H2952     1.0  0.97993  0.98049  0.91223  1.0000
  C   C3689     1.0  0.98600  0.95241  0.58888  1.0000
  H   H2953     1.0  0.77089  0.80992  0.85423  1.0000
  C   C3690     1.0  0.87377  0.88334  0.49255  1.0000
  H   H2954     1.0  0.79390  0.68967  0.94087  1.0000
  C   C3691     1.0  0.75732  0.83059  0.59121  1.0000
  C   C3692     1.0  0.75868  0.83075  0.62040  1.0000
  H   H2955     1.0  0.76871  0.83285  0.57874  1.0000
  H   H2956     1.0  0.77121  0.83285  0.63004  1.0000
  C   C3693     1.0  0.78423  0.76547  0.81959  1.0000
  C   C3694     1.0  0.79463  0.69795  0.87135  1.0000
  H   H2957     1.0  0.77675  0.79480  0.62956  1.0000
  H   H2958     1.0  0.79454  0.69734  0.55775  1.0000
  H   H2959     1.0  0.94695  0.86969  0.51478  1.0000
  C   C3695     1.0  0.90719  0.89582  0.50345  1.0000
  C   C3696     1.0  0.74930  0.76989  0.57962  1.0000
  Fe  Fe256     1.0  0.77747  0.67861  0.48135  1.0000
  H   H2960     1.0  0.80025  0.75104  0.84881  1.0000
  C   C3697     1.0  0.79038  0.73314  0.59969  1.0000
  C   C3698     1.0  0.89286  0.97670  0.71974  1.0000
  C   C3699     1.0  0.75912  0.76110  0.94256  1.0000
  H   H2961     1.0  0.76577  0.78116  0.79562  1.0000
  C   C3700     1.0  0.88826  0.97353  0.74766  1.0000
  C   C3701     1.0  0.77508  0.74087  0.58831  1.0000
  C   C3702     1.0  0.76368  0.69440  0.63668  1.0000
  H   H2962     1.0  0.88188  0.96159  0.75275  1.0000
  S   S505      1.0  0.88824  0.98776  0.92503  1.0000
  C   C3703     1.0  0.88144  0.97577  0.50844  1.0000
  H   H2963     1.0  0.77216  0.67939  0.67241  1.0000
  H   H2964     1.0  0.80991  0.73863  0.93562  1.0000
  H   H2965     1.0  0.80923  0.71164  0.59746  1.0000
  H   H2966     1.0  0.87873  0.96433  0.52060  1.0000
  C   C3704     1.0  0.76281  0.71358  0.75628  1.0000
  H   H2967     1.0  0.96620  0.96427  0.97167  1.0000
  C   C3705     1.0  0.85617  0.89583  0.56803  1.0000
  C   C3706     1.0  0.85486  0.87761  0.56513  1.0000
  C   C3707     1.0  0.84134  0.87025  0.54920  1.0000
  C   C3708     1.0  0.82872  0.88099  0.53604  1.0000
  C   C3709     1.0  0.82995  0.89922  0.53906  1.0000
  C   C3710     1.0  0.84353  0.90658  0.55487  1.0000
  H   H2968     1.0  0.86452  0.86909  0.57506  1.0000
  H   H2969     1.0  0.84085  0.85626  0.54680  1.0000
  H   H2970     1.0  0.82035  0.90775  0.52904  1.0000
  H   H2971     1.0  0.84423  0.92059  0.55680  1.0000
  C   C3711     1.0  0.74988  0.70117  0.75725  1.0000
  C   C3712     1.0  0.97103  0.94449  0.59907  1.0000
  C   C3713     1.0  0.97296  0.92884  0.61375  1.0000
  C   C3714     1.0  0.75471  0.89162  0.70379  1.0000
  H   H2972     1.0  0.81885  0.74465  0.50956  1.0000
  H   H2973     1.0  0.83339  0.78827  0.94343  1.0000
  C   C3715     1.0  0.76812  0.77403  0.81481  1.0000
  C   C3716     1.0  0.79661  0.75984  0.91335  1.0000
  C   C3717     1.0  0.94036  0.89187  0.60420  1.0000
  C   C3718     1.0  0.93712  0.95595  0.52030  1.0000
  H   H2974     1.0  0.94822  0.99452  0.74092  1.0000
  C   C3719     1.0  0.82328  0.78029  0.93481  1.0000
  C   C3720     1.0  0.79727  0.71740  0.58893  1.0000
  H   H2975     1.0  0.92313  0.94726  0.69520  1.0000
  C   C3721     1.0  0.78585  0.72409  0.89727  1.0000
  C   C3722     1.0  0.95218  0.98349  0.91853  1.0000
  C   C3723     1.0  0.95407  0.89344  0.58532  1.0000
  H   H2976     1.0  0.88780  0.98307  0.79026  1.0000
  C   C3724     1.0  0.87777  0.92170  0.94516  1.0000
  C   C3725     1.0  0.95493  0.97742  0.79433  1.0000
  H   H2977     1.0  0.97136  0.93295  0.95610  1.0000
  C   C3726     1.0  0.75006  0.72811  0.79663  1.0000
  H   H2978     1.0  0.97477  0.92802  0.90563  1.0000
  C   C3727     1.0  0.79818  0.72815  0.49580  1.0000
  C   C3728     1.0  0.90108  0.99227  0.71362  1.0000
  C   C3729     1.0  0.76305  0.74626  0.65313  1.0000
  C   C3730     1.0  0.76259  0.90604  0.69209  1.0000
  C   C3731     1.0  0.95690  0.97508  0.69604  1.0000
  H   H2979     1.0  0.78659  0.78414  0.89532  1.0000
  H   H2980     1.0  0.92659  0.97724  0.49562  1.0000
  C   C3732     1.0  0.78925  0.71557  0.87178  1.0000
  C   C3733     1.0  0.87559  0.90013  0.50321  1.0000
  H   H2981     1.0  0.75555  0.73862  0.55576  1.0000
  H   H2982     1.0  0.79445  0.76601  0.80410  1.0000
  P   P124      1.0  0.76730  0.76198  0.60088  1.0000
  H   H2983     1.0  0.77251  0.77155  0.47968  1.0000
  H   H2984     1.0  0.97792  0.96741  0.77403  1.0000
  H   H2985     1.0  0.75162  0.70832  0.60281  1.0000
  S   S506      1.0  0.78214  0.66312  0.52067  1.0000
  H   H2986     1.0  0.75997  0.73450  0.69351  1.0000
  H   H2987     1.0  0.84230  0.98688  0.51448  1.0000
  H   H2988     1.0  0.78765  0.72232  0.85222  1.0000
  H   H2989     1.0  0.93385  0.99038  0.81671  1.0000
  C   C3734     1.0  0.76743  0.88299  0.54262  1.0000
  H   H2990     1.0  0.85188  0.89674  0.96136  1.0000
  C   C3735     1.0  0.93317  0.89900  0.54792  1.0000
  C   C3736     1.0  0.94039  0.96859  0.69005  1.0000
  H   H2991     1.0  0.82109  0.78236  0.55655  1.0000
  C   C3737     1.0  0.92309  0.89382  0.59502  1.0000
  C   C3738     1.0  0.91951  0.89739  0.56704  1.0000
  C   C3739     1.0  0.75537  0.87551  0.59602  1.0000
  C   C3740     1.0  0.81021  0.78789  0.91804  1.0000
  C   C3741     1.0  0.93589  0.95223  0.69995  1.0000
  S   S507      1.0  0.80699  0.78023  0.50116  1.0000
  S   S508      1.0  0.88429  0.99344  0.55863  1.0000
  C   C3742     1.0  0.92844  0.92703  0.50638  1.0000
  C   C3743     1.0  0.79262  0.69690  0.92156  1.0000
  H   H2992     1.0  0.97997  0.95042  0.52795  1.0000
  H   H2993     1.0  0.93093  0.97603  0.67776  1.0000
  C   C3744     1.0  0.89505  0.91530  0.94345  1.0000
  H   H2994     1.0  0.96295  0.98274  0.50681  1.0000
  H   H2995     1.0  0.79720  0.73954  0.61646  1.0000
  C   C3745     1.0  0.98395  0.98842  0.80247  1.0000
  H   H2996     1.0  0.94508  0.93257  0.54173  1.0000
  C   C3746     1.0  0.76014  0.76127  0.63681  1.0000
  C   C3747     1.0  0.98376  0.93547  0.94641  1.0000
  H   H2997     1.0  0.91237  0.89274  0.60959  1.0000
  H   H2998     1.0  0.90604  0.89896  0.56055  1.0000
  C   C3748     1.0  0.93893  0.99083  0.93519  1.0000
  C   C3749     1.0  0.99448  0.90926  0.51261  1.0000
  C   C3750     1.0  0.96965  0.98617  0.92516  1.0000
  H   H2999     1.0  0.77680  0.69636  0.62922  1.0000
  H   H3000     1.0  0.98250  0.96996  0.65166  1.0000
  C   C3751     1.0  0.98738  0.92331  0.52786  1.0000
  H   H3001     1.0  0.97338  0.94099  0.73452  1.0000
  H   H3002     1.0  0.98467  0.96457  0.57760  1.0000
  C   C3752     1.0  0.76048  0.74852  0.92130  1.0000
  H   H3003     1.0  0.75373  0.70096  0.84125  1.0000
  H   H3004     1.0  0.81008  0.80178  0.91374  1.0000
  C   C3753     1.0  0.96869  0.96513  0.71247  1.0000
  H   H3005     1.0  0.96747  0.89211  0.59251  1.0000
  C   C3754     1.0  0.95182  0.87652  0.49681  1.0000
  S   S509      1.0  0.76598  0.80973  0.48013  1.0000
  C   C3755     1.0  0.78632  0.79163  0.61376  1.0000
  C   C3756     1.0  0.84156  0.94545  0.94170  1.0000
  C   C3757     1.0  0.85321  0.95628  0.92808  1.0000
  C   C3758     1.0  0.84828  0.96493  0.90360  1.0000
  C   C3759     1.0  0.83167  0.96278  0.89233  1.0000
  C   C3760     1.0  0.81997  0.95198  0.90563  1.0000
  C   C3761     1.0  0.82486  0.94336  0.93023  1.0000
  H   H3006     1.0  0.77822  0.91552  0.65883  1.0000
  H   H3007     1.0  0.94415  0.92961  0.72350  1.0000
  H   H3008     1.0  0.77238  0.88536  0.52193  1.0000
  H   H3009     1.0  0.76142  0.91862  0.70237  1.0000
  C   C3762     1.0  0.76697  0.73273  0.56569  1.0000
  H   H3010     1.0  0.94368  0.96429  0.53492  1.0000
  H   H3011     1.0  0.80070  0.81450  0.62313  1.0000
  C   C3763     1.0  0.89217  0.90629  0.50898  1.0000
  H   H3012     1.0  0.91654  0.87053  0.48837  1.0000
  H   H3013     1.0  0.79722  0.69136  0.85172  1.0000
  C   C3764     1.0  0.79644  0.68865  0.89624  1.0000
  C   C3765     1.0  0.81269  0.79950  0.58985  1.0000
  H   H3014     1.0  0.89319  0.91910  0.51832  1.0000
  H   H3015     1.0  0.75050  0.87208  0.61629  1.0000
  H   H3016     1.0  0.75035  0.73857  0.81180  1.0000
  C   C3766     1.0  0.93777  0.93788  0.52421  1.0000
  H   H3017     1.0  0.86612  0.95815  0.93642  1.0000
  C   C3767     1.0  0.97289  0.97679  0.78899  1.0000
  C   C3768     1.0  0.96415  0.94874  0.72223  1.0000
  H   H3018     1.0  0.80709  0.95029  0.89687  1.0000
  C   C3769     1.0  0.88086  0.97502  0.47913  1.0000
  C   C3770     1.0  0.75521  0.77397  0.83527  1.0000
  H   H3019     1.0  0.79677  0.76269  0.56175  1.0000
  C   C3771     1.0  0.78904  0.70934  0.56658  1.0000
  C   C3772     1.0  0.98571  0.93982  0.51574  1.0000
  H   H3020     1.0  0.80542  0.71611  0.50016  1.0000
  C   C3773     1.0  0.79767  0.77361  0.57599  1.0000
  H   H3021     1.0  0.96126  0.89854  0.54310  1.0000
  H   H3022     1.0  0.94309  0.88931  0.62598  1.0000
  H   H3023     1.0  0.77293  0.73666  0.77530  1.0000
  P   P125      1.0  0.77939  0.74700  0.89895  1.0000
  C   C3774     1.0  0.78721  0.71447  0.92206  1.0000
  C   C3775     1.0  0.78740  0.75685  0.84482  1.0000
  C   C3776     1.0  0.81149  0.78484  0.57279  1.0000
  C   C3777     1.0  0.82303  0.76252  0.94100  1.0000
  H   H3024     1.0  0.76563  0.78088  0.54768  1.0000
  H   H3025     1.0  0.76795  0.71100  0.53709  1.0000
  H   H3026     1.0  0.82331  0.80823  0.58689  1.0000
  H   H3027     1.0  0.74738  0.89298  0.72301  1.0000
  C   C3778     1.0  0.75650  0.87532  0.69089  1.0000
  C   C3779     1.0  0.94783  0.98968  0.81307  1.0000
  H   H3028     1.0  0.90065  0.91196  0.92336  1.0000
  C   C3780     1.0  0.77394  0.71702  0.55498  1.0000
  C   C3781     1.0  0.99093  0.97955  0.50105  1.0000
  C   C3782     1.0  0.80979  0.75229  0.93029  1.0000
  C   C3783     1.0  0.80005  0.80296  0.61021  1.0000
  C   C3784     1.0  0.78506  0.77675  0.59682  1.0000
  H   H3029     1.0  0.74974  0.69072  0.74201  1.0000
  H   H3030     1.0  0.86409  0.90826  0.50762  1.0000
  C   C3785     1.0  0.75244  0.77867  0.55463  1.0000
  C   C3786     1.0  0.80189  0.93381  0.59995  1.0000
  C   C3787     1.0  0.81971  0.93322  0.60642  1.0000
  C   C3788     1.0  0.82742  0.91812  0.61787  1.0000
  C   C3789     1.0  0.81739  0.90355  0.62276  1.0000
  C   C3790     1.0  0.79950  0.90396  0.61608  1.0000
  C   C3791     1.0  0.79180  0.91926  0.60484  1.0000
  P   P126      1.0  0.78637  0.88520  0.62231  1.0000
  C   C3792     1.0  0.80109  0.86635  0.62465  1.0000
  C   C3793     1.0  0.77391  0.88786  0.65416  1.0000
  C   C3794     1.0  0.76609  0.87343  0.66626  1.0000
  H   H3031     1.0  0.86083  0.87845  0.48887  1.0000
  H   H3032     1.0  0.87014  0.92303  0.92624  1.0000
  H   H3033     1.0  0.79088  0.89101  0.56251  1.0000
  C   C3795     1.0  0.77212  0.90421  0.66734  1.0000
  C   C3796     1.0  0.80806  0.85863  0.60036  1.0000
  C   C3797     1.0  0.82095  0.84536  0.60214  1.0000
  C   C3798     1.0  0.82697  0.83961  0.62813  1.0000
  C   C3799     1.0  0.81998  0.84706  0.65241  1.0000
  C   C3800     1.0  0.80719  0.86047  0.65072  1.0000
  C   C3801     1.0  0.77208  0.88226  0.59272  1.0000
  H   H3034     1.0  0.75057  0.86406  0.70009  1.0000
  P   P127      1.0  0.92858  0.90374  0.51174  1.0000
  C   C3802     1.0  0.76293  0.72702  0.77602  1.0000
  C   C3803     1.0  0.97572  0.98626  0.51408  1.0000
  C   C3804     1.0  0.77793  0.88613  0.56580  1.0000
  H   H3035     1.0  0.79597  0.94551  0.59097  1.0000
  H   H3036     1.0  0.82763  0.94439  0.60241  1.0000
  H   H3037     1.0  0.84132  0.91757  0.62248  1.0000
  H   H3038     1.0  0.82379  0.89199  0.63138  1.0000
  H   H3039     1.0  0.77802  0.91987  0.59963  1.0000
  H   H3040     1.0  0.76744  0.86063  0.65674  1.0000
  H   H3041     1.0  0.80045  0.67495  0.89593  1.0000
  H   H3042     1.0  0.77274  0.71276  0.74026  1.0000
  H   H3043     1.0  0.78429  0.72065  0.94190  1.0000
  C   C3805     1.0  0.75127  0.77583  0.64865  1.0000
  H   H3044     1.0  0.80401  0.86308  0.57992  1.0000
  H   H3045     1.0  0.82643  0.83976  0.58322  1.0000
  H   H3046     1.0  0.83710  0.82944  0.62943  1.0000
  H   H3047     1.0  0.82470  0.84269  0.67259  1.0000
  H   H3048     1.0  0.80246  0.86652  0.66979  1.0000
  C   C3806     1.0  0.89192  0.98743  0.96159  1.0000
  C   C3807     1.0  0.76110  0.68495  0.66104  1.0000
  H   H3049     1.0  0.76936  0.77026  0.94616  1.0000
  S   S510      1.0  0.79981  0.81135  0.97563  1.0000
  H   H3050     1.0  0.94884  0.97587  0.90036  1.0000
  H   H3051     1.0  0.98144  0.96998  0.71756  1.0000
  H   H3052     1.0  0.74821  0.76585  0.87622  1.0000
  C   C3808     1.0  0.98971  0.92095  0.61747  1.0000
  C   C3809     1.0  0.77430  0.75630  0.86521  1.0000
  H   H3053     1.0  0.81556  0.93509  0.94009  1.0000
  H   H3054     1.0  0.92539  0.98876  0.93001  1.0000
  H   H3055     1.0  0.82790  0.96951  0.87333  1.0000
  H   H3056     1.0  0.76186  0.68311  0.88210  1.0000
  H   H3057     1.0  0.96981  0.85548  0.48557  1.0000
  H   H3058     1.0  0.94639  0.96861  0.78359  1.0000
  H   H3059     1.0  0.83298  0.75667  0.95442  1.0000
  C   C3810     1.0  0.99140  0.98000  0.65775  1.0000
  C   C3811     1.0  0.89214  0.97141  0.97579  1.0000
  H   H3060     1.0  0.98330  0.92152  0.54926  1.0000
  C   C3812     1.0  0.78139  0.72762  0.48441  1.0000
  C   C3813     1.0  0.79663  0.76015  0.49521  1.0000
  C   C3814     1.0  0.80576  0.74435  0.50113  1.0000
  C   C3815     1.0  0.98570  0.93247  0.91780  1.0000
  C   C3816     1.0  0.94514  0.89327  0.49010  1.0000
  C   C3817     1.0  0.74637  0.77575  0.67667  1.0000
  H   H3061     1.0  0.89100  0.95940  0.96422  1.0000
  C   C3818     1.0  0.75821  0.76512  0.86035  1.0000
  C   C3819     1.0  0.75610  0.82513  0.88438  1.0000
  H   H3062     1.0  0.76920  0.73459  0.64449  1.0000
  H   H3063     1.0  0.99110  0.90875  0.62862  1.0000
  C   C3820     1.0  0.88491  0.99148  0.52190  1.0000
  C   C3821     1.0  0.75096  0.87605  0.54605  1.0000
  C   C3822     1.0  0.75784  0.74612  0.68105  1.0000
  C   C3823     1.0  0.74974  0.76094  0.69291  1.0000
  C   C3824     1.0  0.77970  0.75957  0.48435  1.0000
  C   C3825     1.0  0.88861  0.87278  0.48713  1.0000
  C   C3826     1.0  0.92747  0.96325  0.49829  1.0000
  C   C3827     1.0  0.98556  0.99445  0.67371  1.0000
  C   C3828     1.0  0.74933  0.70101  0.62157  1.0000
  C   C3829     1.0  0.99149  0.94251  0.48839  1.0000
  H   H3064     1.0  0.96426  0.98782  0.62374  1.0000
  H   H3065     1.0  0.78869  0.90182  0.48367  1.0000
  H   H3066     1.0  0.74784  0.72695  0.90139  1.0000
  H   H3067     1.0  0.88715  0.85970  0.47906  1.0000
  C   C3830     1.0  0.74697  0.73679  0.91759  1.0000
  H   H3068     1.0  0.75042  0.81598  0.81477  1.0000
  H   H3069     1.0  0.74819  0.78736  0.63632  1.0000
  C   C3831     1.0  0.74889  0.68906  0.88059  1.0000
  S   S511      1.0  0.74616  0.82986  0.67370  1.0000
  C   C3832     1.0  0.74762  0.82140  0.83515  1.0000
  C   C3833     1.0  0.91921  0.93443  0.48379  1.0000
  S   S512      1.0  0.76915  0.66592  0.97631  1.0000
  C   C3834     1.0  0.96476  0.86843  0.48030  1.0000
  C   C3835     1.0  0.91870  0.95247  0.47988  1.0000
  H   H3070     1.0  0.83221  0.87236  0.96839  1.0000
  C   C3836     1.0  0.90507  0.91313  0.96764  1.0000
  H   H3071     1.0  0.91845  0.90815  0.96635  1.0000
  C   C3837     1.0  0.77216  0.74340  0.47894  1.0000
  C   C3838     1.0  0.83923  0.89934  0.97075  1.0000
  P   P128      1.0  0.84808  0.93435  0.97350  1.0000
  C   C3839     1.0  0.82807  0.88550  0.97442  1.0000
  C   C3840     1.0  0.87048  0.92631  0.97109  1.0000
  H   H3072     1.0  0.74572  0.76088  0.71455  1.0000
