data_image0
_chemical_formula_structural       FeSFeCSHS2FeCSFeC2S2C3H4CH2CHCH4C2H3C2H3CHCH3CHC3HC5H2C3HC2H2C3HC3HSC2H9C4PCHCHC6H5C3H3C2HCSH4C4PCPC4H2C3HC3HC3HCH2C2H2C7PC2HCH4CHC2HFeC2HC3HC4HC5H2C2H3SCHC2HCPCSHSCHC3FeS2FeS2FeSFeS3FeS2FeS2FeSFeS3C6H4C6H4C8H2C6H4C6H5C4HC2H6C2HC3H2C2PC7HC2SHCH3CH2C3HCHC3H2CPC2H2C4HC2H2CHC2HFePHC3HSC3H2C3HCH6C2HC2H4CHSCH2C2HC6H2CHCH2C2HCH2SC2H3C4HC2H5C3H3CH2C3H2C6H5CH2FeH2CH2CH9CHPC7H3C6HC4HC2H2C3H4C4HC3H5C2H2FeCHCHC2H2FeS2FeS2FeSFeS3FeS2FeS2FeSFeS3FeS2FeS2FeSFeHSCFeS2FeS2FeSFeHS2HC6H3CHCH2C7H3C7H4C6H4C6H4C6H5C12PC2HC4HCH2CH3C2HSC2HC2H2C6PC15H15C6PC3HC4HC4PC4H7CH2C2H3C4HC4H3C2HC3HC2HC2H2CHCHCH2C3H3CPCH3C3HC6PC18H20C2HC3H2C3HCH4CSHC2HCHCHCH2CH2CH2CH3CHC2H5CPH8C3PHCH2CH3C3H2CH2CSH2C6HCH2CHCHCH3C3HCH2C3H2CHCHC3HC4H2FeCSCS2FeCSHSHSHCHC2HCHSCH3CHC2FeCSCHCHCHCH2C2H2PCPC2H3CH2C2H2C2HC5PFeHC3HCHCHCH2C2H2CH2C3HCHCH3CHC2H2CH3C3FeC3H4C2HCH2CHCHCH2CHCH2C3HC3HC2H2C2HC5HC2HC7H4FeCH4CHPC2H3CH3CH3C2HC5S2CSHSH3FeS2FeS2FeSFeS3FeS2FeS2FeSFeS3C6H4C6H3PC6H3C7H4C6HCH4C3H3C4HC2HCHCHCH4C4HC4HC2HCH2CSH5CH2C5HC2HC3HSCH5C3HCH3C2H3CH4CH2CHCHC2Fe2CH2CH3SH2CH3C3H2CH4C5PC13H3C2H4CH9C2HPH3C2SC5H3C9H2CH2CHCHC3HC5H3C2H2C2H2CH4C4HC4HC9HCHC2FeS2FeS2FeSFeS3FeS2FeS2FeSFeS3FeS2FeS2FeSFeHSHFeS2FeS2FeSFeS3HC6H3C2H2CHC6H4C6H4C6H4C6H4C6H6C2HCH5CHC2H4CHCH2CH2C2HCH2C4HCHC7PC10HC6H3CHCH4CSC3HCHC2H2CHCHCHCH2C6PC18H3C2H12C6PC18H19C2HCHC2HCHCHPHC2H4C4H2C4H3CHC2H4CHC5H3CHPC2HPCHC2HC5H2C2SH3CHC3HC2PH2C5HCHCH2C3HC2H2C2HCH2C2HCHCH4C3HC2HC2H2CH3C4H2C2FeS2FeSCFeSFeS3FeS2FeS2FeSFeS3FeS2FeSCFeSFeS3FeC2FeS2FeSFeS3H2CHC7H4C6H4C6H4C6H4C6H4C6H5SPC2H4C3PHC3H2C2HC6HCHCH11CHC3H2CH2C2HCHCH2C2HC6H5SH2C2H2C2H5CHCH5CH2C3HC6PC13H2C3H3CH10C2H2CHCHCSCHC2HCH2C3HC7PC17H6CH11C6PC18H18C5HC5HC2PH4CSH2C2HC5H2C5HCH2C5HC4H2C3H2C4H2CHCH2CHC3HC3PCHC2HC2H2SFeSH4SC2FeS2FeS2FeCFeS3FeS2FeSCFeSFeS3C3H2C6H4C6H4C6H4C6H4C7HCH8C8H3CHC3PC11SH4CH2CH5C8PC10HC2HC3H12PCHCH2CHCH6C5H2FeC4SH3C3HC2HCHSC2H6C2HCSC3HPCH6C6H3CHCFeC2H2C2PCHSCH6C5H3C2PCH3C8H4C2HCHCHC2HSHCH2C3HCH2C3HC4H2C2HC2H2C3H7CHCHC2HCH3CFeCSC2S2FeHSCHCSCH5CFeCHCH3CHFeC5H2SCH3C5H3C2HCHCSC2HC2PC2H4C2HCH3CHC2H2CHC3HC2H2SHPC3PC3HC3H2CHC3HCHCH6CSC4HC2H2C2H2CFeCH2CH4C9H3CHC2H2FeS2FeS2FeSFeS3FeS2FeS2FeSFeS3FeS2FeSHFeSFeS3FeSCFeS2FeSFeS3HC2HC7H4C6H4C6H4C6H3C7H4C6H6CHC2HCH2C2H2CHCHC2H2CHPCHC9HPCH10CHC2H2C3HC2H4CHCHC2H3CH2C4HCSCHCH4CHCH4C6PC18H22CH2CHCHCH2C5HPHCHCH2C2HC3HCHCH2CH2CHCSHCH5C3HC8PC5HC2H2C6HCH6C3HC2HCHC2H2C3HCH2C3H2PHC2H2C6H2C2HCH2C5H2CHCHCSHSH3CSHSFeS2FeS2FeHFeS3FeS2FeSCFeSFeS3C3HC7H4C6H4C6H3C7H3C7HCHCH3CHCSCHC3HPCHC3H2CHCH2SH2C2H2FeCH2C5H3CH2CH4C4HSHFeH2C4H3CH2CHCHCH2SC3HCHC12H2CH3CH3PCH5FeC2HPC18HCH18C2HC2H2CHC2PCPH2C2HCHCHC2HCHCHC3HCH2CHC4HCHCHC5H2CHCHC3HCHCHC4H3CH2C5H2SCH4C2PHC2HC2HFeHSC2S2FeCS2CHSCH2C4H2C2H2C3H3C2H2CH4CHPH2CHC5HCH2C3H2C2HSH3C3H2C4HC2H2PH2C2HC7HFeH4C2H3CPCSH5CHCHC2H2CHC2HC4HCHC5HFeCHC3HCH2CH2CHCHCHCH3C3H3CHCHFeHC2HC3H2C2SC4HCHC3HPHCHCHFeS2CS2FeCSFeCHS2CH3CH4C2HC2SFeHCSC2HCHC3PHCH2C3HCHC2HC4H4CHCH4C2HCH2CH4CHC4HC3H2C9FeHCH2C2H3CH2C2H2PCH3C2HC2H4C2FeCH3C3HC2H2CHC2H2FeHC3HSFeS2FeS2FeCFeSHSFeS2FeS2FeSFeS3C3HCHCHC10H2C6H3C7H4C6H3C7H3CSH2CPCHCHC9HCH2C2H6CH2C3H5SPHCHC2HC7PC14H3CH11CH3SC2H2CHCHC3HCHCH2CHCHCH2CH3CH3CH2C2H3CSHC2H2CH2CHC9H4CHCHC5HSFeCH3C2HCH2CHC2H2C2HPCHCSCHC3HC2H5CHPCHC2HC2PH2CH3S2C4HCHCHCH2C3HCH2FeS2FeS2FeCFeS3FeS2FeS2FeSFeCSHFeS2FeS2FeSFeS3FeS2FeS2FeSFeS3CHCHC6H4C6H4C6H4CH3C7H4C6H4C6H6C5H2C3H3CH3CHC2H2CHCH3C8PC18H22CH4C7PC18H20CH3CPHCH2C3SCH2C3PC9HC9H11C3H7C3PC2HC4HC5HCHCH4CHCHC2H2C3HC2HCH2C3HCHCH3C2HCHC4H2C3HC2H2CHCHC4HCHCHCH5C3H2C2H3C2HCH4C2HCHCHCH3CSCHSCHCHCHC2PC3HPHC4PH2CHCHCHSCHC4HCHPC2H2FeSFeCSHS2FeHSC3SH4C2HC4FeC3HC3HCH3CHCHC5H3SHC3HCHC2H3CHCHPC2HCHCHCSCH3CHCHCHCHCHC2HC2H2C5H2C3H2C3HCSCHCHCH3PC3FeCH2CHCHC3H2C4HCHC2H2CH2C4H7CH3C2HC2H2C3HC2SC4H2CFeHCH7CH4SH4SFeS2FeS2FeCFeSHSFeSCFeS2FeSFeS3C3HCH2CHFeC6H4C6PH2C9H2C6H4C6H2C2H2C6HC3PH2C5PHC8SCH2C3HCSHCH7SCH2FeCHCH4CHCHCH4C2HC5HCHCH3CH3C4PC14HCH4CH7C3H2CHCHC4HC2HC3SC3HC3HCHCH3CH3CH2C5HC2HSCHC4HSC6HC2HC2H6CH5CH6C5HC2H3C2HCHC2H4PCH2PC2HC2H2C5HCHSC2H2FeS2FeS2FeHFeS3FeS2FeS2FeSFeHSHFeS2FeS2FeSFeS3FeS2FeS2FeSFeS3HC9H4C6H4C6H6CH2C6H4C6H4C6HCH2CHCH2C2H3C4H3C6HCH2CHCH2C5HCSHC3H2C6PC9HC8H11C3H6C2HCHC2HCH2C4H2C7PC18H20C4H3CHC8H2C4H2C2PH2CH2CHCH3C4PH2C3HC2H2C3H2C2H3CH3C2HC5H2CHC3HC3HC5HCHC2P2HC2HC2HC2HC2H2C2HCH4CHPCH6CH2SCHC5HC2HCH2FeSCFeS2FeCFeSCSFeS2FeS2FeSFeHS2FeS2FeS2FeHFeS3FeS2FeS2FeSFeS3CPC6HC7H5C6H3C7H7C6H4C6H4C6H4C6PC13H3CH4CH6C4PCH3C5H2CH3C2HCH4PHC2PC8H2CHC2H6SCHC2H3CHC6PC16H17C2HCHC4HC4HC2PCH2CH2C2HCHC8HC2H6C2H9CH2CHCH2CH3CH2C2H3CH4CHCH2C3HC3HC3SHC2SCH5CH3CHCSHC4H3C2HCHCH2CSC2H2S2CSFeH2CFeS2FeS2FeSFeS3FeS2FeS2FeSFeS3C2H3C6H4C6H3SC6H4C6H3C7HCH2C2H2C3H2C2H8CH2CHCH4C6SH3C2H2C2HCH2CH2CH2CH3C6H3CFeH2C2HCH3C3HC2HC3H2CHSC4HCPC3HCPHC2H3PHCHC6H2CHC2PC9H2C7H2C2H9CH2CH3C7H2C2HC3HPHC2H7C2HC3HC2HC3HC3HCFeHCH3C2H3C4HC2H3CSHFeHCH7CH4C5HCHCSCHPC2H2C10HCHC4S2FeSFeSCFeHSCFeHSHC7HC2H3C3H4C2H2C2H3C3HC4H2C2H2CH2C4H3CHC3HCHC9HC2HCH6C2HC2HC3HC2HC2H3CHCHSCHCH2C3H2CHCPHCHSH3CH3CHCH4C5H2C2H5C2HC2H2CHCHCFeS2FeS2FeCFeSHSFeS2FeS2FeSFePS2FeS2FeS2FeSFeS3FeS2FeS2FeSFeS3C2HC2HCHC8H4C7H3C7H5CHC6H4C6H4C6H3CHCHC2HC5H3C7PC13H10SH3CH4C2H2PHPC2HCPCHCH2C2HCH3C8PC4HCH2C6H8CH2CH7CH2C5H2C6PC18H11CH4C4H3C2H2C3HC2HCHCHC3H6C2SC2H2CH2CH2C4H2C2H3CHC5H4CH2C2H3CHCH2CHC3SC5HCHCHCHCH3CPH2CH2CPHC2H3C3HCH3C7HCHCHCH2C4H3C4H2C2H2C2H2C2HCHC7HFeS3FeC3FeS2FeS2FeSFeS3FeS2FeS2FeSFeS3CHCPHC6H4C6H4C6H2C9H2C7PCH5C4H3C2H3CH5CH2C3HCHC7PC14H15CH3SC3HC2HCHCPCHCH2SH4CHCHC2HC2HCHC2SCHC2HCHCHCH2C2HPHC2H2CHC3HCHCHC2H5C2HC4HC3HCHCH4C3H4CPH2C10HCHC2HC4H7C2HCHCHSC2HCSCHC2HCH6C2H2C3FeC2H2CH3C2HC4HSCHCFeSHFePC2S3FeC2H2CHC7H5CHC5H2CH2C2S2HCHC3SCHC2H2CHC3HCHCHCH7C2H2C4HC2H4C3HC7H4CH3PFeH3CH2C2H2C2H2CHC4HC2H3C4H2CHCHCH2C3H2C3H5C2HCHPC2HCH2C5FeC3HCHPC
_chemical_formula_sum              "Fe256 S512 C3840 H3072 P128"
_cell_length_a       87.1632
_cell_length_b       46.3837
_cell_length_c       64.8208
_cell_angle_alpha    89.6713
_cell_angle_beta     88.956
_cell_angle_gamma    90.1719

_space_group_name_H-M_alt    "P 1"
_space_group_IT_number       1

loop_
  _space_group_symop_operation_xyz
  'x, y, z'

loop_
  _atom_site_type_symbol
  _atom_site_label
  _atom_site_symmetry_multiplicity
  _atom_site_fract_x
  _atom_site_fract_y
  _atom_site_fract_z
  _atom_site_occupancy
  Fe  Fe1       1.0  0.07781  0.07224  0.30615  1.0000
  S   S1        1.0  0.10140  0.09082  0.29773  1.0000
  Fe  Fe2       1.0  0.04312  0.06941  0.29669  1.0000
  C   C1        1.0  0.01023  0.09162  0.07540  1.0000
  S   S2        1.0  0.02224  0.07602  0.27554  1.0000
  H   H1        1.0  0.21360  0.10299  0.09690  1.0000
  S   S3        1.0  0.05845  0.10440  0.30875  1.0000
  S   S4        1.0  0.06292  0.03841  0.29148  1.0000
  Fe  Fe3       1.0  0.22078  0.04104  0.28767  1.0000
  C   C2        1.0  0.22739  0.00155  0.17606  1.0000
  S   S5        1.0  0.23778  0.03756  0.25985  1.0000
  Fe  Fe4       1.0  0.18687  0.03719  0.30247  1.0000
  C   C3        1.0  0.03794  0.04532  0.01752  1.0000
  C   C4        1.0  0.23554  0.04866  0.03983  1.0000
  S   S6        1.0  0.20057  0.07156  0.28576  1.0000
  S   S7        1.0  0.20645  0.00543  0.30200  1.0000
  C   C5        1.0  0.11850  0.07030  0.29826  1.0000
  C   C6        1.0  0.03388  0.06029  0.99968  1.0000
  C   C7        1.0  0.14660  0.06905  0.29875  1.0000
  H   H2        1.0  0.20403  0.09482  0.17657  1.0000
  H   H3        1.0  0.21862  0.07490  0.05575  1.0000
  H   H4        1.0  0.05459  0.16188  0.28051  1.0000
  H   H5        1.0  0.05772  0.21564  0.31125  1.0000
  C   C8        1.0  0.02058  0.07700  0.99964  1.0000
  H   H6        1.0  0.21918  0.40616  0.24537  1.0000
  H   H7        1.0  0.23975  0.99238  0.31738  1.0000
  C   C9        1.0  0.22667  0.07390  0.15019  1.0000
  H   H8        1.0  0.04475  0.25782  0.29649  1.0000
  C   C10       1.0  0.24525  0.98819  0.10939  1.0000
  H   H9        1.0  0.07683  0.31018  0.28422  1.0000
  H   H10       1.0  0.23602  0.44830  0.22875  1.0000
  H   H11       1.0  0.16111  0.15058  0.26491  1.0000
  H   H12       1.0  0.11598  0.46891  0.29977  1.0000
  C   C11       1.0  0.01587  0.10161  0.25664  1.0000
  C   C12       1.0  0.02489  0.12498  0.24992  1.0000
  H   H13       1.0  0.09780  0.34251  0.27240  1.0000
  H   H14       1.0  0.03626  0.12766  0.25597  1.0000
  H   H15       1.0  0.03193  0.03519  0.04900  1.0000
  C   C13       1.0  0.03414  0.21966  0.26396  1.0000
  C   C14       1.0  0.02068  0.29951  0.28733  1.0000
  H   H16       1.0  0.23973  0.15557  0.00209  1.0000
  H   H17       1.0  0.20619  0.35365  0.29772  1.0000
  H   H18       1.0  0.14373  0.46032  0.30345  1.0000
  C   C15       1.0  0.01928  0.14469  0.23510  1.0000
  H   H19       1.0  0.00714  0.08114  0.31963  1.0000
  C   C16       1.0  0.22163  0.11412  0.12706  1.0000
  H   H20       1.0  0.05204  0.38418  0.30744  1.0000
  H   H21       1.0  0.21549  0.00680  0.17926  1.0000
  H   H22       1.0  0.15509  0.42485  0.27757  1.0000
  C   C17       1.0  0.24107  0.01937  0.07971  1.0000
  H   H23       1.0  0.02588  0.14803  0.11410  1.0000
  C   C18       1.0  0.20477  0.08212  0.19055  1.0000
  C   C19       1.0  0.13212  0.02480  0.29622  1.0000
  C   C20       1.0  0.02166  0.47712  0.12414  1.0000
  H   H24       1.0  0.10738  0.02895  0.29645  1.0000
  C   C21       1.0  0.01839  0.41501  0.00948  1.0000
  C   C22       1.0  0.19783  0.44224  0.28772  1.0000
  C   C23       1.0  0.21198  0.06620  0.02465  1.0000
  C   C24       1.0  0.01874  0.18994  0.28749  1.0000
  C   C25       1.0  0.06261  0.34456  0.29640  1.0000
  H   H25       1.0  0.13303  0.10782  0.29936  1.0000
  H   H26       1.0  0.03046  0.15209  0.29921  1.0000
  C   C26       1.0  0.21729  0.06524  0.11571  1.0000
  C   C27       1.0  0.21780  0.04778  0.21234  1.0000
  C   C28       1.0  0.23921  0.03467  0.02125  1.0000
  H   H27       1.0  0.23230  0.02596  0.99015  1.0000
  C   C29       1.0  0.07579  0.33319  0.28668  1.0000
  C   C30       1.0  0.01506  0.06322  0.03522  1.0000
  H   H28       1.0  0.02642  0.16264  0.23015  1.0000
  H   H29       1.0  0.01623  0.29747  0.30298  1.0000
  C   C31       1.0  0.01116  0.07841  0.01728  1.0000
  C   C32       1.0  0.22211  0.05470  0.13478  1.0000
  C   C33       1.0  0.20597  0.04994  0.22710  1.0000
  H   H30       1.0  0.18330  0.09839  0.20275  1.0000
  C   C34       1.0  0.21581  0.05241  0.00616  1.0000
  C   C35       1.0  0.22637  0.10371  0.14619  1.0000
  C   C36       1.0  0.08658  0.38119  0.28289  1.0000
  H   H31       1.0  0.18447  0.06993  0.23524  1.0000
  S   S8        1.0  0.16338  0.01831  0.29583  1.0000
  C   C37       1.0  0.08771  0.35144  0.27996  1.0000
  C   C38       1.0  0.02863  0.04691  0.03529  1.0000
  H   H32       1.0  0.02328  0.41541  0.02472  1.0000
  H   H33       1.0  0.22158  0.13711  0.12399  1.0000
  H   H34       1.0  0.25433  0.15562  0.10039  1.0000
  H   H35       1.0  0.04819  0.03218  0.01747  1.0000
  H   H36       1.0  0.04029  0.41603  0.99377  1.0000
  H   H37       1.0  0.03516  0.23812  0.25373  1.0000
  H   H38       1.0  0.03604  0.30580  0.23093  1.0000
  H   H39       1.0  0.04325  0.12710  0.08734  1.0000
  H   H40       1.0  0.09577  0.39537  0.27760  1.0000
  C   C39       1.0  0.03131  0.12059  0.08819  1.0000
  C   C40       1.0  0.03556  0.31023  0.28350  1.0000
  C   C41       1.0  0.16490  0.15502  0.31693  1.0000
  C   C42       1.0  0.03127  0.17123  0.28964  1.0000
  P   P1        1.0  0.16105  0.41247  0.32157  1.0000
  C   C43       1.0  0.06172  0.37449  0.29956  1.0000
  H   H41       1.0  0.02580  0.36836  0.30175  1.0000
  C   C44       1.0  0.13273  0.08461  0.29889  1.0000
  H   H42       1.0  0.15599  0.30850  0.30586  1.0000
  C   C45       1.0  0.05307  0.26112  0.30840  1.0000
  C   C46       1.0  0.05644  0.28888  0.31564  1.0000
  C   C47       1.0  0.19294  0.08422  0.20537  1.0000
  C   C48       1.0  0.21118  0.37886  0.27037  1.0000
  C   C49       1.0  0.16892  0.15058  0.29623  1.0000
  C   C50       1.0  0.21712  0.09489  0.11180  1.0000
  H   H43       1.0  0.20982  0.44684  0.29047  1.0000
  H   H44       1.0  0.15747  0.08035  0.29928  1.0000
  H   H45       1.0  0.13465  0.16592  0.27445  1.0000
  H   H46       1.0  0.02458  0.45900  0.11434  1.0000
  H   H47       1.0  0.24413  0.10595  0.04689  1.0000
  C   C51       1.0  0.25226  0.43826  0.31640  1.0000
  C   C52       1.0  0.17633  0.44068  0.26466  1.0000
  C   C53       1.0  0.01695  0.29358  0.25066  1.0000
  H   H48       1.0  0.20151  0.07865  0.02582  1.0000
  H   H49       1.0  0.18054  0.14409  0.29216  1.0000
  H   H50       1.0  0.19322  0.42868  0.31891  1.0000
  C   C54       1.0  0.25053  0.98674  0.30985  1.0000
  C   C55       1.0  0.04649  0.20081  0.26607  1.0000
  H   H51       1.0  0.05246  0.32053  0.25959  1.0000
  C   C56       1.0  0.04509  0.17676  0.27903  1.0000
  S   S9        1.0  0.22795  0.05931  0.31839  1.0000
  H   H52       1.0  0.22225  0.03164  0.13741  1.0000
  H   H53       1.0  0.22997  0.36665  0.31482  1.0000
  H   H54       1.0  0.13184  0.00177  0.29441  1.0000
  H   H55       1.0  0.12748  0.17417  0.31092  1.0000
  C   C57       1.0  0.24892  0.08245  0.18295  1.0000
  C   C58       1.0  0.11992  0.44902  0.30672  1.0000
  C   C59       1.0  0.21733  0.06387  0.19394  1.0000
  C   C60       1.0  0.24535  0.46141  0.30613  1.0000
  P   P2        1.0  0.04734  0.32045  0.30494  1.0000
  C   C61       1.0  0.23851  0.39439  0.28996  1.0000
  P   P3        1.0  0.24820  0.04628  0.06154  1.0000
  C   C62       1.0  0.24331  0.46569  0.23378  1.0000
  C   C63       1.0  0.24973  0.08087  0.07416  1.0000
  C   C64       1.0  0.14313  0.16310  0.28630  1.0000
  C   C65       1.0  0.19355  0.06817  0.22365  1.0000
  H   H56       1.0  0.22980  0.11893  0.15788  1.0000
  H   H57       1.0  0.21367  0.05042  0.10393  1.0000
  C   C66       1.0  0.22931  0.03641  0.00457  1.0000
  C   C67       1.0  0.24813  0.00904  0.24724  1.0000
  C   C68       1.0  0.22066  0.98786  0.09273  1.0000
  H   H58       1.0  0.20065  0.37291  0.26284  1.0000
  C   C69       1.0  0.21431  0.36800  0.28998  1.0000
  C   C70       1.0  0.03177  0.30406  0.24671  1.0000
  C   C71       1.0  0.22605  0.00846  0.07845  1.0000
  H   H59       1.0  0.05709  0.20460  0.25749  1.0000
  C   C72       1.0  0.22158  0.39764  0.26058  1.0000
  C   C73       1.0  0.04107  0.31239  0.26305  1.0000
  C   C74       1.0  0.16693  0.42999  0.28070  1.0000
  H   H60       1.0  0.19901  0.45553  0.25585  1.0000
  C   C75       1.0  0.22174  0.06416  0.04150  1.0000
  H   H61       1.0  0.01089  0.22916  0.27302  1.0000
  H   H62       1.0  0.07268  0.41578  0.29510  1.0000
  C   C76       1.0  0.17283  0.42629  0.30056  1.0000
  C   C77       1.0  0.23842  0.02346  0.17328  1.0000
  H   H63       1.0  0.20843  0.05434  0.99293  1.0000
  H   H64       1.0  0.24254  0.08341  0.21552  1.0000
  C   C78       1.0  0.11825  0.04023  0.29720  1.0000
  C   C79       1.0  0.25058  0.09061  0.20364  1.0000
  C   C80       1.0  0.19176  0.44698  0.26820  1.0000
  C   C81       1.0  0.13564  0.44393  0.30873  1.0000
  C   C82       1.0  0.24827  0.13321  0.07268  1.0000
  C   C83       1.0  0.02156  0.13238  0.10326  1.0000
  C   C84       1.0  0.14633  0.03900  0.29719  1.0000
  P   P4        1.0  0.23278  0.06083  0.17503  1.0000
  C   C85       1.0  0.02037  0.21441  0.27478  1.0000
  C   C86       1.0  0.15802  0.15440  0.28092  1.0000
  H   H65       1.0  0.22741  0.03376  0.21547  1.0000
  C   C87       1.0  0.25477  0.08278  0.09459  1.0000
  H   H66       1.0  0.20657  0.03774  0.24139  1.0000
  H   H67       1.0  0.24641  0.15282  0.06388  1.0000
  H   H68       1.0  0.24689  0.48527  0.18185  1.0000
  H   H69       1.0  0.17162  0.44434  0.24953  1.0000
  C   C88       1.0  0.02570  0.10025  0.07431  1.0000
  H   H70       1.0  0.03349  0.09130  0.06290  1.0000
  C   C89       1.0  0.18840  0.43200  0.30383  1.0000
  C   C90       1.0  0.02796  0.41558  0.99191  1.0000
  H   H71       1.0  0.21844  0.01567  0.06650  1.0000
  Fe  Fe5       1.0  0.20687  0.08755  0.31755  1.0000
  C   C91       1.0  0.24691  0.10643  0.06311  1.0000
  C   C92       1.0  0.22792  0.37557  0.29970  1.0000
  H   H72       1.0  0.24203  0.45956  0.29018  1.0000
  C   C93       1.0  0.13907  0.16751  0.30703  1.0000
  C   C94       1.0  0.10920  0.42916  0.31453  1.0000
  C   C95       1.0  0.14077  0.41831  0.31797  1.0000
  H   H73       1.0  0.25252  0.44153  0.16203  1.0000
  C   C96       1.0  0.15802  0.35376  0.31290  1.0000
  C   C97       1.0  0.16236  0.32476  0.31408  1.0000
  C   C98       1.0  0.02566  0.36097  0.31764  1.0000
  C   C99       1.0  0.25287  0.13481  0.09316  1.0000
  H   H74       1.0  0.09703  0.43379  0.31365  1.0000
  C   C100      1.0  0.25366  0.01592  0.16854  1.0000
  C   C101      1.0  0.24559  0.13601  0.99759  1.0000
  C   C102      1.0  0.23506  0.40568  0.27042  1.0000
  C   C103      1.0  0.07360  0.39268  0.29270  1.0000
  C   C104      1.0  0.06042  0.23706  0.31671  1.0000
  H   H75       1.0  0.24974  0.02261  0.01943  1.0000
  H   H76       1.0  0.14845  0.35970  0.30337  1.0000
  C   C105      1.0  0.25066  0.00867  0.09511  1.0000
  C   C106      1.0  0.25410  0.46248  0.15476  1.0000
  H   H77       1.0  0.24286  0.42054  0.26264  1.0000
  H   H78       1.0  0.22585  0.48412  0.25399  1.0000
  H   H79       1.0  0.01941  0.22994  0.31947  1.0000
  S   S10       1.0  0.20654  0.13689  0.32274  1.0000
  C   C107      1.0  0.01140  0.29135  0.27097  1.0000
  H   H80       1.0  0.00976  0.28715  0.23797  1.0000
  C   C108      1.0  0.14984  0.16277  0.32252  1.0000
  C   C109      1.0  0.00745  0.23445  0.32263  1.0000
  H   H81       1.0  0.25527  0.03019  0.29955  1.0000
  C   C110      1.0  0.23750  0.48598  0.24812  1.0000
  P   P5        1.0  0.25601  0.40523  0.30255  1.0000
  C   C111      1.0  0.25638  0.10965  0.10396  1.0000
  S   S11       1.0  0.07440  0.05434  0.33806  1.0000
  H   H82       1.0  0.03047  0.12759  0.40741  1.0000
  S   S12       1.0  0.05147  0.11057  0.36892  1.0000
  C   C112      1.0  0.03131  0.08239  0.41420  1.0000
  H   H83       1.0  0.19841  0.44786  0.43607  1.0000
  C   C113      1.0  0.18572  0.41234  0.44910  1.0000
  C   C114      1.0  0.14088  0.47021  0.42958  1.0000
  C   C115      1.0  0.00669  0.10292  0.32562  1.0000
  Fe  Fe6       1.0  0.04318  0.28693  0.43853  1.0000
  S   S13       1.0  0.02904  0.30167  0.41175  1.0000
  S   S14       1.0  0.03417  0.27432  0.47115  1.0000
  Fe  Fe7       1.0  0.07357  0.29233  0.41262  1.0000
  S   S15       1.0  0.06118  0.30760  0.38458  1.0000
  S   S16       1.0  0.09823  0.27905  0.40556  1.0000
  Fe  Fe8       1.0  0.04744  0.33554  0.40597  1.0000
  S   S17       1.0  0.04094  0.38266  0.39949  1.0000
  Fe  Fe9       1.0  0.04420  0.27260  0.39247  1.0000
  S   S18       1.0  0.03629  0.24441  0.36615  1.0000
  S   S19       1.0  0.06091  0.32265  0.43407  1.0000
  S   S20       1.0  0.05717  0.25581  0.41943  1.0000
  Fe  Fe10      1.0  0.18390  0.32315  0.42018  1.0000
  S   S21       1.0  0.19053  0.30717  0.38862  1.0000
  S   S22       1.0  0.16053  0.34085  0.42998  1.0000
  Fe  Fe11      1.0  0.21738  0.32139  0.43610  1.0000
  S   S23       1.0  0.22641  0.30448  0.40551  1.0000
  S   S24       1.0  0.22924  0.33152  0.46697  1.0000
  Fe  Fe12      1.0  0.21064  0.33748  0.39129  1.0000
  S   S25       1.0  0.21741  0.36628  0.36415  1.0000
  Fe  Fe13      1.0  0.20555  0.27504  0.40492  1.0000
  S   S26       1.0  0.20507  0.22583  0.39900  1.0000
  S   S27       1.0  0.20295  0.35568  0.42153  1.0000
  S   S28       1.0  0.19761  0.28957  0.43675  1.0000
  C   C116      1.0  0.11533  0.29640  0.41301  1.0000
  C   C117      1.0  0.12944  0.28529  0.40588  1.0000
  C   C118      1.0  0.14338  0.29856  0.41107  1.0000
  C   C119      1.0  0.14332  0.32291  0.42367  1.0000
  C   C120      1.0  0.12923  0.33362  0.43120  1.0000
  C   C121      1.0  0.11526  0.32068  0.42569  1.0000
  H   H84       1.0  0.12958  0.26619  0.39642  1.0000
  H   H85       1.0  0.15416  0.28981  0.40552  1.0000
  H   H86       1.0  0.12913  0.35179  0.44154  1.0000
  H   H87       1.0  0.10448  0.32919  0.43145  1.0000
  C   C122      1.0  0.20596  0.16109  0.34428  1.0000
  C   C123      1.0  0.20419  0.15160  0.36475  1.0000
  C   C124      1.0  0.20390  0.17168  0.38114  1.0000
  C   C125      1.0  0.20538  0.20159  0.37746  1.0000
  C   C126      1.0  0.20697  0.21110  0.35697  1.0000
  C   C127      1.0  0.20719  0.19102  0.34058  1.0000
  H   H88       1.0  0.20310  0.12877  0.36796  1.0000
  H   H89       1.0  0.20260  0.16395  0.39685  1.0000
  H   H90       1.0  0.20813  0.23390  0.35374  1.0000
  H   H91       1.0  0.02157  0.22258  0.58275  1.0000
  C   C128      1.0  0.21057  0.46448  0.36595  1.0000
  C   C129      1.0  0.21469  0.45066  0.34760  1.0000
  C   C130      1.0  0.21670  0.42061  0.34728  1.0000
  C   C131      1.0  0.21429  0.40395  0.36518  1.0000
  C   C132      1.0  0.20959  0.41766  0.38337  1.0000
  C   C133      1.0  0.20774  0.44777  0.38372  1.0000
  C   C134      1.0  0.19903  0.38279  0.47383  1.0000
  C   C135      1.0  0.23927  0.00366  0.40588  1.0000
  H   H92       1.0  0.20752  0.40525  0.39724  1.0000
  H   H93       1.0  0.20381  0.45803  0.39773  1.0000
  C   C136      1.0  0.05590  0.44600  0.34718  1.0000
  C   C137      1.0  0.06143  0.41745  0.34740  1.0000
  C   C138      1.0  0.05696  0.39777  0.36315  1.0000
  C   C139      1.0  0.04706  0.40650  0.37916  1.0000
  C   C140      1.0  0.04172  0.43514  0.37910  1.0000
  C   C141      1.0  0.04609  0.45476  0.36326  1.0000
  H   H94       1.0  0.22012  0.41033  0.33305  1.0000
  H   H95       1.0  0.06112  0.37583  0.36288  1.0000
  H   H96       1.0  0.03408  0.44221  0.39138  1.0000
  H   H97       1.0  0.25353  0.01666  0.50569  1.0000
  C   C142      1.0  0.04870  0.14818  0.36713  1.0000
  C   C143      1.0  0.04415  0.16143  0.34884  1.0000
  C   C144      1.0  0.04053  0.19097  0.34863  1.0000
  C   C145      1.0  0.04178  0.20766  0.36653  1.0000
  C   C146      1.0  0.04694  0.19453  0.38457  1.0000
  C   C147      1.0  0.05036  0.16497  0.38484  1.0000
  H   H98       1.0  0.01425  0.24173  0.40263  1.0000
  H   H99       1.0  0.25232  0.46999  0.42568  1.0000
  H   H100      1.0  0.04790  0.20683  0.39851  1.0000
  H   H101      1.0  0.05416  0.15499  0.39890  1.0000
  H   H102      1.0  0.03319  0.15679  0.49058  1.0000
  C   C148      1.0  0.12676  0.38022  0.37973  1.0000
  C   C149      1.0  0.24560  0.34997  0.47706  1.0000
  C   C150      1.0  0.24657  0.35362  0.49858  1.0000
  C   C151      1.0  0.09942  0.37967  0.37370  1.0000
  H   H103      1.0  0.23729  0.34585  0.50840  1.0000
  C   C152      1.0  0.11251  0.39428  0.38049  1.0000
  C   C153      1.0  0.14254  0.25580  0.35581  1.0000
  H   H104      1.0  0.05602  0.13960  0.43387  1.0000
  H   H105      1.0  0.15738  0.17253  0.39106  1.0000
  H   H106      1.0  0.17608  0.37431  0.46363  1.0000
  H   H107      1.0  0.15480  0.45138  0.45326  1.0000
  H   H108      1.0  0.19363  0.33167  0.34433  1.0000
  H   H109      1.0  0.24526  0.27239  0.60742  1.0000
  C   C154      1.0  0.01803  0.28382  0.55403  1.0000
  C   C155      1.0  0.25340  0.99420  0.50118  1.0000
  H   H110      1.0  0.20907  0.03303  0.43206  1.0000
  C   C156      1.0  0.11419  0.40395  0.32414  1.0000
  C   C157      1.0  0.14124  0.41931  0.43798  1.0000
  C   C158      1.0  0.17507  0.31674  0.32561  1.0000
  H   H111      1.0  0.11503  0.31385  0.36420  1.0000
  H   H112      1.0  0.02469  0.29663  0.54311  1.0000
  C   C159      1.0  0.12512  0.43675  0.41037  1.0000
  C   C160      1.0  0.13037  0.41416  0.42285  1.0000
  P   P6        1.0  0.11071  0.43000  0.39128  1.0000
  C   C161      1.0  0.09257  0.43316  0.40502  1.0000
  C   C162      1.0  0.22927  0.31437  0.65533  1.0000
  C   C163      1.0  0.08623  0.40912  0.41540  1.0000
  C   C164      1.0  0.07190  0.41108  0.42527  1.0000
  C   C165      1.0  0.06389  0.43712  0.42519  1.0000
  C   C166      1.0  0.02766  0.06868  0.45001  1.0000
  C   C167      1.0  0.01213  0.15873  0.50810  1.0000
  H   H113      1.0  0.14545  0.40147  0.44718  1.0000
  C   C168      1.0  0.24346  0.44613  0.51420  1.0000
  C   C169      1.0  0.22146  0.99524  0.44171  1.0000
  S   S29       1.0  0.03765  0.05074  0.32848  1.0000
  H   H114      1.0  0.12602  0.39252  0.42092  1.0000
  C   C170      1.0  0.16609  0.37483  0.32383  1.0000
  H   H115      1.0  0.09219  0.38865  0.41559  1.0000
  H   H116      1.0  0.06673  0.39215  0.43244  1.0000
  H   H117      1.0  0.05253  0.43821  0.43219  1.0000
  C   C171      1.0  0.25410  0.34838  0.64199  1.0000
  H   H118      1.0  0.04276  0.14867  0.33510  1.0000
  H   H119      1.0  0.13705  0.39108  0.38462  1.0000
  C   C172      1.0  0.02467  0.25890  0.56217  1.0000
  C   C173      1.0  0.10195  0.13113  0.34854  1.0000
  C   C174      1.0  0.23933  0.43110  0.43235  1.0000
  H   H120      1.0  0.06921  0.41049  0.33530  1.0000
  C   C175      1.0  0.07043  0.46148  0.41574  1.0000
  H   H121      1.0  0.25228  0.34362  0.36498  1.0000
  C   C176      1.0  0.01486  0.17620  0.42675  1.0000
  C   C177      1.0  0.16859  0.46124  0.34414  1.0000
  C   C178      1.0  0.22727  0.02254  0.41057  1.0000
  H   H122      1.0  0.22230  0.39453  0.47973  1.0000
  H   H123      1.0  0.03361  0.07652  0.39826  1.0000
  C   C179      1.0  0.01837  0.20521  0.42239  1.0000
  P   P7        1.0  0.22901  0.44594  0.45431  1.0000
  C   C180      1.0  0.13008  0.46500  0.41432  1.0000
  C   C181      1.0  0.07437  0.26796  0.33980  1.0000
  H   H124      1.0  0.22191  0.44402  0.49886  1.0000
  H   H125      1.0  0.00726  0.32124  0.47503  1.0000
  C   C182      1.0  0.24555  0.34762  0.56596  1.0000
  C   C183      1.0  0.01116  0.21960  0.40624  1.0000
  C   C184      1.0  0.23768  0.32903  0.55293  1.0000
  C   C185      1.0  0.14653  0.44734  0.44133  1.0000
  H   H126      1.0  0.21826  0.16154  0.64489  1.0000
  C   C186      1.0  0.24999  0.44801  0.42112  1.0000
  C   C187      1.0  0.09393  0.14620  0.36388  1.0000
  H   H127      1.0  0.08200  0.14100  0.36721  1.0000
  H   H128      1.0  0.16145  0.39487  0.36524  1.0000
  C   C188      1.0  0.01673  0.37576  0.33225  1.0000
  H   H129      1.0  0.08971  0.47885  0.39886  1.0000
  C   C189      1.0  0.03037  0.06103  0.42944  1.0000
  C   C190      1.0  0.02585  0.09769  0.45533  1.0000
  H   H130      1.0  0.02567  0.25714  0.51252  1.0000
  Fe  Fe14      1.0  0.21225  0.02534  0.33234  1.0000
  P   P8        1.0  0.02473  0.15688  0.44690  1.0000
  H   H131      1.0  0.22337  0.31224  0.62323  1.0000
  C   C191      1.0  0.11731  0.13781  0.34408  1.0000
  C   C192      1.0  0.15826  0.11519  0.35831  1.0000
  C   C193      1.0  0.18355  0.33775  0.33575  1.0000
  H   H132      1.0  0.08836  0.39024  0.37381  1.0000
  S   S30       1.0  0.21702  0.99978  0.36144  1.0000
  C   C194      1.0  0.22309  0.48261  0.44909  1.0000
  C   C195      1.0  0.00970  0.13645  0.35371  1.0000
  C   C196      1.0  0.02951  0.11139  0.41945  1.0000
  H   H133      1.0  0.03618  0.25282  0.55743  1.0000
  H   H134      1.0  0.22466  0.03998  0.39999  1.0000
  C   C197      1.0  0.23424  0.44519  0.49677  1.0000
  C   C198      1.0  0.23812  0.24604  0.63346  1.0000
  C   C199      1.0  0.16632  0.09583  0.37063  1.0000
  H   H135      1.0  0.08118  0.16317  0.43731  1.0000
  C   C200      1.0  0.21199  0.40045  0.47168  1.0000
  H   H136      1.0  0.13857  0.34014  0.37428  1.0000
  H   H137      1.0  0.17222  0.13871  0.41217  1.0000
  H   H138      1.0  0.23831  0.44518  0.52951  1.0000
  H   H139      1.0  0.10585  0.38879  0.33043  1.0000
  H   H140      1.0  0.04176  0.47659  0.36342  1.0000
  H   H141      1.0  0.09009  0.33924  0.36348  1.0000
  C   C201      1.0  0.15730  0.26289  0.36218  1.0000
  C   C202      1.0  0.21184  0.42455  0.45847  1.0000
  H   H142      1.0  0.03485  0.20895  0.46813  1.0000
  C   C203      1.0  0.24445  0.39118  0.40909  1.0000
  C   C204      1.0  0.10038  0.35084  0.36764  1.0000
  H   H143      1.0  0.17284  0.47397  0.39537  1.0000
  H   H144      1.0  0.06445  0.99358  0.39055  1.0000
  H   H145      1.0  0.18615  0.38266  0.34242  1.0000
  H   H146      1.0  0.07609  0.22161  0.33958  1.0000
  C   C205      1.0  0.01598  0.25216  0.50298  1.0000
  H   H147      1.0  0.04018  0.30903  0.34918  1.0000
  S   S31       1.0  0.19179  0.05478  0.33380  1.0000
  C   C206      1.0  0.04348  0.17261  0.45062  1.0000
  H   H148      1.0  0.08226  0.27046  0.35242  1.0000
  H   H149      1.0  0.06999  0.31336  0.33707  1.0000
  C   C207      1.0  0.21841  0.01843  0.42854  1.0000
  C   C208      1.0  0.12769  0.35137  0.37368  1.0000
  H   H150      1.0  0.02201  0.35991  0.54307  1.0000
  C   C209      1.0  0.09939  0.46510  0.35981  1.0000
  C   C210      1.0  0.04490  0.19848  0.46158  1.0000
  C   C211      1.0  0.05925  0.21152  0.46371  1.0000
  C   C212      1.0  0.07232  0.19889  0.45489  1.0000
  C   C213      1.0  0.07106  0.17289  0.44425  1.0000
  C   C214      1.0  0.05672  0.15966  0.44223  1.0000
  H   H151      1.0  0.00692  0.18119  0.34636  1.0000
  H   H152      1.0  0.09622  0.11424  0.34005  1.0000
  C   C215      1.0  0.13869  0.22705  0.35189  1.0000
  H   H153      1.0  0.17983  0.24673  0.36905  1.0000
  C   C216      1.0  0.01835  0.35215  0.52822  1.0000
  H   H154      1.0  0.16021  0.28506  0.36565  1.0000
  H   H155      1.0  0.17358  0.15225  0.32853  1.0000
  C   C217      1.0  0.17045  0.46223  0.38139  1.0000
  C   C218      1.0  0.20972  0.17836  0.64395  1.0000
  H   H156      1.0  0.03757  0.37160  0.51191  1.0000
  C   C219      1.0  0.24289  0.23057  0.65091  1.0000
  H   H157      1.0  0.02680  0.21683  0.43113  1.0000
  H   H158      1.0  0.12724  0.22199  0.34681  1.0000
  S   S32       1.0  0.06144  0.46946  0.32630  1.0000
  C   C220      1.0  0.24890  0.26061  0.62094  1.0000
  C   C221      1.0  0.24589  0.26117  0.47041  1.0000
  H   H159      1.0  0.17799  0.08952  0.39929  1.0000
  H   H160      1.0  0.22616  0.24688  0.62942  1.0000
  H   H161      1.0  0.08337  0.20946  0.45610  1.0000
  C   C222      1.0  0.25427  0.46805  0.34703  1.0000
  C   C223      1.0  0.11447  0.33658  0.36789  1.0000
  C   C224      1.0  0.18588  0.38875  0.46259  1.0000
  C   C225      1.0  0.24093  0.44583  0.47686  1.0000
  H   H162      1.0  0.12237  0.19068  0.37973  1.0000
  C   C226      1.0  0.16457  0.21260  0.36008  1.0000
  C   C227      1.0  0.16422  0.41760  0.36420  1.0000
  H   H163      1.0  0.17583  0.41594  0.43959  1.0000
  H   H164      1.0  0.16644  0.42172  0.39711  1.0000
  H   H165      1.0  0.17339  0.19628  0.36130  1.0000
  H   H166      1.0  0.06014  0.23188  0.47175  1.0000
  H   H167      1.0  0.17855  0.23756  0.63955  1.0000
  C   C228      1.0  0.12990  0.39864  0.32605  1.0000
  C   C229      1.0  0.08482  0.45966  0.40594  1.0000
  C   C230      1.0  0.23698  0.40232  0.42655  1.0000
  H   H168      1.0  0.23937  0.25863  0.45643  1.0000
  H   H169      1.0  0.24218  0.36920  0.40440  1.0000
  H   H170      1.0  0.22939  0.38834  0.43544  1.0000
  C   C231      1.0  0.06729  0.29214  0.33121  1.0000
  H   H171      1.0  0.03032  0.35198  0.47788  1.0000
  H   H172      1.0  0.24583  0.23908  0.52043  1.0000
  C   C232      1.0  0.24559  0.30722  0.54241  1.0000
  C   C233      1.0  0.20060  0.22645  0.65183  1.0000
  C   C234      1.0  0.11246  0.45552  0.37016  1.0000
  H   H173      1.0  0.23950  0.36489  0.57378  1.0000
  H   H174      1.0  0.01304  0.09057  0.35638  1.0000
  C   C235      1.0  0.12202  0.01028  0.37207  1.0000
  C   C236      1.0  0.12770  0.02549  0.35472  1.0000
  C   C237      1.0  0.12980  0.05536  0.35557  1.0000
  C   C238      1.0  0.12635  0.07028  0.37372  1.0000
  C   C239      1.0  0.12085  0.05531  0.39110  1.0000
  C   C240      1.0  0.11867  0.02544  0.39031  1.0000
  H   H175      1.0  0.01275  0.27225  0.34031  1.0000
  H   H176      1.0  0.09510  0.17930  0.38695  1.0000
  H   H177      1.0  0.08918  0.00362  0.37302  1.0000
  H   H178      1.0  0.19475  0.15238  0.62552  1.0000
  H   H179      1.0  0.23928  0.29347  0.53213  1.0000
  C   C241      1.0  0.19638  0.17307  0.63288  1.0000
  H   H180      1.0  0.03656  0.20067  0.33459  1.0000
  H   H181      1.0  0.22290  0.47787  0.41588  1.0000
  Fe  Fe15      1.0  0.05421  0.08425  0.33977  1.0000
  H   H182      1.0  0.22550  0.33187  0.55060  1.0000
  H   H183      1.0  0.08819  0.45579  0.36315  1.0000
  C   C242      1.0  0.16521  0.43163  0.34496  1.0000
  H   H184      1.0  0.23177  0.23174  0.48813  1.0000
  H   H185      1.0  0.16873  0.07431  0.36507  1.0000
  C   C243      1.0  0.16693  0.43282  0.38234  1.0000
  H   H186      1.0  0.13028  0.01462  0.34036  1.0000
  H   H187      1.0  0.13388  0.06694  0.34197  1.0000
  H   H188      1.0  0.12781  0.09347  0.37426  1.0000
  H   H189      1.0  0.11804  0.06695  0.40511  1.0000
  H   H190      1.0  0.11416  0.01421  0.40382  1.0000
  H   H191      1.0  0.02461  0.33560  0.37466  1.0000
  H   H192      1.0  0.21658  0.46313  0.33370  1.0000
  H   H193      1.0  0.13399  0.27252  0.35425  1.0000
  H   H194      1.0  0.19946  0.36364  0.48348  1.0000
  C   C244      1.0  0.14954  0.20510  0.35473  1.0000
  H   H195      1.0  0.24967  0.17063  0.64733  1.0000
  P   P9        1.0  0.14473  0.16802  0.34931  1.0000
  C   C245      1.0  0.15523  0.14324  0.36530  1.0000
  C   C246      1.0  0.16834  0.24131  0.36416  1.0000
  C   C247      1.0  0.02485  0.34250  0.35869  1.0000
  C   C248      1.0  0.17144  0.10434  0.38997  1.0000
  C   C249      1.0  0.16819  0.13202  0.39722  1.0000
  C   C250      1.0  0.15992  0.15129  0.38507  1.0000
  C   C251      1.0  0.12475  0.15993  0.35478  1.0000
  H   H196      1.0  0.02389  0.10310  0.47137  1.0000
  H   H197      1.0  0.24581  0.00652  0.39162  1.0000
  H   H198      1.0  0.01777  0.15850  0.52285  1.0000
  C   C252      1.0  0.10134  0.16775  0.37497  1.0000
  C   C253      1.0  0.11675  0.17436  0.37065  1.0000
  C   C254      1.0  0.19862  0.43024  0.44705  1.0000
  C   C255      1.0  0.01698  0.25808  0.48163  1.0000
  C   C256      1.0  0.18727  0.22106  0.64077  1.0000
  C   C257      1.0  0.02318  0.34775  0.49144  1.0000
  H   H199      1.0  0.15449  0.10826  0.34328  1.0000
  C   C258      1.0  0.24157  0.24615  0.48833  1.0000
  C   C259      1.0  0.25474  0.40834  0.39769  1.0000
  C   C260      1.0  0.02657  0.11928  0.44004  1.0000
  C   C261      1.0  0.12690  0.46679  0.36437  1.0000
  H   H200      1.0  0.02703  0.05212  0.46185  1.0000
  C   C262      1.0  0.21190  0.20506  0.65360  1.0000
  C   C263      1.0  0.18515  0.19437  0.63132  1.0000
  H   H201      1.0  0.13721  0.45880  0.37140  1.0000
  H   H202      1.0  0.17481  0.19019  0.62277  1.0000
  C   C264      1.0  0.01644  0.24184  0.57635  1.0000
  C   C265      1.0  0.03390  0.32781  0.34419  1.0000
  C   C266      1.0  0.02727  0.35866  0.51063  1.0000
  H   H203      1.0  0.21440  0.99210  0.45548  1.0000
  H   H204      1.0  0.24575  0.34162  0.61141  1.0000
  H   H205      1.0  0.03185  0.03859  0.42529  1.0000
  H   H206      1.0  0.12332  0.12555  0.33231  1.0000
  C   C267      1.0  0.23132  0.32068  0.63436  1.0000
  C   C268      1.0  0.24385  0.33734  0.62769  1.0000
  C   C269      1.0  0.02082  0.15811  0.48975  1.0000
  C   C270      1.0  0.07091  0.24042  0.33257  1.0000
  H   H207      1.0  0.24475  0.38408  0.34277  1.0000
  C   C271      1.0  0.01354  0.15909  0.47058  1.0000
  C   C272      1.0  0.24962  0.25032  0.50656  1.0000
  C   C273      1.0  0.17126  0.47640  0.36231  1.0000
  H   H208      1.0  0.12551  0.48307  0.40575  1.0000
  H   H209      1.0  0.01000  0.37864  0.36436  1.0000
  H   H210      1.0  0.13352  0.37948  0.33417  1.0000
  H   H211      1.0  0.01284  0.14059  0.36951  1.0000
  H   H212      1.0  0.24057  0.00219  0.47395  1.0000
  C   C274      1.0  0.01650  0.36673  0.35284  1.0000
  C   C275      1.0  0.01012  0.33049  0.48981  1.0000
  H   H213      1.0  0.20850  0.19875  0.32487  1.0000
  H   H214      1.0  0.17849  0.29429  0.32649  1.0000
  Fe  Fe16      1.0  0.05830  0.02206  0.32412  1.0000
  C   C276      1.0  0.25443  0.37095  0.33813  1.0000
  H   H215      1.0  0.14156  0.98696  0.40149  1.0000
  C   C277      1.0  0.17919  0.36670  0.33473  1.0000
  H   H216      1.0  0.16919  0.47269  0.32950  1.0000
  C   C278      1.0  0.03479  0.33757  0.32367  1.0000
  C   C279      1.0  0.00993  0.10823  0.34628  1.0000
  H   H217      1.0  0.01025  0.39458  0.32772  1.0000
  H   H218      1.0  0.06420  0.48166  0.41568  1.0000
  Fe  Fe17      1.0  0.04857  0.32795  0.78852  1.0000
  S   S33       1.0  0.03445  0.30993  0.81519  1.0000
  S   S34       1.0  0.04064  0.34162  0.75622  1.0000
  Fe  Fe18      1.0  0.07887  0.32147  0.81213  1.0000
  S   S35       1.0  0.06684  0.30294  0.84011  1.0000
  S   S36       1.0  0.10366  0.33456  0.81702  1.0000
  Fe  Fe19      1.0  0.05316  0.27644  0.81830  1.0000
  S   S37       1.0  0.04795  0.22807  0.82216  1.0000
  Fe  Fe20      1.0  0.04946  0.33779  0.83502  1.0000
  S   S38       1.0  0.04363  0.36323  0.86384  1.0000
  S   S39       1.0  0.06643  0.29257  0.79023  1.0000
  S   S40       1.0  0.06224  0.35795  0.80840  1.0000
  Fe  Fe21      1.0  0.18794  0.28626  0.79807  1.0000
  S   S41       1.0  0.18939  0.30121  0.83069  1.0000
  S   S42       1.0  0.16507  0.27642  0.78325  1.0000
  Fe  Fe22      1.0  0.22311  0.28695  0.79127  1.0000
  S   S43       1.0  0.22677  0.30280  0.82388  1.0000
  S   S44       1.0  0.24389  0.28465  0.76862  1.0000
  Fe  Fe23      1.0  0.20880  0.26951  0.83286  1.0000
  S   S45       1.0  0.20913  0.24233  0.86221  1.0000
  Fe  Fe24      1.0  0.20694  0.33330  0.81915  1.0000
  S   S46       1.0  0.20361  0.38206  0.82459  1.0000
  S   S47       1.0  0.20623  0.25214  0.80080  1.0000
  S   S48       1.0  0.20447  0.31980  0.78590  1.0000
  Fe  Fe25      1.0  0.03700  0.04848  0.93177  1.0000
  S   S49       1.0  0.03407  0.06613  0.89934  1.0000
  S   S50       1.0  0.01501  0.04476  0.95218  1.0000
  Fe  Fe26      1.0  0.07215  0.04379  0.92491  1.0000
  S   S51       1.0  0.07128  0.06052  0.89257  1.0000
  S   S52       1.0  0.09463  0.02536  0.93634  1.0000
  Fe  Fe27      1.0  0.05485  0.09391  0.90477  1.0000
  S   S53       1.0  0.05888  0.14242  0.89854  1.0000
  Fe  Fe28      1.0  0.05080  0.03136  0.88987  1.0000
  H   H219      1.0  0.04068  0.46010  0.80609  1.0000
  S   S54       1.0  0.05687  0.07867  0.93791  1.0000
  C   C280      1.0  0.01071  0.38126  0.71744  1.0000
  Fe  Fe29      1.0  0.18370  0.06595  0.92466  1.0000
  S   S55       1.0  0.18782  0.04824  0.89294  1.0000
  S   S56       1.0  0.16032  0.08564  0.93213  1.0000
  Fe  Fe30      1.0  0.21819  0.06367  0.93570  1.0000
  S   S57       1.0  0.22420  0.04573  0.90419  1.0000
  S   S58       1.0  0.23861  0.06835  0.95783  1.0000
  Fe  Fe31      1.0  0.20782  0.07887  0.89186  1.0000
  S   S59       1.0  0.21146  0.10511  0.86245  1.0000
  Fe  Fe32      1.0  0.20364  0.01659  0.90787  1.0000
  H   H220      1.0  0.23937  0.28932  0.71851  1.0000
  S   S60       1.0  0.20309  0.09835  0.92281  1.0000
  S   S61       1.0  0.19834  0.03246  0.94027  1.0000
  H   H221      1.0  0.16992  0.38093  0.83593  1.0000
  C   C281      1.0  0.11285  0.04193  0.93260  1.0000
  C   C282      1.0  0.11436  0.07141  0.92825  1.0000
  C   C283      1.0  0.12902  0.08436  0.92766  1.0000
  C   C284      1.0  0.14232  0.06789  0.93083  1.0000
  C   C285      1.0  0.14084  0.03822  0.93425  1.0000
  C   C286      1.0  0.12616  0.02538  0.93531  1.0000
  H   H222      1.0  0.10421  0.08440  0.92625  1.0000
  H   H223      1.0  0.13005  0.10735  0.92518  1.0000
  H   H224      1.0  0.15094  0.02544  0.93712  1.0000
  C   C287      1.0  0.00919  0.32908  0.93921  1.0000
  H   H225      1.0  0.24597  0.25887  0.68866  1.0000
  C   C288      1.0  0.11598  0.04454  0.84486  1.0000
  H   H226      1.0  0.14076  0.15014  0.81783  1.0000
  H   H227      1.0  0.01733  0.08811  0.98564  1.0000
  C   C289      1.0  0.05583  0.43135  0.79000  1.0000
  C   C290      1.0  0.20937  0.44665  0.87829  1.0000
  C   C291      1.0  0.21440  0.41793  0.88029  1.0000
  C   C292      1.0  0.21244  0.39773  0.86430  1.0000
  C   C293      1.0  0.20546  0.40598  0.84594  1.0000
  C   C294      1.0  0.20022  0.43460  0.84402  1.0000
  C   C295      1.0  0.20217  0.45482  0.86004  1.0000
  H   H228      1.0  0.21998  0.41129  0.89431  1.0000
  H   H229      1.0  0.21657  0.37590  0.86606  1.0000
  H   H230      1.0  0.19468  0.44120  0.82998  1.0000
  C   C296      1.0  0.22461  0.23476  0.68974  1.0000
  C   C297      1.0  0.20903  0.20415  0.86178  1.0000
  C   C298      1.0  0.20781  0.18888  0.88052  1.0000
  C   C299      1.0  0.20863  0.15861  0.88093  1.0000
  C   C300      1.0  0.21025  0.14321  0.86255  1.0000
  C   C301      1.0  0.21119  0.15843  0.84377  1.0000
  C   C302      1.0  0.21063  0.18878  0.84337  1.0000
  H   H231      1.0  0.20656  0.20054  0.89484  1.0000
  H   H232      1.0  0.20829  0.14722  0.89547  1.0000
  H   H233      1.0  0.21251  0.14673  0.82946  1.0000
  H   H234      1.0  0.21164  0.20023  0.82884  1.0000
  C   C303      1.0  0.05137  0.20433  0.84334  1.0000
  C   C304      1.0  0.04610  0.17561  0.84253  1.0000
  C   C305      1.0  0.04832  0.15626  0.85914  1.0000
  C   C306      1.0  0.05589  0.16541  0.87681  1.0000
  C   C307      1.0  0.06131  0.19401  0.87746  1.0000
  C   C308      1.0  0.05904  0.21336  0.86092  1.0000
  H   H235      1.0  0.04016  0.16832  0.82900  1.0000
  H   H236      1.0  0.04408  0.13435  0.85832  1.0000
  H   H237      1.0  0.06717  0.20131  0.89097  1.0000
  H   H238      1.0  0.06306  0.23533  0.86182  1.0000
  C   C309      1.0  0.04189  0.40111  0.86153  1.0000
  C   C310      1.0  0.04958  0.41891  0.87539  1.0000
  C   C311      1.0  0.04681  0.44874  0.87583  1.0000
  C   C312      1.0  0.03620  0.46110  0.86251  1.0000
  C   C313      1.0  0.02889  0.44345  0.84809  1.0000
  C   C314      1.0  0.03177  0.41356  0.84754  1.0000
  H   H239      1.0  0.05776  0.40969  0.88583  1.0000
  H   H240      1.0  0.05277  0.46206  0.88666  1.0000
  H   H241      1.0  0.02068  0.45283  0.83772  1.0000
  H   H242      1.0  0.02570  0.39998  0.83691  1.0000
  C   C315      1.0  0.12016  0.31576  0.80843  1.0000
  C   C316      1.0  0.12008  0.29805  0.79105  1.0000
  C   C317      1.0  0.13389  0.28581  0.78361  1.0000
  C   C318      1.0  0.14780  0.29084  0.79366  1.0000
  C   C319      1.0  0.14770  0.30765  0.81149  1.0000
  C   C320      1.0  0.13400  0.32034  0.81867  1.0000
  H   H243      1.0  0.10949  0.29454  0.78297  1.0000
  H   H244      1.0  0.13383  0.27278  0.76983  1.0000
  H   H245      1.0  0.15825  0.31169  0.81941  1.0000
  H   H246      1.0  0.13421  0.33429  0.83197  1.0000
  H   H247      1.0  0.08565  0.26005  0.90911  1.0000
  C   C321      1.0  0.11807  0.44321  0.86865  1.0000
  C   C322      1.0  0.02427  0.36037  0.74691  1.0000
  C   C323      1.0  0.15507  0.05538  0.86888  1.0000
  C   C324      1.0  0.02241  0.19517  0.90707  1.0000
  C   C325      1.0  0.25183  0.34308  0.66319  1.0000
  C   C326      1.0  0.16145  0.38344  0.82411  1.0000
  C   C327      1.0  0.04577  0.37127  0.92476  1.0000
  C   C328      1.0  0.20718  0.24792  0.71789  1.0000
  C   C329      1.0  0.05862  0.41578  0.77193  1.0000
  C   C330      1.0  0.04850  0.41790  0.75554  1.0000
  C   C331      1.0  0.03556  0.43554  0.75715  1.0000
  C   C332      1.0  0.03277  0.45160  0.77512  1.0000
  P   P10       1.0  0.01522  0.47191  0.77822  1.0000
  C   C333      1.0  0.09246  0.00499  0.85385  1.0000
  C   C334      1.0  0.23492  0.25604  0.69624  1.0000
  H   H248      1.0  0.01042  0.28639  0.69816  1.0000
  C   C335      1.0  0.23732  0.17852  0.67610  1.0000
  C   C336      1.0  0.07613  0.45421  0.94142  1.0000
  C   C337      1.0  0.23921  0.44527  0.82200  1.0000
  C   C338      1.0  0.23414  0.16768  0.69599  1.0000
  H   H249      1.0  0.18977  0.20192  0.95230  1.0000
  C   C339      1.0  0.09172  0.42989  0.86213  1.0000
  H   H250      1.0  0.07700  0.03953  0.84667  1.0000
  H   H251      1.0  0.24380  0.00418  0.95488  1.0000
  C   C340      1.0  0.01076  0.28046  0.75795  1.0000
  H   H252      1.0  0.23786  0.31981  0.68575  1.0000
  H   H253      1.0  0.05040  0.40496  0.74186  1.0000
  H   H254      1.0  0.02000  0.29341  0.76404  1.0000
  C   C341      1.0  0.08891  0.03314  0.84780  1.0000
  C   C342      1.0  0.25248  0.25781  0.75228  1.0000
  H   H255      1.0  0.03962  0.46668  0.97516  1.0000
  S   S62       1.0  0.05250  0.01238  0.92157  1.0000
  C   C343      1.0  0.14025  0.38917  0.79255  1.0000
  C   C344      1.0  0.01449  0.28006  0.92809  1.0000
  H   H256      1.0  0.01464  0.24482  0.77862  1.0000
  C   C345      1.0  0.01257  0.26448  0.88349  1.0000
  C   C346      1.0  0.22512  0.21749  0.93193  1.0000
  H   H257      1.0  0.09674  0.98822  0.89781  1.0000
  H   H258      1.0  0.20064  0.15251  0.95146  1.0000
  C   C347      1.0  0.10117  0.16017  0.84929  1.0000
  C   C348      1.0  0.09315  0.13890  0.86038  1.0000
  C   C349      1.0  0.10109  0.11930  0.87257  1.0000
  C   C350      1.0  0.11709  0.12021  0.87309  1.0000
  C   C351      1.0  0.12536  0.14101  0.86155  1.0000
  C   C352      1.0  0.11718  0.16161  0.85018  1.0000
  P   P11       1.0  0.14617  0.14147  0.86206  1.0000
  C   C353      1.0  0.15259  0.10501  0.85706  1.0000
  C   C354      1.0  0.15418  0.16651  0.84304  1.0000
  C   C355      1.0  0.14922  0.16585  0.82253  1.0000
  C   C356      1.0  0.16597  0.20599  0.81365  1.0000
  C   C357      1.0  0.17104  0.20678  0.83393  1.0000
  C   C358      1.0  0.16524  0.18710  0.84854  1.0000
  C   C359      1.0  0.15871  0.09693  0.83774  1.0000
  C   C360      1.0  0.16293  0.06828  0.83408  1.0000
  C   C361      1.0  0.15124  0.08406  0.87275  1.0000
  C   C362      1.0  0.15255  0.15052  0.88755  1.0000
  C   C363      1.0  0.14217  0.16003  0.90287  1.0000
  C   C364      1.0  0.14727  0.16546  0.92282  1.0000
  C   C365      1.0  0.16275  0.16222  0.92745  1.0000
  C   C366      1.0  0.17315  0.15331  0.91218  1.0000
  C   C367      1.0  0.16805  0.14688  0.89243  1.0000
  H   H259      1.0  0.09490  0.17572  0.84019  1.0000
  H   H260      1.0  0.08076  0.13773  0.85976  1.0000
  H   H261      1.0  0.09483  0.10333  0.88165  1.0000
  H   H262      1.0  0.12285  0.10477  0.88275  1.0000
  H   H263      1.0  0.12303  0.17880  0.84195  1.0000
  H   H264      1.0  0.17056  0.22119  0.80234  1.0000
  H   H265      1.0  0.17960  0.22255  0.83830  1.0000
  H   H266      1.0  0.16957  0.18818  0.86400  1.0000
  H   H267      1.0  0.16050  0.11256  0.82554  1.0000
  H   H268      1.0  0.14737  0.08984  0.88814  1.0000
  H   H269      1.0  0.13012  0.16253  0.89968  1.0000
  H   H270      1.0  0.13918  0.17120  0.93492  1.0000
  H   H271      1.0  0.16661  0.16558  0.94303  1.0000
  H   H272      1.0  0.18506  0.15027  0.91585  1.0000
  H   H273      1.0  0.17619  0.13882  0.88100  1.0000
  C   C368      1.0  0.17251  0.37060  0.89206  1.0000
  C   C369      1.0  0.16260  0.35186  0.90280  1.0000
  C   C370      1.0  0.14696  0.35154  0.89838  1.0000
  C   C371      1.0  0.14119  0.37003  0.88328  1.0000
  C   C372      1.0  0.15102  0.38940  0.87275  1.0000
  C   C373      1.0  0.16676  0.38923  0.87707  1.0000
  P   P12       1.0  0.14368  0.41339  0.85320  1.0000
  C   C374      1.0  0.14769  0.39836  0.82793  1.0000
  C   C375      1.0  0.12331  0.41905  0.85758  1.0000
  C   C376      1.0  0.24634  0.09245  0.97658  1.0000
  H   H274      1.0  0.04537  0.38631  0.91202  1.0000
  C   C377      1.0  0.06237  0.48115  0.96762  1.0000
  C   C378      1.0  0.09679  0.40546  0.85154  1.0000
  C   C379      1.0  0.11250  0.39971  0.84964  1.0000
  C   C380      1.0  0.23121  0.18950  0.93089  1.0000
  H   H275      1.0  0.07151  0.22789  0.93345  1.0000
  C   C381      1.0  0.16506  0.48590  0.87458  1.0000
  C   C382      1.0  0.15282  0.46680  0.83748  1.0000
  C   C383      1.0  0.13731  0.40184  0.81175  1.0000
  C   C384      1.0  0.15285  0.44827  0.85467  1.0000
  P   P13       1.0  0.22917  0.21234  0.66771  1.0000
  C   C385      1.0  0.02328  0.43068  0.92813  1.0000
  C   C386      1.0  0.04922  0.27496  0.89442  1.0000
  C   C387      1.0  0.02071  0.46052  0.92734  1.0000
  C   C388      1.0  0.15887  0.45816  0.87333  1.0000
  H   H276      1.0  0.18468  0.37079  0.89529  1.0000
  H   H277      1.0  0.16710  0.33742  0.91440  1.0000
  H   H278      1.0  0.13932  0.33678  0.90653  1.0000
  H   H279      1.0  0.12907  0.36919  0.87994  1.0000
  H   H280      1.0  0.17466  0.40359  0.86891  1.0000
  H   H281      1.0  0.15124  0.18496  0.79214  1.0000
  H   H282      1.0  0.06344  0.42910  0.80294  1.0000
  C   C389      1.0  0.24713  0.41035  0.79633  1.0000
  H   H283      1.0  0.08853  0.39116  0.84452  1.0000
  H   H284      1.0  0.11621  0.38052  0.84153  1.0000
  C   C390      1.0  0.15380  0.37381  0.78909  1.0000
  C   C391      1.0  0.20131  0.19849  0.94637  1.0000
  H   H285      1.0  0.20551  0.24349  0.93996  1.0000
  H   H286      1.0  0.08319  0.98994  0.85719  1.0000
  H   H287      1.0  0.01633  0.41847  0.80291  1.0000
  C   C392      1.0  0.01257  0.47268  0.91110  1.0000
  C   C393      1.0  0.25576  0.35851  0.70687  1.0000
  C   C394      1.0  0.02164  0.41571  0.97212  1.0000
  C   C395      1.0  0.07547  0.47716  0.95525  1.0000
  H   H288      1.0  0.05504  0.33754  0.90569  1.0000
  C   C396      1.0  0.04291  0.44906  0.79166  1.0000
  C   C397      1.0  0.23896  0.11788  0.98265  1.0000
  C   C398      1.0  0.22709  0.03469  0.84855  1.0000
  C   C399      1.0  0.24586  0.23065  0.74927  1.0000
  H   H289      1.0  0.01236  0.36371  0.77614  1.0000
  H   H290      1.0  0.14792  0.45987  0.82309  1.0000
  H   H291      1.0  0.20277  0.21396  0.69644  1.0000
  C   C400      1.0  0.23954  0.32530  0.66965  1.0000
  C   C401      1.0  0.04710  0.33150  0.95716  1.0000
  H   H292      1.0  0.23584  0.39941  0.82514  1.0000
  C   C402      1.0  0.07327  0.25933  0.90892  1.0000
  C   C403      1.0  0.01357  0.32232  0.67752  1.0000
  C   C404      1.0  0.05051  0.43889  0.95246  1.0000
  H   H293      1.0  0.12510  0.00260  0.93878  1.0000
  C   C405      1.0  0.00736  0.02009  0.97127  1.0000
  C   C406      1.0  0.23452  0.01180  0.85825  1.0000
  H   H294      1.0  0.15860  0.44477  0.88706  1.0000
  C   C407      1.0  0.02820  0.05485  0.80121  1.0000
  C   C408      1.0  0.01359  0.21900  0.91325  1.0000
  H   H295      1.0  0.13188  0.39082  0.78044  1.0000
  H   H296      1.0  0.12866  0.99731  0.89147  1.0000
  C   C409      1.0  0.16101  0.04747  0.84959  1.0000
  H   H297      1.0  0.23383  0.44970  0.83687  1.0000
  C   C410      1.0  0.06529  0.24125  0.92269  1.0000
  H   H298      1.0  0.02385  0.06392  0.76923  1.0000
  C   C411      1.0  0.11957  0.01626  0.85063  1.0000
  H   H299      1.0  0.12684  0.41398  0.81389  1.0000
  H   H300      1.0  0.02606  0.99001  0.97020  1.0000
  C   C412      1.0  0.04150  0.35929  0.96078  1.0000
  C   C413      1.0  0.23565  0.05619  0.83844  1.0000
  C   C414      1.0  0.00872  0.42527  0.89673  1.0000
  H   H301      1.0  0.01373  0.24796  0.95253  1.0000
  H   H302      1.0  0.03336  0.19812  0.89922  1.0000
  H   H303      1.0  0.15595  0.36344  0.77438  1.0000
  C   C415      1.0  0.04991  0.46224  0.96616  1.0000
  P   P14       1.0  0.03394  0.41577  0.94935  1.0000
  C   C416      1.0  0.24663  0.22320  0.88955  1.0000
  H   H304      1.0  0.02418  0.14888  0.90635  1.0000
  H   H305      1.0  0.12508  0.05987  0.84140  1.0000
  H   H306      1.0  0.25052  0.07556  0.88042  1.0000
  C   C417      1.0  0.10065  0.05298  0.84349  1.0000
  C   C418      1.0  0.02352  0.36692  0.72570  1.0000
  C   C419      1.0  0.00805  0.28995  0.96402  1.0000
  H   H307      1.0  0.01864  0.25240  0.83216  1.0000
  C   C420      1.0  0.16148  0.29371  0.87059  1.0000
  C   C421      1.0  0.17147  0.27233  0.87739  1.0000
  C   C422      1.0  0.16567  0.24571  0.88413  1.0000
  C   C423      1.0  0.14983  0.24056  0.88428  1.0000
  C   C424      1.0  0.13970  0.26239  0.87818  1.0000
  C   C425      1.0  0.14567  0.28874  0.87086  1.0000
  P   P15       1.0  0.11930  0.25594  0.87743  1.0000
  C   C426      1.0  0.11417  0.24532  0.85160  1.0000
  C   C427      1.0  0.11355  0.22884  0.89637  1.0000
  C   C428      1.0  0.10266  0.20755  0.89169  1.0000
  C   C429      1.0  0.09800  0.18725  0.90659  1.0000
  C   C430      1.0  0.10396  0.18823  0.92639  1.0000
  C   C431      1.0  0.11475  0.20935  0.93127  1.0000
  C   C432      1.0  0.11972  0.22926  0.91626  1.0000
  C   C433      1.0  0.09866  0.24412  0.84609  1.0000
  C   C434      1.0  0.09460  0.23722  0.82595  1.0000
  C   C435      1.0  0.10600  0.23163  0.81109  1.0000
  C   C436      1.0  0.12145  0.23280  0.81641  1.0000
  C   C437      1.0  0.12557  0.23965  0.83655  1.0000
  C   C438      1.0  0.10999  0.28968  0.88399  1.0000
  C   C439      1.0  0.10357  0.30684  0.86850  1.0000
  C   C440      1.0  0.09622  0.33267  0.87343  1.0000
  C   C441      1.0  0.09551  0.34212  0.89381  1.0000
  C   C442      1.0  0.10229  0.32572  0.90931  1.0000
  C   C443      1.0  0.10958  0.29970  0.90443  1.0000
  H   H308      1.0  0.16601  0.31407  0.86482  1.0000
  H   H309      1.0  0.18374  0.27618  0.87701  1.0000
  H   H310      1.0  0.17356  0.22895  0.88883  1.0000
  H   H311      1.0  0.14558  0.21952  0.88892  1.0000
  H   H312      1.0  0.13815  0.30536  0.86507  1.0000
  H   H313      1.0  0.09762  0.20634  0.87666  1.0000
  H   H314      1.0  0.08968  0.17072  0.90278  1.0000
  H   H315      1.0  0.10026  0.17246  0.93789  1.0000
  H   H316      1.0  0.11943  0.20998  0.94664  1.0000
  H   H317      1.0  0.12840  0.24492  0.92021  1.0000
  H   H318      1.0  0.08970  0.24914  0.85726  1.0000
  H   H319      1.0  0.08260  0.23672  0.82174  1.0000
  H   H320      1.0  0.10285  0.22702  0.79535  1.0000
  H   H321      1.0  0.13030  0.22931  0.80473  1.0000
  H   H322      1.0  0.13765  0.24098  0.84004  1.0000
  H   H323      1.0  0.10424  0.30049  0.85251  1.0000
  H   H324      1.0  0.09102  0.34524  0.86129  1.0000
  H   H325      1.0  0.08978  0.36223  0.89750  1.0000
  H   H326      1.0  0.10189  0.33324  0.92511  1.0000
  H   H327      1.0  0.11484  0.28761  0.91666  1.0000
  C   C444      1.0  0.06371  0.43518  0.93997  1.0000
  C   C445      1.0  0.04114  0.25634  0.90792  1.0000
  H   H328      1.0  0.17507  0.35957  0.80208  1.0000
  C   C446      1.0  0.02851  0.00434  0.81086  1.0000
  C   C447      1.0  0.24077  0.36944  0.70883  1.0000
  C   C448      1.0  0.24034  0.41670  0.81543  1.0000
  H   H329      1.0  0.07957  0.43455  0.86341  1.0000
  H   H330      1.0  0.15391  0.03952  0.88115  1.0000
  C   C449      1.0  0.25355  0.12383  0.91941  1.0000
  C   C450      1.0  0.23124  0.27341  0.71318  1.0000
  C   C451      1.0  0.01501  0.99492  0.97713  1.0000
  H   H331      1.0  0.16445  0.02535  0.84686  1.0000
  C   C452      1.0  0.01199  0.36848  0.75980  1.0000
  H   H332      1.0  0.15451  0.99464  0.90640  1.0000
  H   H333      1.0  0.06838  0.40140  0.77081  1.0000
  H   H334      1.0  0.01801  0.38989  0.91351  1.0000
  H   H335      1.0  0.04319  0.28856  0.88359  1.0000
  C   C453      1.0  0.06525  0.27635  0.89492  1.0000
  S   S63       1.0  0.21272  0.47120  0.89893  1.0000
  H   H336      1.0  0.03781  0.36479  0.97625  1.0000
  C   C454      1.0  0.15509  0.18550  0.80793  1.0000
  C   C455      1.0  0.05203  0.32363  0.93737  1.0000
  H   H337      1.0  0.09783  0.07485  0.83902  1.0000
  C   C456      1.0  0.10234  0.44852  0.87094  1.0000
  H   H338      1.0  0.04327  0.22582  0.93315  1.0000
  C   C457      1.0  0.23303  0.36874  0.72794  1.0000
  H   H339      1.0  0.16789  0.06229  0.81927  1.0000
  C   C458      1.0  0.20741  0.17067  0.94585  1.0000
  H   H340      1.0  0.24735  0.19015  0.73310  1.0000
  H   H341      1.0  0.25505  0.07763  0.91803  1.0000
  C   C459      1.0  0.04928  0.23991  0.92232  1.0000
  H   H342      1.0  0.07144  0.29064  0.88443  1.0000
  H   H343      1.0  0.02983  0.24125  0.86588  1.0000
  C   C460      1.0  0.10782  0.99647  0.85560  1.0000
  H   H344      1.0  0.23504  0.21502  0.88875  1.0000
  H   H345      1.0  0.21493  0.28204  0.73769  1.0000
  C   C461      1.0  0.22229  0.16617  0.93812  1.0000
  H   H346      1.0  0.22682  0.14446  0.93798  1.0000
  H   H347      1.0  0.23496  0.37794  0.69548  1.0000
  H   H348      1.0  0.05633  0.30213  0.93465  1.0000
  C   C462      1.0  0.16450  0.37138  0.80476  1.0000
  H   H349      1.0  0.19819  0.47673  0.85822  1.0000
  C   C463      1.0  0.21743  0.26927  0.72407  1.0000
  C   C464      1.0  0.02988  0.03339  0.81619  1.0000
  H   H350      1.0  0.21467  0.03618  0.84928  1.0000
  H   H351      1.0  0.23190  0.23596  0.92701  1.0000
  H   H352      1.0  0.23541  0.22491  0.75757  1.0000
  H   H353      1.0  0.19661  0.24442  0.72664  1.0000
  H   H354      1.0  0.04085  0.05854  0.98572  1.0000
  C   C465      1.0  0.24022  0.35731  0.74524  1.0000
  P   P16       1.0  0.25062  0.18365  0.92165  1.0000
  H   H355      1.0  0.03294  0.36085  0.71555  1.0000
  H   H356      1.0  0.02762  0.43587  0.74453  1.0000
  H   H357      1.0  0.22774  0.99557  0.86640  1.0000
  H   H358      1.0  0.08607  0.45197  0.93126  1.0000
  H   H359      1.0  0.06431  0.41829  0.92860  1.0000
  H   H360      1.0  0.04756  0.31603  0.96972  1.0000
  H   H361      1.0  0.02514  0.47458  0.93913  1.0000
  H   H362      1.0  0.22983  0.07414  0.83121  1.0000
  C   C466      1.0  0.21073  0.23072  0.70080  1.0000
  C   C467      1.0  0.01715  0.16713  0.91091  1.0000
  C   C468      1.0  0.04072  0.37946  0.94456  1.0000
  P   P17       1.0  0.02046  0.25519  0.90819  1.0000
  H   H363      1.0  0.01340  0.35965  0.65759  1.0000
  C   C469      1.0  0.02538  0.99649  0.79046  1.0000
  H   H364      1.0  0.23409  0.35587  0.75994  1.0000
  H   H365      1.0  0.12603  0.45823  0.87541  1.0000
  C   C470      1.0  0.24845  0.12154  0.87702  1.0000
  H   H366      1.0  0.03239  0.03921  0.83195  1.0000
  H   H367      1.0  0.24805  0.20587  0.96410  1.0000
  H   H368      1.0  0.24336  0.25294  0.86440  1.0000
  C   C471      1.0  0.01954  0.25422  0.86530  1.0000
  C   C472      1.0  0.02375  0.01822  0.77546  1.0000
  C   C473      1.0  0.25135  0.24476  0.87568  1.0000
  H   H369      1.0  0.00818  0.35183  0.93571  1.0000
  H   H370      1.0  0.02998  0.98806  0.82268  1.0000
  C   C474      1.0  0.21018  0.22188  0.93944  1.0000
  H   H371      1.0  0.22136  0.37655  0.72931  1.0000
  H   H372      1.0  0.01612  0.31788  0.90833  1.0000
  C   C475      1.0  0.05134  0.34351  0.92115  1.0000
  S   S64       1.0  0.04956  0.00450  0.86079  1.0000
  H   H373      1.0  0.22684  0.17935  0.70668  1.0000
  H   H374      1.0  0.02933  0.07735  0.80539  1.0000
  C   C476      1.0  0.25103  0.09618  0.88810  1.0000
  C   C477      1.0  0.25261  0.21100  0.73517  1.0000
  C   C478      1.0  0.01223  0.27046  0.94852  1.0000
  C   C479      1.0  0.01352  0.30970  0.92371  1.0000
  C   C480      1.0  0.25522  0.34700  0.74352  1.0000
  C   C481      1.0  0.25303  0.43260  0.78387  1.0000
  H   H375      1.0  0.24785  0.38813  0.79129  1.0000
  C   C482      1.0  0.00941  0.00820  0.88124  1.0000
  H   H376      1.0  0.22810  0.12353  0.97594  1.0000
  H   H377      1.0  0.21393  0.47630  0.80927  1.0000
  C   C483      1.0  0.24492  0.46784  0.80948  1.0000
  H   H378      1.0  0.02538  0.31689  0.67383  1.0000
  C   C484      1.0  0.24719  0.99902  0.93917  1.0000
  H   H379      1.0  0.20210  0.24730  0.65896  1.0000
  C   C485      1.0  0.25167  0.05506  0.83827  1.0000
  H   H380      1.0  0.25499  0.12405  0.93599  1.0000
  H   H381      1.0  0.01045  0.38642  0.70119  1.0000
  H   H382      1.0  0.09838  0.46739  0.87931  1.0000
  C   C486      1.0  0.01676  0.41301  0.91304  1.0000
  C   C487      1.0  0.01317  0.26036  0.84614  1.0000
  C   C488      1.0  0.25129  0.14955  0.90831  1.0000
  H   H383      1.0  0.24599  0.16727  0.87819  1.0000
  C   C489      1.0  0.24849  0.14812  0.88706  1.0000
  H   H384      1.0  0.13149  0.00992  0.85117  1.0000
  H   H385      1.0  0.24583  0.12053  0.86076  1.0000
  C   C490      1.0  0.25060  0.01024  0.85788  1.0000
  C   C491      1.0  0.25204  0.46126  0.79045  1.0000
  C   C492      1.0  0.25357  0.09734  0.90928  1.0000
  H   H386      1.0  0.25629  0.10734  0.69470  1.0000
  H   H387      1.0  0.01173  0.02713  0.87182  1.0000
  C   C493      1.0  0.02514  0.04727  0.78086  1.0000
  H   H388      1.0  0.02143  0.01293  0.75960  1.0000
  C   C494      1.0  0.24086  0.14196  0.70260  1.0000
  H   H389      1.0  0.23883  0.13426  0.71821  1.0000
  C   C495      1.0  0.00770  0.25310  0.76619  1.0000
  C   C496      1.0  0.00682  0.34634  0.66833  1.0000
  C   C497      1.0  0.25369  0.13708  0.66940  1.0000
  H   H390      1.0  0.21978  0.30087  0.66053  1.0000
  C   C498      1.0  0.25071  0.12678  0.68937  1.0000
  C   C499      1.0  0.24702  0.16281  0.66276  1.0000
  C   C500      1.0  0.00670  0.45510  0.89570  1.0000
  C   C501      1.0  0.25536  0.98692  0.89803  1.0000
  H   H391      1.0  0.25287  0.98000  0.12110  1.0000
  H   H392      1.0  0.06406  0.61080  0.01602  1.0000
  Fe  Fe33      1.0  0.04159  0.56428  0.29230  1.0000
  C   C502      1.0  0.01399  0.52376  0.14981  1.0000
  S   S65       1.0  0.02146  0.56928  0.26973  1.0000
  C   C503      1.0  0.12797  0.88649  0.28304  1.0000
  S   S66       1.0  0.05491  0.60067  0.30628  1.0000
  S   S67       1.0  0.06263  0.53589  0.28858  1.0000
  Fe  Fe34      1.0  0.21902  0.54214  0.29395  1.0000
  C   C504      1.0  0.20669  0.65177  0.00419  1.0000
  S   S68       1.0  0.23988  0.53613  0.27184  1.0000
  H   H393      1.0  0.21273  0.60819  0.13451  1.0000
  S   S69       1.0  0.16161  0.52220  0.29330  1.0000
  H   H394      1.0  0.22118  0.94277  0.28229  1.0000
  S   S70       1.0  0.19971  0.57358  0.28869  1.0000
  H   H395      1.0  0.02500  0.65422  0.22263  1.0000
  C   C505      1.0  0.11604  0.57165  0.29883  1.0000
  H   H396      1.0  0.22437  0.91277  0.25099  1.0000
  C   C506      1.0  0.02351  0.61829  0.24402  1.0000
  C   C507      1.0  0.14423  0.54167  0.29583  1.0000
  H   H397      1.0  0.01444  0.95665  0.99635  1.0000
  C   C508      1.0  0.11641  0.54334  0.29150  1.0000
  H   H398      1.0  0.20073  0.93226  0.30753  1.0000
  S   S71       1.0  0.20322  0.50795  0.30703  1.0000
  C   C509      1.0  0.24295  0.48753  0.31626  1.0000
  H   H399      1.0  0.05904  0.59583  0.18535  1.0000
  H   H400      1.0  0.03511  0.74576  0.28015  1.0000
  H   H401      1.0  0.22616  0.96170  0.11923  1.0000
  C   C510      1.0  0.21343  0.92490  0.27967  1.0000
  H   H402      1.0  0.00888  0.65850  0.14879  1.0000
  C   C511      1.0  0.14385  0.56984  0.30342  1.0000
  C   C512      1.0  0.24365  0.59374  0.00279  1.0000
  Fe  Fe35      1.0  0.18426  0.54055  0.30415  1.0000
  C   C513      1.0  0.17553  0.79973  0.32235  1.0000
  S   S72       1.0  0.09880  0.59179  0.29959  1.0000
  C   C514      1.0  0.03323  0.72321  0.28385  1.0000
  H   H403      1.0  0.23145  0.85360  0.31969  1.0000
  C   C515      1.0  0.04525  0.70353  0.28164  1.0000
  H   H404      1.0  0.24504  0.52099  0.09039  1.0000
  C   C516      1.0  0.04279  0.62915  0.02721  1.0000
  H   H405      1.0  0.19890  0.64160  0.01525  1.0000
  C   C517      1.0  0.21371  0.67800  0.00881  1.0000
  H   H406      1.0  0.09067  0.95527  0.30606  1.0000
  H   H407      1.0  0.16470  0.90238  0.26856  1.0000
  C   C518      1.0  0.25302  0.51473  0.15685  1.0000
  C   C519      1.0  0.07559  0.85067  0.25339  1.0000
  H   H408      1.0  0.05219  0.56397  0.00673  1.0000
  H   H409      1.0  0.18615  0.86008  0.27082  1.0000
  P   P18       1.0  0.00897  0.55443  0.16569  1.0000
  C   C520      1.0  0.25342  0.53342  0.08153  1.0000
  P   P19       1.0  0.07169  0.80883  0.31805  1.0000
  C   C521      1.0  0.23902  0.86138  0.30742  1.0000
  C   C522      1.0  0.23608  0.62065  0.12755  1.0000
  H   H410      1.0  0.02455  0.55593  0.01267  1.0000
  H   H411      1.0  0.05759  0.57662  0.22119  1.0000
  H   H412      1.0  0.10000  0.84921  0.25764  1.0000
  C   C523      1.0  0.04845  0.57221  0.21051  1.0000
  H   H413      1.0  0.24184  0.60279  0.26886  1.0000
  H   H414      1.0  0.16036  0.83014  0.30875  1.0000
  C   C524      1.0  0.02437  0.56157  0.18333  1.0000
  C   C525      1.0  0.23024  0.97783  0.10826  1.0000
  H   H415      1.0  0.24960  0.57236  0.09881  1.0000
  H   H416      1.0  0.12054  0.87336  0.31354  1.0000
  C   C526      1.0  0.00840  0.97608  0.99211  1.0000
  C   C527      1.0  0.04271  0.67434  0.28596  1.0000
  H   H417      1.0  0.01362  0.61684  0.17122  1.0000
  C   C528      1.0  0.24602  0.60842  0.28397  1.0000
  C   C529      1.0  0.22251  0.55051  0.22398  1.0000
  C   C530      1.0  0.08699  0.72944  0.29867  1.0000
  C   C531      1.0  0.24310  0.63472  0.31595  1.0000
  C   C532      1.0  0.25546  0.95855  0.24325  1.0000
  P   P20       1.0  0.17667  0.88677  0.30969  1.0000
  Fe  Fe36      1.0  0.20374  0.58996  0.32106  1.0000
  H   H418      1.0  0.08181  0.86913  0.32166  1.0000
  C   C533      1.0  0.23807  0.62838  0.29612  1.0000
  C   C534      1.0  0.01451  0.59537  0.25160  1.0000
  C   C535      1.0  0.24690  0.98019  0.25352  1.0000
  H   H419      1.0  0.15819  0.67689  0.29568  1.0000
  C   C536      1.0  0.03730  0.57757  0.17676  1.0000
  H   H420      1.0  0.02024  0.64198  0.03698  1.0000
  C   C537      1.0  0.18140  0.85087  0.31853  1.0000
  H   H421      1.0  0.23951  0.97466  0.26650  1.0000
  C   C538      1.0  0.07313  0.82521  0.29273  1.0000
  H   H422      1.0  0.14283  0.70661  0.31972  1.0000
  H   H423      1.0  0.03504  0.62114  0.24957  1.0000
  C   C539      1.0  0.05189  0.60730  0.01870  1.0000
  C   C540      1.0  0.02701  0.62481  0.03027  1.0000
  H   H424      1.0  0.22281  0.56084  0.23892  1.0000
  H   H425      1.0  0.05089  0.84924  0.25344  1.0000
  C   C541      1.0  0.01486  0.50134  0.99942  1.0000
  H   H426      1.0  0.00947  0.72919  0.29206  1.0000
  H   H427      1.0  0.21982  0.56891  0.15812  1.0000
  C   C542      1.0  0.04525  0.58090  0.01357  1.0000
  C   C543      1.0  0.01874  0.71377  0.29066  1.0000
  C   C544      1.0  0.04923  0.58305  0.19037  1.0000
  H   H428      1.0  0.20686  0.87130  0.24537  1.0000
  C   C545      1.0  0.25565  0.59274  0.14451  1.0000
  H   H429      1.0  0.00945  0.54270  0.09428  1.0000
  C   C546      1.0  0.07586  0.77064  0.31651  1.0000
  H   H430      1.0  0.13075  0.50704  0.28356  1.0000
  H   H431      1.0  0.03860  0.52944  0.15224  1.0000
  H   H432      1.0  0.01252  0.58238  0.06883  1.0000
  C   C547      1.0  0.12983  0.58486  0.30468  1.0000
  H   H433      1.0  0.25445  0.93645  0.24847  1.0000
  C   C548      1.0  0.13048  0.52856  0.28982  1.0000
  C   C549      1.0  0.21524  0.90792  0.26208  1.0000
  H   H434      1.0  0.23424  0.58618  0.01251  1.0000
  H   H435      1.0  0.13862  0.90138  0.25463  1.0000
  C   C550      1.0  0.24434  0.57591  0.15458  1.0000
  H   H436      1.0  0.04516  0.48843  0.12989  1.0000
  H   H437      1.0  0.09796  0.82712  0.29244  1.0000
  H   H438      1.0  0.10591  0.53313  0.28665  1.0000
  C   C551      1.0  0.22882  0.58157  0.15077  1.0000
  C   C552      1.0  0.22473  0.60387  0.13732  1.0000
  C   C553      1.0  0.20969  0.51953  0.19983  1.0000
  Fe  Fe37      1.0  0.07540  0.57095  0.30518  1.0000
  C   C554      1.0  0.19359  0.87843  0.27331  1.0000
  C   C555      1.0  0.15697  0.67057  0.31173  1.0000
  C   C556      1.0  0.10175  0.95472  0.31345  1.0000
  H   H439      1.0  0.05194  0.65896  0.28390  1.0000
  H   H440      1.0  0.02656  0.64203  0.29577  1.0000
  H   H441      1.0  0.20080  0.52974  0.23020  1.0000
  H   H442      1.0  0.22767  0.63825  0.29050  1.0000
  C   C557      1.0  0.02943  0.51696  0.14566  1.0000
  C   C558      1.0  0.24659  0.86281  0.27138  1.0000
  H   H443      1.0  0.08772  0.77260  0.28681  1.0000
  C   C559      1.0  0.08882  0.84439  0.26440  1.0000
  H   H444      1.0  0.23764  0.50524  0.30828  1.0000
  H   H445      1.0  0.11445  0.94598  0.28543  1.0000
  C   C560      1.0  0.15526  0.89536  0.27845  1.0000
  H   H446      1.0  0.17015  0.94840  0.30959  1.0000
  C   C561      1.0  0.03579  0.55582  0.21702  1.0000
  H   H447      1.0  0.03519  0.54748  0.23267  1.0000
  C   C562      1.0  0.02373  0.55068  0.20359  1.0000
  H   H448      1.0  0.12968  0.60684  0.31018  1.0000
  H   H449      1.0  0.01395  0.53837  0.20922  1.0000
  C   C563      1.0  0.02022  0.59853  0.02471  1.0000
  H   H450      1.0  0.22115  0.51338  0.17062  1.0000
  C   C564      1.0  0.23171  0.97258  0.17520  1.0000
  H   H451      1.0  0.23294  0.63796  0.11716  1.0000
  H   H452      1.0  0.02514  0.50476  0.00819  1.0000
  C   C565      1.0  0.13025  0.87909  0.30368  1.0000
  C   C566      1.0  0.11511  0.94938  0.30191  1.0000
  C   C567      1.0  0.02825  0.66483  0.29285  1.0000
  H   H453      1.0  0.04363  0.77304  0.31675  1.0000
  C   C568      1.0  0.24698  0.96526  0.17113  1.0000
  C   C569      1.0  0.20165  0.91890  0.29397  1.0000
  C   C570      1.0  0.14044  0.89489  0.27050  1.0000
  H   H454      1.0  0.05647  0.71078  0.27635  1.0000
  C   C571      1.0  0.23439  0.54101  0.19050  1.0000
  C   C572      1.0  0.23468  0.55436  0.20988  1.0000
  H   H455      1.0  0.22927  0.71116  0.99850  1.0000
  H   H456      1.0  0.22327  0.95576  0.17799  1.0000
  C   C573      1.0  0.21008  0.53295  0.21905  1.0000
  C   C574      1.0  0.22173  0.52367  0.18554  1.0000
  H   H457      1.0  0.03814  0.58595  0.16115  1.0000
  C   C575      1.0  0.14502  0.87986  0.31174  1.0000
  C   C576      1.0  0.01777  0.63703  0.22865  1.0000
  C   C577      1.0  0.06115  0.84423  0.26196  1.0000
  C   C578      1.0  0.20535  0.88462  0.25893  1.0000
  C   C579      1.0  0.08392  0.75905  0.29952  1.0000
  H   H458      1.0  0.24484  0.85625  0.25557  1.0000
  C   C580      1.0  0.08762  0.83184  0.28405  1.0000
  C   C581      1.0  0.15768  0.88726  0.29904  1.0000
  H   H459      1.0  0.20004  0.50593  0.19600  1.0000
  C   C582      1.0  0.25592  0.56239  0.08623  1.0000
  C   C583      1.0  0.12935  0.94958  0.31150  1.0000
  C   C584      1.0  0.23679  0.85268  0.28712  1.0000
  C   C585      1.0  0.19148  0.89582  0.29079  1.0000
  C   C586      1.0  0.25650  0.60691  0.01196  1.0000
  C   C587      1.0  0.05990  0.83146  0.28151  1.0000
  C   C588      1.0  0.24669  0.50897  0.25446  1.0000
  H   H460      1.0  0.07650  0.86056  0.23822  1.0000
  H   H461      1.0  0.09312  0.72049  0.28550  1.0000
  H   H462      1.0  0.04857  0.82668  0.28780  1.0000
  H   H463      1.0  0.15437  0.58021  0.30799  1.0000
  Fe  Fe38      1.0  0.05704  0.51806  0.32057  1.0000
  C   C589      1.0  0.03323  0.49368  0.13292  1.0000
  H   H464      1.0  0.13977  0.94645  0.30242  1.0000
  H   H465      1.0  0.21134  0.68827  0.02350  1.0000
  H   H466      1.0  0.17100  0.63263  0.30812  1.0000
  H   H467      1.0  0.25055  0.52000  0.02601  1.0000
  C   C590      1.0  0.02954  0.57641  0.01685  1.0000
  H   H468      1.0  0.24869  0.94194  0.31781  1.0000
  P   P21       1.0  0.24977  0.54693  0.17181  1.0000
  C   C591      1.0  0.16412  0.64550  0.31868  1.0000
  C   C592      1.0  0.22390  0.69086  0.99460  1.0000
  H   H469      1.0  0.23565  0.52020  0.99421  1.0000
  H   H470      1.0  0.11648  0.88655  0.27692  1.0000
  H   H471      1.0  0.16770  0.78176  0.32057  1.0000
  C   C593      1.0  0.00909  0.61320  0.15599  1.0000
  H   H472      1.0  0.08419  0.68820  0.31398  1.0000
  H   H473      1.0  0.04796  0.64956  0.03130  1.0000
  H   H474      1.0  0.24429  0.56765  0.21427  1.0000
  C   C594      1.0  0.25079  0.48743  0.16593  1.0000
  H   H475      1.0  0.22742  0.83823  0.28359  1.0000
  H   H476      1.0  0.20910  0.97945  0.09163  1.0000
  H   H477      1.0  0.25038  0.94282  0.17096  1.0000
  C   C595      1.0  0.01623  0.68463  0.29572  1.0000
  C   C596      1.0  0.25099  0.88029  0.31203  1.0000
  H   H478      1.0  0.11549  0.78056  0.32190  1.0000
  C   C597      1.0  0.25562  0.95818  0.30997  1.0000
  C   C598      1.0  0.24808  0.51941  0.99331  1.0000
  C   C599      1.0  0.17134  0.82743  0.31592  1.0000
  C   C600      1.0  0.25154  0.61506  0.13115  1.0000
  C   C601      1.0  0.08199  0.71121  0.31468  1.0000
  S   S73       1.0  0.03522  0.54391  0.32320  1.0000
  S   S74       1.0  0.07098  0.55190  0.33657  1.0000
  C   C602      1.0  0.01660  0.73505  0.49893  1.0000
  S   S75       1.0  0.04356  0.60456  0.36547  1.0000
  H   H479      1.0  0.16087  0.95771  0.41929  1.0000
  S   S76       1.0  0.18697  0.55876  0.33586  1.0000
  H   H480      1.0  0.10828  0.81245  0.37537  1.0000
  H   H481      1.0  0.21276  0.52637  0.40921  1.0000
  H   H482      1.0  0.01579  0.69993  0.41148  1.0000
  Fe  Fe39      1.0  0.04313  0.78187  0.43769  1.0000
  S   S77       1.0  0.02989  0.79864  0.41056  1.0000
  S   S78       1.0  0.03450  0.76179  0.46859  1.0000
  Fe  Fe40      1.0  0.07408  0.78706  0.41303  1.0000
  S   S79       1.0  0.06263  0.80352  0.38448  1.0000
  S   S80       1.0  0.09890  0.77155  0.41122  1.0000
  Fe  Fe41      1.0  0.04891  0.83171  0.40599  1.0000
  S   S81       1.0  0.04232  0.87913  0.39980  1.0000
  Fe  Fe42      1.0  0.04485  0.76933  0.39123  1.0000
  S   S82       1.0  0.03660  0.74120  0.36499  1.0000
  S   S83       1.0  0.06134  0.81692  0.43468  1.0000
  S   S84       1.0  0.05705  0.75106  0.41822  1.0000
  Fe  Fe43      1.0  0.18492  0.82456  0.41516  1.0000
  S   S85       1.0  0.19469  0.80648  0.38570  1.0000
  S   S86       1.0  0.16094  0.84374  0.41746  1.0000
  Fe  Fe44      1.0  0.21629  0.82264  0.43730  1.0000
  S   S87       1.0  0.22820  0.80393  0.40918  1.0000
  S   S88       1.0  0.22555  0.83312  0.46960  1.0000
  Fe  Fe45      1.0  0.21454  0.83661  0.39116  1.0000
  S   S89       1.0  0.22399  0.86327  0.36419  1.0000
  Fe  Fe46      1.0  0.20732  0.77518  0.40585  1.0000
  S   S90       1.0  0.20832  0.72587  0.40195  1.0000
  S   S91       1.0  0.20396  0.85676  0.41921  1.0000
  S   S92       1.0  0.19624  0.79167  0.43536  1.0000
  C   C603      1.0  0.11591  0.79218  0.41367  1.0000
  C   C604      1.0  0.13013  0.77814  0.41177  1.0000
  C   C605      1.0  0.14400  0.79357  0.41300  1.0000
  C   C606      1.0  0.14378  0.82337  0.41603  1.0000
  C   C607      1.0  0.12957  0.83755  0.41778  1.0000
  C   C608      1.0  0.11567  0.82202  0.41669  1.0000
  H   H483      1.0  0.13040  0.75516  0.40934  1.0000
  H   H484      1.0  0.15485  0.78240  0.41167  1.0000
  H   H485      1.0  0.12930  0.86060  0.42019  1.0000
  H   H486      1.0  0.10480  0.83309  0.41812  1.0000
  C   C609      1.0  0.20422  0.66283  0.34702  1.0000
  C   C610      1.0  0.20455  0.69286  0.34355  1.0000
  C   C611      1.0  0.20545  0.71248  0.36011  1.0000
  C   C612      1.0  0.20608  0.70232  0.38044  1.0000
  C   C613      1.0  0.20555  0.67230  0.38393  1.0000
  C   C614      1.0  0.20458  0.65268  0.36738  1.0000
  H   H487      1.0  0.03325  0.81142  0.53331  1.0000
  H   H488      1.0  0.20598  0.73541  0.35714  1.0000
  H   H489      1.0  0.03751  0.69966  0.33235  1.0000
  P   P22       1.0  0.23680  0.94539  0.45369  1.0000
  C   C615      1.0  0.21806  0.96172  0.36173  1.0000
  C   C616      1.0  0.21740  0.94704  0.38072  1.0000
  C   C617      1.0  0.21868  0.91682  0.38158  1.0000
  C   C618      1.0  0.22101  0.90105  0.36349  1.0000
  C   C619      1.0  0.22152  0.91575  0.34447  1.0000
  C   C620      1.0  0.21988  0.94591  0.34356  1.0000
  H   H490      1.0  0.21583  0.95910  0.39482  1.0000
  H   H491      1.0  0.21811  0.90582  0.39625  1.0000
  H   H492      1.0  0.13916  0.49834  0.34571  1.0000
  C   C621      1.0  0.21472  0.52952  0.46150  1.0000
  C   C622      1.0  0.05641  0.94809  0.35065  1.0000
  C   C623      1.0  0.06468  0.92213  0.35233  1.0000
  C   C624      1.0  0.06070  0.90103  0.36736  1.0000
  C   C625      1.0  0.04805  0.90516  0.38061  1.0000
  C   C626      1.0  0.03975  0.93110  0.37892  1.0000
  C   C627      1.0  0.04393  0.95249  0.36417  1.0000
  H   H493      1.0  0.07432  0.91849  0.34199  1.0000
  H   H494      1.0  0.06744  0.88163  0.36881  1.0000
  H   H495      1.0  0.03000  0.93471  0.38912  1.0000
  H   H496      1.0  0.03737  0.97217  0.36307  1.0000
  C   C628      1.0  0.04227  0.64266  0.36499  1.0000
  C   C629      1.0  0.04066  0.65794  0.34650  1.0000
  C   C630      1.0  0.03896  0.68811  0.34671  1.0000
  C   C631      1.0  0.03937  0.70340  0.36534  1.0000
  C   C632      1.0  0.04150  0.68824  0.38377  1.0000
  C   C633      1.0  0.04266  0.65796  0.38362  1.0000
  H   H497      1.0  0.01059  0.67290  0.64519  1.0000
  C   C634      1.0  0.01670  0.75425  0.48197  1.0000
  H   H498      1.0  0.04198  0.69973  0.39819  1.0000
  H   H499      1.0  0.04399  0.64636  0.39800  1.0000
  H   H500      1.0  0.23031  0.89610  0.42703  1.0000
  H   H501      1.0  0.20425  0.70100  0.32790  1.0000
  C   C635      1.0  0.24305  0.84616  0.48032  1.0000
  C   C636      1.0  0.24345  0.85251  0.50156  1.0000
  C   C637      1.0  0.23338  0.97593  0.43696  1.0000
  H   H502      1.0  0.23318  0.84951  0.51095  1.0000
  H   H503      1.0  0.16359  0.90563  0.41143  1.0000
  H   H504      1.0  0.06082  0.94880  0.41124  1.0000
  C   C638      1.0  0.14272  0.96443  0.39762  1.0000
  C   C639      1.0  0.25531  0.68561  0.34787  1.0000
  C   C640      1.0  0.19290  0.91426  0.44912  1.0000
  C   C641      1.0  0.10018  0.96476  0.38417  1.0000
  H   H505      1.0  0.21243  0.54410  0.47419  1.0000
  C   C642      1.0  0.15369  0.94790  0.40779  1.0000
  C   C643      1.0  0.21503  0.51965  0.42491  1.0000
  H   H506      1.0  0.18371  0.91532  0.43813  1.0000
  C   C644      1.0  0.01118  0.74898  0.56442  1.0000
  H   H507      1.0  0.23982  0.73351  0.38193  1.0000
  C   C645      1.0  0.02857  0.90117  0.56523  1.0000
  H   H508      1.0  0.17950  0.97283  0.37176  1.0000
  C   C646      1.0  0.15526  0.91860  0.40336  1.0000
  H   H509      1.0  0.02632  0.58698  0.40980  1.0000
  H   H510      1.0  0.24469  0.77673  0.46219  1.0000
  H   H511      1.0  0.22632  0.90659  0.48735  1.0000
  H   H512      1.0  0.23638  0.64933  0.32540  1.0000
  C   C647      1.0  0.09271  0.81088  0.35014  1.0000
  C   C648      1.0  0.07391  0.97873  0.39238  1.0000
  C   C649      1.0  0.24364  0.68852  0.38824  1.0000
  C   C650      1.0  0.08514  0.82652  0.33479  1.0000
  H   H513      1.0  0.01155  0.77276  0.53599  1.0000
  C   C651      1.0  0.05235  0.81379  0.32803  1.0000
  C   C652      1.0  0.13520  0.92235  0.37817  1.0000
  C   C653      1.0  0.24593  0.95673  0.47718  1.0000
  C   C654      1.0  0.10267  0.82480  0.36348  1.0000
  H   H514      1.0  0.25154  0.96588  0.41479  1.0000
  C   C655      1.0  0.09791  0.93916  0.39556  1.0000
  C   C656      1.0  0.25589  0.77589  0.56977  1.0000
  H   H515      1.0  0.20601  0.66414  0.39957  1.0000
  C   C657      1.0  0.01885  0.64907  0.47774  1.0000
  H   H516      1.0  0.12801  0.91208  0.36691  1.0000
  H   H517      1.0  0.10691  0.92334  0.39688  1.0000
  C   C658      1.0  0.12410  0.74570  0.34042  1.0000
  S   S93       1.0  0.20952  0.50252  0.36740  1.0000
  H   H518      1.0  0.09077  0.78801  0.35230  1.0000
  H   H519      1.0  0.20246  0.87949  0.49334  1.0000
  H   H520      1.0  0.13298  0.81711  0.33671  1.0000
  H   H521      1.0  0.05673  0.85596  0.34073  1.0000
  H   H522      1.0  0.11623  0.73011  0.33404  1.0000
  C   C659      1.0  0.21872  0.92745  0.45932  1.0000
  H   H523      1.0  0.08194  0.91363  0.41388  1.0000
  H   H524      1.0  0.00752  0.84906  0.47107  1.0000
  C   C660      1.0  0.20006  0.81815  0.33320  1.0000
  C   C661      1.0  0.24879  0.66218  0.38039  1.0000
  C   C662      1.0  0.18986  0.79512  0.33106  1.0000
  C   C663      1.0  0.02252  0.82132  0.34421  1.0000
  C   C664      1.0  0.01003  0.69356  0.65291  1.0000
  H   H525      1.0  0.04662  0.81064  0.49937  1.0000
  C   C665      1.0  0.11688  0.96136  0.34415  1.0000
  C   C666      1.0  0.01311  0.84115  0.48477  1.0000
  H   H526      1.0  0.23099  0.61157  0.36422  1.0000
  C   C667      1.0  0.23250  0.56931  0.37777  1.0000
  C   C668      1.0  0.20656  0.92946  0.44540  1.0000
  C   C669      1.0  0.02749  0.81976  0.51989  1.0000
  H   H527      1.0  0.25220  0.88721  0.32786  1.0000
  S   S94       1.0  0.22409  0.56081  0.32531  1.0000
  C   C670      1.0  0.08379  0.93361  0.40540  1.0000
  H   H528      1.0  0.18482  0.92181  0.38075  1.0000
  H   H529      1.0  0.20415  0.62974  0.37039  1.0000
  H   H530      1.0  0.01114  0.82397  0.35092  1.0000
  H   H531      1.0  0.03267  0.63379  0.50276  1.0000
  H   H532      1.0  0.05170  0.70403  0.46702  1.0000
  C   C671      1.0  0.24716  0.49076  0.33676  1.0000
  C   C672      1.0  0.18133  0.92741  0.36529  1.0000
  C   C673      1.0  0.25446  0.66047  0.36002  1.0000
  H   H533      1.0  0.23721  0.52651  0.38901  1.0000
  C   C674      1.0  0.20340  0.89417  0.48030  1.0000
  H   H534      1.0  0.22027  0.95697  0.32887  1.0000
  H   H535      1.0  0.14140  0.95688  0.33956  1.0000
  H   H536      1.0  0.25301  0.75331  0.56825  1.0000
  C   C675      1.0  0.16254  0.63710  0.33933  1.0000
  C   C676      1.0  0.10058  0.48759  0.34541  1.0000
  H   H537      1.0  0.03393  0.82974  0.46840  1.0000
  H   H538      1.0  0.05374  0.66890  0.49585  1.0000
  H   H539      1.0  0.22309  0.90389  0.33034  1.0000
  C   C677      1.0  0.19135  0.89647  0.46649  1.0000
  H   H540      1.0  0.25364  0.91392  0.48505  1.0000
  H   H541      1.0  0.22789  0.89577  0.64788  1.0000
  H   H542      1.0  0.23068  0.77941  0.49556  1.0000
  H   H543      1.0  0.03082  0.86199  0.35552  1.0000
  C   C678      1.0  0.09774  0.87028  0.34653  1.0000
  H   H544      1.0  0.20164  0.89190  0.63401  1.0000
  H   H545      1.0  0.20781  0.55995  0.43819  1.0000
  C   C679      1.0  0.17827  0.95615  0.36026  1.0000
  H   H546      1.0  0.09462  0.62827  0.34932  1.0000
  C   C680      1.0  0.03521  0.81972  0.50080  1.0000
  H   H547      1.0  0.22173  0.49505  0.48126  1.0000
  C   C681      1.0  0.21213  0.53848  0.44124  1.0000
  C   C682      1.0  0.13329  0.95169  0.38286  1.0000
  Fe  Fe47      1.0  0.20696  0.52830  0.33776  1.0000
  Fe  Fe48      1.0  0.04973  0.57925  0.33662  1.0000
  C   C683      1.0  0.24420  0.71331  0.37590  1.0000
  H   H548      1.0  0.09938  0.89344  0.34550  1.0000
  H   H549      1.0  0.18100  0.88379  0.46892  1.0000
  C   C684      1.0  0.01758  0.66903  0.46146  1.0000
  H   H550      1.0  0.23998  0.78189  0.59522  1.0000
  H   H551      1.0  0.19306  0.77372  0.33621  1.0000
  H   H552      1.0  0.01229  0.74843  0.39708  1.0000
  S   S95       1.0  0.20358  0.63922  0.32534  1.0000
  H   H553      1.0  0.02116  0.82851  0.62013  1.0000
  H   H554      1.0  0.02906  0.70442  0.44534  1.0000
  C   C685      1.0  0.18046  0.90600  0.35026  1.0000
  H   H555      1.0  0.24477  0.51080  0.34467  1.0000
  H   H556      1.0  0.14472  0.49203  0.43245  1.0000
  H   H557      1.0  0.02187  0.61948  0.43925  1.0000
  C   C686      1.0  0.07184  0.95347  0.40394  1.0000
  C   C687      1.0  0.12806  0.48919  0.34988  1.0000
  C   C688      1.0  0.23862  0.59419  0.36847  1.0000
  H   H558      1.0  0.20775  0.94199  0.43133  1.0000
  H   H559      1.0  0.00982  0.63349  0.48091  1.0000
  C   C689      1.0  0.10514  0.85446  0.36181  1.0000
  H   H560      1.0  0.06512  0.76060  0.34611  1.0000
  H   H561      1.0  0.14738  0.88310  0.38519  1.0000
  H   H562      1.0  0.17426  0.49910  0.36153  1.0000
  H   H563      1.0  0.03958  0.91083  0.56129  1.0000
  C   C690      1.0  0.11485  0.50004  0.34079  1.0000
  C   C691      1.0  0.17658  0.91331  0.32997  1.0000
  C   C692      1.0  0.15384  0.65376  0.35308  1.0000
  C   C693      1.0  0.14687  0.67934  0.34633  1.0000
  C   C694      1.0  0.04841  0.83907  0.33862  1.0000
  P   P23       1.0  0.13519  0.70015  0.36410  1.0000
  C   C695      1.0  0.11581  0.68606  0.36485  1.0000
  C   C696      1.0  0.14381  0.69852  0.38929  1.0000
  C   C697      1.0  0.13470  0.69633  0.40735  1.0000
  C   C698      1.0  0.14151  0.69652  0.42673  1.0000
  C   C699      1.0  0.15744  0.69854  0.42825  1.0000
  C   C700      1.0  0.16659  0.70017  0.41039  1.0000
  C   C701      1.0  0.15986  0.70018  0.39098  1.0000
  C   C702      1.0  0.10401  0.70184  0.37456  1.0000
  C   C703      1.0  0.08909  0.69069  0.37577  1.0000
  C   C704      1.0  0.08574  0.66414  0.36676  1.0000
  C   C705      1.0  0.09729  0.64873  0.35652  1.0000
  C   C706      1.0  0.11230  0.65951  0.35565  1.0000
  C   C707      1.0  0.13458  0.73733  0.35552  1.0000
  H   H564      1.0  0.21115  0.81465  0.34009  1.0000
  H   H565      1.0  0.01102  0.63665  0.33640  1.0000
  H   H566      1.0  0.24591  0.83404  0.59886  1.0000
  C   C708      1.0  0.14389  0.78679  0.35692  1.0000
  C   C709      1.0  0.14451  0.75813  0.36367  1.0000
  H   H567      1.0  0.14663  0.87452  0.32787  1.0000
  H   H568      1.0  0.16821  0.61775  0.34465  1.0000
  H   H569      1.0  0.24457  0.77581  0.52823  1.0000
  H   H570      1.0  0.15260  0.64668  0.36897  1.0000
  C   C710      1.0  0.03361  0.84270  0.34684  1.0000
  H   H571      1.0  0.12235  0.69513  0.40672  1.0000
  H   H572      1.0  0.13437  0.69556  0.44058  1.0000
  H   H573      1.0  0.16270  0.69908  0.44326  1.0000
  H   H574      1.0  0.17894  0.70181  0.41160  1.0000
  H   H575      1.0  0.16720  0.70195  0.37734  1.0000
  H   H576      1.0  0.10638  0.72254  0.38156  1.0000
  H   H577      1.0  0.08010  0.70272  0.38366  1.0000
  H   H578      1.0  0.07418  0.65550  0.36764  1.0000
  H   H579      1.0  0.12104  0.64694  0.34779  1.0000
  C   C711      1.0  0.25152  0.82148  0.58690  1.0000
  C   C712      1.0  0.24238  0.98048  0.41902  1.0000
  H   H580      1.0  0.11255  0.86513  0.37265  1.0000
  P   P24       1.0  0.11819  0.97197  0.37078  1.0000
  H   H581      1.0  0.15134  0.80277  0.36375  1.0000
  H   H582      1.0  0.15260  0.75260  0.37550  1.0000
  H   H583      1.0  0.03110  0.86748  0.54308  1.0000
  C   C713      1.0  0.25338  0.93634  0.48950  1.0000
  C   C714      1.0  0.00906  0.60649  0.39107  1.0000
  S   S96       1.0  0.06200  0.97359  0.33103  1.0000
  C   C715      1.0  0.24831  0.79211  0.58493  1.0000
  C   C716      1.0  0.13355  0.79484  0.34174  1.0000
  C   C717      1.0  0.01924  0.91353  0.58052  1.0000
  C   C718      1.0  0.01495  0.80798  0.64905  1.0000
  C   C719      1.0  0.14610  0.90588  0.38846  1.0000
  H   H584      1.0  0.04042  0.64643  0.33209  1.0000
  H   H585      1.0  0.22024  0.56762  0.38073  1.0000
  H   H586      1.0  0.25507  0.77406  0.64480  1.0000
  C   C720      1.0  0.24298  0.77593  0.49533  1.0000
  C   C721      1.0  0.02964  0.68856  0.45758  1.0000
  C   C722      1.0  0.04263  0.68836  0.46990  1.0000
  C   C723      1.0  0.04372  0.66870  0.48620  1.0000
  C   C724      1.0  0.03184  0.64902  0.49010  1.0000
  C   C725      1.0  0.04101  0.79270  0.32498  1.0000
  C   C726      1.0  0.19586  0.84587  0.32694  1.0000
  C   C727      1.0  0.02804  0.83045  0.48327  1.0000
  C   C728      1.0  0.22065  0.49198  0.42878  1.0000
  H   H587      1.0  0.18317  0.88405  0.35456  1.0000
  H   H588      1.0  0.18350  0.85524  0.64824  1.0000
  C   C729      1.0  0.01010  0.77415  0.55256  1.0000
  H   H589      1.0  0.09040  0.49552  0.33790  1.0000
  H   H590      1.0  0.02722  0.72498  0.50339  1.0000
  C   C730      1.0  0.00935  0.86391  0.55978  1.0000
  H   H591      1.0  0.09222  0.96567  0.34296  1.0000
  C   C731      1.0  0.24205  0.54609  0.38238  1.0000
  H   H592      1.0  0.01767  0.77963  0.33138  1.0000
  C   C732      1.0  0.00839  0.74982  0.58570  1.0000
  C   C733      1.0  0.01482  0.83047  0.63457  1.0000
  C   C734      1.0  0.25094  0.77417  0.51382  1.0000
  H   H593      1.0  0.00874  0.73015  0.59476  1.0000
  C   C735      1.0  0.17407  0.96347  0.34022  1.0000
  C   C736      1.0  0.22008  0.50165  0.46544  1.0000
  C   C737      1.0  0.21702  0.90959  0.47678  1.0000
  C   C738      1.0  0.14833  0.68742  0.32547  1.0000
  C   C739      1.0  0.24259  0.89855  0.42789  1.0000
  H   H594      1.0  0.02296  0.93278  0.58843  1.0000
  H   H595      1.0  0.01372  0.72864  0.55699  1.0000
  H   H596      1.0  0.23882  0.68973  0.40375  1.0000
  C   C740      1.0  0.08779  0.85639  0.33303  1.0000
  C   C741      1.0  0.20518  0.87759  0.64631  1.0000
  H   H597      1.0  0.24830  0.64331  0.39026  1.0000
  H   H598      1.0  0.24686  0.86366  0.40683  1.0000
  C   C742      1.0  0.02367  0.87648  0.55489  1.0000
  C   C743      1.0  0.12368  0.77428  0.33345  1.0000
  H   H599      1.0  0.01150  0.58412  0.34187  1.0000
  H   H600      1.0  0.11569  0.51783  0.32993  1.0000
  C   C744      1.0  0.02618  0.79645  0.33312  1.0000
  H   H601      1.0  0.02161  0.78884  0.64568  1.0000
  H   H602      1.0  0.01128  0.59226  0.37820  1.0000
  H   H603      1.0  0.06994  0.70857  0.34392  1.0000
  H   H604      1.0  0.20384  0.86353  0.32882  1.0000
  C   C745      1.0  0.25439  0.59607  0.36387  1.0000
  C   C746      1.0  0.07405  0.72264  0.33162  1.0000
  C   C747      1.0  0.24903  0.91995  0.44029  1.0000
  C   C748      1.0  0.01247  0.83052  0.52156  1.0000
  H   H605      1.0  0.01063  0.72019  0.33018  1.0000
  C   C749      1.0  0.25090  0.77442  0.47645  1.0000
  C   C750      1.0  0.25200  0.87994  0.41649  1.0000
  C   C751      1.0  0.01506  0.62211  0.42559  1.0000
  C   C752      1.0  0.25004  0.71187  0.35573  1.0000
  H   H606      1.0  0.25036  0.73109  0.34617  1.0000
  C   C753      1.0  0.01753  0.60343  0.40902  1.0000
  C   C754      1.0  0.07117  0.75219  0.33269  1.0000
  C   C755      1.0  0.10264  0.96072  0.33448  1.0000
  C   C756      1.0  0.13025  0.95559  0.33254  1.0000
  C   C757      1.0  0.17308  0.94213  0.32517  1.0000
  C   C758      1.0  0.00687  0.71357  0.41790  1.0000
  C   C759      1.0  0.24602  0.98582  0.48316  1.0000
  C   C760      1.0  0.21996  0.87979  0.65415  1.0000
  C   C761      1.0  0.19497  0.85690  0.65432  1.0000
  H   H607      1.0  0.17191  0.98583  0.33619  1.0000
  C   C762      1.0  0.25652  0.84982  0.46853  1.0000
  H   H608      1.0  0.25654  0.84453  0.45233  1.0000
  C   C763      1.0  0.08797  0.98431  0.38243  1.0000
  C   C764      1.0  0.25627  0.62142  0.32365  1.0000
  Fe  Fe49      1.0  0.04167  0.82792  0.78939  1.0000
  S   S97       1.0  0.02932  0.81284  0.81845  1.0000
  S   S98       1.0  0.03185  0.84473  0.75851  1.0000
  Fe  Fe50      1.0  0.07371  0.81849  0.80931  1.0000
  S   S99       1.0  0.06320  0.80302  0.83929  1.0000
  S   S100      1.0  0.09914  0.83011  0.81023  1.0000
  Fe  Fe51      1.0  0.04709  0.77719  0.82004  1.0000
  S   S101      1.0  0.04090  0.72916  0.82487  1.0000
  Fe  Fe52      1.0  0.04672  0.83977  0.83534  1.0000
  S   S102      1.0  0.04195  0.86818  0.86323  1.0000
  S   S103      1.0  0.05856  0.79067  0.78978  1.0000
  S   S104      1.0  0.05798  0.85669  0.80647  1.0000
  Fe  Fe53      1.0  0.18531  0.78546  0.80052  1.0000
  S   S105      1.0  0.18628  0.80278  0.83273  1.0000
  S   S106      1.0  0.16305  0.77239  0.78503  1.0000
  Fe  Fe54      1.0  0.22056  0.78463  0.79468  1.0000
  S   S107      1.0  0.22394  0.80274  0.82664  1.0000
  S   S108      1.0  0.24216  0.77811  0.77413  1.0000
  Fe  Fe55      1.0  0.20556  0.77102  0.83649  1.0000
  S   S109      1.0  0.20688  0.74542  0.86631  1.0000
  Fe  Fe56      1.0  0.20446  0.83328  0.82043  1.0000
  S   S110      1.0  0.20439  0.88260  0.82465  1.0000
  S   S111      1.0  0.20332  0.75119  0.80517  1.0000
  S   S112      1.0  0.20238  0.81764  0.78756  1.0000
  Fe  Fe57      1.0  0.04046  0.54015  0.93514  1.0000
  S   S113      1.0  0.02896  0.55973  0.90735  1.0000
  S   S114      1.0  0.03076  0.52963  0.96790  1.0000
  Fe  Fe58      1.0  0.07175  0.53526  0.91131  1.0000
  S   S115      1.0  0.06221  0.55368  0.88216  1.0000
  S   S116      1.0  0.09542  0.51441  0.91025  1.0000
  Fe  Fe59      1.0  0.05054  0.58666  0.90234  1.0000
  S   S117      1.0  0.05373  0.63561  0.89639  1.0000
  Fe  Fe60      1.0  0.04177  0.52548  0.88920  1.0000
  H   H609      1.0  0.22895  0.75829  0.71266  1.0000
  S   S118      1.0  0.06130  0.56939  0.93157  1.0000
  H   H610      1.0  0.15840  0.50908  0.82571  1.0000
  Fe  Fe61      1.0  0.18295  0.56251  0.92056  1.0000
  S   S119      1.0  0.19153  0.54852  0.88932  1.0000
  S   S120      1.0  0.15869  0.57818  0.92731  1.0000
  Fe  Fe62      1.0  0.21560  0.56500  0.93889  1.0000
  S   S121      1.0  0.22649  0.55136  0.90864  1.0000
  S   S122      1.0  0.22631  0.57317  0.97063  1.0000
  Fe  Fe63      1.0  0.20980  0.58196  0.89393  1.0000
  S   S123      1.0  0.21555  0.60963  0.86606  1.0000
  Fe  Fe64      1.0  0.20727  0.51864  0.90628  1.0000
  S   S124      1.0  0.20396  0.96748  0.90271  1.0000
  S   S125      1.0  0.20040  0.59800  0.92404  1.0000
  S   S126      1.0  0.19732  0.53033  0.93764  1.0000
  H   H611      1.0  0.09882  0.68391  0.94550  1.0000
  C   C765      1.0  0.11290  0.53299  0.91414  1.0000
  C   C766      1.0  0.11322  0.56153  0.92095  1.0000
  C   C767      1.0  0.12736  0.57508  0.92478  1.0000
  C   C768      1.0  0.14129  0.56039  0.92162  1.0000
  C   C769      1.0  0.14098  0.53207  0.91436  1.0000
  C   C770      1.0  0.12684  0.51841  0.91073  1.0000
  H   H612      1.0  0.10257  0.57297  0.92361  1.0000
  H   H613      1.0  0.12750  0.59704  0.93031  1.0000
  H   H614      1.0  0.15162  0.52053  0.91204  1.0000
  C   C771      1.0  0.20992  0.63835  0.98540  1.0000
  C   C772      1.0  0.24930  0.75018  0.75771  1.0000
  H   H615      1.0  0.23944  0.61690  0.83855  1.0000
  H   H616      1.0  0.01969  0.88523  0.89751  1.0000
  C   C773      1.0  0.23445  0.76203  0.69773  1.0000
  H   H617      1.0  0.02544  0.86698  0.71798  1.0000
  C   C774      1.0  0.20360  0.94440  0.88071  1.0000
  C   C775      1.0  0.20465  0.91436  0.88374  1.0000
  C   C776      1.0  0.20455  0.89509  0.86691  1.0000
  C   C777      1.0  0.20347  0.90562  0.84671  1.0000
  C   C778      1.0  0.20229  0.93567  0.84370  1.0000
  C   C779      1.0  0.20229  0.95492  0.86054  1.0000
  H   H618      1.0  0.20561  0.90590  0.89924  1.0000
  H   H619      1.0  0.20552  0.87214  0.86955  1.0000
  H   H620      1.0  0.20146  0.94413  0.82818  1.0000
  H   H621      1.0  0.17913  0.74346  0.70550  1.0000
  C   C780      1.0  0.20818  0.70745  0.86571  1.0000
  C   C781      1.0  0.20687  0.69185  0.88427  1.0000
  C   C782      1.0  0.20838  0.66168  0.88447  1.0000
  C   C783      1.0  0.21172  0.64699  0.86618  1.0000
  C   C784      1.0  0.21281  0.66252  0.84757  1.0000
  C   C785      1.0  0.21093  0.69262  0.84729  1.0000
  H   H622      1.0  0.20478  0.70319  0.89855  1.0000
  H   H623      1.0  0.20728  0.64990  0.89884  1.0000
  H   H624      1.0  0.21529  0.65126  0.83336  1.0000
  H   H625      1.0  0.21215  0.70439  0.83294  1.0000
  C   C786      1.0  0.04465  0.70358  0.84499  1.0000
  C   C787      1.0  0.03925  0.67504  0.84304  1.0000
  C   C788      1.0  0.04179  0.65404  0.85854  1.0000
  C   C789      1.0  0.04986  0.66120  0.87629  1.0000
  C   C790      1.0  0.05530  0.68971  0.87821  1.0000
  C   C791      1.0  0.05278  0.71070  0.86269  1.0000
  H   H626      1.0  0.03293  0.66918  0.82948  1.0000
  H   H627      1.0  0.03743  0.63236  0.85677  1.0000
  H   H628      1.0  0.06146  0.69564  0.89187  1.0000
  H   H629      1.0  0.05703  0.73246  0.86451  1.0000
  C   C792      1.0  0.04591  0.90568  0.86267  1.0000
  C   C793      1.0  0.04497  0.92150  0.88107  1.0000
  C   C794      1.0  0.04665  0.95169  0.88088  1.0000
  C   C795      1.0  0.04930  0.96635  0.86224  1.0000
  C   C796      1.0  0.05097  0.95042  0.84401  1.0000
  C   C797      1.0  0.04929  0.92025  0.84418  1.0000
  H   H630      1.0  0.04279  0.91048  0.89557  1.0000
  H   H631      1.0  0.04539  0.96361  0.89506  1.0000
  H   H632      1.0  0.05337  0.96150  0.82965  1.0000
  H   H633      1.0  0.05024  0.90842  0.82993  1.0000
  C   C798      1.0  0.11649  0.81201  0.80402  1.0000
  C   C799      1.0  0.13023  0.82308  0.81184  1.0000
  C   C800      1.0  0.14449  0.81074  0.80651  1.0000
  C   C801      1.0  0.14520  0.78748  0.79292  1.0000
  C   C802      1.0  0.13146  0.77626  0.78513  1.0000
  C   C803      1.0  0.11713  0.78824  0.79083  1.0000
  H   H634      1.0  0.12987  0.84157  0.82194  1.0000
  H   H635      1.0  0.15495  0.81973  0.81253  1.0000
  H   H636      1.0  0.13191  0.75857  0.77436  1.0000
  H   H637      1.0  0.10665  0.77974  0.78451  1.0000
  H   H638      1.0  0.20148  0.77146  0.94843  1.0000
  H   H639      1.0  0.01188  0.58523  0.98495  1.0000
  C   C804      1.0  0.22024  0.65098  0.97122  1.0000
  C   C805      1.0  0.19663  0.50775  0.81580  1.0000
  H   H640      1.0  0.20274  0.83040  0.73610  1.0000
  C   C806      1.0  0.21437  0.84038  0.67810  1.0000
  H   H641      1.0  0.00905  0.54925  0.72565  1.0000
  H   H642      1.0  0.08268  0.90937  0.76912  1.0000
  H   H643      1.0  0.01115  0.49585  0.91017  1.0000
  H   H644      1.0  0.10654  0.66703  0.77848  1.0000
  H   H645      1.0  0.02463  0.68052  0.67770  1.0000
  C   C807      1.0  0.25251  0.50358  0.84359  1.0000
  H   H646      1.0  0.20166  0.76601  0.68819  1.0000
  C   C808      1.0  0.24528  0.94475  0.84314  1.0000
  C   C809      1.0  0.25383  0.68879  0.82516  1.0000
  H   H647      1.0  0.05511  0.97747  0.79438  1.0000
  H   H648      1.0  0.24305  0.71337  0.87274  1.0000
  H   H649      1.0  0.19142  0.82246  0.67603  1.0000
  H   H650      1.0  0.24875  0.52045  0.96015  1.0000
  C   C810      1.0  0.11425  0.74425  0.92326  1.0000
  H   H651      1.0  0.10454  0.61166  0.87624  1.0000
  C   C811      1.0  0.24653  0.53303  0.78100  1.0000
  H   H652      1.0  0.23703  0.62993  0.89737  1.0000
  H   H653      1.0  0.05742  0.81917  0.70572  1.0000
  C   C812      1.0  0.24930  0.77073  0.65959  1.0000
  H   H654      1.0  0.23120  0.50690  0.86141  1.0000
  H   H655      1.0  0.15160  0.58429  0.87415  1.0000
  C   C813      1.0  0.02259  0.78570  0.70321  1.0000
  C   C814      1.0  0.21110  0.63046  0.78074  1.0000
  H   H656      1.0  0.05933  0.88577  0.75564  1.0000
  C   C815      1.0  0.24447  0.63874  0.90899  1.0000
  H   H657      1.0  0.21850  0.87625  0.71241  1.0000
  H   H658      1.0  0.22662  0.66409  0.92309  1.0000
  C   C816      1.0  0.01462  0.85915  0.74767  1.0000
  C   C817      1.0  0.23943  0.97752  0.92852  1.0000
  C   C818      1.0  0.00715  0.50737  0.81144  1.0000
  C   C819      1.0  0.25002  0.83863  0.74415  1.0000
  H   H659      1.0  0.24441  0.76008  0.85405  1.0000
  C   C820      1.0  0.00871  0.95624  0.88507  1.0000
  H   H660      1.0  0.03162  0.96259  0.73954  1.0000
  C   C821      1.0  0.24282  0.59038  0.98122  1.0000
  C   C822      1.0  0.08362  0.90818  0.89776  1.0000
  C   C823      1.0  0.07771  0.92724  0.91245  1.0000
  C   C824      1.0  0.08263  0.95593  0.91253  1.0000
  C   C825      1.0  0.09309  0.96587  0.89749  1.0000
  C   C826      1.0  0.09871  0.94707  0.88226  1.0000
  C   C827      1.0  0.09438  0.91785  0.88303  1.0000
  P   P25       1.0  0.11228  0.95988  0.86291  1.0000
  C   C828      1.0  0.16490  0.50427  0.85745  1.0000
  C   C829      1.0  0.13098  0.95740  0.87442  1.0000
  C   C830      1.0  0.13601  0.97919  0.88770  1.0000
  C   C831      1.0  0.15059  0.97770  0.89632  1.0000
  C   C832      1.0  0.15499  0.93194  0.87956  1.0000
  C   C833      1.0  0.14037  0.93323  0.87103  1.0000
  C   C834      1.0  0.01466  0.93927  0.80485  1.0000
  C   C835      1.0  0.25096  0.74456  0.67005  1.0000
  C   C836      1.0  0.01791  0.69787  0.67123  1.0000
  C   C837      1.0  0.24346  0.97152  0.90802  1.0000
  H   H661      1.0  0.03449  0.76609  0.75118  1.0000
  C   C838      1.0  0.11059  0.93931  0.83944  1.0000
  C   C839      1.0  0.09634  0.92764  0.83393  1.0000
  C   C840      1.0  0.09530  0.90960  0.81682  1.0000
  C   C841      1.0  0.10831  0.90403  0.80459  1.0000
  C   C842      1.0  0.12229  0.91712  0.80916  1.0000
  C   C843      1.0  0.12341  0.93500  0.82638  1.0000
  H   H662      1.0  0.07978  0.88594  0.89767  1.0000
  H   H663      1.0  0.06933  0.91975  0.92376  1.0000
  H   H664      1.0  0.07836  0.97059  0.92423  1.0000
  C   C844      1.0  0.24356  0.50447  0.86183  1.0000
  H   H665      1.0  0.09909  0.90255  0.87209  1.0000
  C   C845      1.0  0.01701  0.72443  0.68131  1.0000
  H   H666      1.0  0.16238  0.91359  0.87655  1.0000
  H   H667      1.0  0.13645  0.91529  0.86189  1.0000
  H   H668      1.0  0.16944  0.52593  0.85863  1.0000
  H   H669      1.0  0.02771  0.96513  0.93465  1.0000
  C   C846      1.0  0.24984  0.68829  0.84626  1.0000
  S   S127      1.0  0.03137  0.49812  0.86403  1.0000
  C   C847      1.0  0.19953  0.83831  0.67013  1.0000
  C   C848      1.0  0.24807  0.66926  0.93892  1.0000
  C   C849      1.0  0.24017  0.91803  0.83609  1.0000
  H   H670      1.0  0.13434  0.94492  0.82970  1.0000
  C   C850      1.0  0.17822  0.77425  0.73019  1.0000
  H   H671      1.0  0.23073  0.72035  0.76315  1.0000
  C   C851      1.0  0.01487  0.86853  0.72691  1.0000
  C   C852      1.0  0.25043  0.50063  0.88097  1.0000
  H   H672      1.0  0.16836  0.76434  0.73789  1.0000
  H   H673      1.0  0.20129  0.97787  0.85789  1.0000
  C   C853      1.0  0.25147  0.61219  0.84039  1.0000
  H   H674      1.0  0.23606  0.86328  0.67584  1.0000
  C   C854      1.0  0.03439  0.53940  0.80917  1.0000
  H   H675      1.0  0.23230  0.90337  0.73892  1.0000
  C   C855      1.0  0.22832  0.66711  0.79344  1.0000
  H   H676      1.0  0.01629  0.87453  0.93838  1.0000
  C   C856      1.0  0.23859  0.65798  0.92364  1.0000
  H   H677      1.0  0.02311  0.72712  0.69554  1.0000
  H   H678      1.0  0.18737  0.49358  0.81135  1.0000
  C   C857      1.0  0.04402  0.91846  0.76720  1.0000
  C   C858      1.0  0.14316  0.60116  0.87634  1.0000
  C   C859      1.0  0.11666  0.61651  0.87772  1.0000
  C   C860      1.0  0.12130  0.64393  0.88400  1.0000
  C   C861      1.0  0.13690  0.64990  0.88712  1.0000
  C   C862      1.0  0.14784  0.62858  0.88260  1.0000
  P   P26       1.0  0.14293  0.68476  0.89640  1.0000
  C   C863      1.0  0.14833  0.70641  0.87412  1.0000
  C   C864      1.0  0.12786  0.70145  0.91166  1.0000
  C   C865      1.0  0.12609  0.73154  0.91166  1.0000
  C   C866      1.0  0.22766  0.75109  0.91191  1.0000
  C   C867      1.0  0.02397  0.89240  0.94125  1.0000
  C   C868      1.0  0.25564  0.71084  0.97185  1.0000
  C   C869      1.0  0.11825  0.68448  0.92448  1.0000
  C   C870      1.0  0.16359  0.70683  0.86671  1.0000
  C   C871      1.0  0.16782  0.72476  0.85013  1.0000
  C   C872      1.0  0.15685  0.74190  0.84059  1.0000
  C   C873      1.0  0.14154  0.74064  0.84723  1.0000
  C   C874      1.0  0.13726  0.72273  0.86380  1.0000
  C   C875      1.0  0.15854  0.68057  0.91409  1.0000
  C   C876      1.0  0.15950  0.65567  0.92641  1.0000
  C   C877      1.0  0.17161  0.65222  0.94005  1.0000
  C   C878      1.0  0.18265  0.67390  0.94187  1.0000
  C   C879      1.0  0.18145  0.69921  0.93022  1.0000
  C   C880      1.0  0.16939  0.70268  0.91648  1.0000
  H   H679      1.0  0.11267  0.66012  0.88690  1.0000
  H   H680      1.0  0.15996  0.63269  0.88472  1.0000
  H   H681      1.0  0.13384  0.74529  0.90280  1.0000
  C   C881      1.0  0.24344  0.74018  0.68902  1.0000
  C   C882      1.0  0.25549  0.51956  0.97404  1.0000
  H   H682      1.0  0.18006  0.80782  0.75273  1.0000
  H   H683      1.0  0.11986  0.66136  0.92555  1.0000
  H   H684      1.0  0.17229  0.69363  0.87380  1.0000
  H   H685      1.0  0.17964  0.72552  0.84470  1.0000
  H   H686      1.0  0.16018  0.75591  0.82785  1.0000
  H   H687      1.0  0.13305  0.75364  0.83949  1.0000
  H   H688      1.0  0.12535  0.72194  0.86869  1.0000
  H   H689      1.0  0.15096  0.63874  0.92547  1.0000
  H   H690      1.0  0.17243  0.63252  0.94907  1.0000
  H   H691      1.0  0.19206  0.67111  0.95236  1.0000
  H   H692      1.0  0.18994  0.71608  0.93165  1.0000
  H   H693      1.0  0.16863  0.72255  0.90770  1.0000
  C   C883      1.0  0.09732  0.76030  0.84965  1.0000
  C   C884      1.0  0.09338  0.75329  0.87006  1.0000
  C   C885      1.0  0.09208  0.72439  0.87610  1.0000
  C   C886      1.0  0.09454  0.70246  0.86169  1.0000
  C   C887      1.0  0.09820  0.70935  0.84105  1.0000
  C   C888      1.0  0.09976  0.73845  0.83522  1.0000
  P   P27       1.0  0.10195  0.68175  0.82209  1.0000
  C   C889      1.0  0.12240  0.68272  0.81713  1.0000
  C   C890      1.0  0.09553  0.64610  0.82975  1.0000
  C   C891      1.0  0.10396  0.62161  0.82381  1.0000
  C   C892      1.0  0.09887  0.59402  0.82950  1.0000
  C   C893      1.0  0.08517  0.59059  0.84076  1.0000
  C   C894      1.0  0.07643  0.61472  0.84604  1.0000
  C   C895      1.0  0.08143  0.64234  0.84025  1.0000
  C   C896      1.0  0.13235  0.66676  0.82957  1.0000
  C   C897      1.0  0.14820  0.66767  0.82589  1.0000
  C   C898      1.0  0.15426  0.68499  0.81000  1.0000
  C   C899      1.0  0.14447  0.70158  0.79795  1.0000
  C   C900      1.0  0.12862  0.70070  0.80160  1.0000
  C   C901      1.0  0.09120  0.68986  0.79928  1.0000
  C   C902      1.0  0.07734  0.70508  0.80087  1.0000
  C   C903      1.0  0.06880  0.71078  0.78328  1.0000
  C   C904      1.0  0.07397  0.70117  0.76400  1.0000
  C   C905      1.0  0.08761  0.68550  0.76233  1.0000
  C   C906      1.0  0.09614  0.67961  0.77994  1.0000
  H   H694      1.0  0.09829  0.78273  0.84488  1.0000
  H   H695      1.0  0.09118  0.77030  0.88111  1.0000
  H   H696      1.0  0.08891  0.71894  0.89189  1.0000
  H   H697      1.0  0.09338  0.68033  0.86673  1.0000
  H   H698      1.0  0.10274  0.74435  0.81945  1.0000
  H   H699      1.0  0.11437  0.62367  0.81460  1.0000
  H   H700      1.0  0.10550  0.57523  0.82512  1.0000
  H   H701      1.0  0.08608  0.93172  0.84314  1.0000
  H   H702      1.0  0.06574  0.61201  0.85465  1.0000
  H   H703      1.0  0.07426  0.66071  0.84393  1.0000
  H   H704      1.0  0.12787  0.65374  0.84219  1.0000
  H   H705      1.0  0.15581  0.65550  0.83566  1.0000
  H   H706      1.0  0.16657  0.68634  0.80745  1.0000
  H   H707      1.0  0.14923  0.71568  0.78606  1.0000
  H   H708      1.0  0.12127  0.71435  0.79249  1.0000
  H   H709      1.0  0.07297  0.71236  0.81571  1.0000
  H   H710      1.0  0.05807  0.72246  0.78475  1.0000
  H   H711      1.0  0.06730  0.70567  0.75041  1.0000
  H   H712      1.0  0.09151  0.67776  0.74740  1.0000
  C   C907      1.0  0.03537  0.80238  0.69706  1.0000
  C   C908      1.0  0.23255  0.78831  0.68719  1.0000
  H   H713      1.0  0.21464  0.73356  0.96810  1.0000
  C   C909      1.0  0.07155  0.91931  0.77147  1.0000
  H   H714      1.0  0.23668  0.52039  0.77644  1.0000
  C   C910      1.0  0.12757  0.59505  0.87407  1.0000
  C   C911      1.0  0.16013  0.95425  0.89209  1.0000
  H   H715      1.0  0.11282  0.76746  0.92300  1.0000
  C   C912      1.0  0.24225  0.82307  0.72914  1.0000
  H   H716      1.0  0.24475  0.80040  0.72738  1.0000
  C   C913      1.0  0.24652  0.86758  0.74758  1.0000
  H   H717      1.0  0.20942  0.78222  0.91218  1.0000
  P   P28       1.0  0.22057  0.81627  0.69833  1.0000
  H   H718      1.0  0.17144  0.95318  0.89876  1.0000
  C   C914      1.0  0.04751  0.79231  0.72964  1.0000
  C   C915      1.0  0.24941  0.89507  0.86705  1.0000
  H   H719      1.0  0.12390  0.57346  0.87010  1.0000
  H   H720      1.0  0.24337  0.59989  0.79942  1.0000
  H   H721      1.0  0.22991  0.96612  0.93587  1.0000
  H   H722      1.0  0.05687  0.79570  0.74015  1.0000
  C   C916      1.0  0.02025  0.92045  0.93479  1.0000
  C   C917      1.0  0.23053  0.72268  0.94324  1.0000
  C   C918      1.0  0.23526  0.88108  0.73593  1.0000
  C   C919      1.0  0.24740  0.74030  0.84612  1.0000
  H   H723      1.0  0.10757  0.88920  0.79177  1.0000
  H   H724      1.0  0.05784  0.90622  0.96471  1.0000
  C   C920      1.0  0.24208  0.89326  0.84811  1.0000
  C   C921      1.0  0.23108  0.83654  0.71717  1.0000
  C   C922      1.0  0.05844  0.90606  0.76381  1.0000
  C   C923      1.0  0.21839  0.73811  0.95243  1.0000
  H   H725      1.0  0.23111  0.75599  0.89612  1.0000
  H   H726      1.0  0.24460  0.71971  0.69695  1.0000
  H   H727      1.0  0.05143  0.95587  0.95335  1.0000
  C   C924      1.0  0.25253  0.52983  0.80085  1.0000
  H   H728      1.0  0.25229  0.87933  0.75961  1.0000
  C   C925      1.0  0.21090  0.75972  0.94134  1.0000
  C   C926      1.0  0.00760  0.88037  0.89632  1.0000
  H   H729      1.0  0.01667  0.87560  0.83129  1.0000
  H   H730      1.0  0.02854  0.90067  0.80163  1.0000
  H   H731      1.0  0.24357  0.96362  0.83358  1.0000
  H   H732      1.0  0.04503  0.55153  0.80858  1.0000
  C   C927      1.0  0.01824  0.50095  0.79618  1.0000
  H   H733      1.0  0.20037  0.62460  0.77366  1.0000
  C   C928      1.0  0.04741  0.91013  0.95629  1.0000
  C   C929      1.0  0.05584  0.95760  0.78577  1.0000
  C   C930      1.0  0.19713  0.77530  0.70232  1.0000
  C   C931      1.0  0.03753  0.88728  0.95188  1.0000
  C   C932      1.0  0.25330  0.55224  0.76680  1.0000
  H   H734      1.0  0.12668  0.49630  0.90554  1.0000
  H   H735      1.0  0.08125  0.56922  0.84522  1.0000
  H   H736      1.0  0.03577  0.81318  0.68223  1.0000
  C   C933      1.0  0.18432  0.76251  0.71202  1.0000
  H   H737      1.0  0.24860  0.66816  0.85464  1.0000
  P   P29       1.0  0.02376  0.95883  0.78368  1.0000
  C   C934      1.0  0.02333  0.54554  0.82438  1.0000
  C   C935      1.0  0.10639  0.69723  0.93599  1.0000
  H   H738      1.0  0.23066  0.68971  0.79598  1.0000
  P   P30       1.0  0.24357  0.50449  0.81870  1.0000
  C   C936      1.0  0.23539  0.61670  0.79540  1.0000
  H   H739      1.0  0.16989  0.49321  0.88895  1.0000
  C   C937      1.0  0.01264  0.89685  0.82697  1.0000
  C   C938      1.0  0.23524  0.72963  0.92295  1.0000
  H   H740      1.0  0.04030  0.86561  0.95688  1.0000
  C   C939      1.0  0.24770  0.70272  0.74185  1.0000
  C   C940      1.0  0.23877  0.64576  0.79942  1.0000
  C   C941      1.0  0.07026  0.94511  0.78240  1.0000
  C   C942      1.0  0.03486  0.77565  0.73587  1.0000
  C   C943      1.0  0.24669  0.71398  0.85667  1.0000
  H   H741      1.0  0.23425  0.91655  0.82156  1.0000
  H   H742      1.0  0.18175  0.54335  0.82343  1.0000
  C   C944      1.0  0.00829  0.74700  0.67303  1.0000
  C   C945      1.0  0.03186  0.51722  0.79510  1.0000
  S   S128      1.0  0.05195  0.50493  0.91699  1.0000
  H   H743      1.0  0.20649  0.67611  0.77985  1.0000
  H   H744      1.0  0.03394  0.90759  0.76151  1.0000
  H   H745      1.0  0.01268  0.75952  0.72789  1.0000
  C   C946      1.0  0.01935  0.95930  0.74113  1.0000
  H   H746      1.0  0.09511  0.73692  0.94420  1.0000
  C   C947      1.0  0.04776  0.80569  0.71027  1.0000
  C   C948      1.0  0.19773  0.81155  0.72908  1.0000
  C   C949      1.0  0.19346  0.53565  0.82266  1.0000
  H   H747      1.0  0.25081  0.87585  0.87638  1.0000
  C   C950      1.0  0.20541  0.55368  0.82866  1.0000
  C   C951      1.0  0.01945  0.91134  0.81017  1.0000
  P   P31       1.0  0.24034  0.69473  0.95737  1.0000
  H   H748      1.0  0.02548  0.56212  0.83570  1.0000
  H   H749      1.0  0.25481  0.59748  0.95241  1.0000
  C   C952      1.0  0.22751  0.86563  0.72084  1.0000
  C   C953      1.0  0.22453  0.86135  0.67002  1.0000
  C   C954      1.0  0.22722  0.67752  0.97561  1.0000
  C   C955      1.0  0.04260  0.94426  0.77826  1.0000
  C   C956      1.0  0.22154  0.60909  0.78628  1.0000
  H   H750      1.0  0.20292  0.57525  0.83413  1.0000
  C   C957      1.0  0.24153  0.72405  0.75508  1.0000
  H   H751      1.0  0.22282  0.63952  0.95712  1.0000
  C   C958      1.0  0.25471  0.92171  0.87405  1.0000
  H   H752      1.0  0.20469  0.61772  0.98196  1.0000
  H   H753      1.0  0.23760  0.87279  0.84283  1.0000
  C   C959      1.0  0.22055  0.54389  0.82780  1.0000
  C   C960      1.0  0.03031  0.94323  0.93918  1.0000
  C   C961      1.0  0.04381  0.93807  0.94989  1.0000
  H   H754      1.0  0.01068  0.93526  0.87835  1.0000
  C   C962      1.0  0.21542  0.76596  0.92101  1.0000
  C   C963      1.0  0.02245  0.77231  0.72272  1.0000
  H   H755      1.0  0.24154  0.68266  0.73992  1.0000
  H   H756      1.0  0.21891  0.58661  0.78353  1.0000
  C   C964      1.0  0.01459  0.51025  0.97859  1.0000
  C   C965      1.0  0.22385  0.51592  0.82086  1.0000
  H   H757      1.0  0.24704  0.57923  0.86329  1.0000
  C   C966      1.0  0.21453  0.65945  0.78423  1.0000
  H   H758      1.0  0.08042  0.95526  0.78850  1.0000
  H   H759      1.0  0.13235  0.91283  0.79960  1.0000
  C   C967      1.0  0.18486  0.79882  0.73862  1.0000
  C   C968      1.0  0.10432  0.72708  0.93527  1.0000
  H   H760      1.0  0.22966  0.55817  0.83259  1.0000
  C   C969      1.0  0.25579  0.59083  0.85442  1.0000
  H   H761      1.0  0.08449  0.89927  0.81336  1.0000
  C   C970      1.0  0.20400  0.79982  0.71087  1.0000
  H   H762      1.0  0.23684  0.95557  0.89988  1.0000
  H   H763      1.0  0.24875  0.55431  0.75140  1.0000
  H   H764      1.0  0.24474  0.71850  0.91558  1.0000
  H   H765      1.0  0.01775  0.53006  0.75891  1.0000
  C   C971      1.0  0.24018  0.79255  0.66809  1.0000
  C   C972      1.0  0.21178  0.49792  0.81478  1.0000
  C   C973      1.0  0.25516  0.60013  0.96895  1.0000
  H   H766      1.0  0.04058  0.51256  0.78349  1.0000
  C   C974      1.0  0.15874  0.49475  0.83892  1.0000
  C   C975      1.0  0.25147  0.74102  0.82517  1.0000
  H   H767      1.0  0.01499  0.97848  0.85691  1.0000
  C   C976      1.0  0.25234  0.94686  0.86238  1.0000
  C   C977      1.0  0.00972  0.52959  0.82547  1.0000
  H   H768      1.0  0.25180  0.76138  0.81686  1.0000
  H   H769      1.0  0.23914  0.81249  0.65957  1.0000
  C   C978      1.0  0.01049  0.95849  0.72336  1.0000
  H   H770      1.0  0.06157  0.49965  0.97772  1.0000
  H   H771      1.0  0.01590  0.96067  0.70826  1.0000
  H   H772      1.0  0.01182  0.84441  0.87615  1.0000
  C   C979      1.0  0.25467  0.71541  0.81471  1.0000
  C   C980      1.0  0.01113  0.98076  0.87279  1.0000
  C   C981      1.0  0.01205  0.51572  0.74843  1.0000
  C   C982      1.0  0.01237  0.95613  0.76074  1.0000
  H   H773      1.0  0.24337  0.50016  0.89493  1.0000
  H   H774      1.0  0.08489  0.49248  0.95576  1.0000
  C   C983      1.0  0.00710  0.52678  0.72953  1.0000
  C   C984      1.0  0.00943  0.48662  0.75361  1.0000
  Fe  Fe65      1.0  0.43420  0.19445  0.05366  1.0000
  S   S129      1.0  0.44248  0.17478  0.08308  1.0000
  S   S130      1.0  0.40978  0.21219  0.05212  1.0000
  Fe  Fe66      1.0  0.46713  0.19553  0.03423  1.0000
  S   S131      1.0  0.47751  0.17576  0.06277  1.0000
  C   C985      1.0  0.50445  0.23884  0.26599  1.0000
  Fe  Fe67      1.0  0.45707  0.14556  0.06344  1.0000
  S   S132      1.0  0.45707  0.09606  0.06627  1.0000
  Fe  Fe68      1.0  0.46196  0.20652  0.08039  1.0000
  S   S133      1.0  0.46645  0.23021  0.11036  1.0000
  S   S134      1.0  0.44752  0.16347  0.03377  1.0000
  S   S135      1.0  0.45297  0.22793  0.05210  1.0000
  Fe  Fe69      1.0  0.28858  0.15771  0.04649  1.0000
  S   S136      1.0  0.28363  0.17433  0.07869  1.0000
  S   S137      1.0  0.26749  0.15329  0.02543  1.0000
  Fe  Fe70      1.0  0.32342  0.15650  0.05503  1.0000
  S   S138      1.0  0.32050  0.17195  0.08757  1.0000
  S   S139      1.0  0.34691  0.14274  0.04270  1.0000
  Fe  Fe71      1.0  0.30056  0.14085  0.08914  1.0000
  S   S140      1.0  0.29658  0.11313  0.11801  1.0000
  Fe  Fe72      1.0  0.30395  0.20408  0.07453  1.0000
  S   S141      1.0  0.30463  0.25312  0.07986  1.0000
  S   S142      1.0  0.30455  0.12292  0.05743  1.0000
  S   S143      1.0  0.30786  0.18998  0.04146  1.0000
  Fe  Fe73      1.0  0.46282  0.39120  0.14705  1.0000
  S   S144      1.0  0.45073  0.37012  0.17390  1.0000
  S   S145      1.0  0.47153  0.36696  0.11875  1.0000
  Fe  Fe74      1.0  0.45847  0.45222  0.16451  1.0000
  S   S146      1.0  0.44610  0.43467  0.19295  1.0000
  C   C986      1.0  0.27138  0.00739  0.05084  1.0000
  Fe  Fe75      1.0  0.46460  0.40019  0.19357  1.0000
  S   S147      1.0  0.47461  0.38493  0.22460  1.0000
  Fe  Fe76      1.0  0.43348  0.40591  0.17101  1.0000
  S   S148      1.0  0.40857  0.39276  0.16606  1.0000
  S   S149      1.0  0.47772  0.41961  0.16661  1.0000
  S   S150      1.0  0.44486  0.42534  0.14286  1.0000
  Fe  Fe77      1.0  0.30357  0.44711  0.14800  1.0000
  C   C987      1.0  0.29608  0.02134  0.03617  1.0000
  C   C988      1.0  0.49423  0.33348  0.16903  1.0000
  Fe  Fe78      1.0  0.30406  0.38464  0.16424  1.0000
  S   S151      1.0  0.30542  0.40019  0.19720  1.0000
  S   S152      1.0  0.30518  0.33562  0.15913  1.0000
  Fe  Fe79      1.0  0.28751  0.43342  0.18918  1.0000
  S   S153      1.0  0.26513  0.44093  0.20803  1.0000
  Fe  Fe80      1.0  0.32280  0.43229  0.18494  1.0000
  S   S154      1.0  0.34530  0.44394  0.20017  1.0000
  S   S155      1.0  0.28496  0.41540  0.15698  1.0000
  S   S156      1.0  0.32245  0.41503  0.15285  1.0000
  H   H775      1.0  0.33371  0.45932  0.08049  1.0000
  H   H776      1.0  0.47763  0.34530  0.32288  1.0000
  C   C989      1.0  0.25791  0.98689  0.16751  1.0000
  H   H777      1.0  0.47877  0.42625  0.29057  1.0000
  C   C990      1.0  0.50333  0.31263  0.99235  1.0000
  C   C991      1.0  0.39134  0.40899  0.17505  1.0000
  C   C992      1.0  0.39107  0.43027  0.19026  1.0000
  C   C993      1.0  0.37691  0.44107  0.19771  1.0000
  C   C994      1.0  0.36295  0.43074  0.19000  1.0000
  C   C995      1.0  0.36330  0.40992  0.17450  1.0000
  C   C996      1.0  0.37740  0.39930  0.16698  1.0000
  H   H778      1.0  0.40172  0.43788  0.19662  1.0000
  H   H779      1.0  0.37675  0.45716  0.20973  1.0000
  H   H780      1.0  0.35271  0.40165  0.16846  1.0000
  H   H781      1.0  0.37749  0.38333  0.15491  1.0000
  C   C997      1.0  0.30508  0.27551  0.10219  1.0000
  C   C998      1.0  0.30663  0.26438  0.12216  1.0000
  C   C999      1.0  0.30675  0.28313  0.13930  1.0000
  C   C1000     1.0  0.30528  0.31320  0.13678  1.0000
  C   C1001     1.0  0.30391  0.32434  0.11679  1.0000
  C   C1002     1.0  0.30390  0.30562  0.09965  1.0000
  H   H782      1.0  0.30760  0.24134  0.12442  1.0000
  H   H783      1.0  0.30780  0.27422  0.15466  1.0000
  H   H784      1.0  0.30260  0.34730  0.11454  1.0000
  H   H785      1.0  0.30270  0.31451  0.08430  1.0000
  C   C1003     1.0  0.29038  0.01459  0.11531  1.0000
  C   C1004     1.0  0.28950  0.02916  0.13410  1.0000
  C   C1005     1.0  0.29119  0.05932  0.13458  1.0000
  C   C1006     1.0  0.29418  0.07522  0.11644  1.0000
  C   C1007     1.0  0.29527  0.06059  0.09768  1.0000
  C   C1008     1.0  0.29332  0.03045  0.09714  1.0000
  H   H786      1.0  0.28731  0.01727  0.14823  1.0000
  H   H787      1.0  0.29010  0.07037  0.14908  1.0000
  H   H788      1.0  0.29755  0.07243  0.08356  1.0000
  H   H789      1.0  0.29414  0.01934  0.08259  1.0000
  C   C1009     1.0  0.46347  0.03469  0.12221  1.0000
  C   C1010     1.0  0.46762  0.06402  0.12344  1.0000
  C   C1011     1.0  0.46561  0.08304  0.10661  1.0000
  C   C1012     1.0  0.45941  0.07308  0.08823  1.0000
  C   C1013     1.0  0.45519  0.04377  0.08699  1.0000
  C   C1014     1.0  0.45707  0.02474  0.10389  1.0000
  H   H790      1.0  0.47267  0.07200  0.13742  1.0000
  H   H791      1.0  0.46928  0.10523  0.10762  1.0000
  H   H792      1.0  0.45050  0.03569  0.07281  1.0000
  H   H793      1.0  0.35485  0.44695  0.14305  1.0000
  C   C1015     1.0  0.46656  0.26844  0.11203  1.0000
  C   C1016     1.0  0.47098  0.28577  0.09522  1.0000
  C   C1017     1.0  0.47266  0.31579  0.09766  1.0000
  C   C1018     1.0  0.46917  0.32904  0.11658  1.0000
  C   C1019     1.0  0.46419  0.31184  0.13321  1.0000
  C   C1020     1.0  0.46310  0.28168  0.13101  1.0000
  H   H794      1.0  0.47359  0.27592  0.08055  1.0000
  H   H795      1.0  0.47693  0.32881  0.08496  1.0000
  H   H796      1.0  0.46146  0.32165  0.14787  1.0000
  H   H797      1.0  0.45953  0.26861  0.14408  1.0000
  C   C1021     1.0  0.39245  0.19223  0.05002  1.0000
  C   C1022     1.0  0.39231  0.16391  0.04276  1.0000
  C   C1023     1.0  0.37828  0.14909  0.04070  1.0000
  C   C1024     1.0  0.36425  0.16229  0.04601  1.0000
  C   C1025     1.0  0.36440  0.19051  0.05352  1.0000
  C   C1026     1.0  0.37842  0.20549  0.05528  1.0000
  H   H798      1.0  0.40298  0.15372  0.03824  1.0000
  H   H799      1.0  0.37828  0.12735  0.03474  1.0000
  H   H800      1.0  0.35369  0.20102  0.05754  1.0000
  H   H801      1.0  0.37836  0.22754  0.06060  1.0000
  H   H802      1.0  0.32067  0.01276  0.12748  1.0000
  S   S157      1.0  0.30430  0.47232  0.11788  1.0000
  P   P32       1.0  0.47687  0.27597  0.21178  1.0000
  C   C1027     1.0  0.27040  0.41269  0.28274  1.0000
  C   C1028     1.0  0.49215  0.36889  0.23302  1.0000
  H   H803      1.0  0.29993  0.40380  0.05408  1.0000
  H   H804      1.0  0.27432  0.08052  0.04584  1.0000
  H   H805      1.0  0.26242  0.01583  0.09591  1.0000
  H   H806      1.0  0.47562  0.37113  0.99511  1.0000
  C   C1029     1.0  0.45200  0.20551  0.17496  1.0000
  C   C1030     1.0  0.49984  0.36538  0.31982  1.0000
  C   C1031     1.0  0.46678  0.44163  0.09146  1.0000
  P   P33       1.0  0.36351  0.45002  0.09934  1.0000
  H   H807      1.0  0.46821  0.41926  0.00756  1.0000
  C   C1032     1.0  0.50082  0.41071  0.30083  1.0000
  C   C1033     1.0  0.29540  0.43400  0.02950  1.0000
  C   C1034     1.0  0.49917  0.47411  0.14005  1.0000
  H   H808      1.0  0.47295  0.32706  0.18526  1.0000
  H   H809      1.0  0.42419  0.48363  0.11918  1.0000
  C   C1035     1.0  0.44610  0.21435  0.19407  1.0000
  C   C1036     1.0  0.45380  0.23539  0.20534  1.0000
  H   H810      1.0  0.48800  0.42234  0.06387  1.0000
  C   C1037     1.0  0.46220  0.29997  0.22162  1.0000
  C   C1038     1.0  0.46345  0.31257  0.24116  1.0000
  C   C1039     1.0  0.45225  0.33181  0.24831  1.0000
  C   C1040     1.0  0.43976  0.33868  0.23601  1.0000
  C   C1041     1.0  0.43835  0.32606  0.21663  1.0000
  C   C1042     1.0  0.44950  0.30676  0.20945  1.0000
  H   H811      1.0  0.26079  0.11109  0.11943  1.0000
  C   C1043     1.0  0.34269  0.48597  0.14993  1.0000
  H   H812      1.0  0.29738  0.41835  0.01739  1.0000
  C   C1044     1.0  0.34887  0.46187  0.03182  1.0000
  H   H813      1.0  0.44598  0.18951  0.16603  1.0000
  H   H814      1.0  0.43552  0.20507  0.20011  1.0000
  H   H815      1.0  0.44903  0.24227  0.22006  1.0000
  H   H816      1.0  0.28002  0.11776  0.16215  1.0000
  H   H817      1.0  0.38549  0.42832  0.12945  1.0000
  H   H818      1.0  0.45360  0.34229  0.26305  1.0000
  H   H819      1.0  0.43139  0.35433  0.24128  1.0000
  H   H820      1.0  0.42886  0.33195  0.20690  1.0000
  H   H821      1.0  0.44845  0.29783  0.19413  1.0000
  H   H822      1.0  0.42407  0.23998  0.00682  1.0000
  H   H823      1.0  0.50170  0.39755  0.03572  1.0000
  C   C1045     1.0  0.50571  0.27246  0.06612  1.0000
  H   H824      1.0  0.28984  0.17686  0.99091  1.0000
  C   C1046     1.0  0.41908  0.00851  0.16377  1.0000
  C   C1047     1.0  0.45198  0.42996  0.09237  1.0000
  C   C1048     1.0  0.46512  0.35343  0.04451  1.0000
  H   H825      1.0  0.48262  0.10266  0.03263  1.0000
  H   H826      1.0  0.48388  0.24763  0.17191  1.0000
  C   C1049     1.0  0.49350  0.36109  0.25398  1.0000
  H   H827      1.0  0.32589  0.46533  0.04437  1.0000
  H   H828      1.0  0.49749  0.33802  0.04562  1.0000
  C   C1050     1.0  0.35287  0.47402  0.11596  1.0000
  C   C1051     1.0  0.27193  0.39438  0.26563  1.0000
  H   H829      1.0  0.47324  0.30835  0.25071  1.0000
  C   C1052     1.0  0.25972  0.12920  0.00668  1.0000
  H   H830      1.0  0.41167  0.44297  0.13786  1.0000
  C   C1053     1.0  0.44249  0.47051  0.07288  1.0000
  H   H831      1.0  0.42833  0.43546  0.08429  1.0000
  H   H832      1.0  0.28010  0.01783  0.28298  1.0000
  C   C1054     1.0  0.34241  0.45908  0.06827  1.0000
  C   C1055     1.0  0.29127  0.42608  0.25056  1.0000
  H   H833      1.0  0.48387  0.36442  0.26440  1.0000
  C   C1056     1.0  0.35900  0.41270  0.10486  1.0000
  C   C1057     1.0  0.34381  0.40467  0.10959  1.0000
  C   C1058     1.0  0.34004  0.37571  0.11326  1.0000
  C   C1059     1.0  0.35135  0.35453  0.11190  1.0000
  C   C1060     1.0  0.36646  0.36225  0.10678  1.0000
  C   C1061     1.0  0.37025  0.39118  0.10299  1.0000
  H   H834      1.0  0.48164  0.44603  0.22747  1.0000
  H   H835      1.0  0.33484  0.42079  0.11047  1.0000
  H   H836      1.0  0.32834  0.36968  0.11733  1.0000
  H   H837      1.0  0.34835  0.33214  0.11472  1.0000
  H   H838      1.0  0.37522  0.34579  0.10575  1.0000
  S   S158      1.0  0.47809  0.20650  0.00238  1.0000
  H   H839      1.0  0.49315  0.47645  0.15473  1.0000
  H   H840      1.0  0.48036  0.25404  0.02930  1.0000
  C   C1062     1.0  0.40586  0.45357  0.12527  1.0000
  C   C1063     1.0  0.47653  0.38559  0.30621  1.0000
  H   H841      1.0  0.33567  0.31338  0.16210  1.0000
  H   H842      1.0  0.25911  0.03787  0.22530  1.0000
  C   C1064     1.0  0.49647  0.25520  0.05383  1.0000
  C   C1065     1.0  0.29133  0.46231  0.02446  1.0000
  H   H843      1.0  0.37277  0.45627  0.02382  1.0000
  H   H844      1.0  0.49001  0.35166  0.16022  1.0000
  H   H845      1.0  0.29904  0.43163  0.23789  1.0000
  H   H846      1.0  0.49049  0.20078  0.26315  1.0000
  H   H847      1.0  0.39642  0.01091  0.15148  1.0000
  C   C1066     1.0  0.36432  0.45732  0.03626  1.0000
  H   H848      1.0  0.47848  0.06857  0.00399  1.0000
  C   C1067     1.0  0.45935  0.26963  0.99744  1.0000
  H   H849      1.0  0.25897  0.08548  0.15219  1.0000
  H   H850      1.0  0.34265  0.27355  0.13874  1.0000
  H   H851      1.0  0.45886  0.42574  0.04365  1.0000
  H   H852      1.0  0.35936  0.99364  0.16608  1.0000
  H   H853      1.0  0.44240  0.01213  0.17368  1.0000
  C   C1068     1.0  0.29185  0.05032  0.03730  1.0000
  H   H854      1.0  0.29975  0.06699  0.03200  1.0000
  H   H855      1.0  0.44512  0.31192  0.03607  1.0000
  C   C1069     1.0  0.36885  0.45366  0.05672  1.0000
  C   C1070     1.0  0.46729  0.40082  0.01786  1.0000
  C   C1071     1.0  0.27490  0.35909  0.31393  1.0000
  H   H856      1.0  0.28307  0.38752  0.23608  1.0000
  C   C1072     1.0  0.31170  0.03865  0.18416  1.0000
  C   C1073     1.0  0.30677  0.06722  0.18553  1.0000
  C   C1074     1.0  0.31389  0.08853  0.17332  1.0000
  C   C1075     1.0  0.32587  0.08124  0.15968  1.0000
  C   C1076     1.0  0.33069  0.05247  0.15797  1.0000
  C   C1077     1.0  0.32374  0.03139  0.17062  1.0000
  P   P34       1.0  0.34758  0.04316  0.14307  1.0000
  C   C1078     1.0  0.35237  0.06894  0.12310  1.0000
  C   C1079     1.0  0.36234  0.03969  0.16202  1.0000
  C   C1080     1.0  0.36965  0.06435  0.16955  1.0000
  C   C1081     1.0  0.38034  0.06196  0.18533  1.0000
  C   C1082     1.0  0.38359  0.03494  0.19387  1.0000
  C   C1083     1.0  0.37607  0.01037  0.18675  1.0000
  C   C1084     1.0  0.36539  0.01276  0.17100  1.0000
  C   C1085     1.0  0.36777  0.07292  0.11707  1.0000
  C   C1086     1.0  0.37161  0.09001  0.09992  1.0000
  C   C1087     1.0  0.36005  0.10259  0.08833  1.0000
  C   C1088     1.0  0.34465  0.09835  0.09397  1.0000
  C   C1089     1.0  0.34078  0.08141  0.11122  1.0000
  C   C1090     1.0  0.34539  0.01044  0.12860  1.0000
  H   H857      1.0  0.29531  0.43949  0.08181  1.0000
  H   H858      1.0  0.42312  0.27935  0.03228  1.0000
  C   C1091     1.0  0.29683  0.42576  0.05014  1.0000
  C   C1092     1.0  0.50479  0.36434  0.21981  1.0000
  C   C1093     1.0  0.33084  0.00142  0.12239  1.0000
  H   H859      1.0  0.30628  0.02213  0.19371  1.0000
  H   H860      1.0  0.31001  0.11065  0.17420  1.0000
  H   H861      1.0  0.33136  0.09812  0.15062  1.0000
  C   C1094     1.0  0.39037  0.48212  0.09386  1.0000
  H   H862      1.0  0.36687  0.08540  0.16344  1.0000
  H   H863      1.0  0.38607  0.08102  0.19099  1.0000
  H   H864      1.0  0.39195  0.03295  0.20598  1.0000
  H   H865      1.0  0.34536  0.46451  0.01597  1.0000
  H   H866      1.0  0.26510  0.20239  0.99391  1.0000
  H   H867      1.0  0.37673  0.06173  0.12503  1.0000
  H   H868      1.0  0.38351  0.09280  0.09516  1.0000
  H   H869      1.0  0.36303  0.11526  0.07477  1.0000
  H   H870      1.0  0.33570  0.10768  0.08463  1.0000
  H   H871      1.0  0.32877  0.07729  0.11481  1.0000
  C   C1095     1.0  0.25935  0.00815  0.30008  1.0000
  C   C1096     1.0  0.43312  0.27716  0.02222  1.0000
  H   H872      1.0  0.29741  0.07274  0.19597  1.0000
  H   H873      1.0  0.27877  0.45203  0.29669  1.0000
  C   C1097     1.0  0.47344  0.23840  0.17847  1.0000
  H   H874      1.0  0.38078  0.44932  0.05984  1.0000
  C   C1098     1.0  0.35797  0.45521  0.07290  1.0000
  H   H875      1.0  0.45390  0.00227  0.10261  1.0000
  C   C1099     1.0  0.43364  0.25490  0.00783  1.0000
  S   S159      1.0  0.30508  0.46680  0.17944  1.0000
  C   C1100     1.0  0.49462  0.44434  0.25542  1.0000
  H   H876      1.0  0.44996  0.40961  0.10030  1.0000
  C   C1101     1.0  0.47034  0.34942  0.02413  1.0000
  C   C1102     1.0  0.27185  0.11011  0.17380  1.0000
  H   H877      1.0  0.28128  0.36276  0.29969  1.0000
  C   C1103     1.0  0.48974  0.29545  0.19444  1.0000
  H   H878      1.0  0.40696  0.99685  0.08716  1.0000
  H   H879      1.0  0.32789  0.00940  0.17025  1.0000
  C   C1104     1.0  0.46750  0.24770  0.19757  1.0000
  C   C1105     1.0  0.35061  0.46705  0.13686  1.0000
  C   C1106     1.0  0.28229  0.40115  0.24959  1.0000
  H   H880      1.0  0.47021  0.21084  0.15231  1.0000
  C   C1107     1.0  0.48735  0.29773  0.03582  1.0000
  C   C1108     1.0  0.41041  0.13416  0.08824  1.0000
  C   C1109     1.0  0.41365  0.11074  0.07545  1.0000
  C   C1110     1.0  0.41978  0.08552  0.08378  1.0000
  C   C1111     1.0  0.42267  0.08363  0.10489  1.0000
  C   C1112     1.0  0.41929  0.10695  0.11787  1.0000
  C   C1113     1.0  0.41342  0.13248  0.10931  1.0000
  P   P35       1.0  0.42322  0.10480  0.14512  1.0000
  C   C1114     1.0  0.40816  0.12466  0.15844  1.0000
  C   C1115     1.0  0.42182  0.06716  0.15278  1.0000
  C   C1116     1.0  0.40816  0.05195  0.14936  1.0000
  C   C1117     1.0  0.40689  0.02266  0.15448  1.0000
  C   C1118     1.0  0.43276  0.02332  0.16702  1.0000
  C   C1119     1.0  0.43433  0.05219  0.16097  1.0000
  C   C1120     1.0  0.41138  0.14189  0.17561  1.0000
  C   C1121     1.0  0.39983  0.15853  0.18490  1.0000
  C   C1122     1.0  0.38500  0.15829  0.17707  1.0000
  C   C1123     1.0  0.38167  0.14119  0.16007  1.0000
  C   C1124     1.0  0.39313  0.12429  0.15091  1.0000
  C   C1125     1.0  0.44183  0.12057  0.15018  1.0000
  C   C1126     1.0  0.44958  0.13669  0.13482  1.0000
  C   C1127     1.0  0.46399  0.14871  0.13855  1.0000
  C   C1128     1.0  0.47086  0.14454  0.15763  1.0000
  C   C1129     1.0  0.46315  0.12896  0.17316  1.0000
  C   C1130     1.0  0.44864  0.11723  0.16954  1.0000
  H   H881      1.0  0.40609  0.15405  0.08169  1.0000
  H   H882      1.0  0.41187  0.11240  0.05899  1.0000
  H   H883      1.0  0.42296  0.06789  0.07369  1.0000
  H   H884      1.0  0.42794  0.06427  0.11090  1.0000
  H   H885      1.0  0.41139  0.15129  0.11879  1.0000
  H   H886      1.0  0.39860  0.06266  0.14247  1.0000
  C   C1131     1.0  0.27338  0.00116  0.29071  1.0000
  H   H887      1.0  0.44550  0.06207  0.16227  1.0000
  H   H888      1.0  0.42278  0.14291  0.18179  1.0000
  H   H889      1.0  0.40242  0.17182  0.19809  1.0000
  H   H890      1.0  0.37611  0.17147  0.18412  1.0000
  H   H891      1.0  0.37022  0.14125  0.15383  1.0000
  H   H892      1.0  0.39031  0.11157  0.13756  1.0000
  H   H893      1.0  0.44477  0.13948  0.11971  1.0000
  H   H894      1.0  0.46992  0.16090  0.12647  1.0000
  H   H895      1.0  0.48216  0.15342  0.16035  1.0000
  H   H896      1.0  0.46852  0.12566  0.18794  1.0000
  H   H897      1.0  0.44287  0.10515  0.18176  1.0000
  C   C1132     1.0  0.41496  0.23224  0.14437  1.0000
  C   C1133     1.0  0.42347  0.22760  0.12622  1.0000
  C   C1134     1.0  0.41636  0.22971  0.10713  1.0000
  C   C1135     1.0  0.40081  0.23683  0.10611  1.0000
  C   C1136     1.0  0.39236  0.24293  0.12421  1.0000
  C   C1137     1.0  0.39942  0.23954  0.14340  1.0000
  P   P36       1.0  0.37225  0.25216  0.12320  1.0000
  C   C1138     1.0  0.36685  0.26641  0.09841  1.0000
  C   C1139     1.0  0.36193  0.21896  0.12784  1.0000
  C   C1140     1.0  0.36228  0.19764  0.11258  1.0000
  C   C1141     1.0  0.35364  0.17246  0.11509  1.0000
  C   C1142     1.0  0.34467  0.16818  0.13293  1.0000
  C   C1143     1.0  0.34471  0.18882  0.14858  1.0000
  C   C1144     1.0  0.35343  0.21408  0.14614  1.0000
  C   C1145     1.0  0.35226  0.26043  0.09057  1.0000
  C   C1146     1.0  0.34789  0.27210  0.07166  1.0000
  C   C1147     1.0  0.35796  0.29007  0.06053  1.0000
  C   C1148     1.0  0.37235  0.29672  0.06846  1.0000
  C   C1149     1.0  0.37673  0.28520  0.08745  1.0000
  C   C1150     1.0  0.36720  0.28060  0.14096  1.0000
  C   C1151     1.0  0.37854  0.29888  0.14888  1.0000
  C   C1152     1.0  0.37446  0.32148  0.16204  1.0000
  C   C1153     1.0  0.35902  0.32655  0.16693  1.0000
  C   C1154     1.0  0.34765  0.30906  0.15860  1.0000
  C   C1155     1.0  0.35169  0.28633  0.14551  1.0000
  H   H898      1.0  0.42049  0.23053  0.15914  1.0000
  H   H899      1.0  0.43557  0.22239  0.12687  1.0000
  H   H900      1.0  0.42293  0.22602  0.09304  1.0000
  H   H901      1.0  0.39553  0.23759  0.09114  1.0000
  H   H902      1.0  0.39295  0.24295  0.15759  1.0000
  H   H903      1.0  0.36889  0.20087  0.09843  1.0000
  H   H904      1.0  0.35346  0.15688  0.10275  1.0000
  H   H905      1.0  0.33749  0.14911  0.13440  1.0000
  H   H906      1.0  0.33768  0.18560  0.16236  1.0000
  H   H907      1.0  0.35325  0.22987  0.15836  1.0000
  H   H908      1.0  0.34411  0.24693  0.09901  1.0000
  H   H909      1.0  0.33662  0.26721  0.06569  1.0000
  H   H910      1.0  0.35455  0.29889  0.04580  1.0000
  H   H911      1.0  0.38012  0.31074  0.05985  1.0000
  H   H912      1.0  0.38783  0.29085  0.09352  1.0000
  H   H913      1.0  0.39052  0.29617  0.14470  1.0000
  H   H914      1.0  0.38327  0.33537  0.16826  1.0000
  H   H915      1.0  0.35584  0.34431  0.17695  1.0000
  C   C1156     1.0  0.29001  0.44415  0.26767  1.0000
  C   C1157     1.0  0.44672  0.25123  0.99539  1.0000
  C   C1158     1.0  0.48738  0.26776  0.03869  1.0000
  C   C1159     1.0  0.44574  0.29555  0.02437  1.0000
  C   C1160     1.0  0.49896  0.46375  0.05821  1.0000
  H   H916      1.0  0.45712  0.38333  0.06734  1.0000
  C   C1161     1.0  0.39101  0.44508  0.12028  1.0000
  C   C1162     1.0  0.25981  0.09197  0.16815  1.0000
  C   C1163     1.0  0.48485  0.40922  0.29841  1.0000
  C   C1164     1.0  0.49613  0.43442  0.05445  1.0000
  C   C1165     1.0  0.25846  0.46763  0.22586  1.0000
  H   H917      1.0  0.27800  0.09822  0.00723  1.0000
  C   C1166     1.0  0.47147  0.37340  0.01083  1.0000
  C   C1167     1.0  0.49698  0.31491  0.04787  1.0000
  P   P37       1.0  0.47601  0.31383  0.01576  1.0000
  H   H918      1.0  0.37852  0.98939  0.19342  1.0000
  H   H919      1.0  0.28260  0.13253  0.19874  1.0000
  H   H920      1.0  0.26488  0.37521  0.26444  1.0000
  H   H921      1.0  0.46418  0.33527  0.05503  1.0000
  C   C1168     1.0  0.33791  0.46250  0.04781  1.0000
  S   S160      1.0  0.46700  0.01161  0.14378  1.0000
  H   H922      1.0  0.29688  0.46362  0.26824  1.0000
  H   H923      1.0  0.26356  0.99044  0.05584  1.0000
  C   C1169     1.0  0.45903  0.29190  0.01201  1.0000
  C   C1170     1.0  0.29419  0.44584  0.06577  1.0000
  H   H924      1.0  0.30733  0.01555  0.03014  1.0000
  C   C1171     1.0  0.46569  0.21742  0.16724  1.0000
  C   C1172     1.0  0.29008  0.47411  0.06079  1.0000
  C   C1173     1.0  0.38332  0.45868  0.10408  1.0000
  C   C1174     1.0  0.49822  0.14223  0.99307  1.0000
  C   C1175     1.0  0.26711  0.10379  0.00059  1.0000
  H   H925      1.0  0.38195  0.39660  0.09859  1.0000
  H   H926      1.0  0.36982  0.00280  0.12551  1.0000
  C   C1176     1.0  0.48451  0.31931  0.18320  1.0000
  C   C1177     1.0  0.27966  0.43749  0.28374  1.0000
  C   C1178     1.0  0.27741  0.05792  0.04529  1.0000
  C   C1179     1.0  0.46203  0.40450  0.03818  1.0000
  C   C1180     1.0  0.46102  0.38077  0.05150  1.0000
  H   H927      1.0  0.26236  0.03226  0.16594  1.0000
  C   C1181     1.0  0.48709  0.45847  0.23943  1.0000
  H   H928      1.0  0.47566  0.21992  0.23409  1.0000
  H   H929      1.0  0.47598  0.43009  0.09891  1.0000
  C   C1182     1.0  0.48411  0.08904  0.00087  1.0000
  C   C1183     1.0  0.48452  0.23318  0.24065  1.0000
  C   C1184     1.0  0.28583  0.99987  0.04287  1.0000
  C   C1185     1.0  0.48773  0.26087  0.23276  1.0000
  C   C1186     1.0  0.48648  0.10821  0.01707  1.0000
  H   H930      1.0  0.50182  0.29888  0.23607  1.0000
  C   C1187     1.0  0.26716  0.03652  0.05241  1.0000
  C   C1188     1.0  0.27330  0.11840  0.19437  1.0000
  C   C1189     1.0  0.35846  0.99592  0.12117  1.0000
  C   C1190     1.0  0.43982  0.44441  0.08320  1.0000
  H   H931      1.0  0.49623  0.23206  0.05616  1.0000
  H   H932      1.0  0.49477  0.42104  0.25562  1.0000
  C   C1191     1.0  0.46961  0.46772  0.08094  1.0000
  C   C1192     1.0  0.49927  0.27743  0.24182  1.0000
  C   C1193     1.0  0.49362  0.13472  0.01316  1.0000
  H   H933      1.0  0.49527  0.14983  0.02562  1.0000
  H   H934      1.0  0.26319  0.44521  0.12628  1.0000
  C   C1194     1.0  0.49562  0.22190  0.99253  1.0000
  C   C1195     1.0  0.50173  0.46011  0.27105  1.0000
  C   C1196     1.0  0.49290  0.22221  0.25716  1.0000
  C   C1197     1.0  0.50494  0.28614  0.19141  1.0000
  H   H935      1.0  0.29035  0.46820  0.00838  1.0000
  H   H936      1.0  0.46426  0.38435  0.30400  1.0000
  C   C1198     1.0  0.25795  0.01571  0.23033  1.0000
  H   H937      1.0  0.34071  0.48026  0.16597  1.0000
  C   C1199     1.0  0.26646  0.99406  0.21996  1.0000
  H   H938      1.0  0.43305  0.48198  0.06598  1.0000
  H   H939      1.0  0.50406  0.37028  0.20371  1.0000
  C   C1200     1.0  0.41291  0.47652  0.11474  1.0000
  H   H940      1.0  0.27405  0.99975  0.20720  1.0000
  C   C1201     1.0  0.49895  0.47535  0.10258  1.0000
  C   C1202     1.0  0.26276  0.10844  0.20929  1.0000
  C   C1203     1.0  0.28854  0.48261  0.04009  1.0000
  H   H941      1.0  0.26390  0.11468  0.22529  1.0000
  C   C1204     1.0  0.48730  0.31585  0.99211  1.0000
  C   C1205     1.0  0.48404  0.36362  0.31684  1.0000
  C   C1206     1.0  0.26012  0.46456  0.13468  1.0000
  P   P38       1.0  0.48889  0.48216  0.07893  1.0000
  C   C1207     1.0  0.26234  0.37654  0.31945  1.0000
  H   H942      1.0  0.25787  0.06382  0.10325  1.0000
  C   C1208     1.0  0.45733  0.48205  0.07163  1.0000
  C   C1209     1.0  0.49125  0.47777  0.12168  1.0000
  H   H943      1.0  0.47914  0.48282  0.12243  1.0000
  C   C1210     1.0  0.50401  0.42014  0.03856  1.0000
  C   C1211     1.0  0.50600  0.30231  0.06309  1.0000
  H   H944      1.0  0.28892  0.32282  0.32237  1.0000
  H   H945      1.0  0.50338  0.16320  0.99032  1.0000
  S   S161      1.0  0.45188  0.16211  0.63614  1.0000
  Fe  Fe81      1.0  0.46950  0.12800  0.64252  1.0000
  S   S162      1.0  0.47838  0.09989  0.61616  1.0000
  H   H946      1.0  0.36366  0.35715  0.59164  1.0000
  H   H947      1.0  0.45731  0.07925  0.48364  1.0000
  H   H948      1.0  0.37019  0.39457  0.64029  1.0000
  H   H949      1.0  0.40369  0.99584  0.52354  1.0000
  S   S163      1.0  0.30929  0.22617  0.61149  1.0000
  C   C1212     1.0  0.30370  0.26865  0.52703  1.0000
  C   C1213     1.0  0.35192  0.05211  0.63247  1.0000
  Fe  Fe82      1.0  0.47577  0.42248  0.54422  1.0000
  S   S164      1.0  0.47854  0.40777  0.57730  1.0000
  S   S165      1.0  0.49817  0.43222  0.52592  1.0000
  Fe  Fe83      1.0  0.44062  0.41385  0.54733  1.0000
  S   S166      1.0  0.44106  0.39936  0.58037  1.0000
  S   S167      1.0  0.41911  0.41459  0.52793  1.0000
  Fe  Fe84      1.0  0.45798  0.43591  0.58386  1.0000
  C   C1214     1.0  0.38826  0.03209  0.52510  1.0000
  Fe  Fe85      1.0  0.46144  0.37243  0.57118  1.0000
  S   S168      1.0  0.46301  0.32338  0.57624  1.0000
  S   S169      1.0  0.45613  0.45248  0.55135  1.0000
  S   S170      1.0  0.46009  0.38507  0.53761  1.0000
  Fe  Fe86      1.0  0.29893  0.38864  0.58335  1.0000
  S   S171      1.0  0.31238  0.37389  0.55570  1.0000
  S   S172      1.0  0.29198  0.35875  0.60968  1.0000
  Fe  Fe87      1.0  0.30060  0.45275  0.57094  1.0000
  S   S173      1.0  0.31425  0.44207  0.54200  1.0000
  C   C1215     1.0  0.38095  0.05205  0.53800  1.0000
  Fe  Fe88      1.0  0.29750  0.40485  0.53789  1.0000
  S   S174      1.0  0.28855  0.39339  0.50549  1.0000
  Fe  Fe89      1.0  0.32777  0.41178  0.56203  1.0000
  S   S175      1.0  0.35276  0.40570  0.57065  1.0000
  S   S176      1.0  0.28303  0.41752  0.56556  1.0000
  S   S177      1.0  0.31496  0.42471  0.59096  1.0000
  C   C1216     1.0  0.27162  0.37716  0.49508  1.0000
  C   C1217     1.0  0.27057  0.37383  0.47353  1.0000
  C   C1218     1.0  0.50598  0.46672  0.57418  1.0000
  H   H950      1.0  0.27986  0.38151  0.46366  1.0000
  H   H951      1.0  0.50369  0.30205  0.48311  1.0000
  C   C1219     1.0  0.40062  0.41211  0.53975  1.0000
  C   C1220     1.0  0.38745  0.41612  0.52781  1.0000
  C   C1221     1.0  0.37262  0.41435  0.53689  1.0000
  C   C1222     1.0  0.37089  0.40828  0.55796  1.0000
  C   C1223     1.0  0.38403  0.40392  0.56978  1.0000
  C   C1224     1.0  0.39880  0.40592  0.56078  1.0000
  H   H952      1.0  0.38874  0.42089  0.51152  1.0000
  H   H953      1.0  0.36258  0.41775  0.52762  1.0000
  H   H954      1.0  0.38279  0.39922  0.58606  1.0000
  H   H955      1.0  0.40875  0.40269  0.57016  1.0000
  C   C1225     1.0  0.30504  0.06179  0.62880  1.0000
  C   C1226     1.0  0.30147  0.07124  0.60891  1.0000
  C   C1227     1.0  0.29950  0.05111  0.59282  1.0000
  C   C1228     1.0  0.30120  0.02123  0.59623  1.0000
  C   C1229     1.0  0.30505  0.01180  0.61604  1.0000
  C   C1230     1.0  0.30689  0.03192  0.63217  1.0000
  H   H956      1.0  0.30001  0.09403  0.60597  1.0000
  H   H957      1.0  0.29655  0.05875  0.57761  1.0000
  H   H958      1.0  0.43136  0.29946  0.65281  1.0000
  H   H959      1.0  0.26051  0.39958  0.38419  1.0000
  C   C1231     1.0  0.30647  0.26390  0.61162  1.0000
  C   C1232     1.0  0.30627  0.27887  0.59275  1.0000
  C   C1233     1.0  0.30308  0.30855  0.59214  1.0000
  C   C1234     1.0  0.29913  0.32313  0.61028  1.0000
  C   C1235     1.0  0.29980  0.30840  0.62920  1.0000
  C   C1236     1.0  0.30389  0.27908  0.62992  1.0000
  H   H960      1.0  0.30852  0.26745  0.57851  1.0000
  H   H961      1.0  0.30329  0.31990  0.57758  1.0000
  H   H962      1.0  0.36717  0.06627  0.65617  1.0000
  H   H963      1.0  0.26306  0.42519  0.34490  1.0000
  C   C1237     1.0  0.46580  0.26226  0.63282  1.0000
  C   C1238     1.0  0.46491  0.25143  0.61278  1.0000
  C   C1239     1.0  0.46390  0.27046  0.59576  1.0000
  C   C1240     1.0  0.46371  0.30058  0.59848  1.0000
  C   C1241     1.0  0.46435  0.31143  0.61855  1.0000
  C   C1242     1.0  0.46547  0.29238  0.63556  1.0000
  H   H964      1.0  0.46536  0.22839  0.61039  1.0000
  H   H965      1.0  0.46347  0.26176  0.58033  1.0000
  H   H966      1.0  0.46424  0.33448  0.62095  1.0000
  H   H967      1.0  0.39072  0.05250  0.63696  1.0000
  C   C1243     1.0  0.46619  0.00348  0.61067  1.0000
  C   C1244     1.0  0.47460  0.01759  0.59501  1.0000
  C   C1245     1.0  0.47853  0.04695  0.59709  1.0000
  C   C1246     1.0  0.47372  0.06266  0.61454  1.0000
  C   C1247     1.0  0.46512  0.04855  0.63002  1.0000
  C   C1248     1.0  0.46151  0.01910  0.62815  1.0000
  C   C1249     1.0  0.35605  0.45188  0.61620  1.0000
  H   H968      1.0  0.48520  0.05762  0.58504  1.0000
  C   C1250     1.0  0.26610  0.44930  0.49218  1.0000
  H   H969      1.0  0.45497  0.00839  0.64029  1.0000
  H   H970      1.0  0.35312  0.34114  0.55871  1.0000
  H   H971      1.0  0.29707  0.31967  0.64332  1.0000
  H   H972      1.0  0.33790  0.26205  0.58746  1.0000
  H   H973      1.0  0.37772  0.06701  0.56907  1.0000
  H   H974      1.0  0.34017  0.29346  0.55644  1.0000
  H   H975      1.0  0.49380  0.38431  0.46827  1.0000
  H   H976      1.0  0.27391  0.26663  0.57563  1.0000
  C   C1251     1.0  0.48745  0.32411  0.46361  1.0000
  C   C1252     1.0  0.34383  0.28258  0.58830  1.0000
  C   C1253     1.0  0.31870  0.27790  0.52263  1.0000
  C   C1254     1.0  0.49397  0.05178  0.52005  1.0000
  C   C1255     1.0  0.39298  0.40133  0.62848  1.0000
  C   C1256     1.0  0.28659  0.42282  0.64996  1.0000
  C   C1257     1.0  0.50002  0.47082  0.59408  1.0000
  C   C1258     1.0  0.44212  0.10585  0.43958  1.0000
  H   H977      1.0  0.35782  0.21249  0.64498  1.0000
  H   H978      1.0  0.35318  0.42975  0.61252  1.0000
  H   H979      1.0  0.27849  0.45035  0.49047  1.0000
  C   C1259     1.0  0.27270  0.24387  0.54659  1.0000
  H   H980      1.0  0.44069  0.08299  0.41083  1.0000
  C   C1260     1.0  0.49259  0.35558  0.51765  1.0000
  C   C1261     1.0  0.48471  0.33239  0.50891  1.0000
  C   C1262     1.0  0.25853  0.23000  0.65559  1.0000
  P   P39       1.0  0.47520  0.33651  0.48453  1.0000
  C   C1263     1.0  0.45739  0.31637  0.48605  1.0000
  C   C1264     1.0  0.47101  0.37422  0.48011  1.0000
  C   C1265     1.0  0.45658  0.38581  0.48533  1.0000
  C   C1266     1.0  0.45380  0.41528  0.48274  1.0000
  C   C1267     1.0  0.46531  0.43334  0.47471  1.0000
  C   C1268     1.0  0.45214  0.30068  0.46909  1.0000
  C   C1269     1.0  0.43824  0.28554  0.47047  1.0000
  C   C1270     1.0  0.42950  0.28594  0.48875  1.0000
  C   C1271     1.0  0.43467  0.30137  0.50572  1.0000
  C   C1272     1.0  0.44856  0.31646  0.50443  1.0000
  C   C1273     1.0  0.39278  0.34294  0.61817  1.0000
  S   S178      1.0  0.46787  0.23934  0.65482  1.0000
  H   H981      1.0  0.28140  0.32040  0.56018  1.0000
  H   H982      1.0  0.47392  0.34416  0.43983  1.0000
  H   H983      1.0  0.41931  0.12241  0.61564  1.0000
  H   H984      1.0  0.49315  0.37626  0.50995  1.0000
  C   C1274     1.0  0.48394  0.33125  0.44314  1.0000
  H   H985      1.0  0.44751  0.37254  0.49192  1.0000
  H   H986      1.0  0.44277  0.42416  0.48742  1.0000
  C   C1275     1.0  0.25695  0.44785  0.47473  1.0000
  H   H987      1.0  0.45868  0.30000  0.45479  1.0000
  H   H988      1.0  0.43422  0.27356  0.45731  1.0000
  H   H989      1.0  0.41869  0.27436  0.48977  1.0000
  H   H990      1.0  0.42788  0.30182  0.51989  1.0000
  H   H991      1.0  0.45234  0.32839  0.51775  1.0000
  C   C1276     1.0  0.25767  0.36047  0.46457  1.0000
  C   C1277     1.0  0.26442  0.26008  0.62585  1.0000
  C   C1278     1.0  0.42247  0.30177  0.56629  1.0000
  C   C1279     1.0  0.40972  0.31858  0.56165  1.0000
  C   C1280     1.0  0.39520  0.31030  0.56896  1.0000
  C   C1281     1.0  0.39341  0.28537  0.58109  1.0000
  C   C1282     1.0  0.40619  0.26820  0.58579  1.0000
  C   C1283     1.0  0.42075  0.27676  0.57828  1.0000
  P   P40       1.0  0.40435  0.23738  0.60309  1.0000
  C   C1284     1.0  0.38436  0.22743  0.60694  1.0000
  C   C1285     1.0  0.41510  0.20742  0.59235  1.0000
  C   C1286     1.0  0.43114  0.20687  0.59417  1.0000
  C   C1287     1.0  0.43970  0.18394  0.58619  1.0000
  C   C1288     1.0  0.43233  0.16108  0.57653  1.0000
  C   C1289     1.0  0.41636  0.16103  0.57501  1.0000
  C   C1290     1.0  0.40775  0.18403  0.58292  1.0000
  C   C1291     1.0  0.37492  0.22363  0.58981  1.0000
  C   C1292     1.0  0.35952  0.21573  0.59256  1.0000
  C   C1293     1.0  0.37804  0.22339  0.62688  1.0000
  H   H992      1.0  0.46622  0.30105  0.65097  1.0000
  C   C1294     1.0  0.34789  0.35470  0.64410  1.0000
  C   C1295     1.0  0.41319  0.24534  0.62740  1.0000
  H   H993      1.0  0.47460  0.43929  0.64532  1.0000
  C   C1296     1.0  0.41485  0.98901  0.61492  1.0000
  C   C1297     1.0  0.38006  0.38437  0.63317  1.0000
  C   C1298     1.0  0.25707  0.44204  0.33681  1.0000
  H   H994      1.0  0.39122  0.30683  0.65036  1.0000
  H   H995      1.0  0.43379  0.30844  0.56090  1.0000
  H   H996      1.0  0.41114  0.33828  0.55265  1.0000
  H   H997      1.0  0.38539  0.32370  0.56555  1.0000
  H   H998      1.0  0.38211  0.28026  0.58724  1.0000
  H   H999      1.0  0.43092  0.26473  0.58213  1.0000
  H   H1000     1.0  0.43707  0.22393  0.60214  1.0000
  H   H1001     1.0  0.45206  0.18363  0.58791  1.0000
  H   H1002     1.0  0.43898  0.14314  0.57061  1.0000
  H   H1003     1.0  0.41064  0.14288  0.56801  1.0000
  H   H1004     1.0  0.39543  0.18301  0.58190  1.0000
  H   H1005     1.0  0.37951  0.22661  0.57430  1.0000
  P   P41       1.0  0.46514  0.02360  0.46453  1.0000
  C   C1299     1.0  0.36634  0.05671  0.64100  1.0000
  H   H1006     1.0  0.27447  0.31288  0.35501  1.0000
  C   C1300     1.0  0.40568  0.35993  0.61348  1.0000
  H   H1007     1.0  0.41718  0.29079  0.62099  1.0000
  H   H1008     1.0  0.49764  0.44551  0.33334  1.0000
  C   C1301     1.0  0.27669  0.19399  0.57066  1.0000
  H   H1009     1.0  0.34137  0.20614  0.61452  1.0000
  C   C1302     1.0  0.33585  0.36500  0.63200  1.0000
  H   H1010     1.0  0.43679  0.12521  0.43367  1.0000
  H   H1011     1.0  0.26662  0.44850  0.52534  1.0000
  H   H1012     1.0  0.49106  0.44310  0.41638  1.0000
  H   H1013     1.0  0.48486  0.05030  0.43255  1.0000
  H   H1014     1.0  0.28504  0.33180  0.51804  1.0000
  H   H1015     1.0  0.28130  0.24296  0.64643  1.0000
  C   C1303     1.0  0.35334  0.21201  0.61242  1.0000
  C   C1304     1.0  0.47965  0.42197  0.46930  1.0000
  C   C1305     1.0  0.27395  0.24587  0.56810  1.0000
  C   C1306     1.0  0.37991  0.35489  0.62821  1.0000
  C   C1307     1.0  0.48420  0.30579  0.51940  1.0000
  H   H1016     1.0  0.33498  0.35941  0.61586  1.0000
  H   H1017     1.0  0.49755  0.45242  0.60391  1.0000
  Fe  Fe90      1.0  0.30772  0.13528  0.65532  1.0000
  C   C1308     1.0  0.50185  0.40239  0.42312  1.0000
  C   C1309     1.0  0.50088  0.99970  0.64324  1.0000
  C   C1310     1.0  0.38321  0.05104  0.55931  1.0000
  C   C1311     1.0  0.25939  0.44818  0.51189  1.0000
  S   S179      1.0  0.29802  0.99688  0.57533  1.0000
  H   H1018     1.0  0.49045  0.32695  0.41101  1.0000
  H   H1019     1.0  0.41199  0.20103  0.63833  1.0000
  H   H1020     1.0  0.30184  0.24646  0.53167  1.0000
  C   C1312     1.0  0.29432  0.31653  0.51936  1.0000
  C   C1313     1.0  0.32151  0.30641  0.51652  1.0000
  C   C1314     1.0  0.37967  0.04919  0.62994  1.0000
  H   H1021     1.0  0.48870  0.43616  0.46360  1.0000
  C   C1315     1.0  0.48250  0.39256  0.47200  1.0000
  C   C1316     1.0  0.27593  0.22098  0.58004  1.0000
  H   H1022     1.0  0.33311  0.31366  0.51306  1.0000
  C   C1317     1.0  0.47669  0.03344  0.48635  1.0000
  H   H1023     1.0  0.47830  0.28748  0.51292  1.0000
  S   S180      1.0  0.30697  0.08595  0.65009  1.0000
  C   C1318     1.0  0.47068  0.03113  0.50659  1.0000
  C   C1319     1.0  0.32466  0.38295  0.64068  1.0000
  H   H1024     1.0  0.35229  0.21258  0.57934  1.0000
  H   H1025     1.0  0.33959  0.03545  0.60662  1.0000
  H   H1026     1.0  0.27337  0.21461  0.52061  1.0000
  H   H1027     1.0  0.34319  0.45185  0.64483  1.0000
  H   H1028     1.0  0.49644  0.04729  0.46790  1.0000
  H   H1029     1.0  0.32815  0.26291  0.52388  1.0000
  C   C1320     1.0  0.50628  0.46216  0.33159  1.0000
  C   C1321     1.0  0.44681  0.10464  0.46008  1.0000
  H   H1030     1.0  0.45929  0.02256  0.50956  1.0000
  C   C1322     1.0  0.43516  0.00133  0.46636  1.0000
  S   S181      1.0  0.45632  0.46391  0.61243  1.0000
  C   C1323     1.0  0.25941  0.36715  0.50753  1.0000
  C   C1324     1.0  0.36259  0.21579  0.62956  1.0000
  C   C1325     1.0  0.37870  0.03810  0.60987  1.0000
  H   H1031     1.0  0.27636  0.17089  0.54197  1.0000
  P   P42       1.0  0.39594  0.02914  0.59528  1.0000
  C   C1326     1.0  0.41137  0.05492  0.59790  1.0000
  H   H1032     1.0  0.44537  0.10877  0.60333  1.0000
  H   H1033     1.0  0.34157  0.05818  0.64095  1.0000
  H   H1034     1.0  0.44507  0.12303  0.47008  1.0000
  H   H1035     1.0  0.41555  0.35061  0.60558  1.0000
  H   H1036     1.0  0.49184  0.38974  0.41934  1.0000
  H   H1037     1.0  0.26125  0.29269  0.45695  1.0000
  C   C1327     1.0  0.42601  0.04807  0.59000  1.0000
  C   C1328     1.0  0.43813  0.06762  0.59169  1.0000
  C   C1329     1.0  0.43580  0.09411  0.60133  1.0000
  C   C1330     1.0  0.42114  0.10165  0.60841  1.0000
  C   C1331     1.0  0.40888  0.08236  0.60644  1.0000
  C   C1332     1.0  0.39249  0.02957  0.56790  1.0000
  H   H1038     1.0  0.31542  0.39064  0.63121  1.0000
  H   H1039     1.0  0.25752  0.47064  0.36291  1.0000
  H   H1040     1.0  0.47840  0.00571  0.58154  1.0000
  C   C1333     1.0  0.35082  0.03948  0.61303  1.0000
  H   H1041     1.0  0.36299  0.02210  0.58693  1.0000
  C   C1334     1.0  0.50628  0.30512  0.43080  1.0000
  Fe  Fe91      1.0  0.30882  0.19858  0.64064  1.0000
  C   C1335     1.0  0.26633  0.28462  0.48887  1.0000
  C   C1336     1.0  0.49224  0.47701  0.49808  1.0000
  H   H1042     1.0  0.44941  0.06202  0.58578  1.0000
  H   H1043     1.0  0.38489  0.22585  0.64048  1.0000
  C   C1337     1.0  0.50062  0.30770  0.46751  1.0000
  C   C1338     1.0  0.25828  0.28030  0.47068  1.0000
  P   P43       1.0  0.36301  0.33286  0.63304  1.0000
  C   C1339     1.0  0.44434  0.08209  0.42672  1.0000
  H   H1044     1.0  0.42815  0.02746  0.58270  1.0000
  S   S182      1.0  0.28939  0.16901  0.65061  1.0000
  C   C1340     1.0  0.45132  0.05717  0.43429  1.0000
  H   H1045     1.0  0.46125  0.06023  0.64347  1.0000
  H   H1046     1.0  0.39762  0.08910  0.61167  1.0000
  H   H1047     1.0  0.49903  0.41475  0.63652  1.0000
  H   H1048     1.0  0.48978  0.28286  0.54732  1.0000
  H   H1049     1.0  0.27854  0.17486  0.57998  1.0000
  H   H1050     1.0  0.37356  0.06834  0.53149  1.0000
  C   C1341     1.0  0.41863  0.27317  0.63175  1.0000
  C   C1342     1.0  0.35830  0.33613  0.59085  1.0000
  C   C1343     1.0  0.35236  0.32701  0.57210  1.0000
  C   C1344     1.0  0.49137  0.04539  0.48320  1.0000
  C   C1345     1.0  0.45632  0.05599  0.45476  1.0000
  H   H1051     1.0  0.50275  0.47730  0.36271  1.0000
  H   H1052     1.0  0.31143  0.34777  0.51001  1.0000
  H   H1053     1.0  0.34812  0.27785  0.62042  1.0000
  C   C1346     1.0  0.49475  0.01583  0.41501  1.0000
  C   C1347     1.0  0.34508  0.30025  0.57083  1.0000
  P   P44       1.0  0.27187  0.27617  0.53092  1.0000
  C   C1348     1.0  0.30931  0.32564  0.51481  1.0000
  H   H1054     1.0  0.38649  0.03278  0.50860  1.0000
  H   H1055     1.0  0.27740  0.22255  0.59655  1.0000
  H   H1056     1.0  0.50094  0.03016  0.40452  1.0000
  C   C1349     1.0  0.34962  0.29178  0.60714  1.0000
  C   C1350     1.0  0.41579  0.22285  0.64151  1.0000
  C   C1351     1.0  0.25877  0.34810  0.35087  1.0000
  C   C1352     1.0  0.29135  0.28794  0.52541  1.0000
  C   C1353     1.0  0.45381  0.07976  0.46770  1.0000
  C   C1354     1.0  0.40579  0.38912  0.61868  1.0000
  C   C1355     1.0  0.35682  0.31882  0.60859  1.0000
  C   C1356     1.0  0.27930  0.33634  0.32679  1.0000
  H   H1057     1.0  0.27276  0.27149  0.61622  1.0000
  H   H1058     1.0  0.41572  0.40240  0.61485  1.0000
  H   H1059     1.0  0.46324  0.45626  0.47305  1.0000
  H   H1060     1.0  0.48061  0.47691  0.50418  1.0000
  C   C1357     1.0  0.26214  0.26950  0.50697  1.0000
  C   C1358     1.0  0.42663  0.27828  0.64988  1.0000
  H   H1061     1.0  0.30460  0.26802  0.64455  1.0000
  C   C1359     1.0  0.25770  0.43660  0.40390  1.0000
  H   H1062     1.0  0.28332  0.46866  0.65271  1.0000
  C   C1360     1.0  0.47739  0.00865  0.44443  1.0000
  H   H1063     1.0  0.50080  0.05827  0.53305  1.0000
  C   C1361     1.0  0.47938  0.03994  0.52336  1.0000
  C   C1362     1.0  0.49921  0.43487  0.64496  1.0000
  H   H1064     1.0  0.34210  0.29457  0.65587  1.0000
  S   S183      1.0  0.32674  0.16386  0.64293  1.0000
  H   H1065     1.0  0.42171  0.00699  0.62006  1.0000
  C   C1363     1.0  0.45045  0.99803  0.47249  1.0000
  H   H1066     1.0  0.47484  0.03742  0.53896  1.0000
  H   H1067     1.0  0.40764  0.99368  0.56088  1.0000
  C   C1364     1.0  0.50139  0.43242  0.42142  1.0000
  C   C1365     1.0  0.40002  0.00995  0.55479  1.0000
  C   C1366     1.0  0.26921  0.32245  0.55813  1.0000
  H   H1068     1.0  0.43186  0.01898  0.45644  1.0000
  C   C1367     1.0  0.49084  0.30296  0.53879  1.0000
  H   H1069     1.0  0.39280  0.32046  0.61398  1.0000
  H   H1070     1.0  0.45287  0.03885  0.42417  1.0000
  C   C1368     1.0  0.49989  0.05474  0.49997  1.0000
  C   C1369     1.0  0.48554  0.02712  0.43086  1.0000
  C   C1370     1.0  0.39790  0.01126  0.53348  1.0000
  H   H1071     1.0  0.36921  0.45853  0.58815  1.0000
  C   C1371     1.0  0.35043  0.46437  0.63438  1.0000
  C   C1372     1.0  0.26924  0.24437  0.64298  1.0000
  C   C1373     1.0  0.49325  0.32158  0.42681  1.0000
  C   C1374     1.0  0.36634  0.30357  0.65093  1.0000
  H   H1072     1.0  0.26378  0.36090  0.63632  1.0000
  H   H1073     1.0  0.39297  0.42412  0.63208  1.0000
  C   C1375     1.0  0.26129  0.34414  0.56869  1.0000
  C   C1376     1.0  0.36414  0.03221  0.60185  1.0000
  H   H1074     1.0  0.27550  0.30035  0.48875  1.0000
  C   C1377     1.0  0.27120  0.33076  0.34521  1.0000
  C   C1378     1.0  0.36511  0.46814  0.60244  1.0000
  H   H1075     1.0  0.30643  0.98900  0.61899  1.0000
  H   H1076     1.0  0.50272  0.32457  0.56311  1.0000
  C   C1379     1.0  0.40165  0.99338  0.60317  1.0000
  C   C1380     1.0  0.49818  0.32649  0.54771  1.0000
  C   C1381     1.0  0.49916  0.35272  0.53707  1.0000
  H   H1077     1.0  0.25722  0.35788  0.44803  1.0000
  H   H1078     1.0  0.26599  0.44963  0.39540  1.0000
  H   H1079     1.0  0.26251  0.44811  0.45971  1.0000
  H   H1080     1.0  0.30970  0.02428  0.64742  1.0000
  H   H1081     1.0  0.50161  0.02204  0.63842  1.0000
  H   H1082     1.0  0.29456  0.42484  0.63697  1.0000
  H   H1083     1.0  0.26746  0.35851  0.57878  1.0000
  C   C1382     1.0  0.27551  0.19181  0.54926  1.0000
  H   H1084     1.0  0.38396  0.12682  0.64541  1.0000
  C   C1383     1.0  0.26150  0.30406  0.54466  1.0000
  H   H1085     1.0  0.50456  0.37119  0.54414  1.0000
  C   C1384     1.0  0.27365  0.21665  0.53723  1.0000
  C   C1385     1.0  0.50298  0.45785  0.50612  1.0000
  H   H1086     1.0  0.28760  0.37664  0.65058  1.0000
  C   C1386     1.0  0.48542  0.44863  0.64999  1.0000
  H   H1087     1.0  0.50291  0.11030  0.64388  1.0000
  H   H1088     1.0  0.25990  0.36963  0.52408  1.0000
  H   H1089     1.0  0.50567  0.34867  0.32839  1.0000
  C   C1387     1.0  0.38126  0.29566  0.65651  1.0000
  Fe  Fe92      1.0  0.47023  0.14010  0.68885  1.0000
  C   C1388     1.0  0.33739  0.38090  0.67350  1.0000
  S   S184      1.0  0.47906  0.12717  0.72113  1.0000
  C   C1389     1.0  0.50504  0.01871  0.72631  1.0000
  C   C1390     1.0  0.26611  0.26465  0.74120  1.0000
  S   S185      1.0  0.45669  0.10907  0.66954  1.0000
  S   S186      1.0  0.45190  0.17454  0.68612  1.0000
  Fe  Fe93      1.0  0.29418  0.18479  0.68297  1.0000
  H   H1090     1.0  0.44300  0.00262  0.68206  1.0000
  S   S187      1.0  0.27366  0.19251  0.70555  1.0000
  C   C1391     1.0  0.27182  0.22323  0.90467  1.0000
  H   H1091     1.0  0.46986  0.99051  0.67409  1.0000
  C   C1392     1.0  0.47930  0.02771  0.68970  1.0000
  S   S188      1.0  0.31131  0.14916  0.68838  1.0000
  C   C1393     1.0  0.34858  0.36281  0.66491  1.0000
  H   H1092     1.0  0.48933  0.06761  0.65778  1.0000
  H   H1093     1.0  0.49291  0.15363  0.90887  1.0000
  H   H1094     1.0  0.43665  0.04647  0.70227  1.0000
  H   H1095     1.0  0.47467  0.48495  0.66431  1.0000
  H   H1096     1.0  0.29785  0.15485  0.95763  1.0000
  C   C1394     1.0  0.39775  0.15014  0.66703  1.0000
  Fe  Fe94      1.0  0.32919  0.17961  0.67530  1.0000
  C   C1395     1.0  0.28018  0.44752  0.65874  1.0000
  H   H1097     1.0  0.48669  0.22770  0.96198  1.0000
  C   C1396     1.0  0.25889  0.01477  0.92926  1.0000
  H   H1098     1.0  0.47587  0.22841  0.75617  1.0000
  H   H1099     1.0  0.31677  0.40509  0.66796  1.0000
  H   H1100     1.0  0.37260  0.24093  0.68997  1.0000
  C   C1397     1.0  0.38350  0.18224  0.68979  1.0000
  H   H1101     1.0  0.39501  0.26681  0.67469  1.0000
  Fe  Fe95      1.0  0.46499  0.19019  0.65774  1.0000
  C   C1398     1.0  0.37090  0.25842  0.67914  1.0000
  C   C1399     1.0  0.35604  0.26620  0.67377  1.0000
  C   C1400     1.0  0.49586  0.11025  0.73126  1.0000
  C   C1401     1.0  0.26283  0.00904  0.90868  1.0000
  C   C1402     1.0  0.48450  0.16267  0.91950  1.0000
  H   H1102     1.0  0.48654  0.08144  0.96846  1.0000
  H   H1103     1.0  0.45750  0.07845  0.71418  1.0000
  S   S189      1.0  0.35221  0.19010  0.68954  1.0000
  C   C1403     1.0  0.49566  0.12337  0.97662  1.0000
  H   H1104     1.0  0.26450  0.03207  0.93744  1.0000
  H   H1105     1.0  0.48475  0.20797  0.72276  1.0000
  H   H1106     1.0  0.43596  0.25941  0.67741  1.0000
  C   C1404     1.0  0.50479  0.14333  0.80556  1.0000
  C   C1405     1.0  0.47553  0.05273  0.70069  1.0000
  C   C1406     1.0  0.44851  0.04099  0.69897  1.0000
  C   C1407     1.0  0.27293  0.24488  0.72724  1.0000
  C   C1408     1.0  0.50474  0.31987  0.95531  1.0000
  H   H1107     1.0  0.25696  0.47796  0.78070  1.0000
  H   H1108     1.0  0.28850  0.26017  0.68261  1.0000
  H   H1109     1.0  0.48389  0.15147  0.78881  1.0000
  C   C1409     1.0  0.46743  0.00957  0.68308  1.0000
  C   C1410     1.0  0.29597  0.34236  0.68717  1.0000
  H   H1110     1.0  0.25825  0.07215  0.83081  1.0000
  C   C1411     1.0  0.48551  0.47462  0.66080  1.0000
  H   H1111     1.0  0.42589  0.21053  0.67024  1.0000
  C   C1412     1.0  0.36961  0.17456  0.68049  1.0000
  S   S190      1.0  0.31244  0.21631  0.67228  1.0000
  C   C1413     1.0  0.25916  0.03233  0.84815  1.0000
  C   C1414     1.0  0.29064  0.28315  0.68364  1.0000
  H   H1112     1.0  0.25686  0.41624  0.69495  1.0000
  C   C1415     1.0  0.28260  0.17877  0.97753  1.0000
  C   C1416     1.0  0.48541  0.15726  0.94081  1.0000
  P   P45       1.0  0.26519  0.35698  0.68179  1.0000
  C   C1417     1.0  0.46025  0.05901  0.70567  1.0000
  C   C1418     1.0  0.48580  0.21441  0.75567  1.0000
  H   H1113     1.0  0.45413  0.19546  0.95695  1.0000
  H   H1114     1.0  0.46959  0.26557  0.98822  1.0000
  H   H1115     1.0  0.31480  0.27818  0.68906  1.0000
  H   H1116     1.0  0.48442  0.06754  0.70530  1.0000
  C   C1419     1.0  0.36990  0.15478  0.66429  1.0000
  C   C1420     1.0  0.49015  0.06723  0.91302  1.0000
  H   H1117     1.0  0.38338  0.19703  0.70261  1.0000
  C   C1421     1.0  0.28247  0.39553  0.65755  1.0000
  H   H1118     1.0  0.28351  0.25037  0.71926  1.0000
  H   H1119     1.0  0.26993  0.27225  0.86542  1.0000
  H   H1120     1.0  0.47990  0.05591  0.90837  1.0000
  C   C1422     1.0  0.50320  0.18403  0.73619  1.0000
  H   H1121     1.0  0.27443  0.33863  0.72350  1.0000
  C   C1423     1.0  0.38350  0.27308  0.67052  1.0000
  C   C1424     1.0  0.27652  0.24487  0.89077  1.0000
  H   H1122     1.0  0.27148  0.28539  0.74345  1.0000
  H   H1123     1.0  0.26065  0.33763  0.75690  1.0000
  C   C1425     1.0  0.26523  0.41759  0.68249  1.0000
  H   H1124     1.0  0.47080  0.10745  0.80103  1.0000
  C   C1426     1.0  0.27852  0.30251  0.68150  1.0000
  C   C1427     1.0  0.45210  0.01633  0.68760  1.0000
  C   C1428     1.0  0.50441  0.05956  0.90460  1.0000
  H   H1125     1.0  0.48561  0.10518  0.76149  1.0000
  C   C1429     1.0  0.39753  0.17029  0.68298  1.0000
  C   C1430     1.0  0.30811  0.32289  0.68906  1.0000
  H   H1126     1.0  0.26630  0.06601  0.98126  1.0000
  H   H1127     1.0  0.28103  0.15816  0.92741  1.0000
  S   S191      1.0  0.41481  0.13268  0.65887  1.0000
  H   H1128     1.0  0.28812  0.25326  0.89120  1.0000
  P   P46       1.0  0.50059  0.13477  0.95055  1.0000
  C   C1431     1.0  0.26629  0.25560  0.87626  1.0000
  C   C1432     1.0  0.26324  0.18220  0.94346  1.0000
  C   C1433     1.0  0.48226  0.11226  0.80626  1.0000
  P   P47       1.0  0.49918  0.01946  0.68392  1.0000
  C   C1434     1.0  0.50583  0.18808  0.77336  1.0000
  C   C1435     1.0  0.42367  0.22812  0.65967  1.0000
  C   C1436     1.0  0.49662  0.23010  0.97157  1.0000
  H   H1129     1.0  0.27155  0.03245  0.84841  1.0000
  C   C1437     1.0  0.49998  0.99202  0.66422  1.0000
  C   C1438     1.0  0.28704  0.16625  0.95881  1.0000
  C   C1439     1.0  0.28111  0.33229  0.68314  1.0000
  H   H1130     1.0  0.26250  0.21827  0.66896  1.0000
  H   H1131     1.0  0.40808  0.17590  0.69053  1.0000
  C   C1440     1.0  0.49584  0.10180  0.75218  1.0000
  H   H1132     1.0  0.27997  0.21525  0.91568  1.0000
  C   C1441     1.0  0.50117  0.07125  0.66189  1.0000
  C   C1442     1.0  0.48978  0.13726  0.79930  1.0000
  C   C1443     1.0  0.27744  0.16805  0.94179  1.0000
  H   H1133     1.0  0.35932  0.14855  0.65707  1.0000
  C   C1444     1.0  0.42921  0.25574  0.66378  1.0000
  H   H1134     1.0  0.34634  0.25437  0.68033  1.0000
  C   C1445     1.0  0.30543  0.29330  0.68736  1.0000
  H   H1135     1.0  0.25842  0.42756  0.76915  1.0000
  H   H1136     1.0  0.50301  0.38452  0.82570  1.0000
  H   H1137     1.0  0.44738  0.23335  0.98476  1.0000
  H   H1138     1.0  0.49586  0.03408  0.72820  1.0000
  H   H1139     1.0  0.47790  0.09592  0.93324  1.0000
  H   H1140     1.0  0.26715  0.29410  0.67882  1.0000
  C   C1446     1.0  0.46257  0.18631  0.94641  1.0000
  S   S192      1.0  0.48407  0.15768  0.66185  1.0000
  C   C1447     1.0  0.26612  0.21796  0.72387  1.0000
  C   C1448     1.0  0.48958  0.09332  0.81968  1.0000
  C   C1449     1.0  0.48010  0.32093  0.97322  1.0000
  C   C1450     1.0  0.49317  0.20680  0.77391  1.0000
  H   H1141     1.0  0.45278  0.20537  0.91931  1.0000
  C   C1451     1.0  0.27153  0.39260  0.67361  1.0000
  C   C1452     1.0  0.46184  0.19188  0.92525  1.0000
  H   H1142     1.0  0.26461  0.46412  0.68185  1.0000
  H   H1143     1.0  0.29818  0.36514  0.68907  1.0000
  C   C1453     1.0  0.48880  0.32289  0.95490  1.0000
  C   C1454     1.0  0.26861  0.19324  0.97921  1.0000
  H   H1144     1.0  0.33804  0.38721  0.68952  1.0000
  H   H1145     1.0  0.48379  0.07387  0.82499  1.0000
  C   C1455     1.0  0.48908  0.08982  0.92715  1.0000
  Fe  Fe96      1.0  0.43973  0.14480  0.66446  1.0000
  C   C1456     1.0  0.47279  0.18000  0.91179  1.0000
  H   H1146     1.0  0.35790  0.35537  0.67441  1.0000
  H   H1147     1.0  0.31958  0.33067  0.69202  1.0000
  C   C1457     1.0  0.26959  0.44490  0.67511  1.0000
  H   H1148     1.0  0.47448  0.16500  0.97060  1.0000
  H   H1149     1.0  0.50518  0.04243  0.89336  1.0000
  H   H1150     1.0  0.48321  0.32667  0.94035  1.0000
  H   H1151     1.0  0.47221  0.18422  0.89536  1.0000
  C   C1458     1.0  0.38389  0.14253  0.65769  1.0000
  C   C1459     1.0  0.50443  0.09938  0.82615  1.0000
  C   C1460     1.0  0.32542  0.39098  0.66138  1.0000
  C   C1461     1.0  0.26297  0.34749  0.72444  1.0000
  C   C1462     1.0  0.35373  0.28882  0.65985  1.0000
  C   C1463     1.0  0.26044  0.08558  0.98573  1.0000
  C   C1464     1.0  0.25893  0.19494  0.96228  1.0000
  C   C1465     1.0  0.47425  0.16899  0.95417  1.0000
  C   C1466     1.0  0.49080  0.20299  0.73683  1.0000
  H   H1152     1.0  0.50261  0.36146  0.86034  1.0000
  H   H1153     1.0  0.48869  0.21484  0.78844  1.0000
  H   H1154     1.0  0.46775  0.32333  0.97269  1.0000
  C   C1467     1.0  0.50232  0.10467  0.93317  1.0000
  H   H1155     1.0  0.27151  0.02218  0.90098  1.0000
  C   C1468     1.0  0.48868  0.09652  0.98070  1.0000
  C   C1469     1.0  0.25680  0.21218  0.90417  1.0000
  H   H1156     1.0  0.50612  0.27969  0.75953  1.0000
  H   H1157     1.0  0.26152  0.12546  0.65929  1.0000
  Fe  Fe97      1.0  0.43469  0.69070  0.06342  1.0000
  S   S193      1.0  0.43871  0.67620  0.09590  1.0000
  S   S194      1.0  0.41118  0.70887  0.05626  1.0000
  Fe  Fe98      1.0  0.46853  0.68215  0.04985  1.0000
  S   S195      1.0  0.47461  0.66653  0.08185  1.0000
  S   S196      1.0  0.48770  0.68065  0.02479  1.0000
  Fe  Fe99      1.0  0.45274  0.64034  0.08189  1.0000
  S   S197      1.0  0.44854  0.59196  0.08852  1.0000
  Fe  Fe100     1.0  0.45999  0.70372  0.09312  1.0000
  S   S198      1.0  0.46649  0.73345  0.11953  1.0000
  S   S199      1.0  0.44744  0.65356  0.04912  1.0000
  S   S200      1.0  0.45521  0.72054  0.06141  1.0000
  Fe  Fe101     1.0  0.29529  0.64663  0.04154  1.0000
  S   S201      1.0  0.28433  0.66569  0.07027  1.0000
  S   S202      1.0  0.28522  0.63464  0.00993  1.0000
  Fe  Fe102     1.0  0.32769  0.64757  0.06093  1.0000
  S   S203      1.0  0.31903  0.66615  0.09082  1.0000
  S   S204      1.0  0.35167  0.62897  0.05719  1.0000
  Fe  Fe103     1.0  0.29951  0.63467  0.08768  1.0000
  S   S205      1.0  0.29225  0.60748  0.11555  1.0000
  Fe  Fe104     1.0  0.30483  0.69585  0.07133  1.0000
  S   S206      1.0  0.30516  0.74532  0.07413  1.0000
  S   S207      1.0  0.30908  0.61426  0.05915  1.0000
  S   S208      1.0  0.31483  0.67888  0.04126  1.0000
  Fe  Fe105     1.0  0.45765  0.90002  0.14395  1.0000
  S   S209      1.0  0.45307  0.88753  0.17704  1.0000
  S   S210      1.0  0.45667  0.86968  0.11658  1.0000
  Fe  Fe106     1.0  0.46135  0.96466  0.15320  1.0000
  S   S211      1.0  0.45692  0.95639  0.18721  1.0000
  H   H1158     1.0  0.34117  0.89882  0.11452  1.0000
  Fe  Fe107     1.0  0.47251  0.91781  0.18434  1.0000
  S   S212      1.0  0.49300  0.91201  0.20594  1.0000
  Fe  Fe108     1.0  0.43783  0.92691  0.17736  1.0000
  S   S213      1.0  0.41460  0.92568  0.19433  1.0000
  S   S214      1.0  0.47812  0.92782  0.15083  1.0000
  S   S215      1.0  0.44122  0.93760  0.14381  1.0000
  Fe  Fe109     1.0  0.29420  0.94712  0.13958  1.0000
  S   S216      1.0  0.30556  0.96429  0.16765  1.0000
  C   C1470     1.0  0.30184  0.56372  0.01629  1.0000
  Fe  Fe110     1.0  0.29821  0.88329  0.15284  1.0000
  S   S217      1.0  0.30977  0.89701  0.18212  1.0000
  S   S218      1.0  0.29480  0.83443  0.14864  1.0000
  Fe  Fe111     1.0  0.29118  0.93124  0.18497  1.0000
  S   S219      1.0  0.27636  0.93690  0.21467  1.0000
  Fe  Fe112     1.0  0.32299  0.92888  0.16218  1.0000
  S   S220      1.0  0.34842  0.93688  0.15443  1.0000
  S   S221      1.0  0.27898  0.91549  0.15681  1.0000
  S   S222      1.0  0.31210  0.91354  0.13297  1.0000
  H   H1159     1.0  0.28647  0.64240  0.32003  1.0000
  C   C1471     1.0  0.27479  0.56573  0.05843  1.0000
  C   C1472     1.0  0.27868  0.97276  0.29118  1.0000
  H   H1160     1.0  0.26826  0.49315  0.11063  1.0000
  C   C1473     1.0  0.40013  0.61849  0.14773  1.0000
  C   C1474     1.0  0.39628  0.92890  0.18304  1.0000
  C   C1475     1.0  0.38305  0.92252  0.19501  1.0000
  C   C1476     1.0  0.36828  0.92449  0.18652  1.0000
  C   C1477     1.0  0.36662  0.93328  0.16603  1.0000
  C   C1478     1.0  0.37985  0.94010  0.15417  1.0000
  C   C1479     1.0  0.39459  0.93775  0.16257  1.0000
  H   H1161     1.0  0.38425  0.91577  0.21090  1.0000
  H   H1162     1.0  0.35822  0.91938  0.19586  1.0000
  H   H1163     1.0  0.45246  0.77973  0.02270  1.0000
  H   H1164     1.0  0.40464  0.94279  0.15324  1.0000
  C   C1480     1.0  0.30275  0.76950  0.09533  1.0000
  C   C1481     1.0  0.29766  0.76026  0.11487  1.0000
  C   C1482     1.0  0.29525  0.78044  0.13086  1.0000
  C   C1483     1.0  0.29808  0.81010  0.12771  1.0000
  C   C1484     1.0  0.30343  0.81929  0.10827  1.0000
  C   C1485     1.0  0.30570  0.79914  0.09220  1.0000
  H   H1165     1.0  0.29528  0.73763  0.11756  1.0000
  H   H1166     1.0  0.29109  0.77302  0.14580  1.0000
  H   H1167     1.0  0.30555  0.84197  0.10554  1.0000
  H   H1168     1.0  0.30961  0.80661  0.07717  1.0000
  C   C1486     1.0  0.30193  0.51015  0.11810  1.0000
  C   C1487     1.0  0.30452  0.52572  0.09977  1.0000
  C   C1488     1.0  0.30182  0.55552  0.09889  1.0000
  C   C1489     1.0  0.29668  0.57022  0.11644  1.0000
  C   C1490     1.0  0.29481  0.55488  0.13509  1.0000
  C   C1491     1.0  0.29733  0.52492  0.13590  1.0000
  H   H1169     1.0  0.30869  0.51467  0.08622  1.0000
  H   H1170     1.0  0.30351  0.56690  0.08451  1.0000
  H   H1171     1.0  0.29132  0.56608  0.14896  1.0000
  H   H1172     1.0  0.29542  0.51321  0.15018  1.0000
  C   C1492     1.0  0.45845  0.52609  0.14067  1.0000
  C   C1493     1.0  0.46182  0.55555  0.14334  1.0000
  C   C1494     1.0  0.45889  0.57606  0.12766  1.0000
  C   C1495     1.0  0.45240  0.56739  0.10910  1.0000
  C   C1496     1.0  0.44892  0.53797  0.10651  1.0000
  C   C1497     1.0  0.45210  0.51742  0.12202  1.0000
  H   H1173     1.0  0.46679  0.56260  0.15764  1.0000
  H   H1174     1.0  0.46164  0.59856  0.12997  1.0000
  H   H1175     1.0  0.44386  0.53106  0.09227  1.0000
  C   C1498     1.0  0.49230  0.79435  0.19044  1.0000
  C   C1499     1.0  0.46387  0.77138  0.11842  1.0000
  C   C1500     1.0  0.46618  0.78793  0.13623  1.0000
  C   C1501     1.0  0.46403  0.81805  0.13596  1.0000
  C   C1502     1.0  0.45954  0.83190  0.11782  1.0000
  C   C1503     1.0  0.45722  0.81537  0.10004  1.0000
  C   C1504     1.0  0.45930  0.78528  0.10034  1.0000
  H   H1176     1.0  0.46949  0.77741  0.15039  1.0000
  H   H1177     1.0  0.46586  0.83053  0.14975  1.0000
  H   H1178     1.0  0.45376  0.82592  0.08595  1.0000
  H   H1179     1.0  0.45739  0.77291  0.08656  1.0000
  C   C1505     1.0  0.39483  0.68614  0.05616  1.0000
  C   C1506     1.0  0.39603  0.65618  0.05810  1.0000
  C   C1507     1.0  0.38272  0.63887  0.05797  1.0000
  C   C1508     1.0  0.36812  0.65138  0.05638  1.0000
  C   C1509     1.0  0.36694  0.68127  0.05430  1.0000
  C   C1510     1.0  0.38026  0.69851  0.05409  1.0000
  H   H1180     1.0  0.40721  0.64634  0.05958  1.0000
  H   H1181     1.0  0.38373  0.61573  0.05936  1.0000
  H   H1182     1.0  0.35578  0.69113  0.05279  1.0000
  H   H1183     1.0  0.37927  0.72153  0.05224  1.0000
  H   H1184     1.0  0.42014  0.97106  0.11532  1.0000
  H   H1185     1.0  0.27841  0.69625  0.01289  1.0000
  C   C1511     1.0  0.39463  0.95917  0.07714  1.0000
  H   H1186     1.0  0.37750  0.83499  0.07700  1.0000
  C   C1512     1.0  0.40515  0.50451  0.16186  1.0000
  C   C1513     1.0  0.49816  0.73092  0.07654  1.0000
  H   H1187     1.0  0.28625  0.61349  0.20480  1.0000
  C   C1514     1.0  0.40622  0.64566  0.15230  1.0000
  H   H1188     1.0  0.41391  0.89111  0.06289  1.0000
  H   H1189     1.0  0.29158  0.57080  0.00856  1.0000
  C   C1515     1.0  0.50087  0.83019  0.06904  1.0000
  C   C1516     1.0  0.26181  0.52041  0.06553  1.0000
  H   H1190     1.0  0.27586  0.51194  0.18568  1.0000
  H   H1191     1.0  0.34967  0.50702  0.09260  1.0000
  C   C1517     1.0  0.41219  0.95955  0.10563  1.0000
  H   H1192     1.0  0.36881  0.90743  0.11704  1.0000
  C   C1518     1.0  0.48458  0.56064  0.05011  1.0000
  H   H1193     1.0  0.28271  0.57883  0.04940  1.0000
  C   C1519     1.0  0.25897  0.59466  0.29167  1.0000
  C   C1520     1.0  0.30604  0.89343  0.29208  1.0000
  H   H1194     1.0  0.25972  0.49794  0.06207  1.0000
  H   H1195     1.0  0.39993  0.60191  0.15954  1.0000
  C   C1521     1.0  0.48779  0.56994  0.08644  1.0000
  H   H1196     1.0  0.28809  0.48919  0.07321  1.0000
  P   P48       1.0  0.38634  0.57836  0.12159  1.0000
  C   C1522     1.0  0.36593  0.58366  0.12509  1.0000
  H   H1197     1.0  0.46806  0.74154  0.20827  1.0000
  C   C1523     1.0  0.35903  0.58023  0.14472  1.0000
  C   C1524     1.0  0.34344  0.58637  0.14780  1.0000
  C   C1525     1.0  0.33468  0.59629  0.13139  1.0000
  C   C1526     1.0  0.34150  0.60017  0.11190  1.0000
  C   C1527     1.0  0.35710  0.59435  0.10883  1.0000
  C   C1528     1.0  0.39178  0.56966  0.09537  1.0000
  C   C1529     1.0  0.38166  0.55497  0.08249  1.0000
  C   C1530     1.0  0.38586  0.54933  0.06196  1.0000
  C   C1531     1.0  0.40644  0.57727  0.08777  1.0000
  H   H1198     1.0  0.32848  0.87710  0.28395  1.0000
  P   P49       1.0  0.27671  0.91440  0.30247  1.0000
  C   C1532     1.0  0.27359  0.70809  0.00007  1.0000
  H   H1199     1.0  0.36572  0.57326  0.15774  1.0000
  H   H1200     1.0  0.33814  0.58359  0.16294  1.0000
  H   H1201     1.0  0.32262  0.60122  0.13378  1.0000
  H   H1202     1.0  0.33474  0.60815  0.09920  1.0000
  H   H1203     1.0  0.36229  0.59895  0.09386  1.0000
  H   H1204     1.0  0.37047  0.54817  0.08818  1.0000
  H   H1205     1.0  0.37781  0.53888  0.05187  1.0000
  H   H1206     1.0  0.37219  0.52564  0.13919  1.0000
  H   H1207     1.0  0.28913  0.97739  0.04209  1.0000
  H   H1208     1.0  0.42190  0.57796  0.06153  1.0000
  C   C1533     1.0  0.49344  0.50449  0.25440  1.0000
  H   H1209     1.0  0.48054  0.88851  0.08582  1.0000
  C   C1534     1.0  0.35695  0.97238  0.10797  1.0000
  C   C1535     1.0  0.34360  0.86228  0.09434  1.0000
  H   H1210     1.0  0.40353  0.55375  0.03840  1.0000
  H   H1211     1.0  0.30679  0.88583  0.30781  1.0000
  C   C1536     1.0  0.34771  0.50070  0.10851  1.0000
  C   C1537     1.0  0.49599  0.86382  0.10438  1.0000
  C   C1538     1.0  0.41066  0.57138  0.06733  1.0000
  H   H1212     1.0  0.26211  0.60133  0.18754  1.0000
  C   C1539     1.0  0.48207  0.81768  0.19126  1.0000
  C   C1540     1.0  0.40042  0.66239  0.11789  1.0000
  H   H1213     1.0  0.49109  0.72253  0.08911  1.0000
  H   H1214     1.0  0.48572  0.83932  0.18721  1.0000
  H   H1215     1.0  0.43223  0.80862  0.04612  1.0000
  H   H1216     1.0  0.31533  0.59911  0.00411  1.0000
  C   C1541     1.0  0.29263  0.91768  0.26463  1.0000
  H   H1217     1.0  0.40251  0.81552  0.09925  1.0000
  C   C1542     1.0  0.48892  0.54033  0.09030  1.0000
  H   H1218     1.0  0.32749  0.89396  0.24759  1.0000
  C   C1543     1.0  0.31844  0.88841  0.27857  1.0000
  C   C1544     1.0  0.48652  0.48853  0.23888  1.0000
  H   H1219     1.0  0.41047  0.50939  0.09149  1.0000
  H   H1220     1.0  0.45911  0.83160  0.19882  1.0000
  H   H1221     1.0  0.40959  0.48715  0.17130  1.0000
  C   C1545     1.0  0.41726  0.80883  0.07287  1.0000
  H   H1222     1.0  0.38430  0.49399  0.08219  1.0000
  H   H1223     1.0  0.30457  0.91993  0.23527  1.0000
  C   C1546     1.0  0.42501  0.82164  0.05614  1.0000
  C   C1547     1.0  0.38404  0.52658  0.14384  1.0000
  C   C1548     1.0  0.33707  0.51196  0.14225  1.0000
  C   C1549     1.0  0.49604  0.70670  0.00728  1.0000
  H   H1224     1.0  0.33874  0.58554  0.02307  1.0000
  C   C1550     1.0  0.48699  0.83178  0.01431  1.0000
  S   S223      1.0  0.28673  0.97708  0.11381  1.0000
  C   C1551     1.0  0.38974  0.50439  0.15622  1.0000
  H   H1225     1.0  0.33828  0.54301  0.04639  1.0000
  C   C1552     1.0  0.39361  0.54961  0.13759  1.0000
  H   H1226     1.0  0.41708  0.56543  0.13688  1.0000
  H   H1227     1.0  0.44983  0.49482  0.11950  1.0000
  H   H1228     1.0  0.45218  0.81573  0.99420  1.0000
  H   H1229     1.0  0.49651  0.84647  0.01175  1.0000
  C   C1553     1.0  0.48981  0.73418  0.00446  1.0000
  H   H1230     1.0  0.48066  0.49939  0.22644  1.0000
  C   C1554     1.0  0.25927  0.51664  0.13677  1.0000
  H   H1231     1.0  0.47947  0.73993  0.01287  1.0000
  H   H1232     1.0  0.41853  0.78590  0.07572  1.0000
  H   H1233     1.0  0.27933  0.49231  0.22649  1.0000
  H   H1234     1.0  0.47451  0.77677  0.04556  1.0000
  C   C1555     1.0  0.35871  0.67342  0.11279  1.0000
  C   C1556     1.0  0.35983  0.66511  0.13346  1.0000
  C   C1557     1.0  0.36352  0.68546  0.14839  1.0000
  C   C1558     1.0  0.36601  0.71422  0.14266  1.0000
  C   C1559     1.0  0.36474  0.72279  0.12196  1.0000
  C   C1560     1.0  0.36122  0.70214  0.10704  1.0000
  P   P50       1.0  0.36912  0.75952  0.11481  1.0000
  C   C1561     1.0  0.36434  0.76609  0.08816  1.0000
  C   C1562     1.0  0.35713  0.78360  0.12982  1.0000
  C   C1563     1.0  0.34293  0.77394  0.13789  1.0000
  C   C1564     1.0  0.33327  0.79287  0.14863  1.0000
  C   C1565     1.0  0.33753  0.82164  0.15114  1.0000
  C   C1566     1.0  0.35155  0.83151  0.14302  1.0000
  C   C1567     1.0  0.36125  0.81268  0.13218  1.0000
  C   C1568     1.0  0.37552  0.77499  0.07357  1.0000
  C   C1569     1.0  0.37160  0.77963  0.05299  1.0000
  C   C1570     1.0  0.35650  0.77536  0.04680  1.0000
  C   C1571     1.0  0.34527  0.76691  0.06125  1.0000
  C   C1572     1.0  0.34911  0.76249  0.08188  1.0000
  C   C1573     1.0  0.38947  0.76256  0.11932  1.0000
  C   C1574     1.0  0.39511  0.77847  0.13597  1.0000
  C   C1575     1.0  0.41087  0.77930  0.13968  1.0000
  C   C1576     1.0  0.42107  0.76389  0.12709  1.0000
  C   C1577     1.0  0.41553  0.74732  0.11092  1.0000
  C   C1578     1.0  0.39979  0.74636  0.10720  1.0000
  H   H1235     1.0  0.35597  0.65766  0.10112  1.0000
  H   H1236     1.0  0.35794  0.64290  0.13792  1.0000
  H   H1237     1.0  0.36452  0.67891  0.16437  1.0000
  H   H1238     1.0  0.36903  0.72977  0.15432  1.0000
  H   H1239     1.0  0.36048  0.70800  0.09095  1.0000
  H   H1240     1.0  0.33907  0.75201  0.13553  1.0000
  H   H1241     1.0  0.32225  0.78546  0.15465  1.0000
  H   H1242     1.0  0.32980  0.83636  0.15905  1.0000
  H   H1243     1.0  0.35466  0.85396  0.14485  1.0000
  H   H1244     1.0  0.37184  0.82087  0.12543  1.0000
  H   H1245     1.0  0.38729  0.77821  0.07781  1.0000
  H   H1246     1.0  0.38037  0.78584  0.04175  1.0000
  H   H1247     1.0  0.35350  0.77836  0.03078  1.0000
  H   H1248     1.0  0.33355  0.76355  0.05645  1.0000
  H   H1249     1.0  0.34019  0.75584  0.09280  1.0000
  H   H1250     1.0  0.38745  0.78978  0.14640  1.0000
  H   H1251     1.0  0.41521  0.79162  0.15247  1.0000
  H   H1252     1.0  0.43327  0.76442  0.13005  1.0000
  H   H1253     1.0  0.42344  0.73514  0.10126  1.0000
  H   H1254     1.0  0.39568  0.73290  0.09481  1.0000
  H   H1255     1.0  0.41134  0.68846  0.14075  1.0000
  H   H1256     1.0  0.33514  0.53937  0.11556  1.0000
  C   C1579     1.0  0.25870  0.88143  0.27596  1.0000
  H   H1257     1.0  0.26473  0.57836  0.28248  1.0000
  H   H1258     1.0  0.49294  0.52782  0.25401  1.0000
  C   C1580     1.0  0.42364  0.85126  0.05256  1.0000
  H   H1259     1.0  0.41090  0.64969  0.16738  1.0000
  C   C1581     1.0  0.26880  0.61683  0.99964  1.0000
  H   H1260     1.0  0.36702  0.96093  0.10263  1.0000
  C   C1582     1.0  0.26177  0.51113  0.24633  1.0000
  H   H1261     1.0  0.41460  0.58812  0.09751  1.0000
  H   H1262     1.0  0.33136  0.85842  0.09344  1.0000
  C   C1583     1.0  0.49916  0.88730  0.22541  1.0000
  C   C1584     1.0  0.31477  0.53196  0.04008  1.0000
  C   C1585     1.0  0.33969  0.51942  0.12158  1.0000
  C   C1586     1.0  0.47430  0.83353  0.00145  1.0000
  C   C1587     1.0  0.29160  0.54130  0.19945  1.0000
  H   H1263     1.0  0.26604  0.88893  0.26342  1.0000
  P   P51       1.0  0.50391  0.80817  0.04649  1.0000
  H   H1264     1.0  0.27365  0.58913  0.31757  1.0000
  C   C1588     1.0  0.27029  0.58441  0.19068  1.0000
  H   H1265     1.0  0.26193  0.53733  0.12979  1.0000
  C   C1589     1.0  0.26728  0.55583  0.18491  1.0000
  H   H1266     1.0  0.29980  0.52452  0.20295  1.0000
  H   H1267     1.0  0.40056  0.67924  0.10621  1.0000
  C   C1590     1.0  0.49040  0.86341  0.23174  1.0000
  C   C1591     1.0  0.31533  0.57986  0.01371  1.0000
  H   H1268     1.0  0.49012  0.53309  0.10607  1.0000
  C   C1592     1.0  0.46200  0.79456  0.02048  1.0000
  C   C1593     1.0  0.47465  0.79279  0.03338  1.0000
  C   C1594     1.0  0.47194  0.76278  0.20344  1.0000
  H   H1269     1.0  0.45005  0.78289  0.20928  1.0000
  C   C1595     1.0  0.28011  0.51909  0.99077  1.0000
  H   H1270     1.0  0.28278  0.92921  0.25890  1.0000
  C   C1596     1.0  0.26283  0.49161  0.12577  1.0000
  H   H1271     1.0  0.45906  0.50238  0.06366  1.0000
  H   H1272     1.0  0.42699  0.52614  0.15872  1.0000
  C   C1597     1.0  0.40475  0.97409  0.08976  1.0000
  H   H1273     1.0  0.48478  0.85927  0.05463  1.0000
  H   H1274     1.0  0.34961  0.82691  0.07454  1.0000
  C   C1598     1.0  0.40515  0.49094  0.09912  1.0000
  H   H1275     1.0  0.25684  0.60950  0.02851  1.0000
  C   C1599     1.0  0.27797  0.53426  0.18956  1.0000
  S   S224      1.0  0.46238  0.50118  0.16106  1.0000
  H   H1276     1.0  0.26769  0.58870  0.14687  1.0000
  C   C1600     1.0  0.40924  0.54883  0.14251  1.0000
  H   H1277     1.0  0.48902  0.82596  0.25169  1.0000
  H   H1278     1.0  0.50215  0.84450  0.15415  1.0000
  H   H1279     1.0  0.48455  0.51624  0.04112  1.0000
  H   H1280     1.0  0.48806  0.58505  0.09913  1.0000
  H   H1281     1.0  0.34118  0.94513  0.09179  1.0000
  C   C1601     1.0  0.32938  0.97794  0.10912  1.0000
  C   C1602     1.0  0.48802  0.52058  0.07400  1.0000
  C   C1603     1.0  0.26533  0.96523  0.22639  1.0000
  H   H1282     1.0  0.37874  0.94718  0.13837  1.0000
  C   C1604     1.0  0.32850  0.57223  0.02441  1.0000
  C   C1605     1.0  0.48572  0.53100  0.05387  1.0000
  C   C1606     1.0  0.42201  0.85261  0.14933  1.0000
  C   C1607     1.0  0.41196  0.85479  0.16626  1.0000
  C   C1608     1.0  0.39669  0.86257  0.16327  1.0000
  C   C1609     1.0  0.39155  0.86885  0.14344  1.0000
  C   C1610     1.0  0.40158  0.86677  0.12632  1.0000
  C   C1611     1.0  0.41687  0.85863  0.12950  1.0000
  P   P52       1.0  0.39569  0.87706  0.10067  1.0000
  C   C1612     1.0  0.37533  0.87130  0.09772  1.0000
  C   C1613     1.0  0.39932  0.91501  0.09640  1.0000
  C   C1614     1.0  0.39189  0.92974  0.08046  1.0000
  C   C1615     1.0  0.26117  0.89001  0.29640  1.0000
  C   C1616     1.0  0.49727  0.76004  0.07111  1.0000
  H   H1283     1.0  0.26900  0.52885  0.25098  1.0000
  C   C1617     1.0  0.40953  0.93009  0.10888  1.0000
  C   C1618     1.0  0.36974  0.84896  0.08537  1.0000
  H   H1284     1.0  0.47929  0.85983  0.22509  1.0000
  H   H1285     1.0  0.33048  0.52610  0.15224  1.0000
  C   C1619     1.0  0.34909  0.88503  0.10617  1.0000
  C   C1620     1.0  0.36485  0.88971  0.10770  1.0000
  C   C1621     1.0  0.40666  0.85542  0.08257  1.0000
  C   C1622     1.0  0.40816  0.82564  0.08607  1.0000
  C   C1623     1.0  0.39444  0.61299  0.12801  1.0000
  C   C1624     1.0  0.29461  0.56983  0.20489  1.0000
  H   H1286     1.0  0.49492  0.74874  0.19668  1.0000
  C   C1625     1.0  0.41451  0.86814  0.06572  1.0000
  H   H1287     1.0  0.43391  0.84687  0.15154  1.0000
  H   H1288     1.0  0.41609  0.85124  0.18174  1.0000
  H   H1289     1.0  0.38901  0.86499  0.17648  1.0000
  H   H1290     1.0  0.37990  0.87611  0.14182  1.0000
  H   H1291     1.0  0.42498  0.85755  0.11669  1.0000
  H   H1292     1.0  0.38403  0.91844  0.07056  1.0000
  C   C1626     1.0  0.26398  0.60085  0.31153  1.0000
  C   C1627     1.0  0.41493  0.52651  0.15479  1.0000
  C   C1628     1.0  0.49595  0.84430  0.24695  1.0000
  H   H1293     1.0  0.41545  0.91911  0.12112  1.0000
  C   C1629     1.0  0.32820  0.54831  0.03762  1.0000
  C   C1630     1.0  0.28394  0.59137  0.20055  1.0000
  H   H1294     1.0  0.30518  0.57519  0.21254  1.0000
  C   C1631     1.0  0.40644  0.66754  0.13735  1.0000
  H   H1295     1.0  0.38959  0.63180  0.09827  1.0000
  C   C1632     1.0  0.30151  0.53936  0.02927  1.0000
  C   C1633     1.0  0.35392  0.84443  0.08379  1.0000
  H   H1296     1.0  0.42987  0.86122  0.03976  1.0000
  H   H1297     1.0  0.31468  0.51396  0.05071  1.0000
  C   C1634     1.0  0.46180  0.78603  0.20398  1.0000
  C   C1635     1.0  0.40033  0.55764  0.05437  1.0000
  C   C1636     1.0  0.48561  0.58010  0.06639  1.0000
  H   H1298     1.0  0.26853  0.60103  0.07829  1.0000
  C   C1637     1.0  0.39435  0.63532  0.11332  1.0000
  H   H1299     1.0  0.28811  0.74511  0.00420  1.0000
  H   H1300     1.0  0.48432  0.60303  0.06355  1.0000
  C   C1638     1.0  0.30502  0.91258  0.25117  1.0000
  C   C1639     1.0  0.48854  0.87065  0.08609  1.0000
  C   C1640     1.0  0.46688  0.81345  0.19798  1.0000
  H   H1301     1.0  0.48949  0.77381  0.07975  1.0000
  H   H1302     1.0  0.48264  0.56866  0.03464  1.0000
  P   P53       1.0  0.28382  0.51953  0.03356  1.0000
  H   H1303     1.0  0.26041  0.62793  0.12352  1.0000
  C   C1641     1.0  0.48715  0.76694  0.19683  1.0000
  C   C1642     1.0  0.29296  0.90809  0.28521  1.0000
  H   H1304     1.0  0.31813  0.97101  0.10435  1.0000
  H   H1305     1.0  0.49478  0.75687  0.15698  1.0000
  C   C1643     1.0  0.27277  0.53637  0.05406  1.0000
  C   C1644     1.0  0.31792  0.89793  0.25811  1.0000
  C   C1645     1.0  0.50504  0.76347  0.14860  1.0000
  C   C1646     1.0  0.46186  0.81478  0.00444  1.0000
  C   C1647     1.0  0.48743  0.81085  0.03004  1.0000
  C   C1648     1.0  0.27909  0.73562  0.99512  1.0000
  H   H1306     1.0  0.38892  0.97044  0.06478  1.0000
  H   H1307     1.0  0.28981  0.96818  0.28438  1.0000
  C   C1649     1.0  0.26970  0.95091  0.30051  1.0000
  C   C1650     1.0  0.27273  0.51944  0.01024  1.0000
  H   H1308     1.0  0.50005  0.73554  0.12324  1.0000
  C   C1651     1.0  0.50593  0.77091  0.05428  1.0000
  H   H1309     1.0  0.49367  0.87638  0.11814  1.0000
  H   H1310     1.0  0.41807  0.98599  0.16824  1.0000
  C   C1652     1.0  0.50100  0.49039  0.27044  1.0000
  C   C1653     1.0  0.26766  0.49052  0.23230  1.0000
  C   C1654     1.0  0.49089  0.85386  0.06849  1.0000
  C   C1655     1.0  0.26655  0.57856  0.07463  1.0000
  C   C1656     1.0  0.34240  0.96340  0.10194  1.0000
  H   H1311     1.0  0.26973  0.98108  0.16426  1.0000
  H   H1312     1.0  0.38228  0.48684  0.16126  1.0000
  C   C1657     1.0  0.50606  0.84047  0.10497  1.0000
  H   H1313     1.0  0.50617  0.50332  0.28226  1.0000
  C   C1658     1.0  0.49682  0.75404  0.99053  1.0000
  H   H1314     1.0  0.25790  0.67423  0.99251  1.0000
  C   C1659     1.0  0.25662  0.51949  0.01134  1.0000
  S   S225      1.0  0.43958  0.65975  0.63544  1.0000
  H   H1315     1.0  0.28093  0.86173  0.32700  1.0000
  S   S226      1.0  0.46410  0.60038  0.60879  1.0000
  H   H1316     1.0  0.48939  0.94441  0.42456  1.0000
  H   H1317     1.0  0.49133  0.50154  0.61606  1.0000
  H   H1318     1.0  0.28197  0.68736  0.58754  1.0000
  C   C1660     1.0  0.48371  0.88096  0.46274  1.0000
  S   S227      1.0  0.29659  0.72520  0.61918  1.0000
  H   H1319     1.0  0.35779  0.82219  0.65321  1.0000
  S   S228      1.0  0.30800  0.58545  0.65310  1.0000
  Fe  Fe113     1.0  0.47188  0.92664  0.53582  1.0000
  S   S229      1.0  0.47933  0.91018  0.56702  1.0000
  S   S230      1.0  0.48608  0.93154  0.50564  1.0000
  Fe  Fe114     1.0  0.43745  0.92419  0.54868  1.0000
  S   S231      1.0  0.44242  0.90741  0.58029  1.0000
  S   S232      1.0  0.41388  0.93755  0.53734  1.0000
  Fe  Fe115     1.0  0.46136  0.94069  0.57988  1.0000
  H   H1320     1.0  0.31544  0.83851  0.51130  1.0000
  Fe  Fe116     1.0  0.45986  0.87806  0.56533  1.0000
  S   S233      1.0  0.46223  0.82889  0.56927  1.0000
  S   S234      1.0  0.45533  0.95935  0.54902  1.0000
  S   S235      1.0  0.45340  0.89267  0.53335  1.0000
  Fe  Fe117     1.0  0.29496  0.88646  0.58782  1.0000
  S   S236      1.0  0.30776  0.86603  0.56150  1.0000
  S   S237      1.0  0.28430  0.86032  0.61440  1.0000
  Fe  Fe118     1.0  0.30111  0.94781  0.57159  1.0000
  S   S238      1.0  0.31420  0.93086  0.54361  1.0000
  C   C1661     1.0  0.28776  0.87529  0.35710  1.0000
  Fe  Fe119     1.0  0.29532  0.89732  0.54119  1.0000
  S   S239      1.0  0.28763  0.88165  0.50922  1.0000
  Fe  Fe120     1.0  0.32550  0.90070  0.56592  1.0000
  S   S240      1.0  0.35004  0.88363  0.56807  1.0000
  S   S241      1.0  0.28141  0.91637  0.56743  1.0000
  S   S242      1.0  0.31342  0.91927  0.59389  1.0000
  C   C1662     1.0  0.27037  0.86701  0.49888  1.0000
  C   C1663     1.0  0.27005  0.86015  0.47774  1.0000
  C   C1664     1.0  0.28240  0.63030  0.35204  1.0000
  H   H1321     1.0  0.28031  0.86313  0.46834  1.0000
  C   C1665     1.0  0.50578  0.88634  0.38582  1.0000
  C   C1666     1.0  0.39625  0.92295  0.54667  1.0000
  C   C1667     1.0  0.38243  0.93696  0.54200  1.0000
  C   C1668     1.0  0.36818  0.92555  0.54873  1.0000
  C   C1669     1.0  0.36762  0.89965  0.55985  1.0000
  C   C1670     1.0  0.38144  0.88556  0.56442  1.0000
  C   C1671     1.0  0.39568  0.89728  0.55804  1.0000
  H   H1322     1.0  0.38271  0.95664  0.53302  1.0000
  H   H1323     1.0  0.35764  0.93651  0.54500  1.0000
  H   H1324     1.0  0.38116  0.86540  0.57284  1.0000
  H   H1325     1.0  0.40623  0.88634  0.56161  1.0000
  C   C1672     1.0  0.30453  0.56246  0.63157  1.0000
  C   C1673     1.0  0.29613  0.57144  0.61450  1.0000
  C   C1674     1.0  0.29315  0.55203  0.59829  1.0000
  C   C1675     1.0  0.29856  0.52342  0.59876  1.0000
  C   C1676     1.0  0.30720  0.51458  0.61566  1.0000
  C   C1677     1.0  0.31009  0.53393  0.63195  1.0000
  H   H1326     1.0  0.29174  0.59320  0.61394  1.0000
  H   H1327     1.0  0.28645  0.55917  0.58535  1.0000
  H   H1328     1.0  0.25993  0.68489  0.33226  1.0000
  H   H1329     1.0  0.49690  0.81611  0.43163  1.0000
  C   C1678     1.0  0.29350  0.76285  0.61882  1.0000
  C   C1679     1.0  0.29683  0.77807  0.60052  1.0000
  C   C1680     1.0  0.29398  0.80776  0.59900  1.0000
  C   C1681     1.0  0.28761  0.82267  0.61573  1.0000
  C   C1682     1.0  0.28406  0.80739  0.63402  1.0000
  C   C1683     1.0  0.28725  0.77766  0.63572  1.0000
  H   H1330     1.0  0.30185  0.76693  0.58750  1.0000
  H   H1331     1.0  0.29673  0.81903  0.58483  1.0000
  H   H1332     1.0  0.50617  0.86530  0.45505  1.0000
  C   C1684     1.0  0.48288  0.57728  0.52860  1.0000
  C   C1685     1.0  0.45852  0.76491  0.62440  1.0000
  C   C1686     1.0  0.46002  0.75499  0.60411  1.0000
  C   C1687     1.0  0.46166  0.77484  0.58754  1.0000
  C   C1688     1.0  0.46156  0.80485  0.59094  1.0000
  C   C1689     1.0  0.46061  0.81469  0.61126  1.0000
  C   C1690     1.0  0.45915  0.79489  0.62784  1.0000
  H   H1333     1.0  0.45971  0.73208  0.60113  1.0000
  H   H1334     1.0  0.46260  0.76691  0.57191  1.0000
  H   H1335     1.0  0.46113  0.83754  0.61418  1.0000
  C   C1691     1.0  0.29643  0.78198  0.53407  1.0000
  C   C1692     1.0  0.26072  0.94476  0.50751  1.0000
  C   C1693     1.0  0.45580  0.51828  0.62880  1.0000
  C   C1694     1.0  0.45739  0.54847  0.62822  1.0000
  C   C1695     1.0  0.46088  0.56265  0.60965  1.0000
  C   C1696     1.0  0.46204  0.54643  0.59143  1.0000
  C   C1697     1.0  0.46034  0.51622  0.59196  1.0000
  H   H1336     1.0  0.48553  0.87983  0.47926  1.0000
  C   C1698     1.0  0.38632  0.85098  0.61945  1.0000
  H   H1337     1.0  0.46432  0.55717  0.57685  1.0000
  C   C1699     1.0  0.28346  0.88004  0.33668  1.0000
  H   H1338     1.0  0.33328  0.77009  0.54886  1.0000
  H   H1339     1.0  0.47717  0.88669  0.40381  1.0000
  H   H1340     1.0  0.33621  0.83712  0.59417  1.0000
  C   C1700     1.0  0.29155  0.63830  0.33488  1.0000
  H   H1341     1.0  0.28528  0.95358  0.33604  1.0000
  C   C1701     1.0  0.42519  0.79945  0.57052  1.0000
  S   S243      1.0  0.29389  0.49972  0.57806  1.0000
  C   C1702     1.0  0.34541  0.74387  0.64085  1.0000
  H   H1342     1.0  0.42921  0.57920  0.61473  1.0000
  C   C1703     1.0  0.50514  0.93082  0.36586  1.0000
  C   C1704     1.0  0.35434  0.80032  0.64980  1.0000
  C   C1705     1.0  0.32134  0.85435  0.64963  1.0000
  H   H1343     1.0  0.38751  0.83304  0.60891  1.0000
  P   P54       1.0  0.41419  0.83367  0.63591  1.0000
  C   C1706     1.0  0.41958  0.96103  0.61981  1.0000
  H   H1344     1.0  0.26455  0.85754  0.57494  1.0000
  C   C1707     1.0  0.49514  0.88689  0.35134  1.0000
  C   C1708     1.0  0.35386  0.49316  0.63883  1.0000
  C   C1709     1.0  0.31422  0.63715  0.35596  1.0000
  H   H1345     1.0  0.48141  0.50580  0.54137  1.0000
  H   H1346     1.0  0.30739  0.74928  0.55274  1.0000
  C   C1710     1.0  0.30513  0.62991  0.37322  1.0000
  H   H1347     1.0  0.50365  0.97757  0.40070  1.0000
  C   C1711     1.0  0.37185  0.89259  0.63090  1.0000
  H   H1348     1.0  0.48586  0.58789  0.57291  1.0000
  H   H1349     1.0  0.27517  0.86713  0.40936  1.0000
  S   S244      1.0  0.46210  0.96607  0.60976  1.0000
  H   H1350     1.0  0.34235  0.72158  0.63807  1.0000
  H   H1351     1.0  0.41898  0.94409  0.49192  1.0000
  C   C1712     1.0  0.27448  0.90316  0.43025  1.0000
  C   C1713     1.0  0.49867  0.94947  0.63363  1.0000
  H   H1352     1.0  0.28683  0.90464  0.43151  1.0000
  H   H1353     1.0  0.28123  0.64927  0.56084  1.0000
  Fe  Fe121     1.0  0.45507  0.69182  0.65071  1.0000
  C   C1714     1.0  0.38272  0.89784  0.64602  1.0000
  H   H1354     1.0  0.29275  0.94488  0.37195  1.0000
  H   H1355     1.0  0.49082  0.63313  0.59113  1.0000
  C   C1715     1.0  0.46875  0.57943  0.51883  1.0000
  C   C1716     1.0  0.26076  0.97368  0.51335  1.0000
  C   C1717     1.0  0.26387  0.57245  0.36823  1.0000
  C   C1718     1.0  0.41098  0.93731  0.61348  1.0000
  C   C1719     1.0  0.46746  0.89293  0.43410  1.0000
  H   H1356     1.0  0.36536  0.86517  0.60578  1.0000
  H   H1357     1.0  0.29449  0.89500  0.38560  1.0000
  H   H1358     1.0  0.45595  0.56083  0.64212  1.0000
  C   C1720     1.0  0.42774  0.95897  0.48626  1.0000
  H   H1359     1.0  0.39521  0.51354  0.62513  1.0000
  H   H1360     1.0  0.31154  0.49278  0.61627  1.0000
  C   C1721     1.0  0.36853  0.49693  0.60679  1.0000
  H   H1361     1.0  0.32456  0.79833  0.61606  1.0000
  H   H1362     1.0  0.27693  0.71388  0.51368  1.0000
  H   H1363     1.0  0.43704  0.87122  0.61506  1.0000
  H   H1364     1.0  0.33802  0.63675  0.61433  1.0000
  C   C1722     1.0  0.44293  0.95544  0.49225  1.0000
  C   C1723     1.0  0.46391  0.52883  0.52557  1.0000
  C   C1724     1.0  0.41033  0.80385  0.65335  1.0000
  C   C1725     1.0  0.48816  0.96749  0.42616  1.0000
  H   H1365     1.0  0.32652  0.63968  0.35746  1.0000
  S   S245      1.0  0.45506  0.74120  0.64588  1.0000
  H   H1366     1.0  0.41483  0.91568  0.61693  1.0000
  Fe  Fe122     1.0  0.45914  0.62843  0.63687  1.0000
  H   H1367     1.0  0.41072  0.68127  0.64448  1.0000
  H   H1368     1.0  0.45857  0.80295  0.64344  1.0000
  C   C1726     1.0  0.42148  0.82843  0.57333  1.0000
  C   C1727     1.0  0.32013  0.82628  0.64184  1.0000
  C   C1728     1.0  0.29113  0.89865  0.36980  1.0000
  C   C1729     1.0  0.42990  0.85539  0.64517  1.0000
  H   H1369     1.0  0.41516  0.86130  0.59491  1.0000
  H   H1370     1.0  0.27033  0.93864  0.45070  1.0000
  H   H1371     1.0  0.42328  0.77639  0.62012  1.0000
  C   C1730     1.0  0.48755  0.55091  0.53717  1.0000
  H   H1372     1.0  0.39093  0.92319  0.59740  1.0000
  H   H1373     1.0  0.42189  0.84308  0.56025  1.0000
  C   C1731     1.0  0.47804  0.52658  0.53531  1.0000
  H   H1374     1.0  0.44594  0.93787  0.50246  1.0000
  C   C1732     1.0  0.26712  0.78877  0.55684  1.0000
  H   H1375     1.0  0.46517  0.59988  0.51238  1.0000
  C   C1733     1.0  0.26206  0.83475  0.57341  1.0000
  H   H1376     1.0  0.26505  0.52942  0.38083  1.0000
  H   H1377     1.0  0.38269  0.97227  0.58815  1.0000
  S   S246      1.0  0.32031  0.66766  0.64723  1.0000
  C   C1734     1.0  0.36302  0.50964  0.62510  1.0000
  C   C1735     1.0  0.45925  0.55523  0.51737  1.0000
  C   C1736     1.0  0.33405  0.86929  0.61772  1.0000
  H   H1378     1.0  0.33744  0.81492  0.52825  1.0000
  C   C1737     1.0  0.28240  0.90826  0.32884  1.0000
  H   H1379     1.0  0.28713  0.76589  0.49384  1.0000
  C   C1738     1.0  0.39064  0.58642  0.62186  1.0000
  C   C1739     1.0  0.40601  0.59422  0.61862  1.0000
  C   C1740     1.0  0.41730  0.57302  0.61715  1.0000
  C   C1741     1.0  0.28085  0.69319  0.57139  1.0000
  C   C1742     1.0  0.50471  0.51829  0.56765  1.0000
  C   C1743     1.0  0.35349  0.56920  0.61519  1.0000
  C   C1744     1.0  0.34470  0.55681  0.59954  1.0000
  C   C1745     1.0  0.33366  0.57313  0.58935  1.0000
  C   C1746     1.0  0.33135  0.60198  0.59456  1.0000
  C   C1747     1.0  0.34007  0.61458  0.60998  1.0000
  C   C1748     1.0  0.35097  0.59823  0.62041  1.0000
  C   C1749     1.0  0.41326  0.54397  0.61921  1.0000
  H   H1380     1.0  0.42212  0.52760  0.61833  1.0000
  H   H1381     1.0  0.35695  0.60801  0.63310  1.0000
  C   C1750     1.0  0.49750  0.59603  0.57334  1.0000
  H   H1382     1.0  0.28463  0.76615  0.64992  1.0000
  H   H1383     1.0  0.28025  0.73841  0.57762  1.0000
  H   H1384     1.0  0.28953  0.81787  0.51480  1.0000
  C   C1751     1.0  0.28589  0.93160  0.34168  1.0000
  H   H1385     1.0  0.38225  0.60332  0.62339  1.0000
  H   H1386     1.0  0.40928  0.61677  0.61768  1.0000
  H   H1387     1.0  0.41416  0.73270  0.63557  1.0000
  P   P55       1.0  0.27717  0.76779  0.53742  1.0000
  C   C1752     1.0  0.41857  0.82021  0.61030  1.0000
  H   H1388     1.0  0.34588  0.53435  0.59550  1.0000
  H   H1389     1.0  0.32655  0.56304  0.57787  1.0000
  H   H1390     1.0  0.49784  0.93322  0.62174  1.0000
  H   H1391     1.0  0.42851  0.75834  0.58530  1.0000
  H   H1392     1.0  0.38757  0.65506  0.63397  1.0000
  Fe  Fe123     1.0  0.29987  0.69730  0.64761  1.0000
  C   C1753     1.0  0.35903  0.78762  0.63123  1.0000
  C   C1754     1.0  0.35449  0.75937  0.62652  1.0000
  H   H1393     1.0  0.37523  0.50942  0.59566  1.0000
  P   P56       1.0  0.36293  0.74127  0.60458  1.0000
  C   C1755     1.0  0.34981  0.71767  0.59161  1.0000
  C   C1756     1.0  0.36877  0.76714  0.58511  1.0000
  C   C1757     1.0  0.35844  0.78869  0.57922  1.0000
  C   C1758     1.0  0.36256  0.80861  0.56383  1.0000
  C   C1759     1.0  0.37691  0.80692  0.55400  1.0000
  C   C1760     1.0  0.38706  0.78495  0.55932  1.0000
  C   C1761     1.0  0.38302  0.76503  0.57481  1.0000
  C   C1762     1.0  0.35560  0.69584  0.57874  1.0000
  C   C1763     1.0  0.34561  0.67790  0.56804  1.0000
  C   C1764     1.0  0.32978  0.68214  0.56968  1.0000
  C   C1765     1.0  0.32397  0.70435  0.58197  1.0000
  C   C1766     1.0  0.33391  0.72210  0.59294  1.0000
  C   C1767     1.0  0.37874  0.72165  0.61526  1.0000
  C   C1768     1.0  0.37706  0.69230  0.62028  1.0000
  C   C1769     1.0  0.38884  0.67766  0.63011  1.0000
  C   C1770     1.0  0.40206  0.69238  0.63579  1.0000
  C   C1771     1.0  0.40383  0.72157  0.63098  1.0000
  C   C1772     1.0  0.39215  0.73630  0.62087  1.0000
  H   H1394     1.0  0.45694  0.90370  0.62791  1.0000
  C   C1773     1.0  0.49849  0.87210  0.36956  1.0000
  H   H1395     1.0  0.46089  0.89796  0.46619  1.0000
  H   H1396     1.0  0.36643  0.79970  0.62077  1.0000
  H   H1397     1.0  0.31476  0.80921  0.65077  1.0000
  H   H1398     1.0  0.34717  0.78996  0.58645  1.0000
  H   H1399     1.0  0.35460  0.82534  0.55943  1.0000
  H   H1400     1.0  0.38010  0.82255  0.54215  1.0000
  H   H1401     1.0  0.39802  0.78325  0.55130  1.0000
  H   H1402     1.0  0.39097  0.74792  0.57846  1.0000
  H   H1403     1.0  0.36787  0.69264  0.57698  1.0000
  H   H1404     1.0  0.35015  0.66079  0.55841  1.0000
  H   H1405     1.0  0.32199  0.66832  0.56139  1.0000
  H   H1406     1.0  0.31172  0.70773  0.58309  1.0000
  H   H1407     1.0  0.32911  0.73918  0.60237  1.0000
  H   H1408     1.0  0.36653  0.68079  0.61726  1.0000
  H   H1409     1.0  0.50077  0.98453  0.61189  1.0000
  H   H1410     1.0  0.27787  0.82952  0.54822  1.0000
  H   H1411     1.0  0.50388  0.97692  0.52618  1.0000
  H   H1412     1.0  0.39342  0.75917  0.61789  1.0000
  C   C1774     1.0  0.32571  0.81996  0.62202  1.0000
  C   C1775     1.0  0.29018  0.92676  0.36209  1.0000
  H   H1413     1.0  0.46589  0.97212  0.49043  1.0000
  C   C1776     1.0  0.32370  0.78038  0.54140  1.0000
  C   C1777     1.0  0.33243  0.84159  0.60982  1.0000
  H   H1414     1.0  0.27294  0.77008  0.46135  1.0000
  H   H1415     1.0  0.43014  0.95778  0.62811  1.0000
  C   C1778     1.0  0.37362  0.86905  0.61773  1.0000
  H   H1416     1.0  0.42863  0.79182  0.55536  1.0000
  C   C1779     1.0  0.29898  0.80702  0.52219  1.0000
  C   C1780     1.0  0.42520  0.78065  0.58741  1.0000
  P   P57       1.0  0.26187  0.62699  0.34997  1.0000
  C   C1781     1.0  0.31372  0.81873  0.52009  1.0000
  P   P58       1.0  0.36665  0.54742  0.62998  1.0000
  H   H1417     1.0  0.26652  0.92886  0.51687  1.0000
  H   H1418     1.0  0.49538  0.84955  0.37082  1.0000
  C   C1782     1.0  0.26507  0.92223  0.44131  1.0000
  C   C1783     1.0  0.45018  0.89066  0.63871  1.0000
  H   H1419     1.0  0.47285  0.96383  0.45225  1.0000
  C   C1784     1.0  0.50037  0.97844  0.62806  1.0000
  H   H1420     1.0  0.32249  0.61432  0.58707  1.0000
  C   C1785     1.0  0.39756  0.94154  0.60241  1.0000
  H   H1421     1.0  0.45328  0.50753  0.64332  1.0000
  C   C1786     1.0  0.26681  0.77086  0.47601  1.0000
  C   C1787     1.0  0.43875  0.87232  0.63144  1.0000
  H   H1422     1.0  0.28843  0.85349  0.36310  1.0000
  C   C1788     1.0  0.50358  0.80918  0.41834  1.0000
  H   H1423     1.0  0.33927  0.88613  0.60835  1.0000
  C   C1789     1.0  0.26694  0.77071  0.51353  1.0000
  H   H1424     1.0  0.31038  0.62695  0.38811  1.0000
  C   C1790     1.0  0.39291  0.96944  0.59723  1.0000
  C   C1791     1.0  0.49331  0.87516  0.42754  1.0000
  C   C1792     1.0  0.32607  0.80551  0.52974  1.0000
  H   H1425     1.0  0.49014  0.59620  0.52948  1.0000
  C   C1793     1.0  0.41798  0.83873  0.59308  1.0000
  H   H1426     1.0  0.27903  0.81867  0.64698  1.0000
  H   H1427     1.0  0.31662  0.52666  0.64500  1.0000
  C   C1794     1.0  0.28926  0.62672  0.37132  1.0000
  H   H1428     1.0  0.49956  0.94175  0.46553  1.0000
  C   C1795     1.0  0.46980  0.89123  0.45535  1.0000
  C   C1796     1.0  0.38638  0.55726  0.62379  1.0000
  C   C1797     1.0  0.27799  0.70848  0.52985  1.0000
  C   C1798     1.0  0.28047  0.67177  0.55636  1.0000
  H   H1429     1.0  0.45663  0.90079  0.42839  1.0000
  C   C1799     1.0  0.49539  0.87282  0.44894  1.0000
  H   H1430     1.0  0.27876  0.66279  0.52393  1.0000
  C   C1800     1.0  0.39792  0.53610  0.62278  1.0000
  H   H1431     1.0  0.28231  0.62158  0.38489  1.0000
  C   C1801     1.0  0.50012  0.95713  0.49679  1.0000
  C   C1802     1.0  0.49656  0.49856  0.60092  1.0000
  C   C1803     1.0  0.30895  0.76862  0.54355  1.0000
  C   C1804     1.0  0.47875  0.97869  0.44190  1.0000
  C   C1805     1.0  0.42220  0.79106  0.60725  1.0000
  H   H1432     1.0  0.48803  0.51067  0.47570  1.0000
  H   H1433     1.0  0.44828  0.55690  0.50985  1.0000
  C   C1806     1.0  0.27481  0.76880  0.49448  1.0000
  H   H1434     1.0  0.36220  0.90703  0.62913  1.0000
  C   C1807     1.0  0.30743  0.64148  0.33683  1.0000
  H   H1435     1.0  0.45658  0.51001  0.52437  1.0000
  C   C1808     1.0  0.47915  0.88485  0.42021  1.0000
  C   C1809     1.0  0.39753  0.85657  0.63420  1.0000
  C   C1810     1.0  0.27986  0.72224  0.56569  1.0000
  H   H1436     1.0  0.48999  0.87558  0.33860  1.0000
  C   C1811     1.0  0.32862  0.87568  0.63750  1.0000
  H   H1437     1.0  0.49540  0.54333  0.59310  1.0000
  C   C1812     1.0  0.27907  0.67942  0.53559  1.0000
  H   H1438     1.0  0.27592  0.57277  0.36391  1.0000
  C   C1813     1.0  0.26976  0.81857  0.55837  1.0000
  C   C1814     1.0  0.49888  0.52225  0.58778  1.0000
  C   C1815     1.0  0.50461  0.95726  0.47579  1.0000
  C   C1816     1.0  0.27828  0.73016  0.54489  1.0000
  H   H1439     1.0  0.28935  0.94720  0.64419  1.0000
  H   H1440     1.0  0.29651  0.89592  0.64621  1.0000
  H   H1441     1.0  0.26660  0.98015  0.52724  1.0000
  C   C1817     1.0  0.45745  0.50196  0.61072  1.0000
  H   H1442     1.0  0.46159  0.50397  0.57791  1.0000
  H   H1443     1.0  0.38144  0.91630  0.65608  1.0000
  C   C1818     1.0  0.26794  0.88206  0.41781  1.0000
  C   C1819     1.0  0.49849  0.91625  0.34949  1.0000
  C   C1820     1.0  0.49648  0.49606  0.48184  1.0000
  C   C1821     1.0  0.50028  0.62181  0.58370  1.0000
  C   C1822     1.0  0.50489  0.77963  0.41440  1.0000
  H   H1444     1.0  0.49604  0.92769  0.33530  1.0000
  H   H1445     1.0  0.34913  0.50258  0.65277  1.0000
  S   S247      1.0  0.47536  0.66185  0.64933  1.0000
  C   C1823     1.0  0.39549  0.87981  0.64777  1.0000
  H   H1446     1.0  0.49924  0.76412  0.42458  1.0000
  H   H1447     1.0  0.38569  0.80764  0.65234  1.0000
  H   H1448     1.0  0.33877  0.56187  0.65357  1.0000
  H   H1449     1.0  0.32997  0.89745  0.64315  1.0000
  C   C1824     1.0  0.45422  0.97486  0.48540  1.0000
  C   C1825     1.0  0.25773  0.54768  0.37765  1.0000
  P   P59       1.0  0.50586  0.54818  0.54969  1.0000
  H   H1450     1.0  0.25696  0.86793  0.52706  1.0000
  C   C1826     1.0  0.49619  0.98606  0.41276  1.0000
  C   C1827     1.0  0.25697  0.86286  0.51080  1.0000
  H   H1451     1.0  0.41206  0.98458  0.46871  1.0000
  C   C1828     1.0  0.42386  0.98186  0.47327  1.0000
  C   C1829     1.0  0.49759  0.94164  0.65446  1.0000
  H   H1452     1.0  0.31446  0.64749  0.32352  1.0000
  Fe  Fe124     1.0  0.46779  0.64529  0.68086  1.0000
  H   H1453     1.0  0.33430  0.57657  0.68950  1.0000
  S   S248      1.0  0.48729  0.64146  0.70462  1.0000
  C   C1830     1.0  0.34527  0.78478  0.66395  1.0000
  C   C1831     1.0  0.39228  0.77173  0.67110  1.0000
  S   S249      1.0  0.45264  0.61051  0.66802  1.0000
  S   S250      1.0  0.44816  0.67726  0.68303  1.0000
  Fe  Fe125     1.0  0.28859  0.67772  0.69010  1.0000
  C   C1832     1.0  0.45319  0.53132  0.71528  1.0000
  S   S251      1.0  0.26832  0.68018  0.71338  1.0000
  S   S252      1.0  0.40900  0.62750  0.67258  1.0000
  C   C1833     1.0  0.29997  0.95836  0.67285  1.0000
  H   H1454     1.0  0.31459  0.97202  0.88933  1.0000
  S   S253      1.0  0.30832  0.64649  0.69328  1.0000
  C   C1834     1.0  0.39192  0.64752  0.67720  1.0000
  H   H1455     1.0  0.31162  0.96309  0.70163  1.0000
  H   H1456     1.0  0.28701  0.63353  0.82357  1.0000
  C   C1835     1.0  0.29068  0.79204  0.69582  1.0000
  C   C1836     1.0  0.36384  0.64994  0.67576  1.0000
  C   C1837     1.0  0.27816  0.62167  0.83194  1.0000
  C   C1838     1.0  0.31172  0.97574  0.85648  1.0000
  H   H1457     1.0  0.31655  0.84801  0.71940  1.0000
  H   H1458     1.0  0.40230  0.73723  0.68870  1.0000
  C   C1839     1.0  0.28249  0.60022  0.84597  1.0000
  C   C1840     1.0  0.27015  0.64678  0.77227  1.0000
  H   H1459     1.0  0.38225  0.56509  0.70185  1.0000
  H   H1460     1.0  0.44651  0.87627  0.69003  1.0000
  C   C1841     1.0  0.45297  0.89210  0.65981  1.0000
  C   C1842     1.0  0.26329  0.75459  0.74687  1.0000
  C   C1843     1.0  0.37815  0.68946  0.69020  1.0000
  H   H1461     1.0  0.36508  0.84764  0.72939  1.0000
  H   H1462     1.0  0.29322  0.76998  0.70011  1.0000
  H   H1463     1.0  0.27461  0.56826  0.86813  1.0000
  C   C1844     1.0  0.49539  0.61696  0.72303  1.0000
  C   C1845     1.0  0.34048  0.84694  0.72654  1.0000
  H   H1464     1.0  0.38694  0.55054  0.66585  1.0000
  H   H1465     1.0  0.28735  0.49051  0.86493  1.0000
  C   C1846     1.0  0.35821  0.85910  0.69864  1.0000
  H   H1466     1.0  0.27722  0.51975  0.95780  1.0000
  H   H1467     1.0  0.29692  0.98098  0.67176  1.0000
  H   H1468     1.0  0.49902  0.62356  0.66304  1.0000
  H   H1469     1.0  0.49264  0.69491  0.73435  1.0000
  C   C1847     1.0  0.29979  0.91028  0.65852  1.0000
  H   H1470     1.0  0.46944  0.74356  0.83714  1.0000
  P   P60       1.0  0.31480  0.86296  0.67544  1.0000
  H   H1471     1.0  0.28007  0.73720  0.72523  1.0000
  H   H1472     1.0  0.47058  0.54532  0.66902  1.0000
  C   C1848     1.0  0.34835  0.56224  0.66398  1.0000
  H   H1473     1.0  0.34825  0.86978  0.66967  1.0000
  C   C1849     1.0  0.40450  0.75591  0.67899  1.0000
  C   C1850     1.0  0.50263  0.55049  0.66375  1.0000
  C   C1851     1.0  0.30251  0.81056  0.68931  1.0000
  C   C1852     1.0  0.42250  0.78777  0.66134  1.0000
  C   C1853     1.0  0.26937  0.73339  0.73347  1.0000
  H   H1474     1.0  0.30528  0.97892  0.82462  1.0000
  C   C1854     1.0  0.49815  0.96283  0.66971  1.0000
  H   H1475     1.0  0.37751  0.61432  0.66485  1.0000
  H   H1476     1.0  0.46022  0.64609  0.77092  1.0000
  C   C1855     1.0  0.30837  0.90001  0.67516  1.0000
  C   C1856     1.0  0.48064  0.65953  0.78656  1.0000
  C   C1857     1.0  0.46923  0.53758  0.68470  1.0000
  H   H1477     1.0  0.47718  0.64923  0.80096  1.0000
  H   H1478     1.0  0.46792  0.66903  0.73765  1.0000
  C   C1858     1.0  0.29075  0.97610  0.88156  1.0000
  C   C1859     1.0  0.34576  0.57042  0.68445  1.0000
  H   H1479     1.0  0.36986  0.86238  0.69297  1.0000
  S   S254      1.0  0.30392  0.71420  0.67937  1.0000
  H   H1480     1.0  0.33840  0.84070  0.74249  1.0000
  H   H1481     1.0  0.40388  0.88447  0.65940  1.0000
  H   H1482     1.0  0.35603  0.57855  0.71384  1.0000
  C   C1860     1.0  0.49476  0.67412  0.78480  1.0000
  C   C1861     1.0  0.28406  0.84885  0.68442  1.0000
  C   C1862     1.0  0.48855  0.59051  0.72831  1.0000
  H   H1483     1.0  0.25807  0.72763  0.66350  1.0000
  H   H1484     1.0  0.25838  0.82785  0.75366  1.0000
  C   C1863     1.0  0.26946  0.64206  0.92445  1.0000
  C   C1864     1.0  0.27132  0.66072  0.79133  1.0000
  C   C1865     1.0  0.35551  0.85087  0.71916  1.0000
  C   C1866     1.0  0.49134  0.74664  0.85180  1.0000
  H   H1485     1.0  0.27756  0.62031  0.96846  1.0000
  C   C1867     1.0  0.37535  0.55561  0.67087  1.0000
  C   C1868     1.0  0.50511  0.58897  0.81872  1.0000
  H   H1486     1.0  0.27748  0.98149  0.83253  1.0000
  H   H1487     1.0  0.44231  0.53433  0.72330  1.0000
  P   P61       1.0  0.49972  0.52027  0.68111  1.0000
  H   H1488     1.0  0.49609  0.91918  0.65871  1.0000
  H   H1489     1.0  0.35304  0.64007  0.67178  1.0000
  C   C1869     1.0  0.37773  0.63522  0.67203  1.0000
  C   C1870     1.0  0.36322  0.55553  0.65689  1.0000
  H   H1490     1.0  0.32391  0.97445  0.85296  1.0000
  C   C1871     1.0  0.39207  0.67489  0.68614  1.0000
  C   C1872     1.0  0.49897  0.68722  0.76595  1.0000
  C   C1873     1.0  0.31249  0.91916  0.69084  1.0000
  C   C1874     1.0  0.28411  0.67837  0.79496  1.0000
  C   C1875     1.0  0.29548  0.68215  0.77966  1.0000
  C   C1876     1.0  0.29425  0.66808  0.76076  1.0000
  C   C1877     1.0  0.26805  0.61308  0.97812  1.0000
  H   H1491     1.0  0.28693  0.97430  0.89749  1.0000
  Fe  Fe126     1.0  0.43366  0.64374  0.66741  1.0000
  H   H1492     1.0  0.47772  0.70590  0.81279  1.0000
  H   H1493     1.0  0.28140  0.63571  0.92493  1.0000
  H   H1494     1.0  0.48880  0.50450  0.72320  1.0000
  H   H1495     1.0  0.26947  0.77462  0.74880  1.0000
  C   C1878     1.0  0.27557  0.80188  0.69674  1.0000
  C   C1879     1.0  0.30829  0.94824  0.68965  1.0000
  H   H1496     1.0  0.40289  0.68442  0.69034  1.0000
  H   H1497     1.0  0.28117  0.87062  0.67990  1.0000
  H   H1498     1.0  0.26048  0.92277  0.88868  1.0000
  C   C1880     1.0  0.27171  0.56644  0.79232  1.0000
  P   P62       1.0  0.25983  0.98089  0.87111  1.0000
  C   C1881     1.0  0.48921  0.68557  0.74910  1.0000
  S   S255      1.0  0.34673  0.69576  0.69125  1.0000
  H   H1499     1.0  0.31414  0.80249  0.68874  1.0000
  H   H1500     1.0  0.27136  0.58328  0.76126  1.0000
  H   H1501     1.0  0.28525  0.68938  0.80955  1.0000
  H   H1502     1.0  0.30518  0.69620  0.78234  1.0000
  H   H1503     1.0  0.30290  0.67133  0.74871  1.0000
  C   C1882     1.0  0.47524  0.67087  0.75094  1.0000
  H   H1504     1.0  0.49686  0.95651  0.68576  1.0000
  C   C1883     1.0  0.41959  0.76391  0.67409  1.0000
  H   H1505     1.0  0.31909  0.91187  0.70383  1.0000
  C   C1884     1.0  0.48157  0.52451  0.69467  1.0000
  C   C1885     1.0  0.30648  0.97447  0.87697  1.0000
  H   H1506     1.0  0.37832  0.71029  0.69758  1.0000
  H   H1507     1.0  0.28140  0.57960  0.79672  1.0000
  C   C1886     1.0  0.33074  0.85873  0.69262  1.0000
  H   H1508     1.0  0.26937  0.54642  0.82201  1.0000
  C   C1887     1.0  0.48586  0.71415  0.82367  1.0000
  C   C1888     1.0  0.32812  0.85099  0.71337  1.0000
  H   H1509     1.0  0.47787  0.58437  0.72128  1.0000
  C   C1889     1.0  0.49552  0.57191  0.74276  1.0000
  C   C1890     1.0  0.47095  0.65785  0.76965  1.0000
  C   C1891     1.0  0.28551  0.97993  0.84506  1.0000
  C   C1892     1.0  0.28018  0.97954  0.86564  1.0000
  H   H1510     1.0  0.46397  0.51088  0.74116  1.0000
  C   C1893     1.0  0.35796  0.57144  0.69812  1.0000
  H   H1511     1.0  0.42911  0.75124  0.67976  1.0000
  C   C1894     1.0  0.34588  0.86319  0.68544  1.0000
  C   C1895     1.0  0.27226  0.83027  0.69105  1.0000
  C   C1896     1.0  0.36397  0.67705  0.68510  1.0000
  C   C1897     1.0  0.29930  0.83913  0.68350  1.0000
  C   C1898     1.0  0.49902  0.57840  0.67044  1.0000
  H   H1512     1.0  0.26054  0.83785  0.69164  1.0000
  Fe  Fe127     1.0  0.32328  0.68175  0.67986  1.0000
  C   C1899     1.0  0.28168  0.65019  0.75717  1.0000
  H   H1513     1.0  0.28063  0.63973  0.74234  1.0000
  C   C1900     1.0  0.48109  0.73558  0.83748  1.0000
  C   C1901     1.0  0.46538  0.51807  0.72531  1.0000
  C   C1902     1.0  0.37272  0.56377  0.69138  1.0000
  H   H1514     1.0  0.38058  0.76509  0.67463  1.0000
  C   C1903     1.0  0.26131  0.73845  0.96684  1.0000
  H   H1515     1.0  0.49008  0.55163  0.74674  1.0000
  H   H1516     1.0  0.34185  0.79437  0.67851  1.0000
  C   C1904     1.0  0.45510  0.54092  0.69494  1.0000
  H   H1517     1.0  0.27120  0.66951  0.95077  1.0000
  H   H1518     1.0  0.46189  0.90625  0.66535  1.0000
  C   C1905     1.0  0.47950  0.51452  0.71503  1.0000
  H   H1519     1.0  0.44566  0.55124  0.68713  1.0000
  C   C1906     1.0  0.30123  0.97831  0.84052  1.0000
  H   H1520     1.0  0.49440  0.58198  0.68582  1.0000
  C   C1907     1.0  0.26600  0.56868  0.77238  1.0000
  H   H1521     1.0  0.26646  0.78738  0.70178  1.0000
  C   C1908     1.0  0.26493  0.54729  0.80659  1.0000
  H   H1522     1.0  0.27141  0.49283  0.89702  1.0000
  H   H1523     1.0  0.48767  0.76314  0.86257  1.0000
  H   H1524     1.0  0.42597  0.84459  0.67744  1.0000
  C   C1909     1.0  0.44428  0.87524  0.67366  1.0000
  C   C1910     1.0  0.26359  0.66126  0.93917  1.0000
  C   C1911     1.0  0.43273  0.85709  0.66642  1.0000
  H   H1525     1.0  0.29454  0.59573  0.84825  1.0000
  H   H1526     1.0  0.26027  0.63362  0.76882  1.0000
  H   H1527     1.0  0.26440  0.61573  0.89812  1.0000
  C   C1912     1.0  0.39520  0.79570  0.65838  1.0000
  H   H1528     1.0  0.33382  0.74450  0.67044  1.0000
  C   C1913     1.0  0.50097  0.70369  0.82406  1.0000
  H   H1529     1.0  0.50402  0.56930  0.80990  1.0000
  Fe  Fe128     1.0  0.30426  0.63366  0.66013  1.0000
  H   H1530     1.0  0.49175  0.77506  0.98845  1.0000
  C   C1914     1.0  0.26257  0.62770  0.82896  1.0000
  C   C1915     1.0  0.34068  0.75671  0.65936  1.0000
  H   H1531     1.0  0.50410  0.61614  0.79197  1.0000
  C   C1916     1.0  0.26160  0.70728  0.73082  1.0000
  C   C1917     1.0  0.27151  0.51935  0.97276  1.0000
  C   C1918     1.0  0.50511  0.61565  0.80861  1.0000
  H   H1532     1.0  0.27728  0.77211  0.97466  1.0000
  H   H1533     1.0  0.47423  0.84913  0.98896  1.0000
  C   C1919     1.0  0.27298  0.75077  0.97848  1.0000
  C   C1920     1.0  0.29569  0.93935  0.65733  1.0000
  S   S256      1.0  0.28341  0.66224  0.65787  1.0000
  C   C1921     1.0  0.25989  0.63077  0.90940  1.0000
  C   C1922     1.0  0.27130  0.58478  0.85720  1.0000
  C   C1923     1.0  0.26831  0.49809  0.84485  1.0000
  C   C1924     1.0  0.27517  0.49487  0.86406  1.0000
  H   H1534     1.0  0.25733  0.71643  0.79831  1.0000
  C   C1925     1.0  0.49945  0.48690  0.66688  1.0000
  H   H1535     1.0  0.27526  0.49566  0.83094  1.0000
  C   C1926     1.0  0.26622  0.49614  0.88213  1.0000
  C   C1927     1.0  0.26195  0.69569  0.98848  1.0000
  C   C1928     1.0  0.50636  0.73635  0.85228  1.0000
  H   H1536     1.0  0.25675  0.75056  0.95404  1.0000
  P   P63       1.0  0.25671  0.65562  0.81114  1.0000
  H   H1537     1.0  0.29251  0.51888  0.98948  1.0000
  C   C1929     1.0  0.50151  0.60209  0.65746  1.0000
  H   H1538     1.0  0.43426  0.79321  0.65738  1.0000
  C   C1930     1.0  0.73078  0.22020  0.08439  1.0000
  H   H1539     1.0  0.75384  0.38863  0.07112  1.0000
  Fe  Fe129     1.0  0.54491  0.31471  0.28962  1.0000
  S   S257      1.0  0.52835  0.30200  0.31505  1.0000
  S   S258      1.0  0.53729  0.32844  0.25706  1.0000
  C   C1931     1.0  0.51812  0.46387  0.03043  1.0000
  S   S259      1.0  0.55887  0.34472  0.30931  1.0000
  S   S260      1.0  0.56083  0.27696  0.29587  1.0000
  Fe  Fe130     1.0  0.71971  0.28391  0.28814  1.0000
  C   C1932     1.0  0.60410  0.05100  0.31489  1.0000
  S   S261      1.0  0.73716  0.27929  0.26094  1.0000
  Fe  Fe131     1.0  0.68466  0.28991  0.29702  1.0000
  C   C1933     1.0  0.52260  0.46526  0.12060  1.0000
  H   H1540     1.0  0.72739  0.25498  0.06311  1.0000
  S   S262      1.0  0.70280  0.32052  0.28505  1.0000
  S   S263      1.0  0.70107  0.25239  0.29773  1.0000
  C   C1934     1.0  0.66050  0.21706  0.30635  1.0000
  H   H1541     1.0  0.60964  0.45773  0.32142  1.0000
  H   H1542     1.0  0.73707  0.25717  0.13111  1.0000
  H   H1543     1.0  0.50923  0.30810  0.00653  1.0000
  C   C1935     1.0  0.72464  0.16982  0.22283  1.0000
  H   H1544     1.0  0.54201  0.43628  0.31027  1.0000
  H   H1545     1.0  0.75494  0.28166  0.22310  1.0000
  H   H1546     1.0  0.68112  0.14062  0.17310  1.0000
  H   H1547     1.0  0.52126  0.41358  0.25260  1.0000
  C   C1936     1.0  0.74596  0.37556  0.99817  1.0000
  C   C1937     1.0  0.64386  0.29285  0.29463  1.0000
  H   H1548     1.0  0.72622  0.23418  0.19706  1.0000
  C   C1938     1.0  0.61578  0.29592  0.29396  1.0000
  C   C1939     1.0  0.74468  0.28832  0.03641  1.0000
  S   S264      1.0  0.72519  0.29681  0.32084  1.0000
  Fe  Fe132     1.0  0.70700  0.33134  0.31838  1.0000
  H   H1549     1.0  0.71681  0.29553  0.99045  1.0000
  C   C1940     1.0  0.61527  0.30150  0.31514  1.0000
  S   S265      1.0  0.66150  0.28632  0.28142  1.0000
  C   C1941     1.0  0.51483  0.46534  0.31311  1.0000
  C   C1942     1.0  0.75046  0.25422  0.24950  1.0000
  H   H1550     1.0  0.60290  0.04755  0.29848  1.0000
  C   C1943     1.0  0.73565  0.24397  0.07257  1.0000
  H   H1551     1.0  0.60147  0.45614  0.28523  1.0000
  C   C1944     1.0  0.72000  0.15832  0.14579  1.0000
  C   C1945     1.0  0.74351  0.20603  0.16807  1.0000
  C   C1946     1.0  0.70422  0.15615  0.17690  1.0000
  P   P64       1.0  0.73428  0.17641  0.18170  1.0000
  H   H1552     1.0  0.73845  0.39251  0.00365  1.0000
  C   C1947     1.0  0.75579  0.36756  0.07790  1.0000
  H   H1553     1.0  0.71894  0.21311  0.08387  1.0000
  H   H1554     1.0  0.51098  0.23038  0.27877  1.0000
  C   C1948     1.0  0.50935  0.32422  0.16622  1.0000
  C   C1949     1.0  0.51494  0.43490  0.02647  1.0000
  C   C1950     1.0  0.72109  0.30702  0.02204  1.0000
  H   H1555     1.0  0.61009  0.09576  0.31130  1.0000
  C   C1951     1.0  0.50864  0.22516  0.00463  1.0000
  H   H1556     1.0  0.73081  0.16311  0.13800  1.0000
  C   C1952     1.0  0.71835  0.16261  0.16715  1.0000
  C   C1953     1.0  0.60281  0.43626  0.29385  1.0000
  H   H1557     1.0  0.72683  0.14701  0.22090  1.0000
  C   C1954     1.0  0.75416  0.22780  0.25871  1.0000
  C   C1955     1.0  0.63003  0.29160  0.28377  1.0000
  C   C1956     1.0  0.60727  0.43708  0.31449  1.0000
  C   C1957     1.0  0.60223  0.38411  0.29524  1.0000
  H   H1558     1.0  0.57584  0.20479  0.32076  1.0000
  H   H1559     1.0  0.68241  0.20570  0.31879  1.0000
  H   H1560     1.0  0.71256  0.21710  0.25967  1.0000
  H   H1561     1.0  0.52086  0.46462  0.15384  1.0000
  C   C1958     1.0  0.51026  0.47820  0.04634  1.0000
  H   H1562     1.0  0.56624  0.41452  0.29831  1.0000
  C   C1959     1.0  0.74782  0.27425  0.01770  1.0000
  H   H1563     1.0  0.71762  0.16491  0.25475  1.0000
  H   H1564     1.0  0.71084  0.32003  0.02356  1.0000
  H   H1565     1.0  0.66447  0.21622  0.29041  1.0000
  H   H1566     1.0  0.60049  0.36345  0.28784  1.0000
  C   C1960     1.0  0.73764  0.27648  0.00137  1.0000
  C   C1961     1.0  0.74309  0.24486  0.14267  1.0000
  H   H1567     1.0  0.68428  0.13297  0.13542  1.0000
  C   C1962     1.0  0.69376  0.14128  0.14423  1.0000
  H   H1568     1.0  0.73725  0.37937  0.28929  1.0000
  H   H1569     1.0  0.51313  0.31569  0.07269  1.0000
  C   C1963     1.0  0.74833  0.14815  0.18535  1.0000
  H   H1570     1.0  0.59692  0.40912  0.26824  1.0000
  H   H1571     1.0  0.59851  0.00710  0.32312  1.0000
  H   H1572     1.0  0.51687  0.33534  0.15531  1.0000
  H   H1573     1.0  0.70253  0.15926  0.19331  1.0000
  C   C1964     1.0  0.74491  0.36530  0.29761  1.0000
  H   H1574     1.0  0.72823  0.31495  0.05298  1.0000
  C   C1965     1.0  0.74794  0.37068  0.31835  1.0000
  C   C1966     1.0  0.52238  0.23650  0.99590  1.0000
  C   C1967     1.0  0.51475  0.46936  0.10217  1.0000
  C   C1968     1.0  0.73110  0.30439  0.03857  1.0000
  H   H1575     1.0  0.51254  0.26270  0.07807  1.0000
  C   C1969     1.0  0.73562  0.22235  0.15332  1.0000
  C   C1970     1.0  0.72437  0.29309  0.00344  1.0000
  C   C1971     1.0  0.60666  0.38492  0.31583  1.0000
  H   H1576     1.0  0.74843  0.33653  0.27199  1.0000
  H   H1577     1.0  0.60524  0.29494  0.28544  1.0000
  C   C1972     1.0  0.71931  0.17982  0.24198  1.0000
  C   C1973     1.0  0.69199  0.14555  0.16546  1.0000
  C   C1974     1.0  0.72422  0.21865  0.20933  1.0000
  C   C1975     1.0  0.52986  0.42774  0.28209  1.0000
  C   C1976     1.0  0.53104  0.41493  0.26254  1.0000
  C   C1977     1.0  0.54482  0.40240  0.25591  1.0000
  C   C1978     1.0  0.55752  0.40233  0.26873  1.0000
  C   C1979     1.0  0.55651  0.41512  0.28815  1.0000
  C   C1980     1.0  0.54272  0.42758  0.29486  1.0000
  Fe  Fe133     1.0  0.57307  0.30603  0.31797  1.0000
  H   H1578     1.0  0.50823  0.21852  0.02063  1.0000
  C   C1981     1.0  0.75121  0.12755  0.16992  1.0000
  H   H1579     1.0  0.66076  0.15340  0.31242  1.0000
  H   H1580     1.0  0.74877  0.22177  0.27326  1.0000
  C   C1982     1.0  0.51845  0.35213  0.22744  1.0000
  C   C1983     1.0  0.60024  0.40979  0.28426  1.0000
  H   H1581     1.0  0.63762  0.22973  0.29853  1.0000
  H   H1582     1.0  0.70917  0.14422  0.11795  1.0000
  H   H1583     1.0  0.63036  0.28722  0.26739  1.0000
  C   C1984     1.0  0.60808  0.07830  0.32220  1.0000
  H   H1584     1.0  0.71666  0.25129  0.23073  1.0000
  H   H1585     1.0  0.72371  0.21790  0.15012  1.0000
  C   C1985     1.0  0.71871  0.22847  0.22840  1.0000
  C   C1986     1.0  0.64329  0.29830  0.31581  1.0000
  H   H1586     1.0  0.54544  0.39156  0.24114  1.0000
  H   H1587     1.0  0.56796  0.39156  0.26382  1.0000
  P   P65       1.0  0.51167  0.44155  0.29155  1.0000
  C   C1987     1.0  0.70777  0.14766  0.13439  1.0000
  H   H1588     1.0  0.50794  0.34325  0.27776  1.0000
  H   H1589     1.0  0.52804  0.34851  0.21696  1.0000
  H   H1590     1.0  0.74469  0.12718  0.15597  1.0000
  C   C1988     1.0  0.75110  0.34105  0.28793  1.0000
  C   C1989     1.0  0.71639  0.20915  0.24476  1.0000
  H   H1591     1.0  0.53235  0.23880  0.00546  1.0000
  C   C1990     1.0  0.51982  0.34447  0.24842  1.0000
  C   C1991     1.0  0.72730  0.18923  0.20641  1.0000
  H   H1592     1.0  0.52107  0.42379  0.01419  1.0000
  H   H1593     1.0  0.51657  0.27938  0.26512  1.0000
  H   H1594     1.0  0.52045  0.38974  0.31450  1.0000
  H   H1595     1.0  0.75271  0.34568  0.04930  1.0000
  C   C1992     1.0  0.64535  0.22468  0.31095  1.0000
  C   C1993     1.0  0.75102  0.25314  0.07297  1.0000
  Fe  Fe134     1.0  0.54506  0.26639  0.32287  1.0000
  C   C1994     1.0  0.51472  0.30064  0.17747  1.0000
  H   H1596     1.0  0.63320  0.15165  0.32112  1.0000
  H   H1597     1.0  0.73746  0.18711  0.10587  1.0000
  H   H1598     1.0  0.52647  0.29352  0.17536  1.0000
  C   C1995     1.0  0.74117  0.20558  0.09681  1.0000
  C   C1996     1.0  0.50760  0.26645  0.25831  1.0000
  C   C1997     1.0  0.50720  0.34913  0.26165  1.0000
  H   H1599     1.0  0.52675  0.47522  0.02125  1.0000
  C   C1998     1.0  0.75502  0.34302  0.06557  1.0000
  C   C1999     1.0  0.50822  0.38877  0.31183  1.0000
  H   H1600     1.0  0.50924  0.26764  0.19973  1.0000
  H   H1601     1.0  0.52107  0.46789  0.08770  1.0000
  C   C2000     1.0  0.51480  0.46764  0.13954  1.0000
  H   H1602     1.0  0.53475  0.46043  0.12022  1.0000
  C   C2001     1.0  0.67064  0.21151  0.32231  1.0000
  C   C2002     1.0  0.75638  0.21493  0.09763  1.0000
  H   H1603     1.0  0.75613  0.16451  0.21464  1.0000
  H   H1604     1.0  0.59197  0.26393  0.36490  1.0000
  Fe  Fe135     1.0  0.70551  0.26734  0.33005  1.0000
  H   H1605     1.0  0.55559  0.33047  0.45840  1.0000
  C   C2003     1.0  0.72389  0.15727  0.42722  1.0000
  C   C2004     1.0  0.66692  0.12139  0.33489  1.0000
  C   C2005     1.0  0.75430  0.06709  0.55259  1.0000
  H   H1606     1.0  0.70344  0.14403  0.44390  1.0000
  S   S266      1.0  0.70522  0.23913  0.35882  1.0000
  Fe  Fe136     1.0  0.57552  0.03499  0.41328  1.0000
  S   S267      1.0  0.56352  0.05138  0.38524  1.0000
  S   S268      1.0  0.60023  0.02257  0.40596  1.0000
  Fe  Fe137     1.0  0.54543  0.03410  0.43958  1.0000
  S   S269      1.0  0.53164  0.05142  0.41318  1.0000
  S   S270      1.0  0.53574  0.02398  0.47209  1.0000
  Fe  Fe138     1.0  0.54512  0.01925  0.39407  1.0000
  C   C2006     1.0  0.55341  0.30084  0.43355  1.0000
  Fe  Fe139     1.0  0.55143  0.08212  0.40662  1.0000
  S   S271      1.0  0.55156  0.13147  0.40235  1.0000
  H   H1607     1.0  0.73333  0.20343  0.37488  1.0000
  S   S272      1.0  0.56445  0.06704  0.43459  1.0000
  Fe  Fe140     1.0  0.70345  0.01126  0.39844  1.0000
  S   S273      1.0  0.70155  0.02602  0.43170  1.0000
  S   S274      1.0  0.70684  0.46498  0.40315  1.0000
  Fe  Fe141     1.0  0.70621  0.07430  0.38331  1.0000
  S   S275      1.0  0.70438  0.09280  0.41510  1.0000
  S   S276      1.0  0.70791  0.10217  0.35439  1.0000
  Fe  Fe142     1.0  0.72068  0.05778  0.42446  1.0000
  S   S277      1.0  0.74256  0.06385  0.44381  1.0000
  Fe  Fe143     1.0  0.68551  0.06002  0.41976  1.0000
  S   S278      1.0  0.66351  0.07414  0.43614  1.0000
  S   S279      1.0  0.72367  0.04061  0.39192  1.0000
  S   S280      1.0  0.68627  0.04376  0.38726  1.0000
  C   C2007     1.0  0.52762  0.43523  0.43293  1.0000
  C   C2008     1.0  0.72553  0.20801  0.41837  1.0000
  C   C2009     1.0  0.53179  0.38567  0.50313  1.0000
  H   H1608     1.0  0.64443  0.44036  0.34378  1.0000
  C   C2010     1.0  0.51824  0.99638  0.50222  1.0000
  H   H1609     1.0  0.60803  0.00246  0.46445  1.0000
  C   C2011     1.0  0.70955  0.16188  0.43663  1.0000
  H   H1610     1.0  0.56945  0.37008  0.51003  1.0000
  C   C2012     1.0  0.65259  0.35882  0.35100  1.0000
  C   C2013     1.0  0.58505  0.44645  0.41830  1.0000
  C   C2014     1.0  0.61720  0.03963  0.41403  1.0000
  C   C2015     1.0  0.63053  0.03638  0.40182  1.0000
  C   C2016     1.0  0.64469  0.04703  0.40841  1.0000
  C   C2017     1.0  0.64570  0.06115  0.42731  1.0000
  C   C2018     1.0  0.63229  0.06510  0.43935  1.0000
  C   C2019     1.0  0.61805  0.05436  0.43274  1.0000
  C   C2020     1.0  0.55895  0.37514  0.50208  1.0000
  C   C2021     1.0  0.59858  0.35981  0.39922  1.0000
  H   H1611     1.0  0.63296  0.07612  0.45397  1.0000
  H   H1612     1.0  0.60784  0.05690  0.44228  1.0000
  C   C2022     1.0  0.70765  0.40315  0.34720  1.0000
  C   C2023     1.0  0.70447  0.39291  0.36719  1.0000
  C   C2024     1.0  0.70388  0.41224  0.38397  1.0000
  C   C2025     1.0  0.70627  0.44209  0.38106  1.0000
  C   C2026     1.0  0.70908  0.45238  0.36101  1.0000
  C   C2027     1.0  0.70983  0.43302  0.34426  1.0000
  H   H1613     1.0  0.70261  0.37013  0.36978  1.0000
  H   H1614     1.0  0.70174  0.40398  0.39940  1.0000
  H   H1615     1.0  0.71107  0.47516  0.35848  1.0000
  C   C2028     1.0  0.58354  0.18822  0.32630  1.0000
  C   C2029     1.0  0.70551  0.20108  0.35705  1.0000
  C   C2030     1.0  0.70200  0.18450  0.37471  1.0000
  C   C2031     1.0  0.70279  0.15423  0.37416  1.0000
  C   C2032     1.0  0.70694  0.14022  0.35586  1.0000
  C   C2033     1.0  0.71026  0.15682  0.33812  1.0000
  C   C2034     1.0  0.70964  0.18714  0.33872  1.0000
  H   H1616     1.0  0.69867  0.19508  0.38890  1.0000
  H   H1617     1.0  0.70009  0.14180  0.38788  1.0000
  H   H1618     1.0  0.72844  0.99514  0.54317  1.0000
  H   H1619     1.0  0.56975  0.37490  0.47204  1.0000
  C   C2035     1.0  0.54263  0.19480  0.34837  1.0000
  C   C2036     1.0  0.54910  0.20428  0.36674  1.0000
  C   C2037     1.0  0.55185  0.18452  0.38294  1.0000
  C   C2038     1.0  0.54840  0.15497  0.38094  1.0000
  C   C2039     1.0  0.54217  0.14541  0.36244  1.0000
  C   C2040     1.0  0.53916  0.16526  0.34638  1.0000
  H   H1620     1.0  0.55171  0.22691  0.36859  1.0000
  H   H1621     1.0  0.55654  0.19219  0.39723  1.0000
  H   H1622     1.0  0.53936  0.12284  0.36066  1.0000
  C   C2041     1.0  0.52831  0.40505  0.43421  1.0000
  C   C2042     1.0  0.53965  0.39755  0.35994  1.0000
  C   C2043     1.0  0.55138  0.40758  0.34678  1.0000
  C   C2044     1.0  0.55671  0.43610  0.34829  1.0000
  C   C2045     1.0  0.55058  0.45476  0.36325  1.0000
  C   C2046     1.0  0.53912  0.44458  0.37683  1.0000
  C   C2047     1.0  0.53355  0.41616  0.37501  1.0000
  H   H1623     1.0  0.74493  0.05980  0.50004  1.0000
  H   H1624     1.0  0.52666  0.44465  0.50450  1.0000
  H   H1625     1.0  0.53425  0.45887  0.38832  1.0000
  C   C2048     1.0  0.71219  0.02011  0.49943  1.0000
  S   S281      1.0  0.55778  0.00086  0.42068  1.0000
  H   H1626     1.0  0.74242  0.38890  0.32569  1.0000
  H   H1627     1.0  0.62993  0.02545  0.38717  1.0000
  C   C2049     1.0  0.60714  0.05993  0.35724  1.0000
  P   P66       1.0  0.61531  0.11790  0.35255  1.0000
  C   C2050     1.0  0.63552  0.12000  0.34570  1.0000
  H   H1628     1.0  0.65658  0.01074  0.35267  1.0000
  C   C2051     1.0  0.75419  0.30777  0.38133  1.0000
  H   H1629     1.0  0.61880  0.38522  0.39285  1.0000
  C   C2052     1.0  0.74685  0.11106  0.36331  1.0000
  C   C2053     1.0  0.66154  0.10218  0.35003  1.0000
  C   C2054     1.0  0.64589  0.10115  0.35521  1.0000
  C   C2055     1.0  0.61177  0.12009  0.38010  1.0000
  C   C2056     1.0  0.62378  0.12436  0.39393  1.0000
  C   C2057     1.0  0.62077  0.12576  0.41516  1.0000
  C   C2058     1.0  0.60575  0.12303  0.42277  1.0000
  C   C2059     1.0  0.59372  0.11908  0.40914  1.0000
  C   C2060     1.0  0.59667  0.11761  0.38791  1.0000
  H   H1630     1.0  0.60832  0.06288  0.37367  1.0000
  C   C2061     1.0  0.73636  0.04431  0.50514  1.0000
  H   H1631     1.0  0.52129  0.39421  0.47419  1.0000
  H   H1632     1.0  0.74022  0.23890  0.34793  1.0000
  C   C2062     1.0  0.52232  0.47752  0.48173  1.0000
  C   C2063     1.0  0.54383  0.32014  0.40160  1.0000
  H   H1633     1.0  0.63547  0.12670  0.38859  1.0000
  H   H1634     1.0  0.63017  0.12832  0.42574  1.0000
  H   H1635     1.0  0.60343  0.12351  0.43924  1.0000
  H   H1636     1.0  0.58206  0.11691  0.41503  1.0000
  H   H1637     1.0  0.58714  0.11425  0.37768  1.0000
  H   H1638     1.0  0.53848  0.36518  0.40134  1.0000
  C   C2064     1.0  0.57721  0.42867  0.40471  1.0000
  H   H1639     1.0  0.53738  0.44841  0.43691  1.0000
  H   H1640     1.0  0.66957  0.08806  0.35770  1.0000
  C   C2065     1.0  0.74560  0.39607  0.38360  1.0000
  C   C2066     1.0  0.51424  0.44881  0.42645  1.0000
  C   C2067     1.0  0.74977  0.08834  0.46267  1.0000
  H   H1641     1.0  0.72129  0.27109  0.39351  1.0000
  H   H1642     1.0  0.69199  0.19289  0.44394  1.0000
  H   H1643     1.0  0.59094  0.45556  0.35181  1.0000
  H   H1644     1.0  0.60225  0.21756  0.33088  1.0000
  H   H1645     1.0  0.53396  0.47765  0.47564  1.0000
  S   S282      1.0  0.68783  0.30274  0.32995  1.0000
  P   P67       1.0  0.54570  0.38751  0.44233  1.0000
  H   H1646     1.0  0.73168  0.22624  0.41184  1.0000
  C   C2068     1.0  0.57918  0.36043  0.37298  1.0000
  H   H1647     1.0  0.59388  0.46108  0.41258  1.0000
  C   C2069     1.0  0.64042  0.22747  0.33148  1.0000
  C   C2070     1.0  0.74855  0.00223  0.57386  1.0000
  H   H1648     1.0  0.73931  0.01750  0.57632  1.0000
  C   C2071     1.0  0.60323  0.14528  0.34129  1.0000
  C   C2072     1.0  0.66406  0.15181  0.39517  1.0000
  C   C2073     1.0  0.66543  0.15676  0.41626  1.0000
  C   C2074     1.0  0.66063  0.18301  0.42461  1.0000
  C   C2075     1.0  0.65461  0.20446  0.41182  1.0000
  C   C2076     1.0  0.65326  0.19972  0.39055  1.0000
  C   C2077     1.0  0.65769  0.17289  0.38241  1.0000
  P   P68       1.0  0.64460  0.22696  0.37438  1.0000
  C   C2078     1.0  0.62390  0.22538  0.37715  1.0000
  C   C2079     1.0  0.65129  0.26196  0.38270  1.0000
  C   C2080     1.0  0.64238  0.27855  0.39648  1.0000
  C   C2081     1.0  0.64748  0.30571  0.40273  1.0000
  C   C2082     1.0  0.66163  0.31635  0.39560  1.0000
  C   C2083     1.0  0.67072  0.29976  0.38230  1.0000
  C   C2084     1.0  0.66560  0.27272  0.37585  1.0000
  C   C2085     1.0  0.61485  0.24800  0.36960  1.0000
  C   C2086     1.0  0.59885  0.24668  0.37128  1.0000
  C   C2087     1.0  0.59175  0.22284  0.38068  1.0000
  C   C2088     1.0  0.60063  0.20046  0.38857  1.0000
  C   C2089     1.0  0.61666  0.20173  0.38689  1.0000
  C   C2090     1.0  0.65056  0.22221  0.34767  1.0000
  C   C2091     1.0  0.56153  0.40982  0.43317  1.0000
  H   H1649     1.0  0.63185  0.99262  0.33937  1.0000
  H   H1650     1.0  0.74113  0.07179  0.64869  1.0000
  H   H1651     1.0  0.67623  0.36996  0.34438  1.0000
  C   C2092     1.0  0.66571  0.21409  0.34283  1.0000
  H   H1652     1.0  0.66780  0.13140  0.38877  1.0000
  H   H1653     1.0  0.67010  0.14004  0.42612  1.0000
  H   H1654     1.0  0.66151  0.18665  0.44104  1.0000
  H   H1655     1.0  0.65091  0.22462  0.41857  1.0000
  H   H1656     1.0  0.65629  0.16810  0.36625  1.0000
  H   H1657     1.0  0.63149  0.27058  0.40246  1.0000
  H   H1658     1.0  0.64047  0.31851  0.41315  1.0000
  H   H1659     1.0  0.66559  0.33743  0.40038  1.0000
  H   H1660     1.0  0.68173  0.30788  0.37683  1.0000
  H   H1661     1.0  0.67290  0.26041  0.36556  1.0000
  H   H1662     1.0  0.62013  0.26654  0.36212  1.0000
  C   C2093     1.0  0.74687  0.09130  0.54439  1.0000
  H   H1663     1.0  0.57935  0.22156  0.38162  1.0000
  H   H1664     1.0  0.59505  0.18191  0.39573  1.0000
  H   H1665     1.0  0.62330  0.18413  0.39300  1.0000
  S   S283      1.0  0.55783  0.29388  0.34511  1.0000
  C   C2094     1.0  0.58433  0.35073  0.39208  1.0000
  C   C2095     1.0  0.55232  0.32816  0.44252  1.0000
  H   H1666     1.0  0.62835  0.35384  0.35621  1.0000
  H   H1667     1.0  0.67386  0.21026  0.35494  1.0000
  C   C2096     1.0  0.60941  0.08301  0.34346  1.0000
  H   H1668     1.0  0.60844  0.36483  0.32401  1.0000
  C   C2097     1.0  0.74665  0.44794  0.37925  1.0000
  H   H1669     1.0  0.73481  0.42639  0.40433  1.0000
  C   C2098     1.0  0.65520  0.98809  0.34905  1.0000
  C   C2099     1.0  0.60781  0.37824  0.38712  1.0000
  C   C2100     1.0  0.54920  0.29684  0.41307  1.0000
  H   H1670     1.0  0.56806  0.35365  0.36750  1.0000
  C   C2101     1.0  0.72718  0.00809  0.52942  1.0000
  H   H1671     1.0  0.64189  0.08571  0.36675  1.0000
  C   C2102     1.0  0.75078  0.13983  0.39403  1.0000
  H   H1672     1.0  0.55943  0.39744  0.40112  1.0000
  H   H1673     1.0  0.51539  0.36554  0.43107  1.0000
  C   C2103     1.0  0.58836  0.37891  0.36088  1.0000
  H   H1674     1.0  0.56547  0.44386  0.33759  1.0000
  C   C2104     1.0  0.74083  0.11027  0.47148  1.0000
  H   H1675     1.0  0.57722  0.33634  0.40138  1.0000
  C   C2105     1.0  0.74644  0.13765  0.37332  1.0000
  H   H1676     1.0  0.70214  0.01690  0.49008  1.0000
  H   H1677     1.0  0.71227  0.44123  0.32889  1.0000
  C   C2106     1.0  0.63758  0.36907  0.35333  1.0000
  H   H1678     1.0  0.73978  0.14461  0.49389  1.0000
  H   H1679     1.0  0.52359  0.01132  0.51265  1.0000
  H   H1680     1.0  0.53408  0.15765  0.33231  1.0000
  C   C2107     1.0  0.64660  0.41765  0.34629  1.0000
  H   H1681     1.0  0.52991  0.11976  0.65289  1.0000
  H   H1682     1.0  0.65485  0.33594  0.35215  1.0000
  H   H1683     1.0  0.52130  0.38935  0.51191  1.0000
  C   C2108     1.0  0.54530  0.37901  0.51336  1.0000
  H   H1684     1.0  0.72718  0.34757  0.35677  1.0000
  H   H1685     1.0  0.74156  0.37768  0.39251  1.0000
  C   C2109     1.0  0.71113  0.21251  0.42765  1.0000
  C   C2110     1.0  0.60818  0.17407  0.33984  1.0000
  H   H1686     1.0  0.58404  0.38633  0.34625  1.0000
  H   H1687     1.0  0.60139  0.01508  0.36078  1.0000
  H   H1688     1.0  0.56571  0.43012  0.46269  1.0000
  C   C2111     1.0  0.75104  0.08536  0.65128  1.0000
  S   S284      1.0  0.53828  0.21893  0.32773  1.0000
  H   H1689     1.0  0.62882  0.23453  0.33440  1.0000
  C   C2112     1.0  0.51522  0.38875  0.42965  1.0000
  C   C2113     1.0  0.72873  0.28783  0.38720  1.0000
  H   H1690     1.0  0.55614  0.39358  0.33512  1.0000
  H   H1691     1.0  0.71252  0.19967  0.32507  1.0000
  C   C2114     1.0  0.56915  0.42851  0.44663  1.0000
  H   H1692     1.0  0.60247  0.35261  0.41415  1.0000
  H   H1693     1.0  0.65483  0.04413  0.39890  1.0000
  C   C2115     1.0  0.74686  0.12787  0.48719  1.0000
  H   H1694     1.0  0.55006  0.27570  0.40606  1.0000
  C   C2116     1.0  0.73210  0.33096  0.36641  1.0000
  C   C2117     1.0  0.59844  0.19535  0.33207  1.0000
  C   C2118     1.0  0.75437  0.39251  0.36540  1.0000
  C   C2119     1.0  0.74490  0.21181  0.37412  1.0000
  C   C2120     1.0  0.72331  0.04024  0.49328  1.0000
  C   C2121     1.0  0.58817  0.13838  0.33558  1.0000
  C   C2122     1.0  0.63449  0.39861  0.35120  1.0000
  C   C2123     1.0  0.51810  0.45864  0.49805  1.0000
  C   C2124     1.0  0.55908  0.37798  0.48058  1.0000
  H   H1695     1.0  0.71036  0.31002  0.37217  1.0000
  H   H1696     1.0  0.72190  0.05254  0.47916  1.0000
  H   H1697     1.0  0.74936  0.26957  0.39944  1.0000
  H   H1698     1.0  0.52440  0.40871  0.38520  1.0000
  C   C2125     1.0  0.61327  0.44621  0.36443  1.0000
  H   H1699     1.0  0.54518  0.37711  0.53003  1.0000
  C   C2126     1.0  0.60015  0.46312  0.36139  1.0000
  H   H1700     1.0  0.57988  0.42957  0.38834  1.0000
  C   C2127     1.0  0.54276  0.34748  0.41050  1.0000
  C   C2128     1.0  0.66462  0.37795  0.34652  1.0000
  C   C2129     1.0  0.62909  0.30260  0.32597  1.0000
  C   C2130     1.0  0.56554  0.41040  0.41209  1.0000
  C   C2131     1.0  0.54705  0.35186  0.43102  1.0000
  H   H1701     1.0  0.54050  0.31702  0.38573  1.0000
  S   S285      1.0  0.53232  0.36203  0.35786  1.0000
  Fe  Fe144     1.0  0.54293  0.33057  0.33490  1.0000
  C   C2132     1.0  0.54555  0.38480  0.47018  1.0000
  H   H1702     1.0  0.61943  0.18019  0.34504  1.0000
  H   H1703     1.0  0.58670  0.46114  0.44957  1.0000
  H   H1704     1.0  0.72880  0.13584  0.42756  1.0000
  C   C2133     1.0  0.72253  0.30981  0.37518  1.0000
  C   C2134     1.0  0.60324  0.03264  0.34991  1.0000
  H   H1705     1.0  0.63433  0.44269  0.38165  1.0000
  C   C2135     1.0  0.62448  0.45587  0.37813  1.0000
  H   H1706     1.0  0.74724  0.11127  0.62415  1.0000
  H   H1707     1.0  0.51350  0.29768  0.41812  1.0000
  C   C2136     1.0  0.70312  0.18943  0.43672  1.0000
  H   H1708     1.0  0.72920  0.11340  0.46642  1.0000
  C   C2137     1.0  0.58101  0.44637  0.43924  1.0000
  C   C2138     1.0  0.74664  0.11729  0.55521  1.0000
  H   H1709     1.0  0.55753  0.28269  0.44247  1.0000
  H   H1710     1.0  0.70616  0.23389  0.42775  1.0000
  C   C2139     1.0  0.74185  0.42369  0.39051  1.0000
  C   C2140     1.0  0.73190  0.18023  0.41776  1.0000
  H   H1711     1.0  0.73565  0.48270  0.51846  1.0000
  P   P69       1.0  0.61492  0.41135  0.35227  1.0000
  C   C2141     1.0  0.60288  0.38753  0.36769  1.0000
  H   H1712     1.0  0.62883  0.30666  0.34234  1.0000
  C   C2142     1.0  0.53187  0.38855  0.48165  1.0000
  S   S286      1.0  0.53516  0.98905  0.37024  1.0000
  C   C2143     1.0  0.71411  0.00406  0.51751  1.0000
  H   H1713     1.0  0.75400  0.13979  0.58226  1.0000
  C   C2144     1.0  0.50882  0.09557  0.65401  1.0000
  C   C2145     1.0  0.60165  0.02819  0.32876  1.0000
  C   C2146     1.0  0.74453  0.28695  0.39043  1.0000
  H   H1714     1.0  0.51386  0.47213  0.42531  1.0000
  C   C2147     1.0  0.66165  0.40737  0.34426  1.0000
  C   C2148     1.0  0.74798  0.33016  0.36945  1.0000
  H   H1715     1.0  0.56679  0.15437  0.32390  1.0000
  H   H1716     1.0  0.67103  0.42204  0.34057  1.0000
  H   H1717     1.0  0.74163  0.09063  0.52944  1.0000
  H   H1718     1.0  0.52385  0.43699  0.64614  1.0000
  H   H1719     1.0  0.74134  0.13614  0.54843  1.0000
  C   C2149     1.0  0.52228  0.99734  0.48107  1.0000
  H   H1720     1.0  0.74323  0.46924  0.38436  1.0000
  P   P70       1.0  0.75556  0.03386  0.53824  1.0000
  C   C2150     1.0  0.51315  0.44741  0.65038  1.0000
  H   H1721     1.0  0.74915  0.19421  0.45010  1.0000
  C   C2151     1.0  0.62296  0.48271  0.38771  1.0000
  C   C2152     1.0  0.75587  0.20219  0.38816  1.0000
  H   H1722     1.0  0.74247  0.15616  0.36481  1.0000
  C   C2153     1.0  0.74883  0.23183  0.35872  1.0000
  C   C2154     1.0  0.73845  0.02829  0.52329  1.0000
  P   P71       1.0  0.75084  0.17440  0.40685  1.0000
  H   H1723     1.0  0.72183  0.47725  0.48581  1.0000
  H   H1724     1.0  0.67907  0.12213  0.33095  1.0000
  C   C2155     1.0  0.75390  0.11942  0.57417  1.0000
  H   H1725     1.0  0.58374  0.11665  0.33737  1.0000
  H   H1726     1.0  0.58112  0.99395  0.47626  1.0000
  H   H1727     1.0  0.74311  0.10943  0.34750  1.0000
  S   S287      1.0  0.70922  0.37990  0.32536  1.0000
  S   S288      1.0  0.59783  0.30742  0.32895  1.0000
  C   C2156     1.0  0.57843  0.15975  0.32806  1.0000
  C   C2157     1.0  0.64095  0.13835  0.32983  1.0000
  C   C2158     1.0  0.75151  0.08639  0.37386  1.0000
  C   C2159     1.0  0.60881  0.41136  0.32580  1.0000
  H   H1728     1.0  0.75155  0.06571  0.36616  1.0000
  C   C2160     1.0  0.65660  0.13916  0.32460  1.0000
  H   H1729     1.0  0.70549  0.98835  0.52221  1.0000
  C   C2161     1.0  0.51000  0.29833  0.45114  1.0000
  H   H1730     1.0  0.50830  0.44514  0.56865  1.0000
  C   C2162     1.0  0.50907  0.48026  0.34831  1.0000
  H   H1731     1.0  0.52013  0.28561  0.45420  1.0000
  H   H1732     1.0  0.71350  0.14616  0.32389  1.0000
  C   C2163     1.0  0.75499  0.11469  0.40471  1.0000
  C   C2164     1.0  0.75549  0.08818  0.39458  1.0000
  C   C2165     1.0  0.75452  0.10756  0.63728  1.0000
  H   H1733     1.0  0.65379  0.29878  0.32438  1.0000
  C   C2166     1.0  0.75558  0.44461  0.36130  1.0000
  H   H1734     1.0  0.51138  0.06325  0.49738  1.0000
  H   H1735     1.0  0.51201  0.48643  0.54520  1.0000
  Fe  Fe145     1.0  0.54610  0.05164  0.79195  1.0000
  S   S289      1.0  0.52965  0.03912  0.81763  1.0000
  S   S290      1.0  0.53906  0.06774  0.75963  1.0000
  Fe  Fe146     1.0  0.57452  0.03974  0.81899  1.0000
  S   S291      1.0  0.55948  0.02755  0.84621  1.0000
  S   S292      1.0  0.59922  0.03719  0.83005  1.0000
  Fe  Fe147     1.0  0.54571  0.00194  0.82405  1.0000
  C   C2167     1.0  0.52409  0.10079  0.65897  1.0000
  Fe  Fe148     1.0  0.54511  0.06558  0.83770  1.0000
  S   S293      1.0  0.53620  0.09479  0.86329  1.0000
  S   S294      1.0  0.56126  0.01232  0.79681  1.0000
  S   S295      1.0  0.56092  0.07979  0.81200  1.0000
  Fe  Fe149     1.0  0.72106  0.02094  0.79419  1.0000
  S   S296      1.0  0.72543  0.03285  0.82740  1.0000
  S   S297      1.0  0.74300  0.00897  0.77567  1.0000
  Fe  Fe150     1.0  0.68662  0.03591  0.79957  1.0000
  S   S298      1.0  0.68885  0.04849  0.83269  1.0000
  S   S299      1.0  0.66406  0.04128  0.78284  1.0000
  Fe  Fe151     1.0  0.71035  0.07167  0.82257  1.0000
  S   S300      1.0  0.71664  0.11881  0.82906  1.0000
  Fe  Fe152     1.0  0.70358  0.00865  0.83464  1.0000
  C   C2168     1.0  0.53914  0.29830  0.78382  1.0000
  S   S301      1.0  0.70736  0.06144  0.78892  1.0000
  H   H1736     1.0  0.51153  0.32121  0.94114  1.0000
  Fe  Fe153     1.0  0.55136  0.25896  0.88697  1.0000
  S   S302      1.0  0.56630  0.24829  0.91364  1.0000
  S   S303      1.0  0.54968  0.22948  0.85937  1.0000
  Fe  Fe154     1.0  0.54737  0.32228  0.90029  1.0000
  S   S304      1.0  0.56216  0.31578  0.92801  1.0000
  S   S305      1.0  0.53669  0.36611  0.89336  1.0000
  Fe  Fe155     1.0  0.57804  0.29071  0.90692  1.0000
  S   S306      1.0  0.60286  0.29616  0.89576  1.0000
  Fe  Fe156     1.0  0.54890  0.27386  0.93243  1.0000
  S   S307      1.0  0.54117  0.25876  0.96487  1.0000
  S   S308      1.0  0.56379  0.30003  0.87920  1.0000
  S   S309      1.0  0.53316  0.28189  0.90581  1.0000
  Fe  Fe157     1.0  0.68814  0.29904  0.93017  1.0000
  S   S310      1.0  0.69023  0.28241  0.89793  1.0000
  S   S311      1.0  0.66483  0.30369  0.94612  1.0000
  Fe  Fe158     1.0  0.72322  0.30274  0.93573  1.0000
  S   S312      1.0  0.72749  0.28539  0.90350  1.0000
  S   S313      1.0  0.74478  0.31053  0.95519  1.0000
  Fe  Fe159     1.0  0.70877  0.31613  0.89429  1.0000
  S   S314      1.0  0.70997  0.34207  0.86447  1.0000
  Fe  Fe160     1.0  0.70858  0.25315  0.90985  1.0000
  S   S315      1.0  0.70709  0.20399  0.90561  1.0000
  S   S316      1.0  0.70545  0.33502  0.92587  1.0000
  S   S317      1.0  0.70557  0.26815  0.94276  1.0000
  C   C2169     1.0  0.74426  0.08620  0.86331  1.0000
  H   H1737     1.0  0.57444  0.47187  0.86864  1.0000
  C   C2170     1.0  0.53182  0.32355  0.83818  1.0000
  H   H1738     1.0  0.72990  0.09128  0.68140  1.0000
  C   C2171     1.0  0.61978  0.29839  0.91035  1.0000
  C   C2172     1.0  0.63388  0.30153  0.89973  1.0000
  C   C2173     1.0  0.64774  0.30297  0.91047  1.0000
  C   C2174     1.0  0.64763  0.30155  0.93203  1.0000
  C   C2175     1.0  0.63349  0.29874  0.94269  1.0000
  C   C2176     1.0  0.61960  0.29703  0.93190  1.0000
  H   H1739     1.0  0.63408  0.30275  0.88309  1.0000
  H   H1740     1.0  0.65848  0.30549  0.90209  1.0000
  H   H1741     1.0  0.63329  0.29777  0.95937  1.0000
  H   H1742     1.0  0.60881  0.29472  0.94027  1.0000
  C   C2177     1.0  0.70933  0.18107  0.88381  1.0000
  C   C2178     1.0  0.70460  0.15209  0.88553  1.0000
  C   C2179     1.0  0.70655  0.13277  0.86893  1.0000
  C   C2180     1.0  0.71337  0.14222  0.85038  1.0000
  C   C2181     1.0  0.71802  0.17123  0.84864  1.0000
  C   C2182     1.0  0.71592  0.19062  0.86516  1.0000
  H   H1743     1.0  0.69948  0.14457  0.89989  1.0000
  H   H1744     1.0  0.70294  0.11056  0.87053  1.0000
  H   H1745     1.0  0.72340  0.17872  0.83443  1.0000
  H   H1746     1.0  0.71965  0.21279  0.86358  1.0000
  C   C2183     1.0  0.71279  0.44112  0.86299  1.0000
  C   C2184     1.0  0.71124  0.42642  0.88194  1.0000
  C   C2185     1.0  0.71021  0.39613  0.88264  1.0000
  C   C2186     1.0  0.71088  0.38022  0.86439  1.0000
  C   C2187     1.0  0.71242  0.39491  0.84545  1.0000
  C   C2188     1.0  0.71329  0.42523  0.84473  1.0000
  H   H1747     1.0  0.71080  0.43851  0.89613  1.0000
  H   H1748     1.0  0.70908  0.38513  0.89732  1.0000
  H   H1749     1.0  0.71304  0.38279  0.83126  1.0000
  H   H1750     1.0  0.71469  0.43625  0.83008  1.0000
  C   C2189     1.0  0.53013  0.14599  0.96423  1.0000
  H   H1751     1.0  0.54363  0.08559  0.67566  1.0000
  H   H1752     1.0  0.51626  0.31640  0.78312  1.0000
  H   H1753     1.0  0.57158  0.43917  0.90117  1.0000
  C   C2190     1.0  0.52096  0.17857  0.93786  1.0000
  C   C2191     1.0  0.55301  0.43239  0.84405  1.0000
  C   C2192     1.0  0.54026  0.43790  0.85683  1.0000
  C   C2193     1.0  0.53544  0.41738  0.87177  1.0000
  C   C2194     1.0  0.54317  0.39099  0.87403  1.0000
  C   C2195     1.0  0.55576  0.38524  0.86100  1.0000
  C   C2196     1.0  0.56064  0.40585  0.84616  1.0000
  H   H1754     1.0  0.53397  0.45779  0.85510  1.0000
  H   H1755     1.0  0.52562  0.42199  0.88164  1.0000
  H   H1756     1.0  0.56178  0.36499  0.86242  1.0000
  H   H1757     1.0  0.57038  0.40116  0.83620  1.0000
  C   C2197     1.0  0.54089  0.13199  0.86288  1.0000
  C   C2198     1.0  0.54956  0.14414  0.84667  1.0000
  C   C2199     1.0  0.55264  0.17387  0.84630  1.0000
  C   C2200     1.0  0.54722  0.19180  0.86213  1.0000
  C   C2201     1.0  0.53902  0.17960  0.87879  1.0000
  C   C2202     1.0  0.53579  0.14980  0.87909  1.0000
  H   H1758     1.0  0.55368  0.13080  0.83420  1.0000
  H   H1759     1.0  0.55923  0.18309  0.83364  1.0000
  H   H1760     1.0  0.53474  0.19327  0.89104  1.0000
  H   H1761     1.0  0.52914  0.14060  0.89176  1.0000
  C   C2203     1.0  0.61697  0.03787  0.81631  1.0000
  C   C2204     1.0  0.63056  0.03555  0.82754  1.0000
  C   C2205     1.0  0.64502  0.03645  0.81751  1.0000
  C   C2206     1.0  0.64605  0.03966  0.79606  1.0000
  C   C2207     1.0  0.63245  0.04178  0.78479  1.0000
  C   C2208     1.0  0.61796  0.04072  0.79484  1.0000
  H   H1762     1.0  0.62990  0.03300  0.84413  1.0000
  H   H1763     1.0  0.65535  0.03455  0.82636  1.0000
  H   H1764     1.0  0.57915  0.07313  0.95159  1.0000
  H   H1765     1.0  0.60758  0.04229  0.78601  1.0000
  H   H1766     1.0  0.53985  0.30686  0.84232  1.0000
  H   H1767     1.0  0.70109  0.39373  0.94774  1.0000
  C   C2209     1.0  0.54283  0.25565  0.76258  1.0000
  C   C2210     1.0  0.51340  0.01096  0.74369  1.0000
  C   C2211     1.0  0.74437  0.17917  0.92710  1.0000
  C   C2212     1.0  0.74958  0.39623  0.88663  1.0000
  C   C2213     1.0  0.53456  0.16922  0.79182  1.0000
  H   H1768     1.0  0.51007  0.08486  0.83671  1.0000
  H   H1769     1.0  0.56328  0.42266  0.74845  1.0000
  C   C2214     1.0  0.66649  0.42919  0.89770  1.0000
  C   C2215     1.0  0.55971  0.37662  0.74985  1.0000
  C   C2216     1.0  0.58883  0.29747  0.83686  1.0000
  H   H1770     1.0  0.51076  0.26174  0.85962  1.0000
  H   H1771     1.0  0.51051  0.17274  0.84243  1.0000
  H   H1772     1.0  0.74638  0.08925  0.83020  1.0000
  C   C2217     1.0  0.55649  0.40856  0.77896  1.0000
  H   H1773     1.0  0.70677  0.09919  0.70284  1.0000
  H   H1774     1.0  0.74421  0.20154  0.93189  1.0000
  H   H1775     1.0  0.52848  0.12761  0.97441  1.0000
  C   C2218     1.0  0.55643  0.01705  0.93701  1.0000
  H   H1776     1.0  0.51207  0.47339  0.70630  1.0000
  C   C2219     1.0  0.59435  0.38012  0.90187  1.0000
  C   C2220     1.0  0.58106  0.39684  0.90173  1.0000
  H   H1777     1.0  0.52295  0.24063  0.74643  1.0000
  H   H1778     1.0  0.60990  0.47576  0.82648  1.0000
  C   C2221     1.0  0.60464  0.41063  0.84971  1.0000
  H   H1779     1.0  0.72395  0.04407  0.88065  1.0000
  C   C2222     1.0  0.51302  0.25353  0.82701  1.0000
  H   H1780     1.0  0.59350  0.35683  0.90314  1.0000
  H   H1781     1.0  0.56990  0.38649  0.90300  1.0000
  H   H1782     1.0  0.74299  0.11146  0.94725  1.0000
  C   C2223     1.0  0.57757  0.98738  0.89052  1.0000
  C   C2224     1.0  0.53241  0.33689  0.81866  1.0000
  C   C2225     1.0  0.60078  0.10795  0.79920  1.0000
  C   C2226     1.0  0.61408  0.11125  0.78708  1.0000
  C   C2227     1.0  0.62755  0.12129  0.79594  1.0000
  C   C2228     1.0  0.62776  0.12804  0.81693  1.0000
  C   C2229     1.0  0.61453  0.12397  0.82936  1.0000
  C   C2230     1.0  0.60096  0.11432  0.82026  1.0000
  P   P72       1.0  0.61476  0.13243  0.85652  1.0000
  C   C2231     1.0  0.60128  0.10872  0.86988  1.0000
  C   C2232     1.0  0.63390  0.12656  0.86613  1.0000
  C   C2233     1.0  0.64220  0.10202  0.86005  1.0000
  C   C2234     1.0  0.65693  0.09713  0.86746  1.0000
  C   C2235     1.0  0.66367  0.11708  0.88062  1.0000
  C   C2236     1.0  0.65562  0.14174  0.88654  1.0000
  C   C2237     1.0  0.64079  0.14652  0.87937  1.0000
  C   C2238     1.0  0.58603  0.11751  0.87346  1.0000
  C   C2239     1.0  0.57557  0.09914  0.88359  1.0000
  C   C2240     1.0  0.58008  0.07163  0.88979  1.0000
  C   C2241     1.0  0.59514  0.06258  0.88611  1.0000
  C   C2242     1.0  0.60567  0.08094  0.87613  1.0000
  C   C2243     1.0  0.60900  0.16939  0.86055  1.0000
  C   C2244     1.0  0.60864  0.18904  0.84401  1.0000
  C   C2245     1.0  0.60389  0.21745  0.84730  1.0000
  C   C2246     1.0  0.59937  0.22633  0.86707  1.0000
  C   C2247     1.0  0.59981  0.20697  0.88361  1.0000
  C   C2248     1.0  0.60462  0.17862  0.88040  1.0000
  H   H1783     1.0  0.59046  0.09941  0.79242  1.0000
  H   H1784     1.0  0.61406  0.10520  0.77096  1.0000
  H   H1785     1.0  0.63793  0.12306  0.78659  1.0000
  H   H1786     1.0  0.63833  0.13578  0.82349  1.0000
  H   H1787     1.0  0.59062  0.11092  0.82946  1.0000
  H   H1788     1.0  0.63732  0.08671  0.84942  1.0000
  H   H1789     1.0  0.66325  0.07817  0.86258  1.0000
  H   H1790     1.0  0.67524  0.11377  0.88591  1.0000
  H   H1791     1.0  0.66094  0.15730  0.89660  1.0000
  H   H1792     1.0  0.63490  0.16590  0.88413  1.0000
  H   H1793     1.0  0.58205  0.13835  0.86818  1.0000
  H   H1794     1.0  0.56387  0.10605  0.88631  1.0000
  H   H1795     1.0  0.57182  0.05719  0.89708  1.0000
  H   H1796     1.0  0.59861  0.04112  0.89058  1.0000
  H   H1797     1.0  0.61707  0.07295  0.87292  1.0000
  H   H1798     1.0  0.61186  0.18242  0.82856  1.0000
  H   H1799     1.0  0.60355  0.23253  0.83452  1.0000
  H   H1800     1.0  0.59545  0.24817  0.86971  1.0000
  H   H1801     1.0  0.59633  0.21404  0.89891  1.0000
  H   H1802     1.0  0.60482  0.16382  0.89339  1.0000
  H   H1803     1.0  0.55021  0.23875  0.75661  1.0000
  H   H1804     1.0  0.72970  0.35990  0.97585  1.0000
  C   C2249     1.0  0.57551  0.33438  0.81767  1.0000
  H   H1805     1.0  0.73385  0.47907  0.93212  1.0000
  H   H1806     1.0  0.73708  0.46307  0.89248  1.0000
  H   H1807     1.0  0.59559  0.39747  0.85662  1.0000
  H   H1808     1.0  0.71445  0.10676  0.92828  1.0000
  C   C2250     1.0  0.74415  0.15705  0.94183  1.0000
  C   C2251     1.0  0.66811  0.14432  0.79603  1.0000
  C   C2252     1.0  0.67324  0.12302  0.80950  1.0000
  C   C2253     1.0  0.67654  0.13009  0.82984  1.0000
  C   C2254     1.0  0.67438  0.15825  0.83694  1.0000
  C   C2255     1.0  0.66884  0.17965  0.82366  1.0000
  C   C2256     1.0  0.66604  0.17258  0.80298  1.0000
  P   P73       1.0  0.66806  0.21676  0.83202  1.0000
  C   C2257     1.0  0.66098  0.21919  0.85845  1.0000
  C   C2258     1.0  0.68729  0.23142  0.83018  1.0000
  C   C2259     1.0  0.69153  0.25484  0.84251  1.0000
  C   C2260     1.0  0.70633  0.26641  0.84092  1.0000
  C   C2261     1.0  0.71698  0.25495  0.82690  1.0000
  C   C2262     1.0  0.71285  0.23179  0.81446  1.0000
  C   C2263     1.0  0.69808  0.22000  0.81609  1.0000
  C   C2264     1.0  0.64577  0.22752  0.86298  1.0000
  C   C2265     1.0  0.64097  0.23219  0.88340  1.0000
  C   C2266     1.0  0.65122  0.22844  0.89949  1.0000
  C   C2267     1.0  0.66622  0.21954  0.89520  1.0000
  C   C2268     1.0  0.67107  0.21486  0.87481  1.0000
  C   C2269     1.0  0.65552  0.23706  0.81545  1.0000
  C   C2270     1.0  0.64117  0.22566  0.81016  1.0000
  C   C2271     1.0  0.63133  0.24138  0.79756  1.0000
  C   C2272     1.0  0.63577  0.26852  0.79007  1.0000
  C   C2273     1.0  0.65006  0.27994  0.79517  1.0000
  C   C2274     1.0  0.65990  0.26433  0.80782  1.0000
  H   H1809     1.0  0.66614  0.13898  0.78003  1.0000
  H   H1810     1.0  0.67511  0.10121  0.80401  1.0000
  H   H1811     1.0  0.68138  0.11393  0.83989  1.0000
  H   H1812     1.0  0.67760  0.16341  0.85253  1.0000
  H   H1813     1.0  0.66274  0.18894  0.79198  1.0000
  H   H1814     1.0  0.68348  0.26416  0.85344  1.0000
  H   H1815     1.0  0.70958  0.28426  0.85064  1.0000
  H   H1816     1.0  0.72845  0.26398  0.82577  1.0000
  H   H1817     1.0  0.72116  0.22270  0.80372  1.0000
  H   H1818     1.0  0.69523  0.20187  0.80644  1.0000
  H   H1819     1.0  0.63766  0.23135  0.85093  1.0000
  H   H1820     1.0  0.62942  0.23962  0.88680  1.0000
  H   H1821     1.0  0.64765  0.23309  0.91525  1.0000
  H   H1822     1.0  0.67426  0.21707  0.90767  1.0000
  H   H1823     1.0  0.68288  0.20885  0.87181  1.0000
  H   H1824     1.0  0.63762  0.20462  0.81585  1.0000
  H   H1825     1.0  0.62030  0.23244  0.79349  1.0000
  H   H1826     1.0  0.62820  0.28067  0.78021  1.0000
  H   H1827     1.0  0.65355  0.30098  0.78935  1.0000
  H   H1828     1.0  0.67088  0.27374  0.81162  1.0000
  C   C2275     1.0  0.53483  0.19371  0.93836  1.0000
  H   H1829     1.0  0.74709  0.41648  0.87909  1.0000
  H   H1830     1.0  0.57501  0.35655  0.81248  1.0000
  H   H1831     1.0  0.50851  0.08248  0.77723  1.0000
  C   C2276     1.0  0.72335  0.40844  0.93717  1.0000
  P   P74       1.0  0.54685  0.32667  0.79970  1.0000
  H   H1832     1.0  0.70232  0.07056  0.73492  1.0000
  C   C2277     1.0  0.74458  0.99584  0.67712  1.0000
  H   H1833     1.0  0.52171  0.36889  0.79911  1.0000
  H   H1834     1.0  0.50942  0.11154  0.70324  1.0000
  C   C2278     1.0  0.60240  0.47059  0.94204  1.0000
  C   C2279     1.0  0.54395  0.16138  0.96481  1.0000
  C   C2280     1.0  0.69510  0.08400  0.91665  1.0000
  S   S318      1.0  0.55973  0.45733  0.82486  1.0000
  C   C2281     1.0  0.72135  0.07663  0.90438  1.0000
  H   H1835     1.0  0.51583  0.23893  0.79589  1.0000
  H   H1836     1.0  0.62109  0.43323  0.89868  1.0000
  C   C2282     1.0  0.66861  0.45093  0.85738  1.0000
  C   C2283     1.0  0.66051  0.42522  0.86134  1.0000
  C   C2284     1.0  0.65910  0.41492  0.88171  1.0000
  P   P75       1.0  0.65133  0.40628  0.84068  1.0000
  C   C2285     1.0  0.63161  0.41826  0.84096  1.0000
  C   C2286     1.0  0.66143  0.41413  0.81671  1.0000
  C   C2287     1.0  0.67746  0.41156  0.81586  1.0000
  C   C2288     1.0  0.68563  0.41794  0.79765  1.0000
  C   C2289     1.0  0.67785  0.42698  0.78012  1.0000
  C   C2290     1.0  0.66185  0.42897  0.78068  1.0000
  C   C2291     1.0  0.65362  0.42220  0.79882  1.0000
  C   C2292     1.0  0.62799  0.44565  0.83315  1.0000
  C   C2293     1.0  0.61273  0.45487  0.83288  1.0000
  H   H1837     1.0  0.57760  0.15522  0.77834  1.0000
  C   C2294     1.0  0.60107  0.43736  0.84109  1.0000
  C   C2295     1.0  0.61988  0.40127  0.84997  1.0000
  C   C2296     1.0  0.65346  0.36785  0.84428  1.0000
  C   C2297     1.0  0.64271  0.34850  0.83623  1.0000
  C   C2298     1.0  0.64413  0.31886  0.83982  1.0000
  C   C2299     1.0  0.65665  0.30829  0.85067  1.0000
  C   C2300     1.0  0.66787  0.32727  0.85760  1.0000
  C   C2301     1.0  0.66634  0.35690  0.85439  1.0000
  C   C2302     1.0  0.60983  0.42354  0.89921  1.0000
  H   H1838     1.0  0.55814  0.11725  0.77215  1.0000
  H   H1839     1.0  0.59299  0.99120  0.86429  1.0000
  H   H1840     1.0  0.58093  0.02539  0.93530  1.0000
  H   H1841     1.0  0.65263  0.39545  0.88518  1.0000
  H   H1842     1.0  0.68366  0.40508  0.82942  1.0000
  H   H1843     1.0  0.69805  0.41652  0.79730  1.0000
  H   H1844     1.0  0.68426  0.43271  0.76620  1.0000
  H   H1845     1.0  0.65585  0.43634  0.76717  1.0000
  H   H1846     1.0  0.64126  0.42370  0.79879  1.0000
  H   H1847     1.0  0.63696  0.45988  0.82721  1.0000
  H   H1848     1.0  0.55673  0.19790  0.95281  1.0000
  C   C2303     1.0  0.70233  0.44012  0.94652  1.0000
  C   C2304     1.0  0.52578  0.99209  0.74182  1.0000
  C   C2305     1.0  0.72678  0.46025  0.93521  1.0000
  H   H1849     1.0  0.63316  0.35632  0.82737  1.0000
  H   H1850     1.0  0.63552  0.30408  0.83429  1.0000
  H   H1851     1.0  0.65767  0.28544  0.85377  1.0000
  H   H1852     1.0  0.67780  0.31919  0.86557  1.0000
  H   H1853     1.0  0.67529  0.37111  0.85984  1.0000
  H   H1854     1.0  0.53053  0.04236  0.68923  1.0000
  H   H1855     1.0  0.56954  0.20235  0.79297  1.0000
  C   C2306     1.0  0.60872  0.39346  0.90074  1.0000
  C   C2307     1.0  0.67498  0.45423  0.89352  1.0000
  C   C2308     1.0  0.74372  0.12823  0.93559  1.0000
  P   P76       1.0  0.74163  0.08436  0.90632  1.0000
  C   C2309     1.0  0.55191  0.35712  0.78336  1.0000
  C   C2310     1.0  0.73891  0.05731  0.70087  1.0000
  H   H1856     1.0  0.74616  0.37213  0.85877  1.0000
  C   C2311     1.0  0.53180  0.08151  0.67172  1.0000
  C   C2312     1.0  0.55459  0.07140  0.95577  1.0000
  C   C2313     1.0  0.54872  0.27658  0.77579  1.0000
  C   C2314     1.0  0.51091  0.19515  0.83777  1.0000
  H   H1857     1.0  0.73235  0.09266  0.86336  1.0000
  C   C2315     1.0  0.50883  0.08881  0.76114  1.0000
  C   C2316     1.0  0.71501  0.08299  0.70733  1.0000
  C   C2317     1.0  0.71248  0.06691  0.72539  1.0000
  C   C2318     1.0  0.50914  0.10529  0.71935  1.0000
  C   C2319     1.0  0.71162  0.46407  0.94211  1.0000
  H   H1858     1.0  0.54978  0.38886  0.80770  1.0000
  C   C2320     1.0  0.73629  0.04145  0.71911  1.0000
  H   H1859     1.0  0.57723  0.25637  0.83925  1.0000
  C   C2321     1.0  0.56563  0.15925  0.78202  1.0000
  H   H1860     1.0  0.74447  0.02542  0.72396  1.0000
  H   H1861     1.0  0.68105  0.46497  0.90574  1.0000
  H   H1862     1.0  0.58930  0.44477  0.84102  1.0000
  H   H1863     1.0  0.67781  0.05819  0.90210  1.0000
  C   C2322     1.0  0.59652  0.44062  0.89882  1.0000
  H   H1864     1.0  0.73820  0.99707  0.69154  1.0000
  C   C2323     1.0  0.52215  0.08399  0.74926  1.0000
  H   H1865     1.0  0.75085  0.32477  0.87528  1.0000
  C   C2324     1.0  0.56107  0.18579  0.79014  1.0000
  C   C2325     1.0  0.56882  0.06052  0.94936  1.0000
  H   H1866     1.0  0.53233  0.08876  0.71890  1.0000
  H   H1867     1.0  0.60581  0.46366  0.97453  1.0000
  C   C2326     1.0  0.73268  0.43237  0.93236  1.0000
  C   C2327     1.0  0.75223  0.08444  0.84444  1.0000
  C   C2328     1.0  0.74872  0.47083  0.89394  1.0000
  H   H1868     1.0  0.61901  0.38038  0.90123  1.0000
  C   C2329     1.0  0.50897  0.00748  0.70683  1.0000
  C   C2330     1.0  0.57708  0.27788  0.83266  1.0000
  H   H1869     1.0  0.53655  0.21268  0.92875  1.0000
  C   C2331     1.0  0.51661  0.09696  0.92451  1.0000
  H   H1870     1.0  0.66952  0.45989  0.84191  1.0000
  H   H1871     1.0  0.55389  0.09238  0.96300  1.0000
  C   C2332     1.0  0.74427  0.17250  0.90613  1.0000
  C   C2333     1.0  0.51198  0.31483  0.97403  1.0000
  C   C2334     1.0  0.54127  0.05516  0.95289  1.0000
  H   H1872     1.0  0.51222  0.18603  0.92754  1.0000
  C   C2335     1.0  0.60778  0.47804  0.96150  1.0000
  H   H1873     1.0  0.55515  0.27140  0.81907  1.0000
  C   C2336     1.0  0.56978  0.03338  0.94011  1.0000
  H   H1874     1.0  0.59823  0.29119  0.84664  1.0000
  H   H1875     1.0  0.52419  0.48299  0.66520  1.0000
  H   H1876     1.0  0.53100  0.12568  0.78091  1.0000
  C   C2337     1.0  0.74363  0.12134  0.91450  1.0000
  C   C2338     1.0  0.55471  0.13779  0.77865  1.0000
  H   H1877     1.0  0.59691  0.34111  0.83312  1.0000
  C   C2339     1.0  0.52427  0.05694  0.67942  1.0000
  H   H1878     1.0  0.73295  0.98717  0.86083  1.0000
  C   C2340     1.0  0.71605  0.05570  0.89062  1.0000
  C   C2341     1.0  0.51036  0.24148  0.96284  1.0000
  C   C2342     1.0  0.55245  0.38508  0.79155  1.0000
  C   C2343     1.0  0.75047  0.33503  0.97498  1.0000
  H   H1879     1.0  0.54239  0.21143  0.80142  1.0000
  H   H1880     1.0  0.52863  0.06890  0.90342  1.0000
  C   C2344     1.0  0.52216  0.09234  0.72830  1.0000
  C   C2345     1.0  0.67586  0.46524  0.87343  1.0000
  C   C2346     1.0  0.54560  0.19083  0.79496  1.0000
  H   H1881     1.0  0.69061  0.44305  0.95192  1.0000
  C   C2347     1.0  0.56448  0.28654  0.82115  1.0000
  C   C2348     1.0  0.54626  0.18531  0.95194  1.0000
  H   H1882     1.0  0.66589  0.42051  0.91325  1.0000
  H   H1883     1.0  0.63172  0.47741  0.89591  1.0000
  C   C2349     1.0  0.58211  0.42691  0.90043  1.0000
  H   H1884     1.0  0.59620  0.45050  0.94034  1.0000
  C   C2350     1.0  0.68992  0.06338  0.90279  1.0000
  H   H1885     1.0  0.52612  0.02300  0.86847  1.0000
  C   C2351     1.0  0.71074  0.09062  0.91746  1.0000
  C   C2352     1.0  0.70823  0.41233  0.94415  1.0000
  C   C2353     1.0  0.72817  0.07830  0.69512  1.0000
  C   C2354     1.0  0.52748  0.25674  0.75678  1.0000
  H   H1886     1.0  0.56077  0.27594  0.77948  1.0000
  C   C2355     1.0  0.58804  0.32570  0.82935  1.0000
  H   H1887     1.0  0.53171  0.01601  0.94103  1.0000
  C   C2356     1.0  0.72315  0.04617  0.73127  1.0000
  H   H1888     1.0  0.55275  0.15521  0.97554  1.0000
  C   C2357     1.0  0.70037  0.04942  0.88973  1.0000
  H   H1889     1.0  0.63313  0.04412  0.76818  1.0000
  H   H1890     1.0  0.62242  0.38105  0.85754  1.0000
  H   H1891     1.0  0.68701  0.09500  0.92674  1.0000
  H   H1892     1.0  0.52433  0.31202  0.97428  1.0000
  H   H1893     1.0  0.74391  0.18972  0.89477  1.0000
  C   C2358     1.0  0.52339  0.24467  0.97495  1.0000
  C   C2359     1.0  0.56363  0.31484  0.81342  1.0000
  C   C2360     1.0  0.53927  0.14264  0.78366  1.0000
  H   H1894     1.0  0.53199  0.47201  0.73289  1.0000
  H   H1895     1.0  0.69627  0.03361  0.87894  1.0000
  C   C2361     1.0  0.55566  0.35305  0.76240  1.0000
  C   C2362     1.0  0.51330  0.47342  0.66120  1.0000
  H   H1896     1.0  0.72771  0.38672  0.93557  1.0000
  H   H1897     1.0  0.55550  0.33175  0.75569  1.0000
  H   H1898     1.0  0.54568  0.02527  0.89535  1.0000
  C   C2363     1.0  0.75276  0.39493  0.90779  1.0000
  C   C2364     1.0  0.75501  0.36789  0.91712  1.0000
  H   H1899     1.0  0.72130  0.03381  0.74536  1.0000
  C   C2365     1.0  0.51841  0.15481  0.95102  1.0000
  H   H1900     1.0  0.52362  0.12831  0.82406  1.0000
  H   H1901     1.0  0.53024  0.06348  0.95798  1.0000
  H   H1902     1.0  0.74394  0.16235  0.95809  1.0000
  H   H1903     1.0  0.50890  0.21003  0.86912  1.0000
  C   C2366     1.0  0.54216  0.02821  0.94338  1.0000
  C   C2367     1.0  0.74905  0.37102  0.87495  1.0000
  H   H1904     1.0  0.56257  0.37338  0.73369  1.0000
  C   C2368     1.0  0.75161  0.34431  0.88428  1.0000
  H   H1905     1.0  0.73233  0.02627  0.92058  1.0000
  C   C2369     1.0  0.56012  0.40436  0.75812  1.0000
  H   H1906     1.0  0.52697  0.10854  0.92832  1.0000
  C   C2370     1.0  0.51762  0.07441  0.91034  1.0000
  H   H1907     1.0  0.55685  0.43008  0.78542  1.0000
  H   H1908     1.0  0.74308  0.13926  0.88350  1.0000
  H   H1909     1.0  0.51086  0.24774  0.94676  1.0000
  C   C2371     1.0  0.74380  0.14374  0.89982  1.0000
  S   S319      1.0  0.71470  0.47916  0.86284  1.0000
  C   C2372     1.0  0.52377  0.29939  0.77771  1.0000
  H   H1910     1.0  0.51059  0.02036  0.75855  1.0000
  S   S320      1.0  0.69998  0.99436  0.80205  1.0000
  C   C2373     1.0  0.75382  0.01887  0.67014  1.0000
  H   H1911     1.0  0.51970  0.16057  0.75349  1.0000
  C   C2374     1.0  0.74095  0.35710  0.98231  1.0000
  H   H1912     1.0  0.74994  0.44851  0.96586  1.0000
  C   C2375     1.0  0.51799  0.27871  0.76423  1.0000
  H   H1913     1.0  0.51403  0.27610  0.82288  1.0000
  C   C2376     1.0  0.51208  0.12411  0.81899  1.0000
  C   C2377     1.0  0.75466  0.34277  0.90533  1.0000
  P   P77       1.0  0.59803  0.47966  0.89988  1.0000
  C   C2378     1.0  0.50995  0.21630  0.85304  1.0000
  C   C2379     1.0  0.50887  0.05162  0.67457  1.0000
  C   C2380     1.0  0.53901  0.00570  0.89374  1.0000
  H   H1914     1.0  0.75584  0.01861  0.86303  1.0000
  P   P78       1.0  0.75220  0.42720  0.92329  1.0000
  H   H1915     1.0  0.62806  0.48553  0.79586  1.0000
  C   C2381     1.0  0.51105  0.24547  0.84768  1.0000
  C   C2382     1.0  0.52152  0.98860  0.70508  1.0000
  C   C2383     1.0  0.51281  0.20307  0.81693  1.0000
  C   C2384     1.0  0.52787  0.00458  0.87853  1.0000
  P   P79       1.0  0.51444  0.17593  0.79704  1.0000
  H   H1916     1.0  0.75637  0.32203  0.91271  1.0000
  H   H1917     1.0  0.56813  0.99623  0.88213  1.0000
  C   C2385     1.0  0.52165  0.35842  0.81408  1.0000
  H   H1918     1.0  0.52080  0.32228  0.86818  1.0000
  C   C2386     1.0  0.51062  0.17639  0.75436  1.0000
  H   H1919     1.0  0.68243  0.48469  0.87020  1.0000
  C   C2387     1.0  0.51397  0.23243  0.81173  1.0000
  H   H1920     1.0  0.70348  0.47984  0.72794  1.0000
  S   S321      1.0  0.70142  0.48597  0.80492  1.0000
  C   C2388     1.0  0.52089  0.33203  0.85294  1.0000
  H   H1921     1.0  0.74025  0.26606  0.98681  1.0000
  C   C2389     1.0  0.74256  0.03258  0.92862  1.0000
  C   C2390     1.0  0.74960  0.05944  0.92482  1.0000
  C   C2391     1.0  0.75415  0.00124  0.87410  1.0000
  C   C2392     1.0  0.74874  0.01337  0.94293  1.0000
  H   H1922     1.0  0.74315  0.99287  0.94592  1.0000
  C   C2393     1.0  0.75168  0.08021  0.88186  1.0000
  H   H1923     1.0  0.70711  0.48564  0.94405  1.0000
  P   P80       1.0  0.75617  0.05072  0.68568  1.0000
  C   C2394     1.0  0.51091  0.36719  0.82904  1.0000
  C   C2395     1.0  0.51060  0.35412  0.84851  1.0000
  H   H1924     1.0  0.50659  0.17413  0.72169  1.0000
  H   H1925     1.0  0.53242  0.98670  0.75529  1.0000
  Fe  Fe161     1.0  0.57326  0.80985  0.29916  1.0000
  S   S322      1.0  0.59616  0.81217  0.28157  1.0000
  Fe  Fe162     1.0  0.53816  0.81738  0.29500  1.0000
  C   C2396     1.0  0.72421  0.65924  0.25886  1.0000
  S   S323      1.0  0.51670  0.82347  0.27509  1.0000
  H   H1926     1.0  0.75623  0.80749  0.11186  1.0000
  S   S324      1.0  0.55740  0.84810  0.30262  1.0000
  S   S325      1.0  0.55433  0.78030  0.28900  1.0000
  Fe  Fe163     1.0  0.71505  0.77179  0.28813  1.0000
  H   H1927     1.0  0.53280  0.48990  0.29751  1.0000
  S   S326      1.0  0.72372  0.75514  0.25641  1.0000
  C   C2397     1.0  0.53702  0.81999  0.00147  1.0000
  C   C2398     1.0  0.50856  0.82380  0.08734  1.0000
  C   C2399     1.0  0.54845  0.83518  0.01165  1.0000
  S   S327      1.0  0.69723  0.80742  0.28925  1.0000
  H   H1928     1.0  0.60151  0.88483  0.29424  1.0000
  H   H1929     1.0  0.51487  0.80011  0.00385  1.0000
  H   H1930     1.0  0.63279  0.71223  0.26943  1.0000
  H   H1931     1.0  0.71640  0.66378  0.24645  1.0000
  C   C2400     1.0  0.50800  0.75122  0.12930  1.0000
  C   C2401     1.0  0.50939  0.69947  0.99583  1.0000
  H   H1932     1.0  0.72463  0.78093  0.16942  1.0000
  C   C2402     1.0  0.64256  0.78610  0.30887  1.0000
  C   C2403     1.0  0.61403  0.80312  0.29254  1.0000
  C   C2404     1.0  0.62684  0.79837  0.27948  1.0000
  C   C2405     1.0  0.64100  0.78957  0.28757  1.0000
  Fe  Fe164     1.0  0.68408  0.77979  0.31219  1.0000
  C   C2406     1.0  0.63591  0.66399  0.31853  1.0000
  C   C2407     1.0  0.75632  0.72287  0.05889  1.0000
  C   C2408     1.0  0.73695  0.77876  0.17069  1.0000
  H   H1933     1.0  0.65052  0.78451  0.27730  1.0000
  C   C2409     1.0  0.53269  0.83505  0.04288  1.0000
  C   C2410     1.0  0.60694  0.88089  0.30892  1.0000
  C   C2411     1.0  0.74171  0.74121  0.24720  1.0000
  H   H1934     1.0  0.61121  0.67984  0.27980  1.0000
  C   C2412     1.0  0.51520  0.78384  0.15670  1.0000
  H   H1935     1.0  0.55905  0.84068  0.00354  1.0000
  H   H1936     1.0  0.73569  0.86556  0.26758  1.0000
  H   H1937     1.0  0.70552  0.55806  0.23427  1.0000
  C   C2413     1.0  0.68169  0.58924  0.28009  1.0000
  H   H1938     1.0  0.74796  0.79457  0.22865  1.0000
  C   C2414     1.0  0.67445  0.89609  0.30592  1.0000
  H   H1939     1.0  0.53645  0.80720  0.15117  1.0000
  C   C2415     1.0  0.75000  0.66141  0.27205  1.0000
  C   C2416     1.0  0.68280  0.88899  0.28806  1.0000
  C   C2417     1.0  0.74064  0.82823  0.24904  1.0000
  C   C2418     1.0  0.73444  0.53154  0.26411  1.0000
  C   C2419     1.0  0.74744  0.74755  0.01199  1.0000
  H   H1940     1.0  0.52192  0.75940  0.02958  1.0000
  H   H1941     1.0  0.75394  0.89713  0.24813  1.0000
  H   H1942     1.0  0.73857  0.89441  0.00256  1.0000
  S   S328      1.0  0.70063  0.74294  0.30892  1.0000
  H   H1943     1.0  0.58678  0.86121  0.32263  1.0000
  C   C2420     1.0  0.62163  0.68009  0.28870  1.0000
  C   C2421     1.0  0.69312  0.69596  0.26685  1.0000
  C   C2422     1.0  0.72537  0.77015  0.99662  1.0000
  H   H1944     1.0  0.52026  0.91045  0.23019  1.0000
  C   C2423     1.0  0.66519  0.68161  0.24902  1.0000
  H   H1945     1.0  0.70093  0.59776  0.31545  1.0000
  C   C2424     1.0  0.74490  0.51906  0.25023  1.0000
  C   C2425     1.0  0.69402  0.60524  0.27165  1.0000
  H   H1946     1.0  0.74369  0.49656  0.24607  1.0000
  H   H1947     1.0  0.51315  0.50047  0.04945  1.0000
  H   H1948     1.0  0.68914  0.73890  0.25544  1.0000
  C   C2426     1.0  0.52510  0.89508  0.17553  1.0000
  H   H1949     1.0  0.72520  0.51867  0.27085  1.0000
  C   C2427     1.0  0.64726  0.69825  0.29410  1.0000
  H   H1950     1.0  0.69390  0.89894  0.28509  1.0000
  P   P81       1.0  0.51206  0.79902  0.18205  1.0000
  C   C2428     1.0  0.73512  0.74647  0.99850  1.0000
  C   C2429     1.0  0.75018  0.77247  0.02364  1.0000
  H   H1951     1.0  0.66867  0.54971  0.27882  1.0000
  C   C2430     1.0  0.70247  0.59394  0.25491  1.0000
  H   H1952     1.0  0.55516  0.85447  0.04025  1.0000
  C   C2431     1.0  0.65491  0.86140  0.29692  1.0000
  H   H1953     1.0  0.52347  0.70848  0.03956  1.0000
  C   C2432     1.0  0.74473  0.75758  0.15941  1.0000
  S   S329      1.0  0.65891  0.76942  0.31947  1.0000
  C   C2433     1.0  0.67080  0.70984  0.24751  1.0000
  H   H1954     1.0  0.73270  0.81447  0.25762  1.0000
  H   H1955     1.0  0.68377  0.86268  0.26084  1.0000
  H   H1956     1.0  0.52752  0.77434  0.25285  1.0000
  C   C2434     1.0  0.67715  0.86842  0.27451  1.0000
  H   H1957     1.0  0.66889  0.63890  0.26067  1.0000
  C   C2435     1.0  0.50778  0.71245  0.06539  1.0000
  H   H1958     1.0  0.74357  0.67664  0.24199  1.0000
  C   C2436     1.0  0.53168  0.87833  0.19100  1.0000
  H   H1959     1.0  0.53909  0.76056  0.17835  1.0000
  C   C2437     1.0  0.51698  0.83677  0.18001  1.0000
  H   H1960     1.0  0.67937  0.91157  0.31626  1.0000
  C   C2438     1.0  0.51033  0.84869  0.25609  1.0000
  H   H1961     1.0  0.64439  0.84973  0.30029  1.0000
  C   C2439     1.0  0.52394  0.78111  0.20072  1.0000
  C   C2440     1.0  0.51905  0.87267  0.24984  1.0000
  H   H1962     1.0  0.65899  0.83815  0.26870  1.0000
  C   C2441     1.0  0.62264  0.66310  0.30654  1.0000
  C   C2442     1.0  0.64847  0.68057  0.31151  1.0000
  H   H1963     1.0  0.74847  0.59991  0.26418  1.0000
  H   H1964     1.0  0.62855  0.89917  0.29920  1.0000
  C   C2443     1.0  0.73583  0.56066  0.26917  1.0000
  C   C2444     1.0  0.52997  0.77130  0.23654  1.0000
  C   C2445     1.0  0.54239  0.75436  0.23027  1.0000
  C   C2446     1.0  0.54558  0.75056  0.20925  1.0000
  C   C2447     1.0  0.53639  0.76383  0.19450  1.0000
  H   H1965     1.0  0.54155  0.78536  0.11706  1.0000
  H   H1966     1.0  0.54122  0.93925  0.99167  1.0000
  C   C2448     1.0  0.52346  0.81228  0.01195  1.0000
  C   C2449     1.0  0.74536  0.87692  0.99634  1.0000
  C   C2450     1.0  0.51459  0.88273  0.16216  1.0000
  H   H1967     1.0  0.72558  0.63218  0.30777  1.0000
  H   H1968     1.0  0.60624  0.72926  0.30432  1.0000
  C   C2451     1.0  0.51344  0.89189  0.23474  1.0000
  C   C2452     1.0  0.74365  0.73529  0.22598  1.0000
  C   C2453     1.0  0.52838  0.79169  0.14514  1.0000
  H   H1969     1.0  0.51133  0.79805  0.22708  1.0000
  C   C2454     1.0  0.62228  0.88866  0.31173  1.0000
  S   S330      1.0  0.72872  0.79052  0.31417  1.0000
  C   C2455     1.0  0.74505  0.79734  0.18352  1.0000
  H   H1970     1.0  0.75503  0.72918  0.01298  1.0000
  C   C2456     1.0  0.64524  0.56610  0.31334  1.0000
  H   H1971     1.0  0.50806  0.68966  0.06912  1.0000
  C   C2457     1.0  0.53133  0.77932  0.12584  1.0000
  H   H1972     1.0  0.54956  0.74432  0.24176  1.0000
  H   H1973     1.0  0.55523  0.73740  0.20442  1.0000
  H   H1974     1.0  0.61298  0.64954  0.31097  1.0000
  P   P82       1.0  0.69860  0.64038  0.28176  1.0000
  C   C2458     1.0  0.69435  0.64197  0.30912  1.0000
  C   C2459     1.0  0.75401  0.73574  0.26024  1.0000
  C   C2460     1.0  0.68770  0.66744  0.26821  1.0000
  Fe  Fe165     1.0  0.55137  0.76827  0.32266  1.0000
  C   C2461     1.0  0.68677  0.55074  0.25580  1.0000
  H   H1975     1.0  0.51179  0.83507  0.11914  1.0000
  H   H1976     1.0  0.71185  0.60598  0.24784  1.0000
  C   C2462     1.0  0.72792  0.79490  0.00825  1.0000
  H   H1977     1.0  0.50921  0.89599  0.15057  1.0000
  C   C2463     1.0  0.69889  0.56674  0.24710  1.0000
  H   H1978     1.0  0.73433  0.73968  0.21563  1.0000
  C   C2464     1.0  0.51057  0.85365  0.16433  1.0000
  C   C2465     1.0  0.52600  0.48719  0.31154  1.0000
  C   C2466     1.0  0.51651  0.72309  0.04875  1.0000
  H   H1979     1.0  0.53256  0.83706  0.20579  1.0000
  H   H1980     1.0  0.73885  0.81400  0.19177  1.0000
  C   C2467     1.0  0.52759  0.84931  0.19334  1.0000
  C   C2468     1.0  0.52118  0.81960  0.03277  1.0000
  C   C2469     1.0  0.74930  0.81703  0.23257  1.0000
  C   C2470     1.0  0.72934  0.64167  0.29328  1.0000
  H   H1981     1.0  0.68401  0.52966  0.24972  1.0000
  C   C2471     1.0  0.67815  0.56204  0.27223  1.0000
  H   H1982     1.0  0.74482  0.73067  0.05623  1.0000
  C   C2472     1.0  0.73968  0.66639  0.25619  1.0000
  C   C2473     1.0  0.74773  0.57725  0.26047  1.0000
  H   H1983     1.0  0.66433  0.72623  0.23950  1.0000
  H   H1984     1.0  0.62564  0.80061  0.26297  1.0000
  C   C2474     1.0  0.66323  0.85456  0.27897  1.0000
  H   H1985     1.0  0.67477  0.59780  0.29268  1.0000
  H   H1986     1.0  0.53134  0.84092  0.05892  1.0000
  C   C2475     1.0  0.68473  0.71700  0.25650  1.0000
  C   C2476     1.0  0.71885  0.64730  0.27760  1.0000
  C   C2477     1.0  0.54626  0.84282  0.03233  1.0000
  C   C2478     1.0  0.63380  0.69816  0.28275  1.0000
  H   H1987     1.0  0.53007  0.87653  0.25672  1.0000
  H   H1988     1.0  0.73848  0.74334  0.14935  1.0000
  H   H1989     1.0  0.53951  0.88813  0.20170  1.0000
  H   H1990     1.0  0.74832  0.68449  0.07469  1.0000
  H   H1991     1.0  0.52343  0.74935  0.10302  1.0000
  H   H1992     1.0  0.63990  0.55368  0.30130  1.0000
  H   H1993     1.0  0.72061  0.81352  0.00630  1.0000
  C   C2479     1.0  0.52079  0.78467  0.22187  1.0000
  H   H1994     1.0  0.65432  0.67613  0.24219  1.0000
  H   H1995     1.0  0.70392  0.70206  0.27367  1.0000
  H   H1996     1.0  0.74226  0.81596  0.02991  1.0000
  C   C2480     1.0  0.74032  0.79619  0.02162  1.0000
  C   C2481     1.0  0.69677  0.61783  0.32184  1.0000
  H   H1997     1.0  0.51641  0.80581  0.08801  1.0000
  C   C2482     1.0  0.67353  0.66052  0.25949  1.0000
  C   C2483     1.0  0.51554  0.75214  0.04309  1.0000
  H   H1998     1.0  0.72768  0.57040  0.27985  1.0000
  H   H1999     1.0  0.68801  0.68699  0.30881  1.0000
  C   C2484     1.0  0.60511  0.72925  0.32099  1.0000
  C   C2485     1.0  0.75263  0.87477  0.24371  1.0000
  C   C2486     1.0  0.52115  0.75904  0.11794  1.0000
  H   H2000     1.0  0.65670  0.71242  0.28966  1.0000
  C   C2487     1.0  0.62999  0.79228  0.32197  1.0000
  C   C2488     1.0  0.74484  0.64890  0.29057  1.0000
  S   S331      1.0  0.71445  0.87323  0.31926  1.0000
  C   C2489     1.0  0.75443  0.64589  0.19855  1.0000
  C   C2490     1.0  0.61574  0.80034  0.31387  1.0000
  C   C2491     1.0  0.68972  0.66800  0.31815  1.0000
  C   C2492     1.0  0.66030  0.88265  0.31041  1.0000
  H   H2001     1.0  0.51433  0.67829  0.99773  1.0000
  H   H2002     1.0  0.75576  0.58983  0.16496  1.0000
  C   C2493     1.0  0.63946  0.59325  0.31856  1.0000
  Fe  Fe166     1.0  0.71006  0.82443  0.31672  1.0000
  H   H2003     1.0  0.52774  0.91788  0.17437  1.0000
  C   C2494     1.0  0.75229  0.63038  0.18041  1.0000
  H   H2004     1.0  0.66192  0.53334  0.32035  1.0000
  H   H2005     1.0  0.74732  0.64078  0.16710  1.0000
  H   H2006     1.0  0.62959  0.60143  0.31050  1.0000
  H   H2007     1.0  0.75278  0.64528  0.30298  1.0000
  H   H2008     1.0  0.75104  0.66830  0.19935  1.0000
  H   H2009     1.0  0.75278  0.74017  0.27656  1.0000
  H   H2010     1.0  0.65906  0.68065  0.31987  1.0000
  C   C2495     1.0  0.74232  0.85705  0.25465  1.0000
  H   H2011     1.0  0.58050  0.72643  0.32084  1.0000
  H   H2012     1.0  0.71908  0.93442  0.32304  1.0000
  H   H2013     1.0  0.60825  0.89115  0.44402  1.0000
  H   H2014     1.0  0.60119  0.84002  0.44962  1.0000
  S   S332      1.0  0.55672  0.85813  0.36439  1.0000
  H   H2015     1.0  0.56516  0.95786  0.45872  1.0000
  H   H2016     1.0  0.53482  0.94822  0.33691  1.0000
  H   H2017     1.0  0.57821  0.61455  0.37578  1.0000
  H   H2018     1.0  0.53826  0.93372  0.45412  1.0000
  S   S333      1.0  0.71767  0.73856  0.36429  1.0000
  Fe  Fe167     1.0  0.57331  0.53522  0.42836  1.0000
  S   S334      1.0  0.57194  0.55289  0.39630  1.0000
  S   S335      1.0  0.59639  0.52371  0.44205  1.0000
  Fe  Fe168     1.0  0.53804  0.53054  0.43362  1.0000
  S   S336      1.0  0.53448  0.54808  0.40135  1.0000
  S   S337      1.0  0.51603  0.52041  0.45257  1.0000
  Fe  Fe169     1.0  0.55393  0.51860  0.39213  1.0000
  C   C2496     1.0  0.70722  0.64070  0.48547  1.0000
  Fe  Fe170     1.0  0.55279  0.58101  0.40833  1.0000
  S   S338      1.0  0.55212  0.63053  0.40492  1.0000
  H   H2019     1.0  0.74795  0.59080  0.45220  1.0000
  S   S339      1.0  0.55526  0.56519  0.44124  1.0000
  Fe  Fe171     1.0  0.70621  0.51429  0.40722  1.0000
  S   S340      1.0  0.69245  0.53034  0.43480  1.0000
  C   C2497     1.0  0.57459  0.74291  0.41805  1.0000
  Fe  Fe172     1.0  0.71502  0.57616  0.39465  1.0000
  S   S341      1.0  0.70164  0.59597  0.42070  1.0000
  S   S342      1.0  0.72803  0.60297  0.37059  1.0000
  Fe  Fe173     1.0  0.71211  0.56127  0.44025  1.0000
  S   S343      1.0  0.71962  0.57107  0.47332  1.0000
  Fe  Fe174     1.0  0.68323  0.56371  0.41312  1.0000
  S   S344      1.0  0.65893  0.58047  0.40861  1.0000
  S   S345      1.0  0.72660  0.54273  0.41445  1.0000
  S   S346      1.0  0.69592  0.54634  0.38533  1.0000
  C   C2498     1.0  0.73668  0.58832  0.48190  1.0000
  C   C2499     1.0  0.73811  0.59466  0.50301  1.0000
  C   C2500     1.0  0.53872  0.91408  0.44512  1.0000
  H   H2020     1.0  0.72874  0.58943  0.51351  1.0000
  C   C2501     1.0  0.61808  0.78702  0.38744  1.0000
  H   H2021     1.0  0.51431  0.74714  0.39413  1.0000
  H   H2022     1.0  0.66207  0.64698  0.40985  1.0000
  C   C2502     1.0  0.64710  0.66143  0.36266  1.0000
  H   H2023     1.0  0.54304  0.78597  0.41734  1.0000
  Fe  Fe175     1.0  0.55427  0.83180  0.33519  1.0000
  C   C2503     1.0  0.61373  0.53949  0.43257  1.0000
  C   C2504     1.0  0.61368  0.56411  0.42002  1.0000
  C   C2505     1.0  0.62762  0.57622  0.41278  1.0000
  C   C2506     1.0  0.64176  0.56385  0.41790  1.0000
  C   C2507     1.0  0.64183  0.53911  0.43035  1.0000
  C   C2508     1.0  0.62787  0.52709  0.43772  1.0000
  H   H2024     1.0  0.60289  0.57401  0.41612  1.0000
  H   H2025     1.0  0.62744  0.59544  0.40331  1.0000
  H   H2026     1.0  0.65264  0.52941  0.43447  1.0000
  H   H2027     1.0  0.60886  0.52043  0.39152  1.0000
  C   C2509     1.0  0.71008  0.89766  0.33984  1.0000
  C   C2510     1.0  0.70315  0.88868  0.35847  1.0000
  C   C2511     1.0  0.70026  0.90878  0.37442  1.0000
  C   C2512     1.0  0.70412  0.93818  0.37201  1.0000
  C   C2513     1.0  0.71080  0.94722  0.35326  1.0000
  C   C2514     1.0  0.71376  0.92711  0.33735  1.0000
  P   P83       1.0  0.73728  0.69518  0.45526  1.0000
  H   H2028     1.0  0.52527  0.83468  0.37776  1.0000
  H   H2029     1.0  0.71381  0.96969  0.35105  1.0000
  C   C2515     1.0  0.50819  0.49029  0.56094  1.0000
  C   C2516     1.0  0.72027  0.70081  0.36542  1.0000
  C   C2517     1.0  0.72720  0.68559  0.34920  1.0000
  C   C2518     1.0  0.72997  0.65581  0.35132  1.0000
  C   C2519     1.0  0.72523  0.64078  0.36920  1.0000
  C   C2520     1.0  0.71822  0.65602  0.38535  1.0000
  C   C2521     1.0  0.71600  0.68597  0.38359  1.0000
  C   C2522     1.0  0.59204  0.64714  0.36052  1.0000
  C   C2523     1.0  0.51336  0.77003  0.39727  1.0000
  H   H2030     1.0  0.71461  0.64485  0.39923  1.0000
  H   H2031     1.0  0.71084  0.69772  0.39629  1.0000
  C   C2524     1.0  0.54931  0.69544  0.35052  1.0000
  C   C2525     1.0  0.54966  0.70495  0.37097  1.0000
  C   C2526     1.0  0.55024  0.68477  0.38736  1.0000
  C   C2527     1.0  0.55057  0.65485  0.38360  1.0000
  C   C2528     1.0  0.55008  0.64538  0.36317  1.0000
  C   C2529     1.0  0.54944  0.66555  0.34680  1.0000
  H   H2032     1.0  0.54940  0.72780  0.37416  1.0000
  H   H2033     1.0  0.55046  0.69238  0.40309  1.0000
  H   H2034     1.0  0.55022  0.62252  0.35997  1.0000
  H   H2035     1.0  0.64653  0.62442  0.38309  1.0000
  C   C2530     1.0  0.55122  0.89481  0.36526  1.0000
  C   C2531     1.0  0.55335  0.91028  0.38352  1.0000
  C   C2532     1.0  0.54849  0.93905  0.38522  1.0000
  C   C2533     1.0  0.54185  0.95302  0.36842  1.0000
  C   C2534     1.0  0.54002  0.93771  0.34996  1.0000
  C   C2535     1.0  0.54459  0.90866  0.34841  1.0000
  H   H2036     1.0  0.55869  0.89995  0.39649  1.0000
  H   H2037     1.0  0.54978  0.95025  0.39960  1.0000
  C   C2536     1.0  0.66035  0.87856  0.37337  1.0000
  C   C2537     1.0  0.62638  0.93481  0.40740  1.0000
  H   H2038     1.0  0.69504  0.90147  0.38878  1.0000
  H   H2039     1.0  0.67074  0.69794  0.40582  1.0000
  C   C2538     1.0  0.74883  0.59553  0.46845  1.0000
  C   C2539     1.0  0.65855  0.59763  0.34501  1.0000
  C   C2540     1.0  0.73681  0.75329  0.40745  1.0000
  C   C2541     1.0  0.66785  0.83065  0.38432  1.0000
  C   C2542     1.0  0.59688  0.94120  0.34727  1.0000
  C   C2543     1.0  0.58434  0.95986  0.34753  1.0000
  H   H2040     1.0  0.58104  0.97109  0.39896  1.0000
  C   C2544     1.0  0.58560  0.96254  0.38472  1.0000
  C   C2545     1.0  0.59797  0.94334  0.38469  1.0000
  C   C2546     1.0  0.60385  0.93337  0.36576  1.0000
  P   P84       1.0  0.60579  0.92997  0.40856  1.0000
  H   H2041     1.0  0.73225  0.64563  0.42809  1.0000
  H   H2042     1.0  0.55506  0.74792  0.43860  1.0000
  C   C2547     1.0  0.73768  0.50357  0.46821  1.0000
  C   C2548     1.0  0.57898  0.97112  0.36621  1.0000
  C   C2549     1.0  0.50704  0.97686  0.50997  1.0000
  C   C2550     1.0  0.63629  0.91543  0.41721  1.0000
  C   C2551     1.0  0.65199  0.92158  0.41830  1.0000
  P   P85       1.0  0.63719  0.64301  0.34212  1.0000
  H   H2043     1.0  0.57869  0.96560  0.33333  1.0000
  C   C2552     1.0  0.59828  0.94999  0.43036  1.0000
  C   C2553     1.0  0.60024  0.89267  0.41263  1.0000
  C   C2554     1.0  0.59255  0.87717  0.39735  1.0000
  C   C2555     1.0  0.58843  0.84834  0.40072  1.0000
  C   C2556     1.0  0.59175  0.83479  0.41939  1.0000
  C   C2557     1.0  0.59892  0.85030  0.43494  1.0000
  C   C2558     1.0  0.60299  0.87921  0.43167  1.0000
  C   C2559     1.0  0.50896  0.91591  0.38387  1.0000
  S   S347      1.0  0.57136  0.79562  0.33214  1.0000
  C   C2560     1.0  0.52619  0.90618  0.43322  1.0000
  H   H2044     1.0  0.51451  0.92753  0.39607  1.0000
  H   H2045     1.0  0.61357  0.91898  0.36544  1.0000
  C   C2561     1.0  0.51945  0.81951  0.38807  1.0000
  C   C2562     1.0  0.51151  0.49631  0.47341  1.0000
  C   C2563     1.0  0.73769  0.54567  0.54358  1.0000
  H   H2046     1.0  0.63199  0.89598  0.42445  1.0000
  C   C2564     1.0  0.75635  0.54553  0.62576  1.0000
  S   S348      1.0  0.55631  0.49922  0.42357  1.0000
  H   H2047     1.0  0.58054  0.78152  0.37374  1.0000
  C   C2565     1.0  0.65119  0.69075  0.36112  1.0000
  H   H2048     1.0  0.61389  0.78869  0.37184  1.0000
  H   H2049     1.0  0.58239  0.83673  0.38887  1.0000
  H   H2050     1.0  0.58849  0.81246  0.42193  1.0000
  H   H2051     1.0  0.66520  0.79710  0.36174  1.0000
  H   H2052     1.0  0.53610  0.52056  0.55166  1.0000
  H   H2053     1.0  0.68563  0.62411  0.47507  1.0000
  H   H2054     1.0  0.67252  0.81633  0.39586  1.0000
  S   S349      1.0  0.69997  0.96251  0.39272  1.0000
  C   C2566     1.0  0.50857  0.54662  0.64366  1.0000
  H   H2055     1.0  0.66324  0.72618  0.37494  1.0000
  H   H2056     1.0  0.55581  0.80252  0.38482  1.0000
  Fe  Fe176     1.0  0.71319  0.76331  0.33479  1.0000
  C   C2567     1.0  0.69438  0.61976  0.34317  1.0000
  H   H2057     1.0  0.59911  0.85066  0.35576  1.0000
  C   C2568     1.0  0.58309  0.94531  0.43716  1.0000
  H   H2058     1.0  0.68625  0.65261  0.44260  1.0000
  H   H2059     1.0  0.63173  0.82563  0.38440  1.0000
  H   H2060     1.0  0.74345  0.97888  0.60201  1.0000
  H   H2061     1.0  0.66388  0.60897  0.35744  1.0000
  C   C2569     1.0  0.54509  0.53647  0.50166  1.0000
  H   H2062     1.0  0.51521  0.56745  0.61496  1.0000
  C   C2570     1.0  0.73204  0.72433  0.43823  1.0000
  H   H2063     1.0  0.70848  0.68365  0.43402  1.0000
  C   C2571     1.0  0.61843  0.63392  0.35255  1.0000
  H   H2064     1.0  0.69663  0.60135  0.35303  1.0000
  H   H2065     1.0  0.57581  0.93049  0.42897  1.0000
  H   H2066     1.0  0.54286  0.89698  0.33424  1.0000
  H   H2067     1.0  0.57760  0.72900  0.35864  1.0000
  C   C2572     1.0  0.70808  0.67246  0.44872  1.0000
  C   C2573     1.0  0.68749  0.66994  0.33950  1.0000
  H   H2068     1.0  0.52272  0.51531  0.35978  1.0000
  C   C2574     1.0  0.57704  0.96076  0.45391  1.0000
  C   C2575     1.0  0.55384  0.77653  0.41241  1.0000
  C   C2576     1.0  0.69547  0.65479  0.45347  1.0000
  C   C2577     1.0  0.61814  0.73085  0.33315  1.0000
  C   C2578     1.0  0.63957  0.94859  0.33689  1.0000
  H   H2069     1.0  0.65280  0.98588  0.39304  1.0000
  C   C2579     1.0  0.60732  0.97038  0.44061  1.0000
  H   H2070     1.0  0.67518  0.92544  0.35007  1.0000
  C   C2580     1.0  0.60133  0.59993  0.37007  1.0000
  H   H2071     1.0  0.62623  0.86407  0.36100  1.0000
  H   H2072     1.0  0.54906  0.65790  0.33108  1.0000
  H   H2073     1.0  0.58861  0.50298  0.36848  1.0000
  C   C2581     1.0  0.62104  0.86873  0.34636  1.0000
  H   H2074     1.0  0.59940  0.57900  0.37714  1.0000
  H   H2075     1.0  0.60842  0.67544  0.34596  1.0000
  H   H2076     1.0  0.68814  0.64733  0.36857  1.0000
  C   C2582     1.0  0.52063  0.78996  0.38413  1.0000
  C   C2583     1.0  0.61660  0.73306  0.35459  1.0000
  C   C2584     1.0  0.60197  0.73354  0.36399  1.0000
  C   C2585     1.0  0.64128  0.97783  0.34159  1.0000
  P   P86       1.0  0.60013  0.73726  0.39160  1.0000
  C   C2586     1.0  0.60356  0.70200  0.40254  1.0000
  C   C2587     1.0  0.61351  0.76406  0.40043  1.0000
  C   C2588     1.0  0.61851  0.76344  0.42090  1.0000
  C   C2589     1.0  0.62841  0.78486  0.42802  1.0000
  C   C2590     1.0  0.63323  0.80718  0.41483  1.0000
  C   C2591     1.0  0.75095  0.52049  0.46870  1.0000
  C   C2592     1.0  0.66426  0.57043  0.33982  1.0000
  C   C2593     1.0  0.61843  0.69357  0.40798  1.0000
  C   C2594     1.0  0.62085  0.66649  0.41700  1.0000
  C   C2595     1.0  0.60855  0.64751  0.42022  1.0000
  C   C2596     1.0  0.59387  0.65532  0.41409  1.0000
  C   C2597     1.0  0.59141  0.68229  0.40504  1.0000
  C   C2598     1.0  0.58168  0.75160  0.39938  1.0000
  C   C2599     1.0  0.65037  0.64646  0.38091  1.0000
  H   H2077     1.0  0.62680  0.73506  0.36375  1.0000
  C   C2600     1.0  0.58899  0.72989  0.35177  1.0000
  H   H2078     1.0  0.61466  0.74653  0.43140  1.0000
  H   H2079     1.0  0.63230  0.78417  0.44379  1.0000
  H   H2080     1.0  0.64092  0.82375  0.42031  1.0000
  H   H2081     1.0  0.65885  0.90107  0.37705  1.0000
  C   C2601     1.0  0.65903  0.65940  0.39628  1.0000
  H   H2082     1.0  0.62813  0.70783  0.40533  1.0000
  H   H2083     1.0  0.63223  0.66009  0.42157  1.0000
  H   H2084     1.0  0.61039  0.62666  0.42738  1.0000
  H   H2085     1.0  0.58436  0.64037  0.41621  1.0000
  H   H2086     1.0  0.58001  0.68767  0.40002  1.0000
  H   H2087     1.0  0.57979  0.72684  0.42783  1.0000
  H   H2088     1.0  0.72936  0.65852  0.49128  1.0000
  C   C2602     1.0  0.53169  0.55083  0.49623  1.0000
  C   C2603     1.0  0.75365  0.54202  0.54457  1.0000
  C   C2604     1.0  0.71985  0.65839  0.48082  1.0000
  H   H2089     1.0  0.51612  0.91980  0.43343  1.0000
  H   H2090     1.0  0.53765  0.52152  0.32729  1.0000
  C   C2605     1.0  0.56103  0.78582  0.39410  1.0000
  H   H2091     1.0  0.55699  0.51434  0.52580  1.0000
  C   C2606     1.0  0.65171  0.92921  0.33992  1.0000
  H   H2092     1.0  0.61892  0.97521  0.43549  1.0000
  C   C2607     1.0  0.65856  0.83848  0.34980  1.0000
  C   C2608     1.0  0.66383  0.81984  0.36510  1.0000
  C   C2609     1.0  0.72037  0.67450  0.46242  1.0000
  C   C2610     1.0  0.66607  0.85999  0.38847  1.0000
  H   H2093     1.0  0.74976  0.61517  0.40785  1.0000
  C   C2611     1.0  0.66562  0.93978  0.34754  1.0000
  C   C2612     1.0  0.60564  0.86137  0.34358  1.0000
  H   H2094     1.0  0.70718  0.62740  0.49927  1.0000
  C   C2613     1.0  0.61581  0.60689  0.36186  1.0000
  C   C2614     1.0  0.71471  0.76329  0.42935  1.0000
  C   C2615     1.0  0.57496  0.77362  0.38772  1.0000
  S   S350      1.0  0.53401  0.80342  0.32820  1.0000
  C   C2616     1.0  0.71888  0.74080  0.44256  1.0000
  C   C2617     1.0  0.68965  0.64575  0.35198  1.0000
  C   C2618     1.0  0.64819  0.96596  0.39941  1.0000
  H   H2095     1.0  0.53413  0.58123  0.55745  1.0000
  C   C2619     1.0  0.53972  0.86325  0.42212  1.0000
  C   C2620     1.0  0.52026  0.50178  0.34665  1.0000
  C   C2621     1.0  0.75441  0.63187  0.41762  1.0000
  H   H2096     1.0  0.74977  0.77157  0.50578  1.0000
  C   C2622     1.0  0.75347  0.51026  0.50533  1.0000
  H   H2097     1.0  0.67006  0.95182  0.41048  1.0000
  C   C2623     1.0  0.51076  0.57040  0.63051  1.0000
  H   H2098     1.0  0.66942  0.86847  0.40325  1.0000
  H   H2099     1.0  0.73087  0.53259  0.53346  1.0000
  H   H2100     1.0  0.62502  0.97544  0.39105  1.0000
  C   C2624     1.0  0.51079  0.82937  0.40512  1.0000
  H   H2101     1.0  0.72027  0.78635  0.40114  1.0000
  H   H2102     1.0  0.53052  0.55931  0.48072  1.0000
  H   H2103     1.0  0.63163  0.49021  0.39824  1.0000
  C   C2625     1.0  0.52457  0.59222  0.56474  1.0000
  H   H2104     1.0  0.58281  0.66277  0.36014  1.0000
  H   H2105     1.0  0.58935  0.88722  0.38296  1.0000
  C   C2626     1.0  0.65690  0.86802  0.35371  1.0000
  C   C2627     1.0  0.63251  0.95992  0.39827  1.0000
  C   C2628     1.0  0.58942  0.61995  0.36930  1.0000
  C   C2629     1.0  0.66383  0.68802  0.39405  1.0000
  C   C2630     1.0  0.69508  0.63876  0.47178  1.0000
  H   H2106     1.0  0.68451  0.69044  0.34642  1.0000
  C   C2631     1.0  0.62804  0.80827  0.39458  1.0000
  C   C2632     1.0  0.52732  0.61804  0.57513  1.0000
  H   H2107     1.0  0.54050  0.84370  0.41321  1.0000
  S   S351      1.0  0.69599  0.79872  0.33936  1.0000
  C   C2633     1.0  0.65966  0.70385  0.37664  1.0000
  H   H2108     1.0  0.70014  0.86621  0.36067  1.0000
  C   C2634     1.0  0.59058  0.72812  0.33032  1.0000
  C   C2635     1.0  0.59862  0.86737  0.32487  1.0000
  C   C2636     1.0  0.60655  0.65426  0.35248  1.0000
  C   C2637     1.0  0.56063  0.75512  0.42439  1.0000
  H   H2109     1.0  0.50929  0.56449  0.50578  1.0000
  S   S352      1.0  0.54869  0.71960  0.32900  1.0000
  C   C2638     1.0  0.52869  0.50528  0.32827  1.0000
  C   C2639     1.0  0.58603  0.98125  0.46379  1.0000
  C   C2640     1.0  0.66735  0.96905  0.35204  1.0000
  C   C2641     1.0  0.73891  0.58469  0.56825  1.0000
  C   C2642     1.0  0.55222  0.87119  0.43409  1.0000
  C   C2643     1.0  0.52100  0.54271  0.53067  1.0000
  H   H2110     1.0  0.70449  0.77578  0.43259  1.0000
  C   C2644     1.0  0.54657  0.52542  0.52162  1.0000
  C   C2645     1.0  0.53464  0.52876  0.53615  1.0000
  H   H2111     1.0  0.53886  0.62666  0.57577  1.0000
  C   C2646     1.0  0.73037  0.56694  0.55538  1.0000
  C   C2647     1.0  0.50721  0.59812  0.63743  1.0000
  H   H2112     1.0  0.64799  0.70377  0.34806  1.0000
  H   H2113     1.0  0.71810  0.56996  0.55423  1.0000
  H   H2114     1.0  0.63109  0.78961  0.33845  1.0000
  H   H2115     1.0  0.55427  0.53384  0.49030  1.0000
  H   H2116     1.0  0.62803  0.50808  0.44746  1.0000
  H   H2117     1.0  0.71184  0.73619  0.45614  1.0000
  C   C2648     1.0  0.52643  0.88035  0.42195  1.0000
  H   H2118     1.0  0.60100  0.93250  0.33276  1.0000
  H   H2119     1.0  0.67814  0.97691  0.35800  1.0000
  H   H2120     1.0  0.52722  0.78244  0.37088  1.0000
  H   H2121     1.0  0.56115  0.90205  0.45549  1.0000
  H   H2122     1.0  0.62491  0.59112  0.36296  1.0000
  C   C2649     1.0  0.72365  0.76946  0.41176  1.0000
  H   H2123     1.0  0.51836  0.97785  0.45161  1.0000
  H   H2124     1.0  0.51149  0.52540  0.63806  1.0000
  H   H2125     1.0  0.56235  0.85778  0.43429  1.0000
  H   H2126     1.0  0.73328  0.60147  0.57711  1.0000
  H   H2127     1.0  0.73079  0.69690  0.33528  1.0000
  H   H2128     1.0  0.73580  0.64433  0.33908  1.0000
  C   C2650     1.0  0.74099  0.73077  0.42057  1.0000
  C   C2651     1.0  0.65793  0.94683  0.40940  1.0000
  C   C2652     1.0  0.51539  0.97753  0.46788  1.0000
  C   C2653     1.0  0.64601  0.60926  0.33452  1.0000
  C   C2654     1.0  0.75148  0.60791  0.51062  1.0000
  H   H2129     1.0  0.74346  0.75766  0.39348  1.0000
  C   C2655     1.0  0.74446  0.64933  0.42914  1.0000
  C   C2656     1.0  0.55162  0.89633  0.44583  1.0000
  H   H2130     1.0  0.65957  0.90711  0.42636  1.0000
  H   H2131     1.0  0.65590  0.82978  0.33483  1.0000
  H   H2132     1.0  0.75109  0.71829  0.41666  1.0000
  C   C2657     1.0  0.51962  0.55371  0.51057  1.0000
  C   C2658     1.0  0.61013  0.49981  0.38397  1.0000
  H   H2133     1.0  0.73732  0.75292  0.47479  1.0000
  C   C2659     1.0  0.74418  0.73844  0.48387  1.0000
  H   H2134     1.0  0.67370  0.56140  0.34839  1.0000
  C   C2660     1.0  0.75027  0.67116  0.44177  1.0000
  C   C2661     1.0  0.74616  0.70947  0.47814  1.0000
  H   H2135     1.0  0.62881  0.94131  0.33080  1.0000
  H   H2136     1.0  0.75234  0.61270  0.52686  1.0000
  H   H2137     1.0  0.50884  0.61658  0.62734  1.0000
  H   H2138     1.0  0.66243  0.63471  0.65442  1.0000
  P   P87       1.0  0.64955  0.89130  0.33376  1.0000
  C   C2662     1.0  0.75126  0.74920  0.50148  1.0000
  H   H2139     1.0  0.75165  0.55492  0.61193  1.0000
  H   H2140     1.0  0.62941  0.73150  0.32584  1.0000
  P   P88       1.0  0.50911  0.86766  0.40989  1.0000
  C   C2663     1.0  0.59871  0.48995  0.37094  1.0000
  C   C2664     1.0  0.50959  0.58108  0.56364  1.0000
  H   H2141     1.0  0.51725  0.65298  0.59250  1.0000
  C   C2665     1.0  0.51517  0.63289  0.58453  1.0000
  C   C2666     1.0  0.60117  0.98602  0.45717  1.0000
  H   H2142     1.0  0.50781  0.95358  0.36430  1.0000
  H   H2143     1.0  0.73135  0.50166  0.45403  1.0000
  C   C2667     1.0  0.62954  0.88215  0.33036  1.0000
  C   C2668     1.0  0.73229  0.48990  0.48618  1.0000
  C   C2669     1.0  0.74014  0.49317  0.50465  1.0000
  C   C2670     1.0  0.75277  0.96728  0.64776  1.0000
  C   C2671     1.0  0.75477  0.58102  0.56947  1.0000
  H   H2144     1.0  0.75272  0.94703  0.63951  1.0000
  C   C2672     1.0  0.75087  0.98045  0.58846  1.0000
  H   H2145     1.0  0.75484  0.53177  0.45488  1.0000
  S   S353      1.0  0.55700  0.49092  0.36363  1.0000
  C   C2673     1.0  0.65761  0.55463  0.32404  1.0000
  C   C2674     1.0  0.75534  0.69164  0.49032  1.0000
  H   H2146     1.0  0.56947  0.98612  0.36643  1.0000
  H   H2147     1.0  0.60602  0.80388  0.32409  1.0000
  Fe  Fe177     1.0  0.53864  0.55109  0.79130  1.0000
  S   S354      1.0  0.53386  0.53248  0.82320  1.0000
  S   S355      1.0  0.51788  0.55386  0.76963  1.0000
  Fe  Fe178     1.0  0.57331  0.55626  0.80015  1.0000
  S   S356      1.0  0.57060  0.53881  0.83222  1.0000
  S   S357      1.0  0.59680  0.57333  0.78994  1.0000
  Fe  Fe179     1.0  0.55502  0.50540  0.81863  1.0000
  H   H2148     1.0  0.74064  0.94247  0.96423  1.0000
  Fe  Fe180     1.0  0.54983  0.56736  0.83419  1.0000
  S   S358      1.0  0.54508  0.59228  0.86371  1.0000
  S   S359      1.0  0.55895  0.52143  0.78590  1.0000
  S   S360      1.0  0.55341  0.58727  0.80286  1.0000
  Fe  Fe181     1.0  0.71682  0.51800  0.78838  1.0000
  S   S361      1.0  0.72650  0.53604  0.81784  1.0000
  S   S362      1.0  0.72768  0.50649  0.75655  1.0000
  Fe  Fe182     1.0  0.68333  0.52048  0.80620  1.0000
  S   S363      1.0  0.69070  0.53807  0.83668  1.0000
  S   S364      1.0  0.65917  0.50365  0.80008  1.0000
  Fe  Fe183     1.0  0.70661  0.56747  0.81850  1.0000
  S   S365      1.0  0.70852  0.61698  0.82195  1.0000
  Fe  Fe184     1.0  0.70983  0.50557  0.83408  1.0000
  H   H2149     1.0  0.58732  0.96093  0.93763  1.0000
  S   S366      1.0  0.69801  0.55150  0.78782  1.0000
  H   H2150     1.0  0.64704  0.56263  0.69121  1.0000
  Fe  Fe185     1.0  0.55038  0.75595  0.89539  1.0000
  S   S367      1.0  0.55419  0.73852  0.92729  1.0000
  S   S368      1.0  0.54774  0.72963  0.86609  1.0000
  Fe  Fe186     1.0  0.55464  0.81933  0.90827  1.0000
  S   S369      1.0  0.55866  0.80602  0.94141  1.0000
  S   S370      1.0  0.55923  0.86707  0.89998  1.0000
  Fe  Fe187     1.0  0.57363  0.77098  0.92814  1.0000
  S   S371      1.0  0.59707  0.75576  0.93899  1.0000
  Fe  Fe188     1.0  0.53882  0.77470  0.93815  1.0000
  S   S372      1.0  0.51889  0.77358  0.96238  1.0000
  S   S373      1.0  0.57077  0.78581  0.89555  1.0000
  S   S374      1.0  0.53382  0.79061  0.90576  1.0000
  Fe  Fe189     1.0  0.68501  0.80312  0.92092  1.0000
  S   S375      1.0  0.68982  0.78661  0.88895  1.0000
  S   S376      1.0  0.66120  0.82163  0.92790  1.0000
  Fe  Fe190     1.0  0.71948  0.80225  0.93293  1.0000
  S   S377      1.0  0.72622  0.78493  0.90143  1.0000
  S   S378      1.0  0.73974  0.81026  0.95510  1.0000
  Fe  Fe191     1.0  0.70967  0.81766  0.88899  1.0000
  S   S379      1.0  0.71530  0.84594  0.86115  1.0000
  Fe  Fe192     1.0  0.70578  0.75501  0.90394  1.0000
  S   S380      1.0  0.70521  0.70587  0.89808  1.0000
  S   S381      1.0  0.70407  0.83627  0.91992  1.0000
  S   S382      1.0  0.69991  0.77000  0.93650  1.0000
  H   H2151     1.0  0.69820  0.50741  0.69599  1.0000
  C   C2675     1.0  0.53661  0.65989  0.79261  1.0000
  C   C2676     1.0  0.73890  0.85848  0.98143  1.0000
  C   C2677     1.0  0.50884  0.63965  0.84126  1.0000
  C   C2678     1.0  0.61478  0.77427  0.93522  1.0000
  C   C2679     1.0  0.61542  0.80361  0.93027  1.0000
  C   C2680     1.0  0.62974  0.81770  0.92823  1.0000
  C   C2681     1.0  0.64356  0.80253  0.93051  1.0000
  C   C2682     1.0  0.64291  0.77314  0.93538  1.0000
  C   C2683     1.0  0.62859  0.75921  0.93791  1.0000
  H   H2152     1.0  0.60489  0.81555  0.92839  1.0000
  H   H2153     1.0  0.63010  0.84049  0.92484  1.0000
  H   H2154     1.0  0.65343  0.76124  0.93756  1.0000
  H   H2155     1.0  0.62817  0.73667  0.94215  1.0000
  C   C2684     1.0  0.70605  0.68173  0.87654  1.0000
  C   C2685     1.0  0.70389  0.65193  0.88006  1.0000
  C   C2686     1.0  0.70471  0.63183  0.86372  1.0000
  C   C2687     1.0  0.70776  0.64118  0.84347  1.0000
  C   C2688     1.0  0.70986  0.67100  0.83992  1.0000
  C   C2689     1.0  0.70896  0.69112  0.85626  1.0000
  H   H2156     1.0  0.70161  0.64430  0.89562  1.0000
  H   H2157     1.0  0.70297  0.60911  0.86681  1.0000
  H   H2158     1.0  0.71220  0.67862  0.82438  1.0000
  H   H2159     1.0  0.71068  0.71385  0.85320  1.0000
  C   C2690     1.0  0.70392  0.94253  0.86163  1.0000
  C   C2691     1.0  0.69955  0.92496  0.87844  1.0000
  C   C2692     1.0  0.70312  0.89544  0.87862  1.0000
  C   C2693     1.0  0.71109  0.88319  0.86195  1.0000
  C   C2694     1.0  0.71549  0.90079  0.84517  1.0000
  C   C2695     1.0  0.71198  0.93040  0.84500  1.0000
  H   H2160     1.0  0.69339  0.93421  0.89143  1.0000
  H   H2161     1.0  0.69952  0.88218  0.89154  1.0000
  H   H2162     1.0  0.72165  0.89141  0.83230  1.0000
  H   H2163     1.0  0.71564  0.94388  0.83216  1.0000
  H   H2164     1.0  0.72725  0.86177  0.97653  1.0000
  H   H2165     1.0  0.52281  0.70727  0.83917  1.0000
  C   C2696     1.0  0.63794  0.50247  0.86924  1.0000
  H   H2166     1.0  0.73532  0.49374  0.71409  1.0000
  H   H2167     1.0  0.53560  0.93665  0.91183  1.0000
  C   C2697     1.0  0.54363  0.93092  0.84931  1.0000
  C   C2698     1.0  0.53616  0.90412  0.85189  1.0000
  C   C2699     1.0  0.54094  0.88403  0.86696  1.0000
  C   C2700     1.0  0.55330  0.89047  0.87966  1.0000
  C   C2701     1.0  0.56094  0.91705  0.87677  1.0000
  C   C2702     1.0  0.55612  0.93711  0.86177  1.0000
  H   H2168     1.0  0.52651  0.89897  0.84231  1.0000
  H   H2169     1.0  0.53493  0.86373  0.86892  1.0000
  H   H2170     1.0  0.57071  0.92216  0.88613  1.0000
  H   H2171     1.0  0.56210  0.95734  0.85967  1.0000
  C   C2703     1.0  0.54598  0.63048  0.86417  1.0000
  C   C2704     1.0  0.54305  0.64498  0.88281  1.0000
  C   C2705     1.0  0.54355  0.67533  0.88368  1.0000
  C   C2706     1.0  0.54698  0.69145  0.86587  1.0000
  C   C2707     1.0  0.54985  0.67693  0.84723  1.0000
  C   C2708     1.0  0.54938  0.64663  0.84638  1.0000
  H   H2172     1.0  0.54036  0.63270  0.89665  1.0000
  H   H2173     1.0  0.54126  0.68624  0.89812  1.0000
  H   H2174     1.0  0.55253  0.68921  0.83339  1.0000
  H   H2175     1.0  0.55162  0.63581  0.83194  1.0000
  C   C2709     1.0  0.61394  0.55388  0.79437  1.0000
  C   C2710     1.0  0.61404  0.52373  0.79486  1.0000
  C   C2711     1.0  0.62803  0.50881  0.79634  1.0000
  C   C2712     1.0  0.64199  0.52376  0.79813  1.0000
  C   C2713     1.0  0.64187  0.55390  0.79823  1.0000
  C   C2714     1.0  0.62791  0.56887  0.79608  1.0000
  H   H2176     1.0  0.60340  0.51195  0.79331  1.0000
  C   C2715     1.0  0.51025  0.74692  0.97919  1.0000
  H   H2177     1.0  0.65254  0.56562  0.79970  1.0000
  H   H2178     1.0  0.62791  0.59218  0.79577  1.0000
  C   C2716     1.0  0.74292  0.95315  0.72648  1.0000
  H   H2179     1.0  0.72587  0.97077  0.74770  1.0000
  C   C2717     1.0  0.60426  0.97326  0.89074  1.0000
  H   H2180     1.0  0.73461  0.94111  0.71781  1.0000
  H   H2181     1.0  0.50983  0.69836  0.76407  1.0000
  C   C2718     1.0  0.74303  0.57013  0.73507  1.0000
  C   C2719     1.0  0.66794  0.59567  0.75149  1.0000
  H   H2182     1.0  0.66536  0.68711  0.96072  1.0000
  H   H2183     1.0  0.68338  0.64183  0.79658  1.0000
  H   H2184     1.0  0.70147  0.62077  0.77129  1.0000
  C   C2720     1.0  0.66324  0.62458  0.78214  1.0000
  C   C2721     1.0  0.65771  0.60786  0.76596  1.0000
  C   C2722     1.0  0.74448  0.49078  0.74471  1.0000
  C   C2723     1.0  0.61444  0.57398  0.73729  1.0000
  H   H2185     1.0  0.65534  0.63337  0.79355  1.0000
  H   H2186     1.0  0.64550  0.60410  0.76518  1.0000
  H   H2187     1.0  0.63221  0.60429  0.72922  1.0000
  C   C2724     1.0  0.68163  0.53551  0.71069  1.0000
  C   C2725     1.0  0.67692  0.52660  0.74713  1.0000
  C   C2726     1.0  0.71753  0.95117  0.92839  1.0000
  C   C2727     1.0  0.53222  0.71122  0.79596  1.0000
  C   C2728     1.0  0.51832  0.49291  0.70981  1.0000
  C   C2729     1.0  0.73903  0.96093  0.88687  1.0000
  H   H2188     1.0  0.56381  0.92078  0.92226  1.0000
  C   C2730     1.0  0.60657  0.51190  0.86461  1.0000
  H   H2189     1.0  0.74832  0.78605  0.80855  1.0000
  H   H2190     1.0  0.65012  0.49939  0.87119  1.0000
  C   C2731     1.0  0.72660  0.92622  0.92960  1.0000
  H   H2191     1.0  0.53268  0.63779  0.79363  1.0000
  C   C2732     1.0  0.50944  0.57922  0.75218  1.0000
  H   H2192     1.0  0.62204  0.97181  0.83201  1.0000
  H   H2193     1.0  0.61993  0.50355  0.74972  1.0000
  C   C2733     1.0  0.70229  0.95072  0.93551  1.0000
  C   C2734     1.0  0.72635  0.56354  0.70605  1.0000
  C   C2735     1.0  0.61717  0.52471  0.85091  1.0000
  C   C2736     1.0  0.53748  0.51710  0.73010  1.0000
  C   C2737     1.0  0.52207  0.95523  0.88813  1.0000
  H   H2194     1.0  0.70227  0.81578  0.81880  1.0000
  C   C2738     1.0  0.54624  0.93539  0.97652  1.0000
  S   S383      1.0  0.53683  0.95612  0.83065  1.0000
  H   H2195     1.0  0.61320  0.53857  0.83858  1.0000
  C   C2739     1.0  0.58839  0.96755  0.92161  1.0000
  C   C2740     1.0  0.55496  0.95344  0.94299  1.0000
  C   C2741     1.0  0.74964  0.95577  0.90247  1.0000
  H   H2196     1.0  0.68980  0.49190  0.76053  1.0000
  H   H2197     1.0  0.56897  0.69788  0.78015  1.0000
  C   C2742     1.0  0.60614  0.79222  0.86968  1.0000
  C   C2743     1.0  0.59940  0.78788  0.85056  1.0000
  C   C2744     1.0  0.59922  0.81029  0.83603  1.0000
  C   C2745     1.0  0.60552  0.83723  0.84076  1.0000
  C   C2746     1.0  0.61164  0.84210  0.86032  1.0000
  C   C2747     1.0  0.61232  0.81913  0.87446  1.0000
  P   P89       1.0  0.61998  0.87646  0.86693  1.0000
  C   C2748     1.0  0.61201  0.90619  0.85252  1.0000
  C   C2749     1.0  0.61532  0.88387  0.89362  1.0000
  C   C2750     1.0  0.62586  0.89769  0.90641  1.0000
  C   C2751     1.0  0.62242  0.90139  0.92740  1.0000
  C   C2752     1.0  0.60821  0.89243  0.93554  1.0000
  C   C2753     1.0  0.59740  0.87994  0.92267  1.0000
  C   C2754     1.0  0.60092  0.87572  0.90179  1.0000
  C   C2755     1.0  0.62114  0.93030  0.84732  1.0000
  C   C2756     1.0  0.61497  0.95330  0.83615  1.0000
  H   H2198     1.0  0.74580  0.50400  0.87099  1.0000
  C   C2757     1.0  0.59038  0.92904  0.83590  1.0000
  C   C2758     1.0  0.59644  0.90617  0.84731  1.0000
  C   C2759     1.0  0.64031  0.87223  0.86197  1.0000
  C   C2760     1.0  0.64988  0.86094  0.87722  1.0000
  C   C2761     1.0  0.66548  0.85652  0.87296  1.0000
  C   C2762     1.0  0.67153  0.86245  0.85330  1.0000
  C   C2763     1.0  0.66204  0.87304  0.83789  1.0000
  C   C2764     1.0  0.64645  0.87769  0.84213  1.0000
  H   H2199     1.0  0.60642  0.77485  0.88095  1.0000
  H   H2200     1.0  0.59428  0.76716  0.84710  1.0000
  H   H2201     1.0  0.59405  0.80683  0.82118  1.0000
  H   H2202     1.0  0.60544  0.85419  0.82923  1.0000
  H   H2203     1.0  0.61760  0.82203  0.88925  1.0000
  H   H2204     1.0  0.63687  0.90497  0.90034  1.0000
  H   H2205     1.0  0.63086  0.91085  0.93741  1.0000
  H   H2206     1.0  0.60561  0.89490  0.95184  1.0000
  H   H2207     1.0  0.58637  0.87286  0.92884  1.0000
  H   H2208     1.0  0.59245  0.86559  0.89213  1.0000
  H   H2209     1.0  0.63300  0.93146  0.85192  1.0000
  C   C2765     1.0  0.57955  0.49642  0.89607  1.0000
  C   C2766     1.0  0.50881  0.61291  0.85130  1.0000
  C   C2767     1.0  0.74497  0.90736  0.80272  1.0000
  H   H2210     1.0  0.58893  0.88855  0.85202  1.0000
  H   H2211     1.0  0.64535  0.85493  0.89231  1.0000
  H   H2212     1.0  0.67284  0.84803  0.88487  1.0000
  H   H2213     1.0  0.68356  0.85851  0.84995  1.0000
  H   H2214     1.0  0.66678  0.87750  0.82264  1.0000
  H   H2215     1.0  0.63918  0.88523  0.82986  1.0000
  C   C2768     1.0  0.61155  0.49399  0.88076  1.0000
  C   C2769     1.0  0.50923  0.62445  0.73266  1.0000
  H   H2216     1.0  0.52674  0.71340  0.97343  1.0000
  C   C2770     1.0  0.59963  0.95256  0.83030  1.0000
  H   H2217     1.0  0.59486  0.97045  0.82167  1.0000
  C   C2771     1.0  0.67398  0.54265  0.72923  1.0000
  C   C2772     1.0  0.63793  0.53350  0.74128  1.0000
  H   H2218     1.0  0.60534  0.58980  0.73649  1.0000
  C   C2773     1.0  0.51482  0.51904  0.69988  1.0000
  H   H2219     1.0  0.61238  0.95673  0.91959  1.0000
  H   H2220     1.0  0.72208  0.97096  0.92184  1.0000
  C   C2774     1.0  0.71363  0.81905  0.81211  1.0000
  C   C2775     1.0  0.55718  0.69371  0.78484  1.0000
  C   C2776     1.0  0.54739  0.71663  0.78963  1.0000
  C   C2777     1.0  0.64158  0.56204  0.73565  1.0000
  H   H2221     1.0  0.68425  0.92513  0.94972  1.0000
  H   H2222     1.0  0.74842  0.85799  0.86215  1.0000
  C   C2778     1.0  0.55684  0.50277  0.87533  1.0000
  C   C2779     1.0  0.66973  0.69671  0.92863  1.0000
  C   C2780     1.0  0.66048  0.68859  0.94551  1.0000
  C   C2781     1.0  0.64496  0.68233  0.94270  1.0000
  C   C2782     1.0  0.63864  0.68457  0.92307  1.0000
  C   C2783     1.0  0.64778  0.69359  0.90615  1.0000
  C   C2784     1.0  0.66346  0.69896  0.90900  1.0000
  P   P90       1.0  0.63998  0.69695  0.88063  1.0000
  C   C2785     1.0  0.64999  0.67056  0.86515  1.0000
  C   C2786     1.0  0.61944  0.69189  0.88096  1.0000
  C   C2787     1.0  0.61236  0.67171  0.86809  1.0000
  C   C2788     1.0  0.59638  0.66866  0.86849  1.0000
  C   C2789     1.0  0.58741  0.68601  0.88143  1.0000
  C   C2790     1.0  0.59431  0.70673  0.89374  1.0000
  C   C2791     1.0  0.61026  0.70982  0.89342  1.0000
  C   C2792     1.0  0.66134  0.67917  0.85074  1.0000
  C   C2793     1.0  0.66965  0.65854  0.83963  1.0000
  C   C2794     1.0  0.66689  0.62918  0.84299  1.0000
  C   C2795     1.0  0.65580  0.62041  0.85756  1.0000
  C   C2796     1.0  0.64748  0.64101  0.86878  1.0000
  C   C2797     1.0  0.64265  0.73286  0.87033  1.0000
  C   C2798     1.0  0.64856  0.75509  0.88245  1.0000
  C   C2799     1.0  0.64992  0.78302  0.87448  1.0000
  C   C2800     1.0  0.64542  0.78903  0.85434  1.0000
  C   C2801     1.0  0.63934  0.76710  0.84223  1.0000
  C   C2802     1.0  0.63789  0.73911  0.85022  1.0000
  H   H2223     1.0  0.68181  0.70130  0.93070  1.0000
  H   H2224     1.0  0.63777  0.67602  0.95578  1.0000
  H   H2225     1.0  0.62662  0.67947  0.92133  1.0000
  H   H2226     1.0  0.67085  0.70517  0.89607  1.0000
  H   H2227     1.0  0.61903  0.65851  0.85760  1.0000
  H   H2228     1.0  0.59087  0.65295  0.85872  1.0000
  H   H2229     1.0  0.57508  0.68354  0.88188  1.0000
  H   H2230     1.0  0.58729  0.72036  0.90361  1.0000
  H   H2231     1.0  0.61541  0.72611  0.90304  1.0000
  H   H2232     1.0  0.66416  0.70171  0.84847  1.0000
  H   H2233     1.0  0.67862  0.66534  0.82891  1.0000
  H   H2234     1.0  0.67369  0.61328  0.83471  1.0000
  H   H2235     1.0  0.65389  0.59764  0.86044  1.0000
  H   H2236     1.0  0.63922  0.63395  0.88045  1.0000
  H   H2237     1.0  0.65204  0.75116  0.89810  1.0000
  H   H2238     1.0  0.65444  0.79993  0.88411  1.0000
  H   H2239     1.0  0.64648  0.81072  0.84822  1.0000
  H   H2240     1.0  0.63560  0.77185  0.82674  1.0000
  H   H2241     1.0  0.63296  0.72235  0.84081  1.0000
  H   H2242     1.0  0.58112  0.52580  0.92194  1.0000
  C   C2803     1.0  0.51647  0.71938  0.98196  1.0000
  C   C2804     1.0  0.57444  0.51878  0.90902  1.0000
  C   C2805     1.0  0.73964  0.80244  0.80656  1.0000
  C   C2806     1.0  0.72086  0.90117  0.77150  1.0000
  H   H2243     1.0  0.52005  0.56485  0.69857  1.0000
  H   H2244     1.0  0.73719  0.56383  0.67612  1.0000
  H   H2245     1.0  0.67127  0.53193  0.76165  1.0000
  C   C2807     1.0  0.55648  0.90226  0.95113  1.0000
  H   H2246     1.0  0.59457  0.51658  0.86255  1.0000
  C   C2808     1.0  0.51939  0.97936  0.87573  1.0000
  C   C2809     1.0  0.71901  0.90152  0.75000  1.0000
  C   C2810     1.0  0.70624  0.91489  0.74139  1.0000
  C   C2811     1.0  0.69520  0.92790  0.75412  1.0000
  C   C2812     1.0  0.69691  0.92753  0.77550  1.0000
  C   C2813     1.0  0.70973  0.91444  0.78415  1.0000
  C   C2814     1.0  0.53409  0.54312  0.72029  1.0000
  C   C2815     1.0  0.54199  0.98136  0.90604  1.0000
  H   H2247     1.0  0.64105  0.52962  0.84241  1.0000
  H   H2248     1.0  0.73726  0.95219  0.67171  1.0000
  C   C2816     1.0  0.61565  0.50401  0.96419  1.0000
  C   C2817     1.0  0.69210  0.51268  0.71018  1.0000
  C   C2818     1.0  0.55006  0.90731  0.97067  1.0000
  C   C2819     1.0  0.74397  0.97027  0.66584  1.0000
  H   H2249     1.0  0.57844  0.92861  0.83146  1.0000
  H   H2250     1.0  0.55920  0.88044  0.94636  1.0000
  C   C2820     1.0  0.51115  0.71502  0.83848  1.0000
  C   C2821     1.0  0.55903  0.92522  0.93743  1.0000
  P   P91       1.0  0.50735  0.67566  0.80660  1.0000
  H   H2251     1.0  0.52482  0.72926  0.79960  1.0000
  H   H2252     1.0  0.70502  0.91545  0.72478  1.0000
  C   C2822     1.0  0.66222  0.62311  0.66898  1.0000
  H   H2253     1.0  0.68837  0.93769  0.78538  1.0000
  H   H2254     1.0  0.71097  0.91475  0.80072  1.0000
  C   C2823     1.0  0.74738  0.83540  0.97333  1.0000
  H   H2255     1.0  0.71868  0.56295  0.73787  1.0000
  C   C2824     1.0  0.62968  0.58213  0.73344  1.0000
  H   H2256     1.0  0.67676  0.65373  0.68415  1.0000
  H   H2257     1.0  0.54542  0.97983  0.96758  1.0000
  H   H2258     1.0  0.54137  0.53644  0.88488  1.0000
  C   C2825     1.0  0.72480  0.79780  0.81439  1.0000
  C   C2826     1.0  0.52982  0.98084  0.72253  1.0000
  C   C2827     1.0  0.74500  0.48700  0.72310  1.0000
  C   C2828     1.0  0.72837  0.56568  0.72730  1.0000
  P   P92       1.0  0.66122  0.57320  0.73078  1.0000
  H   H2259     1.0  0.55159  0.73861  0.78867  1.0000
  H   H2260     1.0  0.55689  0.55069  0.91472  1.0000
  C   C2829     1.0  0.54864  0.95840  0.96274  1.0000
  C   C2830     1.0  0.68923  0.61760  0.76947  1.0000
  C   C2831     1.0  0.68734  0.50378  0.74654  1.0000
  H   H2261     1.0  0.70035  0.88150  0.95297  1.0000
  C   C2832     1.0  0.55186  0.52496  0.88823  1.0000
  C   C2833     1.0  0.61811  0.52263  0.94741  1.0000
  H   H2262     1.0  0.72708  0.88173  0.94001  1.0000
  H   H2263     1.0  0.68538  0.93847  0.74744  1.0000
  C   C2834     1.0  0.67029  0.63382  0.68574  1.0000
  C   C2835     1.0  0.69501  0.49694  0.72812  1.0000
  C   C2836     1.0  0.67000  0.61894  0.70458  1.0000
  H   H2264     1.0  0.62411  0.54288  0.94952  1.0000
  H   H2265     1.0  0.55935  0.64758  0.78255  1.0000
  C   C2837     1.0  0.67899  0.62941  0.78388  1.0000
  C   C2838     1.0  0.73899  0.56570  0.69252  1.0000
  H   H2266     1.0  0.67630  0.62775  0.71732  1.0000
  H   H2267     1.0  0.67976  0.54767  0.69669  1.0000
  H   H2268     1.0  0.54584  0.51668  0.74226  1.0000
  C   C2839     1.0  0.69609  0.92561  0.94431  1.0000
  H   H2269     1.0  0.70853  0.86137  0.80118  1.0000
  H   H2270     1.0  0.53978  0.56278  0.72497  1.0000
  H   H2271     1.0  0.61523  0.97105  0.88279  1.0000
  C   C2840     1.0  0.61278  0.51523  0.92792  1.0000
  C   C2841     1.0  0.70515  0.90097  0.94607  1.0000
  H   H2272     1.0  0.52686  0.61198  0.75418  1.0000
  C   C2842     1.0  0.62265  0.52535  0.74480  1.0000
  C   C2843     1.0  0.65385  0.59747  0.67104  1.0000
  C   C2844     1.0  0.68376  0.60069  0.75339  1.0000
  C   C2845     1.0  0.60498  0.48904  0.92506  1.0000
  C   C2846     1.0  0.52961  0.49199  0.72487  1.0000
  H   H2273     1.0  0.51590  0.93532  0.88540  1.0000
  H   H2274     1.0  0.71501  0.55971  0.70011  1.0000
  C   C2847     1.0  0.51621  0.60582  0.74710  1.0000
  H   H2275     1.0  0.69525  0.96980  0.93406  1.0000
  C   C2848     1.0  0.52277  0.54419  0.70532  1.0000
  C   C2849     1.0  0.66156  0.59322  0.70680  1.0000
  C   C2850     1.0  0.72032  0.90118  0.93866  1.0000
  H   H2276     1.0  0.72749  0.89203  0.73975  1.0000
  C   C2851     1.0  0.55176  0.66538  0.78622  1.0000
  C   C2852     1.0  0.57569  0.97857  0.91114  1.0000
  C   C2853     1.0  0.63284  0.51979  0.85310  1.0000
  H   H2277     1.0  0.55025  0.49726  0.86192  1.0000
  C   C2854     1.0  0.52680  0.68275  0.79783  1.0000
  C   C2855     1.0  0.71730  0.84508  0.80216  1.0000
  C   C2856     1.0  0.75366  0.49409  0.88171  1.0000
  C   C2857     1.0  0.75532  0.86866  0.92050  1.0000
  C   C2858     1.0  0.74798  0.88807  0.88736  1.0000
  H   H2278     1.0  0.64675  0.51748  0.74329  1.0000
  C   C2859     1.0  0.73792  0.96995  0.74348  1.0000
  H   H2279     1.0  0.69191  0.59112  0.74266  1.0000
  C   C2860     1.0  0.75577  0.83815  0.89033  1.0000
  C   C2861     1.0  0.61092  0.54561  0.74296  1.0000
  P   P93       1.0  0.74637  0.92641  0.92061  1.0000
  P   P94       1.0  0.55737  0.98245  0.92439  1.0000
  H   H2280     1.0  0.72895  0.94746  0.88567  1.0000
  C   C2862     1.0  0.56065  0.53297  0.90506  1.0000
  C   C2863     1.0  0.74852  0.98593  0.75475  1.0000
  H   H2281     1.0  0.59915  0.53961  0.74667  1.0000
  C   C2864     1.0  0.60262  0.96506  0.91144  1.0000
  C   C2865     1.0  0.53338  0.95609  0.90312  1.0000
  H   H2282     1.0  0.53959  0.96657  0.72107  1.0000
  C   C2866     1.0  0.75037  0.89211  0.90853  1.0000
  C   C2867     1.0  0.65354  0.58254  0.68985  1.0000
  H   H2283     1.0  0.61463  0.53008  0.91513  1.0000
  C   C2868     1.0  0.73222  0.85006  0.79435  1.0000
  C   C2869     1.0  0.75379  0.56997  0.70021  1.0000
  H   H2284     1.0  0.61978  0.50979  0.97930  1.0000
  H   H2285     1.0  0.73780  0.94723  0.78827  1.0000
  C   C2870     1.0  0.59173  0.98447  0.88030  1.0000
  C   C2871     1.0  0.74363  0.93744  0.80115  1.0000
  H   H2286     1.0  0.51437  0.74478  0.86340  1.0000
  C   C2872     1.0  0.75275  0.93824  0.96195  1.0000
  H   H2287     1.0  0.74196  0.83980  0.75153  1.0000
  H   H2288     1.0  0.74356  0.90513  0.87779  1.0000
  H   H2289     1.0  0.74458  0.57087  0.75162  1.0000
  H   H2290     1.0  0.52519  0.98048  0.69017  1.0000
  C   C2873     1.0  0.62740  0.48973  0.88307  1.0000
  H   H2291     1.0  0.72200  0.77799  0.82261  1.0000
  P   P95       1.0  0.73749  0.88442  0.78280  1.0000
  C   C2874     1.0  0.75078  0.86124  0.87833  1.0000
  H   H2292     1.0  0.54792  0.88939  0.98115  1.0000
  H   H2293     1.0  0.51086  0.61176  0.86773  1.0000
  H   H2294     1.0  0.71612  0.76970  0.98566  1.0000
  H   H2295     1.0  0.64759  0.58917  0.65805  1.0000
  H   H2296     1.0  0.51084  0.65877  0.85029  1.0000
  H   H2297     1.0  0.51465  0.64486  0.72885  1.0000
  C   C2875     1.0  0.74124  0.98356  0.87283  1.0000
  H   H2298     1.0  0.74886  0.97846  0.81473  1.0000
  H   H2299     1.0  0.53872  0.81369  0.98548  1.0000
  S   S384      1.0  0.70004  0.97981  0.86269  1.0000
  C   C2876     1.0  0.74996  0.95526  0.81612  1.0000
  H   H2300     1.0  0.51121  0.97806  0.86336  1.0000
  C   C2877     1.0  0.75570  0.57248  0.72161  1.0000
  C   C2878     1.0  0.74336  0.82846  0.79663  1.0000
  C   C2879     1.0  0.57060  0.48852  0.87918  1.0000
  C   C2880     1.0  0.50697  0.58759  0.84006  1.0000
  C   C2881     1.0  0.75131  0.85513  0.74997  1.0000
  H   H2301     1.0  0.75447  0.87239  0.82077  1.0000
  C   C2882     1.0  0.75307  0.89545  0.81926  1.0000
  C   C2883     1.0  0.75213  0.87903  0.76314  1.0000
  H   H2302     1.0  0.75504  0.83194  0.79114  1.0000
  C   C2884     1.0  0.50674  0.64128  0.81986  1.0000
  H   H2303     1.0  0.50743  0.56689  0.84784  1.0000
  H   H2304     1.0  0.73328  0.72755  0.98912  1.0000
  Fe  Fe193     1.0  0.96318  0.45188  0.04202  1.0000
  S   S385      1.0  0.97775  0.43820  0.06880  1.0000
  C   C2885     1.0  0.77667  0.27857  0.04779  1.0000
  Fe  Fe194     1.0  0.93292  0.44026  0.06680  1.0000
  S   S386      1.0  0.94579  0.42613  0.09475  1.0000
  S   S387      1.0  0.90768  0.44415  0.07583  1.0000
  Fe  Fe195     1.0  0.96098  0.46427  0.08810  1.0000
  C   C2886     1.0  0.76309  0.32705  0.31988  1.0000
  Fe  Fe196     1.0  0.96094  0.40115  0.07328  1.0000
  S   S388      1.0  0.96757  0.35361  0.07768  1.0000
  C   C2887     1.0  0.94252  0.02198  0.18024  1.0000
  S   S389      1.0  0.94726  0.41312  0.04521  1.0000
  Fe  Fe197     1.0  0.78771  0.40562  0.04616  1.0000
  S   S390      1.0  0.78380  0.42146  0.07886  1.0000
  S   S391      1.0  0.76619  0.39672  0.02687  1.0000
  Fe  Fe198     1.0  0.82281  0.41146  0.05035  1.0000
  S   S392      1.0  0.82114  0.42650  0.08307  1.0000
  S   S393      1.0  0.84561  0.40666  0.03298  1.0000
  Fe  Fe199     1.0  0.80325  0.39165  0.08673  1.0000
  S   S394      1.0  0.80344  0.36449  0.11596  1.0000
  Fe  Fe200     1.0  0.80202  0.45513  0.07258  1.0000
  H   H2305     1.0  0.96067  0.08705  0.20829  1.0000
  S   S395      1.0  0.80628  0.37424  0.05468  1.0000
  S   S396      1.0  0.80453  0.44163  0.03919  1.0000
  Fe  Fe201     1.0  0.96319  0.15446  0.14541  1.0000
  S   S397      1.0  0.96097  0.13593  0.17733  1.0000
  S   S398      1.0  0.96415  0.12716  0.11634  1.0000
  Fe  Fe202     1.0  0.96020  0.21747  0.15994  1.0000
  S   S399      1.0  0.95780  0.20270  0.19327  1.0000
  S   S400      1.0  0.95643  0.26613  0.15394  1.0000
  Fe  Fe203     1.0  0.97710  0.17133  0.18676  1.0000
  H   H2306     1.0  0.88747  0.01866  0.16158  1.0000
  Fe  Fe204     1.0  0.94197  0.16841  0.18136  1.0000
  S   S401      1.0  0.91961  0.15395  0.19705  1.0000
  S   S402      1.0  0.98057  0.18837  0.15407  1.0000
  S   S403      1.0  0.94317  0.18478  0.14881  1.0000
  Fe  Fe205     1.0  0.80235  0.20007  0.14238  1.0000
  S   S404      1.0  0.81332  0.21792  0.17054  1.0000
  S   S405      1.0  0.79529  0.22812  0.11542  1.0000
  Fe  Fe206     1.0  0.80628  0.13662  0.15594  1.0000
  S   S406      1.0  0.81751  0.15075  0.18544  1.0000
  S   S407      1.0  0.80303  0.08771  0.15124  1.0000
  Fe  Fe207     1.0  0.79894  0.18501  0.18799  1.0000
  S   S408      1.0  0.78627  0.19221  0.21931  1.0000
  Fe  Fe208     1.0  0.83071  0.18252  0.16558  1.0000
  S   S409      1.0  0.85585  0.19458  0.16045  1.0000
  S   S410      1.0  0.78697  0.16868  0.15967  1.0000
  S   S411      1.0  0.82044  0.16671  0.13617  1.0000
  C   C2888     1.0  0.77226  0.21643  0.23020  1.0000
  P   P96       1.0  0.75743  0.28400  0.05789  1.0000
  C   C2889     1.0  0.90865  0.13509  0.13435  1.0000
  C   C2890     1.0  0.83574  0.05357  0.04670  1.0000
  C   C2891     1.0  0.85511  0.46709  0.12505  1.0000
  C   C2892     1.0  0.98533  0.17405  0.28472  1.0000
  C   C2893     1.0  0.97262  0.15862  0.29274  1.0000
  C   C2894     1.0  0.76016  0.32189  0.29905  1.0000
  H   H2307     1.0  0.79113  0.41650  0.99257  1.0000
  C   C2895     1.0  0.83739  0.29627  0.15264  1.0000
  C   C2896     1.0  0.90184  0.16521  0.18690  1.0000
  C   C2897     1.0  0.90124  0.18518  0.17070  1.0000
  C   C2898     1.0  0.88702  0.19365  0.16280  1.0000
  C   C2899     1.0  0.87323  0.18236  0.17101  1.0000
  C   C2900     1.0  0.87375  0.16234  0.18719  1.0000
  C   C2901     1.0  0.88802  0.15394  0.19518  1.0000
  H   H2308     1.0  0.91174  0.19423  0.16432  1.0000
  H   H2309     1.0  0.88669  0.20919  0.15032  1.0000
  H   H2310     1.0  0.86319  0.15368  0.19373  1.0000
  H   H2311     1.0  0.88834  0.13885  0.20791  1.0000
  H   H2312     1.0  0.81903  0.18069  0.05335  1.0000
  C   C2902     1.0  0.80577  0.02597  0.09513  1.0000
  C   C2903     1.0  0.80793  0.05591  0.09238  1.0000
  C   C2904     1.0  0.80744  0.07504  0.10929  1.0000
  C   C2905     1.0  0.80462  0.06455  0.12930  1.0000
  C   C2906     1.0  0.80264  0.03458  0.13209  1.0000
  C   C2907     1.0  0.80325  0.01541  0.11518  1.0000
  H   H2313     1.0  0.80984  0.06445  0.07699  1.0000
  H   H2314     1.0  0.80901  0.09795  0.10682  1.0000
  H   H2315     1.0  0.80043  0.02614  0.14745  1.0000
  C   C2908     1.0  0.97842  0.10200  0.05002  1.0000
  C   C2909     1.0  0.80137  0.32653  0.11534  1.0000
  C   C2910     1.0  0.80015  0.31123  0.13406  1.0000
  C   C2911     1.0  0.79892  0.28099  0.13428  1.0000
  C   C2912     1.0  0.79846  0.26580  0.11575  1.0000
  C   C2913     1.0  0.79964  0.28107  0.09700  1.0000
  C   C2914     1.0  0.80117  0.31131  0.09678  1.0000
  H   H2316     1.0  0.80033  0.32281  0.14849  1.0000
  H   H2317     1.0  0.79808  0.26954  0.14881  1.0000
  H   H2318     1.0  0.79941  0.26947  0.08260  1.0000
  H   H2319     1.0  0.80209  0.32281  0.08228  1.0000
  H   H2320     1.0  0.84970  0.39560  0.15114  1.0000
  H   H2321     1.0  0.98592  0.11944  0.05448  1.0000
  H   H2322     1.0  0.95114  0.04075  0.03287  1.0000
  C   C2915     1.0  0.96416  0.32966  0.09905  1.0000
  C   C2916     1.0  0.96814  0.30035  0.09706  1.0000
  C   C2917     1.0  0.96576  0.28057  0.11352  1.0000
  C   C2918     1.0  0.95950  0.28988  0.13237  1.0000
  C   C2919     1.0  0.95551  0.31920  0.13434  1.0000
  C   C2920     1.0  0.95769  0.33890  0.11780  1.0000
  H   H2323     1.0  0.97315  0.29288  0.08269  1.0000
  H   H2324     1.0  0.96894  0.25819  0.11170  1.0000
  H   H2325     1.0  0.95087  0.32682  0.14889  1.0000
  H   H2326     1.0  0.95456  0.36129  0.11965  1.0000
  C   C2921     1.0  0.96228  0.02797  0.11652  1.0000
  C   C2922     1.0  0.96603  0.04282  0.13459  1.0000
  C   C2923     1.0  0.96637  0.07319  0.13496  1.0000
  C   C2924     1.0  0.96299  0.08900  0.11717  1.0000
  C   C2925     1.0  0.95930  0.07413  0.09911  1.0000
  C   C2926     1.0  0.95898  0.04381  0.09876  1.0000
  H   H2327     1.0  0.96881  0.03076  0.14833  1.0000
  H   H2328     1.0  0.96945  0.08431  0.14892  1.0000
  H   H2329     1.0  0.95677  0.08615  0.08528  1.0000
  H   H2330     1.0  0.95627  0.03272  0.08472  1.0000
  C   C2927     1.0  0.89095  0.43214  0.06339  1.0000
  C   C2928     1.0  0.87714  0.43196  0.07481  1.0000
  C   C2929     1.0  0.86324  0.42452  0.06561  1.0000
  C   C2930     1.0  0.86298  0.41669  0.04486  1.0000
  C   C2931     1.0  0.87686  0.41637  0.03341  1.0000
  C   C2932     1.0  0.89082  0.42414  0.04262  1.0000
  H   H2331     1.0  0.87718  0.43752  0.09094  1.0000
  H   H2332     1.0  0.85277  0.42477  0.07468  1.0000
  H   H2333     1.0  0.87679  0.41034  0.01732  1.0000
  H   H2334     1.0  0.90139  0.42435  0.03361  1.0000
  C   C2933     1.0  0.85615  0.38622  0.13843  1.0000
  C   C2934     1.0  0.84937  0.38363  0.11916  1.0000
  C   C2935     1.0  0.85747  0.37080  0.10288  1.0000
  C   C2936     1.0  0.87230  0.36034  0.10588  1.0000
  C   C2937     1.0  0.87947  0.36391  0.12496  1.0000
  C   C2938     1.0  0.87116  0.37654  0.14132  1.0000
  P   P97       1.0  0.89887  0.35137  0.12892  1.0000
  C   C2939     1.0  0.89883  0.31839  0.14402  1.0000
  C   C2940     1.0  0.88516  0.30318  0.14834  1.0000
  C   C2941     1.0  0.88546  0.27784  0.16021  1.0000
  C   C2942     1.0  0.89930  0.26775  0.16800  1.0000
  C   C2943     1.0  0.91289  0.28293  0.16397  1.0000
  C   C2944     1.0  0.91264  0.30826  0.15222  1.0000
  C   C2945     1.0  0.90901  0.34677  0.10443  1.0000
  C   C2946     1.0  0.91914  0.32363  0.10120  1.0000
  C   C2947     1.0  0.92755  0.32144  0.08270  1.0000
  C   C2948     1.0  0.92603  0.34233  0.06730  1.0000
  C   C2949     1.0  0.91584  0.36518  0.07020  1.0000
  C   C2950     1.0  0.90738  0.36738  0.08864  1.0000
  C   C2951     1.0  0.77011  0.35042  0.99953  1.0000
  H   H2335     1.0  0.83771  0.39105  0.11691  1.0000
  H   H2336     1.0  0.85217  0.36871  0.08795  1.0000
  H   H2337     1.0  0.87811  0.34978  0.09318  1.0000
  C   C2952     1.0  0.00619  0.12387  0.10446  1.0000
  H   H2338     1.0  0.87500  0.26577  0.16335  1.0000
  H   H2339     1.0  0.89952  0.24813  0.17718  1.0000
  H   H2340     1.0  0.92368  0.27498  0.16988  1.0000
  H   H2341     1.0  0.92329  0.31983  0.14940  1.0000
  C   C2953     1.0  0.98047  0.22264  0.32005  1.0000
  H   H2342     1.0  0.82779  0.47498  0.00714  1.0000
  H   H2343     1.0  0.93577  0.30414  0.08064  1.0000
  H   H2344     1.0  0.93309  0.34123  0.05338  1.0000
  H   H2345     1.0  0.85546  0.46496  0.01088  1.0000
  H   H2346     1.0  0.91483  0.38172  0.05843  1.0000
  H   H2347     1.0  0.83936  0.20561  0.03252  1.0000
  C   C2954     1.0  0.76262  0.33794  0.10713  1.0000
  C   C2955     1.0  0.92318  0.12269  0.13547  1.0000
  C   C2956     1.0  0.91301  0.08534  0.15826  1.0000
  C   C2957     1.0  0.92540  0.09797  0.14744  1.0000
  P   P98       1.0  0.91541  0.05141  0.17140  1.0000
  C   C2958     1.0  0.90310  0.04938  0.19402  1.0000
  H   H2348     1.0  0.81848  0.26739  0.02732  1.0000
  H   H2349     1.0  0.88568  0.03212  0.05762  1.0000
  H   H2350     1.0  0.96334  0.99944  0.18748  1.0000
  C   C2959     1.0  0.89020  0.07300  0.22283  1.0000
  C   C2960     1.0  0.89944  0.07452  0.20500  1.0000
  C   C2961     1.0  0.93454  0.04822  0.18133  1.0000
  C   C2962     1.0  0.89320  0.04134  0.06897  1.0000
  C   C2963     1.0  0.80114  0.29832  0.03580  1.0000
  H   H2351     1.0  0.78137  0.34766  0.00597  1.0000
  H   H2352     1.0  0.76445  0.20396  0.10752  1.0000
  C   C2964     1.0  0.94110  0.07156  0.19171  1.0000
  H   H2353     1.0  0.93278  0.13230  0.12711  1.0000
  H   H2354     1.0  0.93674  0.08860  0.14801  1.0000
  H   H2355     1.0  0.80167  0.22507  0.03450  1.0000
  C   C2965     1.0  0.89652  0.01254  0.15086  1.0000
  C   C2966     1.0  0.77210  0.10771  0.18960  1.0000
  H   H2356     1.0  0.83145  0.33517  0.13645  1.0000
  C   C2967     1.0  0.00261  0.03012  0.07088  1.0000
  H   H2357     1.0  0.97130  0.20890  0.31485  1.0000
  H   H2358     1.0  0.92436  0.47838  0.11143  1.0000
  H   H2359     1.0  0.90152  0.00280  0.19415  1.0000
  H   H2360     1.0  0.93499  0.09183  0.19315  1.0000
  P   P99       1.0  0.00091  0.18361  0.30155  1.0000
  H   H2361     1.0  0.76472  0.20223  0.18465  1.0000
  C   C2968     1.0  0.98652  0.00740  0.99597  1.0000
  C   C2969     1.0  0.97316  0.17519  0.25126  1.0000
  P   P100      1.0  0.00283  0.06477  0.05799  1.0000
  C   C2970     1.0  0.92529  0.41880  0.16688  1.0000
  C   C2971     1.0  0.91913  0.99811  0.12157  1.0000
  C   C2972     1.0  0.76932  0.12801  0.20502  1.0000
  C   C2973     1.0  0.84176  0.07536  0.03395  1.0000
  C   C2974     1.0  0.86289  0.08162  0.05731  1.0000
  C   C2975     1.0  0.80680  0.27047  0.03287  1.0000
  C   C2976     1.0  0.76607  0.23598  0.16201  1.0000
  C   C2977     1.0  0.00337  0.15425  0.31958  1.0000
  H   H2362     1.0  0.92110  0.07184  0.10932  1.0000
  H   H2363     1.0  0.99728  0.47109  0.12122  1.0000
  C   C2978     1.0  0.88483  0.04632  0.23007  1.0000
  H   H2364     1.0  0.00526  0.00531  0.04273  1.0000
  C   C2979     1.0  0.98848  0.48358  0.99821  1.0000
  C   C2980     1.0  0.92242  0.01773  0.13718  1.0000
  H   H2365     1.0  0.89329  0.06975  0.11738  1.0000
  H   H2366     1.0  0.87772  0.04519  0.24395  1.0000
  H   H2367     1.0  0.90388  0.09530  0.19996  1.0000
  H   H2368     1.0  0.83104  0.46821  0.11783  1.0000
  H   H2369     1.0  0.94202  0.09135  0.03339  1.0000
  H   H2370     1.0  0.98869  0.09710  0.09191  1.0000
  S   S412      1.0  0.97152  0.46784  0.00980  1.0000
  C   C2981     1.0  0.89812  0.02256  0.20177  1.0000
  H   H2371     1.0  0.93118  0.05409  0.07589  1.0000
  C   C2982     1.0  0.79734  0.24666  0.03694  1.0000
  C   C2983     1.0  0.96060  0.15990  0.25935  1.0000
  H   H2372     1.0  0.87961  0.47020  0.12830  1.0000
  H   H2373     1.0  0.83979  0.34166  0.04360  1.0000
  H   H2374     1.0  0.77306  0.24572  0.08674  1.0000
  C   C2984     1.0  0.95709  0.01953  0.18877  1.0000
  H   H2375     1.0  0.95066  0.13942  0.28630  1.0000
  C   C2985     1.0  0.83755  0.21114  0.04859  1.0000
  C   C2986     1.0  0.82612  0.19709  0.06028  1.0000
  C   C2987     1.0  0.82385  0.20412  0.08102  1.0000
  C   C2988     1.0  0.83296  0.22518  0.09018  1.0000
  C   C2989     1.0  0.84450  0.23933  0.07857  1.0000
  C   C2990     1.0  0.84676  0.23207  0.05772  1.0000
  P   P101      1.0  0.85747  0.26451  0.09039  1.0000
  C   C2991     1.0  0.84941  0.27739  0.11453  1.0000
  C   C2992     1.0  0.87509  0.24626  0.09681  1.0000
  C   C2993     1.0  0.88706  0.26171  0.10590  1.0000
  C   C2994     1.0  0.90035  0.24757  0.11217  1.0000
  C   C2995     1.0  0.90178  0.21785  0.10955  1.0000
  C   C2996     1.0  0.88986  0.20220  0.10072  1.0000
  C   C2997     1.0  0.87654  0.21627  0.09445  1.0000
  C   C2998     1.0  0.84264  0.30473  0.11627  1.0000
  C   C2999     1.0  0.84394  0.26895  0.15101  1.0000
  C   C3000     1.0  0.85005  0.25968  0.13210  1.0000
  C   C3001     1.0  0.86041  0.29383  0.07219  1.0000
  C   C3002     1.0  0.87522  0.30212  0.06547  1.0000
  C   C3003     1.0  0.87718  0.32475  0.05130  1.0000
  C   C3004     1.0  0.86441  0.33887  0.04344  1.0000
  C   C3005     1.0  0.84965  0.33042  0.04968  1.0000
  C   C3006     1.0  0.84763  0.30780  0.06383  1.0000
  H   H2376     1.0  0.97501  0.04121  0.20523  1.0000
  H   H2377     1.0  0.81500  0.19321  0.09010  1.0000
  H   H2378     1.0  0.83090  0.23014  0.10629  1.0000
  H   H2379     1.0  0.85577  0.24238  0.04859  1.0000
  H   H2380     1.0  0.88604  0.28471  0.10820  1.0000
  H   H2381     1.0  0.90950  0.25950  0.11940  1.0000
  H   H2382     1.0  0.91204  0.20695  0.11468  1.0000
  H   H2383     1.0  0.89084  0.17906  0.09902  1.0000
  H   H2384     1.0  0.86732  0.20353  0.08821  1.0000
  H   H2385     1.0  0.84154  0.31876  0.10309  1.0000
  H   H2386     1.0  0.84418  0.25473  0.16434  1.0000
  H   H2387     1.0  0.85508  0.23843  0.13110  1.0000
  H   H2388     1.0  0.88532  0.29126  0.07089  1.0000
  H   H2389     1.0  0.88862  0.33139  0.04638  1.0000
  H   H2390     1.0  0.87623  0.37875  0.15634  1.0000
  H   H2391     1.0  0.95116  0.15433  0.24943  1.0000
  H   H2392     1.0  0.83607  0.30139  0.06843  1.0000
  C   C3007     1.0  0.92564  0.42039  0.14536  1.0000
  C   C3008     1.0  0.90896  0.04239  0.06468  1.0000
  H   H2393     1.0  0.82521  0.04254  0.04272  1.0000
  C   C3009     1.0  0.91896  0.05358  0.07918  1.0000
  H   H2394     1.0  0.91789  0.40234  0.11717  1.0000
  C   C3010     1.0  0.91322  0.06361  0.09806  1.0000
  C   C3011     1.0  0.91738  0.40049  0.13378  1.0000
  C   C3012     1.0  0.97361  0.05130  0.04393  1.0000
  C   C3013     1.0  0.76126  0.23867  0.08584  1.0000
  H   H2395     1.0  0.77667  0.12890  0.21833  1.0000
  C   C3014     1.0  0.00348  0.12581  0.31230  1.0000
  C   C3015     1.0  0.98352  0.07329  0.05037  1.0000
  C   C3016     1.0  0.91661  0.39735  0.17687  1.0000
  C   C3017     1.0  0.00119  0.09828  0.24813  1.0000
  H   H2396     1.0  0.85362  0.45154  0.13745  1.0000
  C   C3018     1.0  0.88729  0.05144  0.08789  1.0000
  C   C3019     1.0  0.89745  0.06235  0.10252  1.0000
  P   P102      1.0  0.86688  0.04936  0.09334  1.0000
  C   C3020     1.0  0.85691  0.05972  0.07022  1.0000
  H   H2397     1.0  0.76444  0.29269  0.10170  1.0000
  H   H2398     1.0  0.78157  0.09274  0.19089  1.0000
  C   C3021     1.0  0.76500  0.20919  0.24918  1.0000
  H   H2399     1.0  0.92784  0.99300  0.11002  1.0000
  H   H2400     1.0  0.99990  0.28323  0.27404  1.0000
  C   C3022     1.0  1.00000  0.02819  0.09230  1.0000
  C   C3023     1.0  0.84326  0.04578  0.06474  1.0000
  H   H2401     1.0  0.93185  0.43405  0.17577  1.0000
  C   C3024     1.0  0.84242  0.47635  0.11399  1.0000
  H   H2402     1.0  0.90192  0.36064  0.17342  1.0000
  C   C3025     1.0  0.86184  0.07410  0.11388  1.0000
  C   C3026     1.0  0.85846  0.10308  0.10947  1.0000
  C   C3027     1.0  0.85451  0.12205  0.12540  1.0000
  C   C3028     1.0  0.85374  0.11224  0.14580  1.0000
  C   C3029     1.0  0.85726  0.08357  0.15037  1.0000
  C   C3030     1.0  0.86150  0.06464  0.13453  1.0000
  C   C3031     1.0  0.78229  0.25065  0.04420  1.0000
  C   C3032     1.0  0.76057  0.37244  0.00691  1.0000
  H   H2403     1.0  0.98437  0.11474  0.22679  1.0000
  C   C3033     1.0  0.86131  0.01294  0.10031  1.0000
  C   C3034     1.0  0.96034  0.15153  0.28008  1.0000
  H   H2404     1.0  0.77786  0.24120  0.16546  1.0000
  H   H2405     1.0  0.99406  0.08035  0.25313  1.0000
  H   H2406     1.0  0.97218  0.15200  0.30878  1.0000
  H   H2407     1.0  0.91642  0.39596  0.19356  1.0000
  H   H2408     1.0  0.83986  0.02554  0.11518  1.0000
  H   H2409     1.0  0.83828  0.02879  0.07422  1.0000
  C   C3035     1.0  0.88887  0.02108  0.21962  1.0000
  C   C3036     1.0  0.85533  0.08940  0.03926  1.0000
  H   H2410     1.0  0.85877  0.11113  0.09381  1.0000
  H   H2411     1.0  0.85190  0.14440  0.12201  1.0000
  H   H2412     1.0  0.85045  0.12695  0.15806  1.0000
  H   H2413     1.0  0.85661  0.07606  0.16622  1.0000
  H   H2414     1.0  0.86433  0.04260  0.13840  1.0000
  H   H2415     1.0  0.87342  0.09264  0.06118  1.0000
  H   H2416     1.0  0.89990  0.38575  0.09081  1.0000
  H   H2417     1.0  0.00252  0.48134  0.02509  1.0000
  H   H2418     1.0  0.80838  0.31683  0.03236  1.0000
  C   C3037     1.0  0.78613  0.30240  0.04318  1.0000
  H   H2419     1.0  0.88736  0.09255  0.23113  1.0000
  H   H2420     1.0  0.86003  0.10620  0.02933  1.0000
  C   C3038     1.0  0.99588  0.21606  0.31548  1.0000
  H   H2421     1.0  0.97735  0.02905  0.04360  1.0000
  C   C3039     1.0  0.83688  0.31423  0.13531  1.0000
  H   H2422     1.0  0.77394  0.24891  0.20646  1.0000
  H   H2423     1.0  0.83590  0.08124  0.01996  1.0000
  C   C3040     1.0  0.90888  0.37844  0.14365  1.0000
  H   H2424     1.0  0.93250  0.43686  0.13760  1.0000
  H   H2425     1.0  0.99530  0.19291  0.25676  1.0000
  H   H2426     1.0  0.97555  0.01247  0.00308  1.0000
  C   C3041     1.0  0.96348  0.10845  0.04400  1.0000
  H   H2427     1.0  0.97344  0.18129  0.23509  1.0000
  H   H2428     1.0  0.76783  0.18902  0.25663  1.0000
  C   C3042     1.0  0.95872  0.05786  0.03776  1.0000
  C   C3043     1.0  0.00405  0.00463  0.05939  1.0000
  H   H2429     1.0  0.90710  0.15473  0.12561  1.0000
  H   H2430     1.0  0.95953  0.13057  0.04424  1.0000
  H   H2431     1.0  0.92105  0.30760  0.11297  1.0000
  C   C3044     1.0  0.90843  0.37728  0.16534  1.0000
  H   H2432     1.0  0.87431  0.31051  0.14241  1.0000
  H   H2433     1.0  0.88856  0.08783  0.16453  1.0000
  H   H2434     1.0  0.83243  0.30327  0.16721  1.0000
  H   H2435     1.0  0.93364  0.02776  0.13734  1.0000
  C   C3045     1.0  0.75838  0.25143  0.14684  1.0000
  H   H2436     1.0  0.88502  0.13241  0.14428  1.0000
  C   C3046     1.0  0.95562  0.06892  0.20038  1.0000
  H   H2437     1.0  0.78197  0.32419  0.04530  1.0000
  H   H2438     1.0  0.86594  0.35635  0.03242  1.0000
  C   C3047     1.0  0.89622  0.12246  0.14488  1.0000
  C   C3048     1.0  0.89834  0.09749  0.15663  1.0000
  C   C3049     1.0  0.76162  0.31328  0.09491  1.0000
  H   H2439     1.0  0.00076  0.09104  0.01673  1.0000
  C   C3050     1.0  0.89330  0.99265  0.13535  1.0000
  C   C3051     1.0  0.98556  0.18199  0.26377  1.0000
  C   C3052     1.0  0.75766  0.26137  0.23046  1.0000
  H   H2440     1.0  0.99805  0.04722  0.10150  1.0000
  C   C3053     1.0  0.95361  0.08638  0.03795  1.0000
  C   C3054     1.0  0.76841  0.24268  0.22087  1.0000
  C   C3055     1.0  0.91126  0.02462  0.15221  1.0000
  S   S413      1.0  0.99826  0.16702  0.20771  1.0000
  H   H2441     1.0  0.91345  0.03382  0.05027  1.0000
  C   C3056     1.0  0.96367  0.04303  0.19874  1.0000
  C   C3057     1.0  0.87027  0.98938  0.09397  1.0000
  S   S414      1.0  0.80615  0.00306  0.07297  1.0000
  C   C3058     1.0  0.99565  0.11777  0.23311  1.0000
  H   H2442     1.0  0.88498  0.00036  0.22550  1.0000
  H   H2443     1.0  0.93759  0.00337  0.17284  1.0000
  H   H2444     1.0  0.77511  0.23193  0.04708  1.0000
  H   H2445     1.0  0.99857  0.13287  0.11618  1.0000
  H   H2446     1.0  0.99500  0.41468  0.02099  1.0000
  C   C3059     1.0  0.75768  0.31560  0.07405  1.0000
  H   H2447     1.0  0.76697  0.44400  0.99557  1.0000
  H   H2448     1.0  0.76440  0.30251  0.29161  1.0000
  H   H2449     1.0  0.00159  0.12132  0.29614  1.0000
  C   C3060     1.0  0.84994  0.48090  0.02064  1.0000
  H   H2450     1.0  0.76619  0.33615  0.12302  1.0000
  C   C3061     1.0  0.00467  0.14118  0.22641  1.0000
  S   S415      1.0  0.96144  0.98977  0.11691  1.0000
  H   H2451     1.0  0.91072  0.47678  0.14539  1.0000
  C   C3062     1.0  0.75862  0.21362  0.17273  1.0000
  C   C3063     1.0  0.84734  0.00780  0.11089  1.0000
  C   C3064     1.0  0.00058  0.10359  0.09062  1.0000
  C   C3065     1.0  0.75758  0.14822  0.20287  1.0000
  H   H2452     1.0  0.80150  0.99255  0.11763  1.0000
  H   H2453     1.0  0.99706  0.99992  0.11856  1.0000
  H   H2454     1.0  0.76430  0.26853  0.13842  1.0000
  C   C3066     1.0  0.99947  0.00130  0.10212  1.0000
  C   C3067     1.0  0.00247  0.41441  0.00741  1.0000
  H   H2455     1.0  0.76078  0.38419  0.10803  1.0000
  C   C3068     1.0  0.75966  0.36505  0.09865  1.0000
  H   H2456     1.0  0.88093  0.99251  0.08545  1.0000
  C   C3069     1.0  0.76303  0.10744  0.17208  1.0000
  H   H2457     1.0  0.75814  0.26163  0.01557  1.0000
  H   H2458     1.0  0.76555  0.09215  0.15989  1.0000
  C   C3070     1.0  0.86972  0.47772  0.11996  1.0000
  S   S416      1.0  0.94738  0.47992  0.06136  1.0000
  C   C3071     1.0  0.00629  0.48392  0.12800  1.0000
  C   C3072     1.0  0.83432  0.48645  0.01856  1.0000
  H   H2459     1.0  0.84904  0.48115  0.59219  1.0000
  H   H2460     1.0  0.82249  0.34898  0.38040  1.0000
  S   S417      1.0  0.85243  0.42807  0.64592  1.0000
  S   S418      1.0  0.95433  0.38396  0.61876  1.0000
  C   C3073     1.0  0.76324  0.42845  0.56537  1.0000
  S   S419      1.0  0.81470  0.41147  0.62802  1.0000
  Fe  Fe209     1.0  0.79823  0.44743  0.63445  1.0000
  H   H2461     1.0  0.99398  0.42547  0.57329  1.0000
  H   H2462     1.0  0.86307  0.21389  0.51390  1.0000
  C   C3074     1.0  0.99414  0.40301  0.57797  1.0000
  Fe  Fe210     1.0  0.96114  0.21856  0.58911  1.0000
  S   S420      1.0  0.94771  0.23294  0.56193  1.0000
  S   S421      1.0  0.96690  0.24875  0.61546  1.0000
  Fe  Fe211     1.0  0.96143  0.15507  0.57554  1.0000
  S   S422      1.0  0.94796  0.16575  0.54701  1.0000
  S   S423      1.0  0.96797  0.10746  0.57951  1.0000
  Fe  Fe212     1.0  0.96372  0.20457  0.54324  1.0000
  S   S424      1.0  0.97232  0.21886  0.51080  1.0000
  Fe  Fe213     1.0  0.93334  0.19322  0.56795  1.0000
  S   S425      1.0  0.90771  0.19788  0.57442  1.0000
  S   S426      1.0  0.97810  0.19205  0.57037  1.0000
  S   S427      1.0  0.94594  0.18049  0.59650  1.0000
  Fe  Fe214     1.0  0.78952  0.15239  0.53601  1.0000
  S   S428      1.0  0.78380  0.16835  0.56823  1.0000
  S   S429      1.0  0.76879  0.14698  0.51442  1.0000
  Fe  Fe215     1.0  0.82434  0.15525  0.54486  1.0000
  S   S430      1.0  0.82071  0.17067  0.57730  1.0000
  S   S431      1.0  0.84828  0.14765  0.53105  1.0000
  Fe  Fe216     1.0  0.80191  0.13718  0.57876  1.0000
  S   S432      1.0  0.79949  0.11044  0.60827  1.0000
  Fe  Fe217     1.0  0.80305  0.20056  0.56424  1.0000
  S   S433      1.0  0.80255  0.24971  0.56898  1.0000
  S   S434      1.0  0.80664  0.11947  0.54707  1.0000
  S   S435      1.0  0.80766  0.18679  0.53129  1.0000
  C   C3075     1.0  0.98985  0.23356  0.50010  1.0000
  C   C3076     1.0  0.99091  0.23920  0.47871  1.0000
  H   H2463     1.0  0.89463  0.09312  0.54157  1.0000
  H   H2464     1.0  0.98123  0.23423  0.46914  1.0000
  H   H2465     1.0  0.76798  0.05159  0.57796  1.0000
  C   C3077     1.0  0.89163  0.18243  0.56224  1.0000
  C   C3078     1.0  0.87702  0.18749  0.57092  1.0000
  C   C3079     1.0  0.86373  0.17700  0.56152  1.0000
  C   C3080     1.0  0.86487  0.16102  0.54336  1.0000
  C   C3081     1.0  0.87953  0.15555  0.53477  1.0000
  C   C3082     1.0  0.89288  0.16616  0.54419  1.0000
  H   H2466     1.0  0.87592  0.19988  0.58492  1.0000
  H   H2467     1.0  0.85261  0.18172  0.56823  1.0000
  H   H2468     1.0  0.88055  0.14337  0.52064  1.0000
  H   H2469     1.0  0.90407  0.16216  0.53732  1.0000
  C   C3083     1.0  0.79979  0.31214  0.62451  1.0000
  C   C3084     1.0  0.80130  0.32251  0.60426  1.0000
  C   C3085     1.0  0.80237  0.30307  0.58758  1.0000
  C   C3086     1.0  0.80187  0.27301  0.59083  1.0000
  C   C3087     1.0  0.80065  0.26261  0.61111  1.0000
  C   C3088     1.0  0.79959  0.28207  0.62780  1.0000
  H   H2470     1.0  0.80138  0.34550  0.60142  1.0000
  H   H2471     1.0  0.80335  0.31142  0.57200  1.0000
  H   H2472     1.0  0.80024  0.23962  0.61392  1.0000
  S   S436      1.0  0.79182  0.47522  0.60702  1.0000
  C   C3089     1.0  0.79931  0.01123  0.60966  1.0000
  C   C3090     1.0  0.79870  0.02613  0.59076  1.0000
  C   C3091     1.0  0.79890  0.05647  0.59011  1.0000
  C   C3092     1.0  0.79949  0.07224  0.60840  1.0000
  C   C3093     1.0  0.80011  0.05735  0.62731  1.0000
  C   C3094     1.0  0.80019  0.02698  0.62795  1.0000
  H   H2473     1.0  0.79803  0.01414  0.57654  1.0000
  H   H2474     1.0  0.79841  0.06766  0.57546  1.0000
  H   H2475     1.0  0.80058  0.06937  0.64154  1.0000
  H   H2476     1.0  0.80074  0.01581  0.64260  1.0000
  C   C3095     1.0  0.96444  0.04330  0.63446  1.0000
  C   C3096     1.0  0.96391  0.03363  0.61406  1.0000
  C   C3097     1.0  0.96470  0.05358  0.59748  1.0000
  C   C3098     1.0  0.96568  0.08348  0.60101  1.0000
  C   C3099     1.0  0.96577  0.09319  0.62141  1.0000
  C   C3100     1.0  0.96527  0.07322  0.63798  1.0000
  H   H2477     1.0  0.84135  0.08206  0.64320  1.0000
  H   H2478     1.0  0.96473  0.04576  0.58179  1.0000
  H   H2479     1.0  0.96668  0.11603  0.62442  1.0000
  C   C3101     1.0  0.93735  0.48244  0.60309  1.0000
  C   C3102     1.0  0.95687  0.34609  0.61841  1.0000
  C   C3103     1.0  0.96277  0.33138  0.63534  1.0000
  C   C3104     1.0  0.96587  0.30169  0.63408  1.0000
  C   C3105     1.0  0.96260  0.28611  0.61616  1.0000
  C   C3106     1.0  0.95631  0.30069  0.59933  1.0000
  C   C3107     1.0  0.95356  0.33060  0.60043  1.0000
  H   H2480     1.0  0.90434  0.02499  0.60844  1.0000
  C   C3108     1.0  0.88504  0.06116  0.64526  1.0000
  H   H2481     1.0  0.95384  0.28909  0.58536  1.0000
  H   H2482     1.0  0.94901  0.34183  0.58724  1.0000
  C   C3109     1.0  0.84969  0.10503  0.58208  1.0000
  C   C3110     1.0  0.78365  0.35476  0.38497  1.0000
  H   H2483     1.0  0.83047  0.28100  0.55452  1.0000
  H   H2484     1.0  0.99521  0.23649  0.59342  1.0000
  C   C3111     1.0  0.86125  0.05545  0.54608  1.0000
  C   C3112     1.0  0.76154  0.09560  0.58225  1.0000
  C   C3113     1.0  0.88818  0.38569  0.59768  1.0000
  H   H2485     1.0  0.80743  0.06717  0.51673  1.0000
  H   H2486     1.0  0.92728  0.05314  0.49519  1.0000
  C   C3114     1.0  0.86812  0.07790  0.60185  1.0000
  C   C3115     1.0  0.76189  0.12392  0.49444  1.0000
  H   H2487     1.0  0.98939  0.16101  0.52164  1.0000
  H   H2488     1.0  0.87802  0.33764  0.56916  1.0000
  H   H2489     1.0  0.83556  0.21939  0.50600  1.0000
  H   H2490     1.0  0.77060  0.14117  0.62868  1.0000
  H   H2491     1.0  0.96484  0.25203  0.33512  1.0000
  H   H2492     1.0  0.88400  0.42353  0.63481  1.0000
  H   H2493     1.0  0.76699  0.18980  0.47889  1.0000
  H   H2494     1.0  0.86784  0.09434  0.52995  1.0000
  C   C3116     1.0  0.00298  0.29161  0.55977  1.0000
  H   H2495     1.0  0.83626  0.37337  0.55201  1.0000
  H   H2496     1.0  0.88094  0.99184  0.60885  1.0000
  C   C3117     1.0  0.99481  0.38130  0.56309  1.0000
  H   H2497     1.0  0.87364  0.11520  0.58289  1.0000
  C   C3118     1.0  0.88678  0.47761  0.60455  1.0000
  H   H2498     1.0  0.85081  0.32853  0.54546  1.0000
  H   H2499     1.0  0.87650  0.22570  0.63398  1.0000
  H   H2500     1.0  0.87931  0.08111  0.64148  1.0000
  H   H2501     1.0  0.85119  0.20124  0.63794  1.0000
  C   C3119     1.0  0.88340  0.42817  0.65110  1.0000
  C   C3120     1.0  0.77036  0.18214  0.46369  1.0000
  C   C3121     1.0  0.78458  0.16885  0.46083  1.0000
  C   C3122     1.0  0.78884  0.15829  0.44142  1.0000
  C   C3123     1.0  0.77878  0.16065  0.42492  1.0000
  C   C3124     1.0  0.76428  0.17332  0.42781  1.0000
  S   S437      1.0  0.94174  0.45010  0.64908  1.0000
  H   H2502     1.0  0.90555  0.34919  0.56615  1.0000
  H   H2503     1.0  0.76914  0.98756  0.62703  1.0000
  H   H2504     1.0  0.92613  0.43967  0.55436  1.0000
  C   C3125     1.0  0.83388  0.36576  0.58468  1.0000
  C   C3126     1.0  0.83889  0.35903  0.56469  1.0000
  H   H2505     1.0  0.88076  0.26196  0.60670  1.0000
  H   H2506     1.0  0.76681  0.25798  0.34517  1.0000
  C   C3127     1.0  0.91066  0.00997  0.59882  1.0000
  C   C3128     1.0  0.79897  0.35283  0.39084  1.0000
  H   H2507     1.0  0.75929  0.46346  0.35260  1.0000
  C   C3129     1.0  0.76259  0.48091  0.54356  1.0000
  H   H2508     1.0  0.78249  0.09917  0.49049  1.0000
  H   H2509     1.0  0.87450  0.24162  0.54165  1.0000
  C   C3130     1.0  0.84128  0.22365  0.61229  1.0000
  H   H2510     1.0  0.83279  0.35207  0.61641  1.0000
  H   H2511     1.0  0.81597  0.34877  0.34329  1.0000
  C   C3131     1.0  0.86973  0.25128  0.60785  1.0000
  H   H2512     1.0  0.91622  0.25886  0.56509  1.0000
  H   H2513     1.0  0.84737  0.30736  0.61031  1.0000
  C   C3132     1.0  0.99615  0.15993  0.50745  1.0000
  H   H2514     1.0  0.79213  0.16630  0.47383  1.0000
  H   H2515     1.0  0.79982  0.14773  0.43929  1.0000
  H   H2516     1.0  0.78212  0.15188  0.41005  1.0000
  C   C3133     1.0  0.80693  0.35021  0.35494  1.0000
  C   C3134     1.0  0.97674  0.24712  0.33161  1.0000
  C   C3135     1.0  0.83705  0.34710  0.60103  1.0000
  C   C3136     1.0  0.91292  0.39571  0.61243  1.0000
  C   C3137     1.0  0.77085  0.21336  0.38672  1.0000
  C   C3138     1.0  0.00153  0.24955  0.58224  1.0000
  H   H2517     1.0  0.88894  0.24703  0.56959  1.0000
  H   H2518     1.0  0.95853  0.20758  0.65383  1.0000
  H   H2519     1.0  0.99505  0.21646  0.38162  1.0000
  C   C3139     1.0  0.75960  0.41700  0.35453  1.0000
  Fe  Fe218     1.0  0.95676  0.41058  0.64796  1.0000
  H   H2520     1.0  0.90941  0.47897  0.56708  1.0000
  H   H2521     1.0  0.84706  0.12263  0.57172  1.0000
  C   C3140     1.0  0.91267  0.30484  0.56531  1.0000
  C   C3141     1.0  0.91905  0.24652  0.62834  1.0000
  H   H2522     1.0  0.78515  0.00976  0.47486  1.0000
  C   C3142     1.0  0.86471  0.10077  0.58851  1.0000
  H   H2523     1.0  0.83204  0.05000  0.60780  1.0000
  H   H2524     1.0  0.92810  0.00377  0.55151  1.0000
  H   H2525     1.0  0.75769  0.11530  0.42094  1.0000
  C   C3143     1.0  0.94259  0.44445  0.57848  1.0000
  C   C3144     1.0  0.94672  0.46009  0.59587  1.0000
  C   C3145     1.0  0.99478  0.35210  0.56906  1.0000
  H   H2526     1.0  0.86781  0.44776  0.60754  1.0000
  C   C3146     1.0  0.90182  0.32689  0.56644  1.0000
  C   C3147     1.0  0.87808  0.03442  0.64136  1.0000
  H   H2527     1.0  0.98550  0.28379  0.34807  1.0000
  C   C3148     1.0  0.85629  0.06001  0.60964  1.0000
  C   C3149     1.0  0.85015  0.31458  0.57738  1.0000
  C   C3150     1.0  0.90282  0.29686  0.63868  1.0000
  H   H2528     1.0  0.94979  0.42685  0.57321  1.0000
  H   H2529     1.0  0.95710  0.45462  0.60397  1.0000
  C   C3151     1.0  0.78483  0.05271  0.52607  1.0000
  H   H2530     1.0  0.92480  0.30991  0.56441  1.0000
  S   S438      1.0  0.79769  0.33556  0.64618  1.0000
  C   C3152     1.0  0.88617  0.32019  0.56824  1.0000
  C   C3153     1.0  0.79768  0.05386  0.51283  1.0000
  C   C3154     1.0  0.77088  0.10229  0.48541  1.0000
  C   C3155     1.0  0.90788  0.27612  0.56589  1.0000
  H   H2531     1.0  0.79837  0.27375  0.64337  1.0000
  C   C3156     1.0  0.83796  0.26738  0.54533  1.0000
  P   P103      1.0  0.85966  0.03240  0.62889  1.0000
  C   C3157     1.0  0.92921  0.45153  0.56803  1.0000
  C   C3158     1.0  0.91975  0.47375  0.57531  1.0000
  C   C3159     1.0  0.83158  0.25158  0.52930  1.0000
  H   H2532     1.0  0.83217  0.99773  0.62039  1.0000
  C   C3160     1.0  0.85355  0.26435  0.55008  1.0000
  P   P104      1.0  0.86112  0.28224  0.57254  1.0000
  H   H2533     1.0  0.81941  0.25333  0.52635  1.0000
  C   C3161     1.0  0.84376  0.24358  0.59633  1.0000
  C   C3162     1.0  0.77232  0.02015  0.50252  1.0000
  H   H2534     1.0  0.94049  0.35254  0.53886  1.0000
  H   H2535     1.0  0.82647  0.08962  0.58357  1.0000
  H   H2536     1.0  0.91006  0.04045  0.52457  1.0000
  P   P105      1.0  0.89336  0.32992  0.64639  1.0000
  H   H2537     1.0  0.76495  0.45442  0.51627  1.0000
  C   C3163     1.0  0.90177  0.40174  0.59782  1.0000
  H   H2538     1.0  0.76962  0.31142  0.32849  1.0000
  C   C3164     1.0  0.99747  0.16032  0.47007  1.0000
  C   C3165     1.0  0.84703  0.33357  0.56104  1.0000
  C   C3166     1.0  0.89231  0.26940  0.56818  1.0000
  C   C3167     1.0  0.76023  0.18443  0.44728  1.0000
  C   C3168     1.0  0.86730  0.23088  0.62358  1.0000
  C   C3169     1.0  0.76200  0.48065  0.56522  1.0000
  H   H2539     1.0  0.99242  0.41254  0.61046  1.0000
  H   H2540     1.0  0.98305  0.27932  0.57824  1.0000
  C   C3170     1.0  0.86331  0.34962  0.65194  1.0000
  H   H2541     1.0  0.96525  0.34307  0.64924  1.0000
  C   C3171     1.0  0.91579  0.01811  0.57893  1.0000
  C   C3172     1.0  0.76392  0.45468  0.53294  1.0000
  P   P106      1.0  0.91120  0.05346  0.56883  1.0000
  C   C3173     1.0  0.89165  0.05407  0.55984  1.0000
  C   C3174     1.0  0.91401  0.08035  0.58858  1.0000
  C   C3175     1.0  0.92396  0.07499  0.60501  1.0000
  C   C3176     1.0  0.92619  0.09584  0.62016  1.0000
  C   C3177     1.0  0.91881  0.12243  0.61884  1.0000
  C   C3178     1.0  0.90921  0.12822  0.60233  1.0000
  C   C3179     1.0  0.90697  0.10745  0.58712  1.0000
  C   C3180     1.0  0.88119  0.03225  0.56567  1.0000
  C   C3181     1.0  0.86604  0.03306  0.55893  1.0000
  H   H2542     1.0  0.84945  0.05643  0.54113  1.0000
  H   H2543     1.0  0.92347  0.40818  0.61261  1.0000
  C   C3182     1.0  0.88678  0.07623  0.54661  1.0000
  C   C3183     1.0  0.92383  0.06217  0.54729  1.0000
  C   C3184     1.0  0.92032  0.05300  0.52729  1.0000
  C   C3185     1.0  0.93007  0.06005  0.51061  1.0000
  C   C3186     1.0  0.94341  0.07611  0.51381  1.0000
  C   C3187     1.0  0.94702  0.08502  0.53369  1.0000
  C   C3188     1.0  0.93728  0.07807  0.55036  1.0000
  H   H2544     1.0  0.76263  0.00693  0.49828  1.0000
  H   H2545     1.0  0.83019  0.21315  0.61399  1.0000
  C   C3189     1.0  0.85693  0.99810  0.61632  1.0000
  C   C3190     1.0  0.79781  0.03840  0.49439  1.0000
  H   H2546     1.0  0.77959  0.20631  0.39722  1.0000
  H   H2547     1.0  0.93035  0.05506  0.60599  1.0000
  H   H2548     1.0  0.93392  0.09152  0.63269  1.0000
  H   H2549     1.0  0.92085  0.13883  0.63030  1.0000
  H   H2550     1.0  0.90379  0.14912  0.60102  1.0000
  H   H2551     1.0  0.90003  0.11303  0.57408  1.0000
  H   H2552     1.0  0.88464  0.01462  0.57542  1.0000
  H   H2553     1.0  0.00047  0.14006  0.41841  1.0000
  H   H2554     1.0  0.77021  0.03274  0.64650  1.0000
  C   C3191     1.0  0.81061  0.35040  0.37584  1.0000
  H   H2555     1.0  0.87275  0.27856  0.64923  1.0000
  H   H2556     1.0  0.90361  0.41895  0.58672  1.0000
  C   C3192     1.0  0.77202  0.03596  0.52095  1.0000
  H   H2557     1.0  0.95096  0.08170  0.50093  1.0000
  H   H2558     1.0  0.95738  0.09740  0.53631  1.0000
  H   H2559     1.0  0.94028  0.08520  0.56562  1.0000
  C   C3193     1.0  0.94885  0.33539  0.53761  1.0000
  C   C3194     1.0  0.94479  0.30911  0.52878  1.0000
  C   C3195     1.0  0.95559  0.28705  0.52718  1.0000
  C   C3196     1.0  0.97045  0.29115  0.53440  1.0000
  C   C3197     1.0  0.97471  0.31759  0.54303  1.0000
  C   C3198     1.0  0.96377  0.33972  0.54459  1.0000
  C   C3199     1.0  0.79161  0.35214  0.34902  1.0000
  H   H2560     1.0  0.99340  0.32293  0.59538  1.0000
  H   H2561     1.0  0.87944  0.39054  0.58653  1.0000
  C   C3200     1.0  0.89678  0.35770  0.62713  1.0000
  C   C3201     1.0  0.83807  0.08632  0.58876  1.0000
  H   H2562     1.0  0.82734  0.38523  0.58752  1.0000
  C   C3202     1.0  0.84064  0.23246  0.51790  1.0000
  C   C3203     1.0  0.84133  0.06387  0.60243  1.0000
  C   C3204     1.0  0.85807  0.25727  0.59377  1.0000
  H   H2563     1.0  0.99149  0.30952  0.50569  1.0000
  P   P107      1.0  0.99446  0.32415  0.54967  1.0000
  H   H2564     1.0  0.78491  0.06508  0.54016  1.0000
  C   C3205     1.0  0.00361  0.16223  0.41512  1.0000
  C   C3206     1.0  0.87154  0.46891  0.60221  1.0000
  H   H2565     1.0  0.84483  0.27355  0.65400  1.0000
  H   H2566     1.0  0.87993  0.07435  0.60588  1.0000
  H   H2567     1.0  0.80766  0.03972  0.48399  1.0000
  H   H2568     1.0  0.93330  0.30575  0.52313  1.0000
  H   H2569     1.0  0.95249  0.26670  0.52020  1.0000
  H   H2570     1.0  0.97870  0.27386  0.53281  1.0000
  H   H2571     1.0  0.96670  0.36038  0.55109  1.0000
  C   C3207     1.0  0.77477  0.23353  0.37132  1.0000
  C   C3208     1.0  0.88127  0.29128  0.56921  1.0000
  H   H2572     1.0  0.97105  0.29081  0.64698  1.0000
  C   C3209     1.0  0.84520  0.32163  0.59745  1.0000
  C   C3210     1.0  0.88577  0.36350  0.61209  1.0000
  C   C3211     1.0  0.77982  0.35377  0.36403  1.0000
  H   H2573     1.0  0.99154  0.16121  0.45559  1.0000
  C   C3212     1.0  0.99642  0.17675  0.39899  1.0000
  C   C3213     1.0  0.99332  0.36685  0.60499  1.0000
  H   H2574     1.0  0.96575  0.08099  0.65365  1.0000
  C   C3214     1.0  0.91959  0.27041  0.61518  1.0000
  C   C3215     1.0  0.87164  0.07689  0.53982  1.0000
  C   C3216     1.0  0.76412  0.42855  0.54383  1.0000
  H   H2575     1.0  0.87522  0.35118  0.61157  1.0000
  C   C3217     1.0  0.99395  0.34508  0.59017  1.0000
  C   C3218     1.0  0.85616  0.22941  0.52234  1.0000
  C   C3219     1.0  0.86261  0.24527  0.53831  1.0000
  H   H2576     1.0  0.76664  0.41473  0.34069  1.0000
  C   C3220     1.0  0.98883  0.16062  0.48845  1.0000
  Fe  Fe219     1.0  0.80048  0.38461  0.64973  1.0000
  H   H2577     1.0  0.77475  0.35705  0.39675  1.0000
  C   C3221     1.0  0.76488  0.08474  0.46967  1.0000
  H   H2578     1.0  0.78911  0.35277  0.33274  1.0000
  H   H2579     1.0  0.80183  0.35341  0.40704  1.0000
  H   H2580     1.0  0.77196  0.06799  0.46298  1.0000
  C   C3222     1.0  0.99335  0.39578  0.59892  1.0000
  C   C3223     1.0  0.76218  0.45447  0.57603  1.0000
  H   H2581     1.0  0.83444  0.24816  0.58599  1.0000
  H   H2582     1.0  0.96330  0.01075  0.61104  1.0000
  H   H2583     1.0  0.89481  0.46279  0.61147  1.0000
  C   C3224     1.0  0.85309  0.21707  0.62579  1.0000
  C   C3225     1.0  0.98836  0.26506  0.33885  1.0000
  C   C3226     1.0  0.92396  0.99812  0.56683  1.0000
  C   C3227     1.0  0.91047  0.37378  0.62703  1.0000
  H   H2584     1.0  0.92655  0.26952  0.60118  1.0000
  C   C3228     1.0  0.76204  0.99004  0.64078  1.0000
  C   C3229     1.0  0.90279  0.27305  0.65220  1.0000
  H   H2585     1.0  0.79299  0.48526  0.53650  1.0000
  H   H2586     1.0  0.00207  0.23566  0.52857  1.0000
  H   H2587     1.0  0.99226  0.36124  0.62121  1.0000
  C   C3230     1.0  0.78514  0.02152  0.48926  1.0000
  S   S439      1.0  0.96467  0.01918  0.65607  1.0000
  H   H2588     1.0  0.76366  0.40827  0.57387  1.0000
  Fe  Fe220     1.0  0.82719  0.42726  0.65574  1.0000
  H   H2589     1.0  0.76515  0.40836  0.53560  1.0000
  C   C3231     1.0  0.00033  0.20533  0.39440  1.0000
  H   H2590     1.0  0.91225  0.31377  0.60985  1.0000
  H   H2591     1.0  0.78639  0.24180  0.37011  1.0000
  H   H2592     1.0  0.00486  0.25551  0.45310  1.0000
  H   H2593     1.0  0.76642  0.30587  0.38333  1.0000
  H   H2594     1.0  0.92537  0.22719  0.62423  1.0000
  H   H2595     1.0  0.91927  0.36963  0.63826  1.0000
  H   H2596     1.0  0.90801  0.42840  0.65443  1.0000
  C   C3232     1.0  0.00257  0.23998  0.51216  1.0000
  H   H2597     1.0  0.98793  0.16573  0.38988  1.0000
  H   H2598     1.0  0.76196  0.45434  0.59276  1.0000
  H   H2599     1.0  0.97644  0.16235  0.48805  1.0000
  H   H2600     1.0  0.76774  0.09750  0.59651  1.0000
  C   C3233     1.0  0.76171  0.06954  0.57158  1.0000
  C   C3234     1.0  0.91145  0.29545  0.62020  1.0000
  C   C3235     1.0  0.99471  0.27400  0.57372  1.0000
  C   C3236     1.0  0.76378  0.24262  0.35725  1.0000
  C   C3237     1.0  0.85007  0.29477  0.65363  1.0000
  H   H2601     1.0  0.85794  0.01651  0.56387  1.0000
  C   C3238     1.0  0.00117  0.32392  0.50733  1.0000
  H   H2602     1.0  0.99499  0.38730  0.54691  1.0000
  C   C3239     1.0  0.75821  0.00457  0.55634  1.0000
  S   S440      1.0  0.78240  0.41934  0.65402  1.0000
  C   C3240     1.0  0.91068  0.24784  0.64689  1.0000
  H   H2603     1.0  0.87944  0.98853  0.64754  1.0000
  P   P108      1.0  0.75997  0.35701  0.35688  1.0000
  C   C3241     1.0  0.87278  0.32527  0.65003  1.0000
  C   C3242     1.0  0.84747  0.34658  0.65489  1.0000
  H   H2604     1.0  0.75857  0.06884  0.40301  1.0000
  H   H2605     1.0  0.86814  0.37112  0.65099  1.0000
  C   C3243     1.0  0.84580  0.03683  0.64959  1.0000
  C   C3244     1.0  0.00514  0.33488  0.52669  1.0000
  C   C3245     1.0  0.86597  0.29777  0.65088  1.0000
  C   C3246     1.0  0.00369  0.25868  0.33438  1.0000
  C   C3247     1.0  0.84083  0.31917  0.65572  1.0000
  C   C3248     1.0  0.00434  0.25127  0.46952  1.0000
  C   C3249     1.0  0.88510  0.00921  0.64869  1.0000
  C   C3250     1.0  0.89949  0.06236  0.65433  1.0000
  C   C3251     1.0  0.76260  0.01571  0.65189  1.0000
  C   C3252     1.0  0.83881  0.06370  0.65306  1.0000
  H   H2606     1.0  0.76784  0.48090  0.64494  1.0000
  C   C3253     1.0  0.76759  0.12456  0.63990  1.0000
  H   H2607     1.0  0.84031  0.36557  0.65632  1.0000
  C   C3254     1.0  0.75723  0.35182  0.32958  1.0000
  C   C3255     1.0  0.84214  0.98659  0.61419  1.0000
  C   C3256     1.0  0.00644  0.15945  0.34044  1.0000
  C   C3257     1.0  0.77709  0.11956  0.65666  1.0000
  S   S441      1.0  0.95615  0.46153  0.69427  1.0000
  S   S442      1.0  0.94986  0.39530  0.67973  1.0000
  Fe  Fe221     1.0  0.93648  0.43652  0.68156  1.0000
  S   S443      1.0  0.91325  0.44022  0.69768  1.0000
  Fe  Fe222     1.0  0.97013  0.42104  0.69069  1.0000
  S   S444      1.0  0.98147  0.40598  0.72075  1.0000
  C   C3258     1.0  0.95836  0.26718  0.68421  1.0000
  Fe  Fe223     1.0  0.79650  0.43537  0.68053  1.0000
  H   H2608     1.0  0.95601  0.37246  0.74869  1.0000
  S   S445      1.0  0.78756  0.45032  0.71262  1.0000
  C   C3259     1.0  0.79397  0.01780  0.71417  1.0000
  Fe  Fe224     1.0  0.96250  0.47266  0.66129  1.0000
  H   H2609     1.0  0.00436  0.41173  0.88459  1.0000
  S   S446      1.0  0.81368  0.39868  0.67760  1.0000
  H   H2610     1.0  0.94711  0.27196  0.72570  1.0000
  C   C3260     1.0  0.76454  0.42362  0.94524  1.0000
  C   C3261     1.0  0.83221  0.01751  0.67967  1.0000
  C   C3262     1.0  0.93987  0.33706  0.74759  1.0000
  C   C3263     1.0  0.95401  0.35049  0.74370  1.0000
  C   C3264     1.0  0.99832  0.38890  0.73024  1.0000
  C   C3265     1.0  0.77382  0.46803  0.90917  1.0000
  C   C3266     1.0  0.86902  0.43112  0.66097  1.0000
  H   H2611     1.0  0.99885  0.14082  0.92356  1.0000
  C   C3267     1.0  0.76211  0.02053  0.95331  1.0000
  C   C3268     1.0  0.89635  0.43650  0.68332  1.0000
  H   H2612     1.0  0.78530  0.07047  0.74872  1.0000
  H   H2613     1.0  0.77258  0.31495  0.97824  1.0000
  H   H2614     1.0  0.84428  0.48473  0.66342  1.0000
  C   C3269     1.0  0.86832  0.43664  0.68213  1.0000
  C   C3270     1.0  0.88197  0.43939  0.69326  1.0000
  C   C3271     1.0  0.97360  0.43438  0.79184  1.0000
  H   H2615     1.0  0.78186  0.45827  0.91960  1.0000
  H   H2616     1.0  0.85729  0.43889  0.68989  1.0000
  H   H2617     1.0  0.88140  0.44376  0.70963  1.0000
  H   H2618     1.0  0.77248  0.99656  0.75746  1.0000
  C   C3272     1.0  0.00446  0.42330  0.79977  1.0000
  C   C3273     1.0  0.82518  0.04420  0.68285  1.0000
  H   H2619     1.0  0.00038  0.41545  0.95520  1.0000
  H   H2620     1.0  0.93083  0.34858  0.75573  1.0000
  C   C3274     1.0  0.77171  0.04496  0.70329  1.0000
  C   C3275     1.0  0.75788  0.47438  0.71301  1.0000
  H   H2621     1.0  0.75796  0.47149  0.69647  1.0000
  H   H2622     1.0  0.77496  0.00984  0.89041  1.0000
  H   H2623     1.0  0.97737  0.23445  0.73677  1.0000
  C   C3276     1.0  0.99160  0.35333  0.67315  1.0000
  C   C3277     1.0  0.78392  0.41893  0.97922  1.0000
  C   C3278     1.0  0.99013  0.27441  0.73358  1.0000
  H   H2624     1.0  0.78154  0.00870  0.68678  1.0000
  C   C3279     1.0  0.82843  0.06723  0.66951  1.0000
  C   C3280     1.0  0.00528  0.01117  0.90205  1.0000
  C   C3281     1.0  0.79508  0.03504  0.73168  1.0000
  C   C3282     1.0  0.76307  0.06646  0.93529  1.0000
  H   H2625     1.0  0.97667  0.34602  0.73077  1.0000
  H   H2626     1.0  0.77965  0.05261  0.95756  1.0000
  C   C3283     1.0  0.92425  0.34302  0.69240  1.0000
  C   C3284     1.0  0.96321  0.30762  0.72612  1.0000
  H   H2627     1.0  0.80394  0.03083  0.74282  1.0000
  H   H2628     1.0  0.92648  0.29835  0.74409  1.0000
  C   C3285     1.0  0.98309  0.33632  0.68711  1.0000
  H   H2629     1.0  0.82295  0.08790  0.67193  1.0000
  H   H2630     1.0  0.00439  0.31263  0.73586  1.0000
  C   C3286     1.0  0.99254  0.28640  0.86304  1.0000
  C   C3287     1.0  0.00287  0.16262  0.92056  1.0000
  C   C3288     1.0  0.78803  0.40598  0.96052  1.0000
  C   C3289     1.0  0.97502  0.21661  0.67735  1.0000
  H   H2631     1.0  0.89679  0.27413  0.66696  1.0000
  H   H2632     1.0  0.98702  0.04552  0.97659  1.0000
  H   H2633     1.0  0.98260  0.18266  0.93332  1.0000
  C   C3290     1.0  0.78235  0.02272  0.69999  1.0000
  H   H2634     1.0  0.00040  0.98957  0.93072  1.0000
  C   C3291     1.0  0.76509  0.33191  0.98372  1.0000
  C   C3292     1.0  0.97764  0.41009  0.80336  1.0000
  C   C3293     1.0  0.91626  0.36104  0.70599  1.0000
  H   H2635     1.0  0.99046  0.23224  0.70014  1.0000
  C   C3294     1.0  0.76040  0.08048  0.66836  1.0000
  H   H2636     1.0  0.98163  0.47200  0.77548  1.0000
  C   C3295     1.0  0.93741  0.30880  0.74096  1.0000
  C   C3296     1.0  0.98681  0.24729  0.74234  1.0000
  C   C3297     1.0  0.77846  0.40850  0.94352  1.0000
  C   C3298     1.0  0.91727  0.33340  0.67444  1.0000
  C   C3299     1.0  0.77351  0.09769  0.67092  1.0000
  C   C3300     1.0  0.00561  0.41505  0.97021  1.0000
  C   C3301     1.0  0.77532  0.07148  0.86232  1.0000
  C   C3302     1.0  0.96568  0.33565  0.73327  1.0000
  C   C3303     1.0  0.97144  0.26154  0.69591  1.0000
  H   H2637     1.0  0.98964  0.38846  0.76158  1.0000
  C   C3304     1.0  0.89701  0.43082  0.66219  1.0000
  C   C3305     1.0  0.99979  0.27671  0.84498  1.0000
  H   H2638     1.0  0.79857  0.39375  0.95931  1.0000
  C   C3306     1.0  0.96190  0.22222  0.66594  1.0000
  H   H2639     1.0  0.98637  0.37197  0.66608  1.0000
  H   H2640     1.0  0.80194  0.00019  0.71174  1.0000
  H   H2641     1.0  0.91053  0.22947  0.65729  1.0000
  H   H2642     1.0  0.97124  0.34187  0.69034  1.0000
  H   H2643     1.0  0.81734  0.04722  0.69574  1.0000
  H   H2644     1.0  0.77359  0.06961  0.89527  1.0000
  C   C3307     1.0  0.90204  0.34121  0.67018  1.0000
  C   C3308     1.0  0.98987  0.31243  0.69668  1.0000
  H   H2645     1.0  0.99624  0.38573  0.81623  1.0000
  C   C3309     1.0  0.76739  0.07337  0.88124  1.0000
  C   C3310     1.0  0.76490  0.99620  0.88945  1.0000
  H   H2646     1.0  0.92191  0.36993  0.71927  1.0000
  C   C3311     1.0  0.99377  0.18621  0.92612  1.0000
  C   C3312     1.0  0.76055  0.43671  0.96405  1.0000
  C   C3313     1.0  0.78460  0.05736  0.73499  1.0000
  H   H2647     1.0  0.99320  0.21551  0.76504  1.0000
  C   C3314     1.0  0.90114  0.36873  0.70198  1.0000
  C   C3315     1.0  0.89405  0.35897  0.68416  1.0000
  H   H2648     1.0  0.95222  0.28731  0.68590  1.0000
  C   C3316     1.0  0.75872  0.45759  0.90779  1.0000
  C   C3317     1.0  0.77016  0.46981  0.74590  1.0000
  H   H2649     1.0  0.99500  0.28165  0.83006  1.0000
  H   H2650     1.0  0.82982  0.99964  0.69011  1.0000
  H   H2651     1.0  0.93607  0.33750  0.69540  1.0000
  C   C3318     1.0  0.00051  0.44771  0.78810  1.0000
  H   H2652     1.0  0.82849  0.31690  0.65780  1.0000
  C   C3319     1.0  0.84249  0.01379  0.66309  1.0000
  H   H2653     1.0  0.92395  0.32059  0.66366  1.0000
  S   S447      1.0  0.97815  0.43388  0.65840  1.0000
  C   C3320     1.0  0.99566  0.23659  0.75847  1.0000
  H   H2654     1.0  0.99275  0.28697  0.89608  1.0000
  C   C3321     1.0  0.97988  0.23631  0.69215  1.0000
  H   H2655     1.0  0.98373  0.41480  0.98632  1.0000
  H   H2656     1.0  0.76481  0.07950  0.72375  1.0000
  C   C3322     1.0  0.95358  0.24749  0.66938  1.0000
  C   C3323     1.0  0.77061  0.46562  0.72436  1.0000
  C   C3324     1.0  0.00509  0.30524  0.69148  1.0000
  H   H2657     1.0  0.89511  0.38338  0.71226  1.0000
  H   H2658     1.0  0.88253  0.36619  0.68122  1.0000
  C   C3325     1.0  0.76771  0.07689  0.84392  1.0000
  H   H2659     1.0  0.78188  0.39856  0.92909  1.0000
  C   C3326     1.0  0.99912  0.38257  0.75149  1.0000
  P   P109      1.0  0.97858  0.28868  0.71310  1.0000
  H   H2660     1.0  0.90496  0.99075  0.66302  1.0000
  C   C3327     1.0  0.94908  0.29401  0.73038  1.0000
  H   H2661     1.0  0.77383  0.07560  0.82924  1.0000
  S   S448      1.0  0.81144  0.46504  0.66086  1.0000
  H   H2662     1.0  0.84794  0.99301  0.66097  1.0000
  H   H2663     1.0  0.91809  0.03782  0.66716  1.0000
  H   H2664     1.0  0.78741  0.06612  0.86192  1.0000
  C   C3328     1.0  0.99904  0.21433  0.92233  1.0000
  H   H2665     1.0  0.77988  0.46326  0.75492  1.0000
  H   H2666     1.0  0.98203  0.29870  0.86215  1.0000
  H   H2667     1.0  0.96166  0.43857  0.78860  1.0000
  C   C3329     1.0  0.98497  0.45323  0.78433  1.0000
  H   H2668     1.0  0.99176  0.23236  0.92644  1.0000
  C   C3330     1.0  0.99695  0.47998  0.72069  1.0000
  H   H2669     1.0  0.99962  0.44652  0.74325  1.0000
  H   H2670     1.0  0.96882  0.39544  0.80910  1.0000
  H   H2671     1.0  0.78743  0.13232  0.65827  1.0000
  H   H2672     1.0  0.98169  0.19740  0.67420  1.0000
  C   C3331     1.0  0.99307  0.02612  0.98085  1.0000
  C   C3332     1.0  0.99306  0.40461  0.80737  1.0000
  C   C3333     1.0  0.99878  0.27999  0.88227  1.0000
  C   C3334     1.0  0.00195  0.29119  0.74182  1.0000
  C   C3335     1.0  0.00186  0.46891  0.73955  1.0000
  H   H2673     1.0  0.00424  0.03241  0.90881  1.0000
  H   H2674     1.0  0.76880  0.08691  0.93247  1.0000
  C   C3336     1.0  0.77025  0.43445  0.98091  1.0000
  C   C3337     1.0  0.76929  0.04705  0.94946  1.0000
  H   H2675     1.0  0.94389  0.25247  0.65976  1.0000
  H   H2676     1.0  0.00092  0.46474  0.88272  1.0000
  H   H2677     1.0  0.00312  0.33431  0.97135  1.0000
  H   H2678     1.0  0.78117  0.09399  0.68358  1.0000
  H   H2679     1.0  0.76689  0.00553  0.96436  1.0000
  C   C3338     1.0  0.90684  0.03697  0.66025  1.0000
  C   C3339     1.0  0.77297  0.06237  0.72083  1.0000
  H   H2680     1.0  0.99104  0.46609  0.71002  1.0000
  C   C3340     1.0  0.99610  0.41438  0.98780  1.0000
  C   C3341     1.0  0.00639  0.31921  0.95933  1.0000
  H   H2681     1.0  0.00610  0.28237  0.97971  1.0000
  H   H2682     1.0  0.75673  0.36600  0.93359  1.0000
  C   C3342     1.0  0.75722  0.48211  0.75601  1.0000
  H   H2683     1.0  0.75712  0.48483  0.77257  1.0000
  C   C3343     1.0  0.00299  0.98673  0.91443  1.0000
  H   H2684     1.0  0.90495  0.08299  0.65691  1.0000
  C   C3344     1.0  0.89951  0.01044  0.65778  1.0000
  Fe  Fe225     1.0  0.96596  0.95083  0.04352  1.0000
  S   S449      1.0  0.97199  0.93111  0.07436  1.0000
  S   S450      1.0  0.98642  0.95718  0.02056  1.0000
  Fe  Fe226     1.0  0.93151  0.95290  0.05631  1.0000
  S   S451      1.0  0.93557  0.93429  0.08774  1.0000
  S   S452      1.0  0.90767  0.97028  0.04953  1.0000
  Fe  Fe227     1.0  0.95596  0.96430  0.08799  1.0000
  C   C3345     1.0  0.78430  0.77767  0.00399  1.0000
  Fe  Fe228     1.0  0.95115  0.90267  0.07156  1.0000
  S   S453      1.0  0.94895  0.85343  0.07589  1.0000
  H   H2685     1.0  0.75899  0.77038  0.08516  1.0000
  S   S454      1.0  0.94600  0.91995  0.03961  1.0000
  Fe  Fe229     1.0  0.78940  0.90487  0.04241  1.0000
  S   S455      1.0  0.78554  0.92256  0.07475  1.0000
  S   S456      1.0  0.76783  0.89698  0.02259  1.0000
  Fe  Fe230     1.0  0.82456  0.90658  0.04780  1.0000
  S   S457      1.0  0.82288  0.92369  0.07990  1.0000
  S   S458      1.0  0.84807  0.89327  0.03555  1.0000
  Fe  Fe231     1.0  0.80391  0.89116  0.08419  1.0000
  S   S459      1.0  0.80472  0.86549  0.11415  1.0000
  Fe  Fe232     1.0  0.80492  0.95384  0.06799  1.0000
  P   P110      1.0  0.76653  0.77399  0.04040  1.0000
  S   S460      1.0  0.80662  0.87181  0.05272  1.0000
  S   S461      1.0  0.80768  0.93839  0.03497  1.0000
  Fe  Fe233     1.0  0.95574  0.65510  0.14487  1.0000
  S   S462      1.0  0.95407  0.63825  0.17742  1.0000
  S   S463      1.0  0.95313  0.62779  0.11612  1.0000
  Fe  Fe234     1.0  0.95963  0.71841  0.15781  1.0000
  S   S464      1.0  0.95857  0.70558  0.19150  1.0000
  S   S465      1.0  0.96246  0.76692  0.15116  1.0000
  Fe  Fe235     1.0  0.97399  0.66795  0.18372  1.0000
  S   S466      1.0  0.99640  0.65760  0.20102  1.0000
  Fe  Fe236     1.0  0.93889  0.67704  0.18254  1.0000
  S   S467      1.0  0.91699  0.67675  0.20210  1.0000
  S   S468      1.0  0.97645  0.68295  0.15047  1.0000
  S   S469      1.0  0.93912  0.69179  0.14954  1.0000
  Fe  Fe237     1.0  0.79913  0.70092  0.14460  1.0000
  S   S470      1.0  0.81258  0.71626  0.17151  1.0000
  S   S471      1.0  0.79265  0.73008  0.11793  1.0000
  Fe  Fe238     1.0  0.79919  0.63736  0.15900  1.0000
  S   S472      1.0  0.81231  0.64898  0.18745  1.0000
  S   S473      1.0  0.79436  0.58892  0.15556  1.0000
  Fe  Fe239     1.0  0.79647  0.68760  0.19026  1.0000
  S   S474      1.0  0.78726  0.70172  0.22219  1.0000
  Fe  Fe240     1.0  0.82703  0.67651  0.16640  1.0000
  S   S475      1.0  0.85240  0.67285  0.15796  1.0000
  S   S476      1.0  0.78226  0.67400  0.16333  1.0000
  S   S477      1.0  0.81450  0.66321  0.13797  1.0000
  C   C3346     1.0  0.98888  0.53841  0.04180  1.0000
  C   C3347     1.0  0.86541  0.96118  0.09826  1.0000
  H   H2686     1.0  0.83130  0.87599  0.14089  1.0000
  C   C3348     1.0  0.84728  0.59409  0.15348  1.0000
  C   C3349     1.0  0.95913  0.70261  0.27569  1.0000
  H   H2687     1.0  0.79402  0.74116  0.05201  1.0000
  C   C3350     1.0  0.77277  0.85348  0.16547  1.0000
  H   H2688     1.0  0.91016  0.90602  0.13199  1.0000
  C   C3351     1.0  0.81194  0.76824  0.22847  1.0000
  C   C3352     1.0  0.96897  0.56496  0.19878  1.0000
  C   C3353     1.0  0.89902  0.67604  0.18982  1.0000
  C   C3354     1.0  0.88542  0.67722  0.20177  1.0000
  C   C3355     1.0  0.87097  0.67606  0.19238  1.0000
  C   C3356     1.0  0.87006  0.67419  0.17093  1.0000
  C   C3357     1.0  0.88366  0.67276  0.15903  1.0000
  C   C3358     1.0  0.89806  0.67360  0.16840  1.0000
  H   H2689     1.0  0.88607  0.67879  0.21838  1.0000
  H   H2690     1.0  0.86059  0.67633  0.20173  1.0000
  H   H2691     1.0  0.88309  0.67073  0.14245  1.0000
  H   H2692     1.0  0.90839  0.67201  0.15906  1.0000
  C   C3359     1.0  0.79170  0.86451  0.19124  1.0000
  C   C3360     1.0  0.80096  0.52695  0.10027  1.0000
  C   C3361     1.0  0.80331  0.55685  0.09768  1.0000
  C   C3362     1.0  0.80162  0.57604  0.11442  1.0000
  C   C3363     1.0  0.79749  0.56560  0.13405  1.0000
  C   C3364     1.0  0.79547  0.53565  0.13675  1.0000
  C   C3365     1.0  0.79724  0.51642  0.12002  1.0000
  H   H2693     1.0  0.80622  0.56528  0.08251  1.0000
  H   H2694     1.0  0.80317  0.59896  0.11202  1.0000
  H   H2695     1.0  0.79226  0.52726  0.15183  1.0000
  C   C3366     1.0  0.97460  0.51393  0.19886  1.0000
  C   C3367     1.0  0.80201  0.82768  0.11498  1.0000
  C   C3368     1.0  0.79758  0.81257  0.09752  1.0000
  C   C3369     1.0  0.79507  0.78263  0.09863  1.0000
  C   C3370     1.0  0.79692  0.76746  0.11721  1.0000
  C   C3371     1.0  0.80164  0.78248  0.13468  1.0000
  C   C3372     1.0  0.80409  0.81253  0.13357  1.0000
  H   H2696     1.0  0.79574  0.82416  0.08329  1.0000
  H   H2697     1.0  0.79142  0.77125  0.08511  1.0000
  H   H2698     1.0  0.80312  0.77110  0.14908  1.0000
  H   H2699     1.0  0.80746  0.82415  0.14718  1.0000
  H   H2700     1.0  0.76466  0.87371  0.06638  1.0000
  C   C3373     1.0  0.89405  0.82938  0.01430  1.0000
  H   H2701     1.0  0.91753  0.85231  0.06171  1.0000
  C   C3374     1.0  0.95278  0.82982  0.09707  1.0000
  C   C3375     1.0  0.94960  0.80014  0.09513  1.0000
  C   C3376     1.0  0.95235  0.78058  0.11147  1.0000
  C   C3377     1.0  0.95838  0.79046  0.13002  1.0000
  C   C3378     1.0  0.96137  0.82018  0.13203  1.0000
  C   C3379     1.0  0.95860  0.83973  0.11572  1.0000
  H   H2702     1.0  0.94507  0.79221  0.08082  1.0000
  H   H2703     1.0  0.94999  0.75787  0.10964  1.0000
  H   H2704     1.0  0.96603  0.82813  0.14628  1.0000
  H   H2705     1.0  0.96111  0.86243  0.11753  1.0000
  C   C3380     1.0  0.96164  0.53002  0.11562  1.0000
  C   C3381     1.0  0.96216  0.54533  0.13426  1.0000
  C   C3382     1.0  0.95942  0.57522  0.13471  1.0000
  C   C3383     1.0  0.95609  0.59007  0.11649  1.0000
  C   C3384     1.0  0.95535  0.57471  0.09792  1.0000
  C   C3385     1.0  0.95814  0.54484  0.09746  1.0000
  H   H2706     1.0  0.96479  0.53408  0.14842  1.0000
  H   H2707     1.0  0.96010  0.58681  0.14908  1.0000
  H   H2708     1.0  0.95279  0.58603  0.08376  1.0000
  H   H2709     1.0  0.95784  0.53342  0.08299  1.0000
  C   C3386     1.0  0.89120  0.94830  0.04650  1.0000
  C   C3387     1.0  0.89236  0.91859  0.04345  1.0000
  C   C3388     1.0  0.87907  0.90205  0.04001  1.0000
  C   C3389     1.0  0.86445  0.91476  0.04051  1.0000
  C   C3390     1.0  0.86326  0.94437  0.04411  1.0000
  C   C3391     1.0  0.87660  0.96113  0.04657  1.0000
  H   H2710     1.0  0.78057  0.84649  0.00024  1.0000
  H   H2711     1.0  0.98330  0.53608  0.02714  1.0000
  H   H2712     1.0  0.85209  0.95453  0.04430  1.0000
  C   C3392     1.0  0.00199  0.48805  0.00913  1.0000
  H   H2713     1.0  0.88158  0.73293  0.13485  1.0000
  C   C3393     1.0  0.77924  0.84776  0.18475  1.0000
  H   H2714     1.0  0.81843  0.81582  0.03027  1.0000
  C   C3394     1.0  0.79615  0.65423  0.26292  1.0000
  C   C3395     1.0  0.83530  0.51977  0.04710  1.0000
  H   H2715     1.0  0.76310  0.64531  0.22921  1.0000
  C   C3396     1.0  0.97483  0.64762  0.06463  1.0000
  C   C3397     1.0  0.76100  0.79449  0.18544  1.0000
  C   C3398     1.0  0.76132  0.63276  0.21549  1.0000
  C   C3399     1.0  0.88127  0.53724  0.06387  1.0000
  C   C3400     1.0  0.84668  0.82305  0.17067  1.0000
  H   H2716     1.0  0.77399  0.87955  0.13782  1.0000
  H   H2717     1.0  0.88720  0.49201  0.06244  1.0000
  H   H2718     1.0  0.79560  0.80156  0.05096  1.0000
  C   C3401     1.0  0.97498  0.58019  0.00327  1.0000
  C   C3402     1.0  0.86297  0.76575  0.22399  1.0000
  C   C3403     1.0  0.85286  0.74254  0.22665  1.0000
  C   C3404     1.0  0.84632  0.72964  0.20947  1.0000
  C   C3405     1.0  0.85009  0.73957  0.18961  1.0000
  C   C3406     1.0  0.86026  0.76281  0.18680  1.0000
  C   C3407     1.0  0.86663  0.77592  0.20415  1.0000
  P   P111      1.0  0.86550  0.77580  0.16130  1.0000
  C   C3408     1.0  0.85596  0.80942  0.15571  1.0000
  C   C3409     1.0  0.88619  0.77878  0.16098  1.0000
  C   C3410     1.0  0.89369  0.80395  0.15400  1.0000
  C   C3411     1.0  0.90975  0.80555  0.15399  1.0000
  C   C3412     1.0  0.91836  0.78236  0.16127  1.0000
  C   C3413     1.0  0.91095  0.75755  0.16870  1.0000
  C   C3414     1.0  0.89494  0.75576  0.16859  1.0000
  C   C3415     1.0  0.84764  0.84446  0.13021  1.0000
  C   C3416     1.0  0.85644  0.82044  0.13547  1.0000
  C   C3417     1.0  0.85915  0.75084  0.14187  1.0000
  C   C3418     1.0  0.84349  0.74941  0.13717  1.0000
  C   C3419     1.0  0.83825  0.72959  0.12272  1.0000
  C   C3420     1.0  0.86953  0.73281  0.13134  1.0000
  H   H2719     1.0  0.86814  0.77564  0.23730  1.0000
  H   H2720     1.0  0.85018  0.73439  0.24201  1.0000
  H   H2721     1.0  0.83855  0.71149  0.21145  1.0000
  H   H2722     1.0  0.84533  0.72857  0.17657  1.0000
  H   H2723     1.0  0.87462  0.79374  0.20231  1.0000
  H   H2724     1.0  0.88729  0.82225  0.14842  1.0000
  H   H2725     1.0  0.91561  0.82477  0.14840  1.0000
  H   H2726     1.0  0.93080  0.78367  0.16126  1.0000
  H   H2727     1.0  0.91763  0.73967  0.17459  1.0000
  H   H2728     1.0  0.88938  0.73634  0.17445  1.0000
  S   S478      1.0  0.95095  0.98517  0.05761  1.0000
  H   H2729     1.0  0.86327  0.80993  0.12364  1.0000
  H   H2730     1.0  0.83524  0.76313  0.14502  1.0000
  H   H2731     1.0  0.82610  0.72805  0.11964  1.0000
  C   C3421     1.0  0.99411  0.98210  0.00171  1.0000
  H   H2732     1.0  0.87219  0.94316  0.09269  1.0000
  H   H2733     1.0  0.76816  0.83688  0.03963  1.0000
  H   H2734     1.0  0.97824  0.91266  0.99122  1.0000
  H   H2735     1.0  0.83966  0.62536  0.05097  1.0000
  C   C3422     1.0  0.84641  0.57136  0.09581  1.0000
  C   C3423     1.0  0.79845  0.77198  0.24007  1.0000
  H   H2736     1.0  0.95493  0.53283  0.21413  1.0000
  H   H2737     1.0  0.84026  0.61304  0.15612  1.0000
  P   P112      1.0  0.77421  0.58606  0.23645  1.0000
  H   H2738     1.0  0.99857  0.67013  0.25986  1.0000
  P   P113      1.0  0.86121  0.53082  0.07048  1.0000
  C   C3424     1.0  0.98762  0.67929  0.26452  1.0000
  C   C3425     1.0  0.80127  0.79634  0.20065  1.0000
  H   H2739     1.0  0.79721  0.76193  0.25514  1.0000
  C   C3426     1.0  0.84934  0.58446  0.05973  1.0000
  P   P114      1.0  0.77170  0.81928  0.20117  1.0000
  C   C3427     1.0  0.85828  0.49473  0.03594  1.0000
  H   H2740     1.0  0.81761  0.55928  0.19057  1.0000
  C   C3428     1.0  0.84253  0.97958  0.11522  1.0000
  H   H2741     1.0  0.75914  0.85932  0.10269  1.0000
  H   H2742     1.0  0.84766  0.93443  0.11188  1.0000
  C   C3429     1.0  0.96296  0.69867  0.25488  1.0000
  C   C3430     1.0  0.85159  0.95628  0.10896  1.0000
  H   H2743     1.0  0.96190  0.58287  0.20375  1.0000
  C   C3431     1.0  0.79732  0.78569  0.99235  1.0000
  H   H2744     1.0  0.75771  0.94577  0.99398  1.0000
  H   H2745     1.0  0.87017  0.48909  0.03741  1.0000
  H   H2746     1.0  0.84582  0.81479  0.18627  1.0000
  C   C3432     1.0  0.89121  0.51394  0.06040  1.0000
  C   C3433     1.0  0.90268  0.57006  0.05703  1.0000
  C   C3434     1.0  0.92593  0.58456  0.18482  1.0000
  C   C3435     1.0  0.91836  0.59853  0.20108  1.0000
  C   C3436     1.0  0.90287  0.60562  0.19944  1.0000
  C   C3437     1.0  0.89496  0.59910  0.18148  1.0000
  C   C3438     1.0  0.90247  0.58495  0.16510  1.0000
  C   C3439     1.0  0.91809  0.57801  0.16686  1.0000
  P   P115      1.0  0.89275  0.57757  0.14131  1.0000
  C   C3440     1.0  0.90168  0.54546  0.13092  1.0000
  C   C3441     1.0  0.87233  0.57285  0.14633  1.0000
  C   C3442     1.0  0.86307  0.59713  0.14982  1.0000
  C   C3443     1.0  0.90959  0.54624  0.11184  1.0000
  H   H2747     1.0  0.96633  0.69844  0.30692  1.0000
  C   C3444     1.0  0.91229  0.54665  0.05292  1.0000
  H   H2748     1.0  0.87209  0.52633  0.14378  1.0000
  H   H2749     1.0  0.78914  0.53646  0.25565  1.0000
  C   C3445     1.0  0.89576  0.60772  0.12389  1.0000
  C   C3446     1.0  0.90927  0.62427  0.12465  1.0000
  C   C3447     1.0  0.91156  0.64747  0.11108  1.0000
  C   C3448     1.0  0.90043  0.65435  0.09662  1.0000
  C   C3449     1.0  0.88705  0.63777  0.09556  1.0000
  C   C3450     1.0  0.88477  0.61440  0.10903  1.0000
  H   H2750     1.0  0.93798  0.57951  0.18582  1.0000
  H   H2751     1.0  0.92459  0.60471  0.21469  1.0000
  H   H2752     1.0  0.89717  0.61731  0.21180  1.0000
  H   H2753     1.0  0.88314  0.60579  0.18041  1.0000
  H   H2754     1.0  0.92439  0.56812  0.15419  1.0000
  H   H2755     1.0  0.92764  0.73762  0.06382  1.0000
  H   H2756     1.0  0.86806  0.61853  0.14967  1.0000
  H   H2757     1.0  0.90986  0.56558  0.10244  1.0000
  C   C3451     1.0  0.90654  0.51860  0.05464  1.0000
  H   H2758     1.0  0.79680  0.86052  0.20610  1.0000
  H   H2759     1.0  0.98401  0.62420  0.28188  1.0000
  C   C3452     1.0  0.98973  0.61596  0.29534  1.0000
  H   H2760     1.0  0.91814  0.61935  0.13560  1.0000
  H   H2761     1.0  0.92210  0.65992  0.11176  1.0000
  H   H2762     1.0  0.90226  0.67242  0.08618  1.0000
  H   H2763     1.0  0.87843  0.64297  0.08432  1.0000
  H   H2764     1.0  0.87441  0.60163  0.10786  1.0000
  H   H2765     1.0  0.83025  0.63673  0.08642  1.0000
  H   H2766     1.0  0.88014  0.87938  0.03675  1.0000
  C   C3453     1.0  0.91801  0.49699  0.11692  1.0000
  H   H2767     1.0  0.83428  0.60208  0.11485  1.0000
  H   H2768     1.0  0.82817  0.56463  0.15543  1.0000
  C   C3454     1.0  0.84050  0.56680  0.15329  1.0000
  C   C3455     1.0  0.96953  0.69494  0.29097  1.0000
  C   C3456     1.0  0.76043  0.87288  0.00343  1.0000
  C   C3457     1.0  0.90238  0.52036  0.14312  1.0000
  C   C3458     1.0  0.91781  0.52213  0.10502  1.0000
  H   H2769     1.0  0.98502  0.59231  0.18257  1.0000
  H   H2770     1.0  0.77582  0.78951  0.24106  1.0000
  C   C3459     1.0  0.84512  0.83083  0.07012  1.0000
  C   C3460     1.0  0.83857  0.80502  0.07708  1.0000
  C   C3461     1.0  0.84799  0.78255  0.08358  1.0000
  C   C3462     1.0  0.86395  0.78607  0.08364  1.0000
  C   C3463     1.0  0.87061  0.81223  0.07701  1.0000
  C   C3464     1.0  0.86105  0.83430  0.06982  1.0000
  P   P116      1.0  0.89120  0.81769  0.07698  1.0000
  C   C3465     1.0  0.89663  0.84479  0.09557  1.0000
  C   C3466     1.0  0.90133  0.78492  0.08346  1.0000
  C   C3467     1.0  0.90032  0.77394  0.10366  1.0000
  C   C3468     1.0  0.90912  0.75014  0.10946  1.0000
  C   C3469     1.0  0.91888  0.73694  0.09508  1.0000
  C   C3470     1.0  0.91981  0.74746  0.07485  1.0000
  C   C3471     1.0  0.91112  0.77139  0.06904  1.0000
  C   C3472     1.0  0.91175  0.84547  0.10269  1.0000
  C   C3473     1.0  0.91658  0.86746  0.11573  1.0000
  C   C3474     1.0  0.90628  0.88870  0.12219  1.0000
  C   C3475     1.0  0.89110  0.88789  0.11564  1.0000
  C   C3476     1.0  0.88629  0.86612  0.10233  1.0000
  C   C3477     1.0  0.89738  0.82923  0.05147  1.0000
  C   C3478     1.0  0.88913  0.82077  0.03407  1.0000
  C   C3479     1.0  0.90462  0.98541  0.12071  1.0000
  C   C3480     1.0  0.98790  0.51916  0.18700  1.0000
  C   C3481     1.0  0.91578  0.85394  0.02892  1.0000
  C   C3482     1.0  0.91081  0.84570  0.04871  1.0000
  H   H2771     1.0  0.83787  0.84823  0.06483  1.0000
  H   H2772     1.0  0.82622  0.80237  0.07728  1.0000
  H   H2773     1.0  0.84283  0.76240  0.08849  1.0000
  H   H2774     1.0  0.87095  0.76830  0.08874  1.0000
  H   H2775     1.0  0.86587  0.85436  0.06400  1.0000
  H   H2776     1.0  0.89295  0.78422  0.11495  1.0000
  H   H2777     1.0  0.90871  0.74232  0.12524  1.0000
  H   H2778     1.0  0.92599  0.71899  0.09977  1.0000
  H   H2779     1.0  0.91242  0.77963  0.05345  1.0000
  H   H2780     1.0  0.92003  0.82959  0.09755  1.0000
  H   H2781     1.0  0.92846  0.86836  0.12039  1.0000
  C   C3483     1.0  0.76782  0.72395  0.25225  1.0000
  H   H2782     1.0  0.88315  0.90452  0.12049  1.0000
  H   H2783     1.0  0.87461  0.86657  0.09719  1.0000
  H   H2784     1.0  0.87883  0.80781  0.03571  1.0000
  H   H2785     1.0  0.98140  0.60332  0.06625  1.0000
  C   C3484     1.0  0.76062  0.75489  0.16098  1.0000
  C   C3485     1.0  0.79878  0.57092  0.21064  1.0000
  C   C3486     1.0  0.83642  0.61687  0.08346  1.0000
  C   C3487     1.0  0.76133  0.86363  0.22724  1.0000
  H   H2786     1.0  0.75884  0.71981  0.20160  1.0000
  H   H2787     1.0  0.77710  0.71938  0.26263  1.0000
  H   H2788     1.0  0.99586  0.65003  0.01136  1.0000
  C   C3488     1.0  0.76916  0.73903  0.05222  1.0000
  C   C3489     1.0  0.86429  0.71344  0.11655  1.0000
  H   H2789     1.0  0.90722  0.59181  0.05606  1.0000
  H   H2790     1.0  0.81958  0.80605  0.99273  1.0000
  C   C3490     1.0  0.84864  0.71160  0.11242  1.0000
  C   C3491     1.0  0.78581  0.70289  0.06721  1.0000
  C   C3492     1.0  0.84172  0.61045  0.06354  1.0000
  H   H2791     1.0  0.78100  0.77060  0.17489  1.0000
  C   C3493     1.0  0.85180  0.56475  0.07587  1.0000
  C   C3494     1.0  0.86542  0.54544  0.14652  1.0000
  H   H2792     1.0  0.80239  0.67320  0.25759  1.0000
  C   C3495     1.0  0.96513  0.53683  0.20474  1.0000
  H   H2793     1.0  0.80716  0.89958  0.18369  1.0000
  C   C3496     1.0  0.79757  0.88667  0.17866  1.0000
  H   H2794     1.0  0.88014  0.58396  0.06561  1.0000
  C   C3497     1.0  0.79036  0.56422  0.22870  1.0000
  C   C3498     1.0  0.82700  0.50589  0.03179  1.0000
  C   C3499     1.0  0.84958  0.54246  0.14994  1.0000
  H   H2795     1.0  0.78483  0.61996  0.30717  1.0000
  H   H2796     1.0  0.99494  0.56062  0.12504  1.0000
  H   H2797     1.0  0.80244  0.80510  0.18517  1.0000
  H   H2798     1.0  0.84449  0.69583  0.10158  1.0000
  H   H2799     1.0  0.85316  0.57948  0.04415  1.0000
  H   H2800     1.0  0.87229  0.69897  0.10899  1.0000
  C   C3500     1.0  0.79516  0.54135  0.24128  1.0000
  C   C3501     1.0  0.83877  0.59734  0.09955  1.0000
  S   S479      1.0  0.80238  0.50417  0.07819  1.0000
  C   C3502     1.0  0.97721  0.68712  0.24933  1.0000
  C   C3503     1.0  0.88724  0.56543  0.06245  1.0000
  H   H2801     1.0  0.84427  0.52131  0.14960  1.0000
  H   H2802     1.0  0.79720  0.69560  0.07107  1.0000
  C   C3504     1.0  0.81138  0.55414  0.20473  1.0000
  H   H2803     1.0  0.89704  0.51976  0.15834  1.0000
  H   H2804     1.0  0.76326  0.84085  0.15994  1.0000
  C   C3505     1.0  0.78761  0.80007  0.21219  1.0000
  H   H2805     1.0  0.79578  0.90894  0.14948  1.0000
  H   H2806     1.0  0.98293  0.69362  0.02482  1.0000
  C   C3506     1.0  0.79407  0.64899  0.28403  1.0000
  C   C3507     1.0  0.99734  0.63446  0.30885  1.0000
  C   C3508     1.0  0.77871  0.87561  0.15293  1.0000
  C   C3509     1.0  0.85902  0.50636  0.09219  1.0000
  H   H2807     1.0  0.98019  0.68428  0.23318  1.0000
  H   H2808     1.0  0.84759  0.85229  0.11442  1.0000
  C   C3510     1.0  0.83798  0.84721  0.16537  1.0000
  C   C3511     1.0  0.78011  0.60518  0.27642  1.0000
  H   H2809     1.0  0.81475  0.50944  0.03076  1.0000
  H   H2810     1.0  0.79204  0.63934  0.23222  1.0000
  H   H2811     1.0  0.82372  0.77713  0.19964  1.0000
  C   C3512     1.0  0.79011  0.63511  0.24854  1.0000
  H   H2812     1.0  0.94809  0.71169  0.27995  1.0000
  C   C3513     1.0  0.75849  0.81385  0.09598  1.0000
  C   C3514     1.0  0.76009  0.79280  0.08071  1.0000
  C   C3515     1.0  0.78344  0.78352  0.02522  1.0000
  C   C3516     1.0  0.98385  0.68309  0.28548  1.0000
  C   C3517     1.0  0.98216  0.57024  0.18673  1.0000
  H   H2813     1.0  0.76722  0.56606  0.19499  1.0000
  H   H2814     1.0  0.92615  0.86674  0.02702  1.0000
  H   H2815     1.0  0.77450  0.66705  0.08236  1.0000
  H   H2816     1.0  0.88310  0.50545  0.10022  1.0000
  C   C3518     1.0  0.76970  0.71776  0.23109  1.0000
  H   H2817     1.0  0.83061  0.85735  0.17681  1.0000
  H   H2818     1.0  0.79569  0.58910  0.20103  1.0000
  C   C3519     1.0  0.79594  0.79699  0.03463  1.0000
  C   C3520     1.0  0.78156  0.61101  0.25517  1.0000
  H   H2819     1.0  0.98211  0.60882  0.22372  1.0000
  H   H2820     1.0  0.76928  0.87782  0.21918  1.0000
  H   H2821     1.0  0.82111  0.75536  0.23465  1.0000
  C   C3521     1.0  0.81337  0.78046  0.20878  1.0000
  H   H2822     1.0  0.84784  0.55633  0.10839  1.0000
  C   C3522     1.0  0.00360  0.97780  0.06930  1.0000
  H   H2823     1.0  0.79871  0.66391  0.29512  1.0000
  H   H2824     1.0  0.99677  0.65181  0.11470  1.0000
  C   C3523     1.0  0.83841  0.85782  0.14515  1.0000
  H   H2825     1.0  0.95492  0.70458  0.24300  1.0000
  C   C3524     1.0  0.00558  0.58525  0.14927  1.0000
  C   C3525     1.0  0.78618  0.62432  0.29078  1.0000
  C   C3526     1.0  0.85108  0.51459  0.04925  1.0000
  S   S480      1.0  0.96613  0.49279  0.11553  1.0000
  C   C3527     1.0  0.00367  0.54165  0.07966  1.0000
  C   C3528     1.0  0.80960  0.79945  0.00181  1.0000
  C   C3529     1.0  0.78629  0.78771  0.23197  1.0000
  C   C3530     1.0  0.99956  0.59213  0.24395  1.0000
  C   C3531     1.0  0.79108  0.89217  0.15950  1.0000
  H   H2826     1.0  0.90354  0.90857  0.04312  1.0000
  C   C3532     1.0  0.80894  0.80496  0.02296  1.0000
  H   H2827     1.0  0.92426  0.55015  0.04872  1.0000
  C   C3533     1.0  0.99367  0.61141  0.22908  1.0000
  H   H2828     1.0  0.96959  0.69228  0.05900  1.0000
  C   C3534     1.0  0.99166  0.54734  0.18061  1.0000
  H   H2829     1.0  0.99247  0.57448  0.24952  1.0000
  C   C3535     1.0  0.90735  0.84601  0.01173  1.0000
  H   H2830     1.0  0.83441  0.50232  0.08903  1.0000
  H   H2831     1.0  0.88198  0.98312  0.13457  1.0000
  H   H2832     1.0  0.77438  0.58585  0.28200  1.0000
  C   C3536     1.0  0.87168  0.49754  0.10376  1.0000
  P   P117      1.0  0.99749  0.67297  0.30489  1.0000
  H   H2833     1.0  0.98015  0.49772  0.05269  1.0000
  H   H2834     1.0  0.98436  0.57186  0.28804  1.0000
  C   C3537     1.0  0.75973  0.83459  0.22149  1.0000
  H   H2835     1.0  0.96805  0.58210  0.01724  1.0000
  H   H2836     1.0  0.98961  0.60276  0.10324  1.0000
  C   C3538     1.0  0.84437  0.49576  0.09758  1.0000
  P   P118      1.0  0.99985  0.59227  0.02814  1.0000
  H   H2837     1.0  0.76193  0.66757  0.27004  1.0000
  C   C3539     1.0  0.76365  0.80082  0.06022  1.0000
  C   C3540     1.0  0.98711  0.51627  0.05633  1.0000
  H   H2838     1.0  0.77487  0.76748  0.99622  1.0000
  H   H2839     1.0  0.92432  0.52298  0.09065  1.0000
  H   H2840     1.0  0.88745  0.82339  0.00097  1.0000
  C   C3541     1.0  0.76897  0.85001  0.99515  1.0000
  C   C3542     1.0  0.98214  0.62290  0.05713  1.0000
  C   C3543     1.0  0.76872  0.77315  0.17399  1.0000
  H   H2841     1.0  0.00455  0.95825  0.06026  1.0000
  C   C3544     1.0  0.99793  0.56260  0.04618  1.0000
  H   H2842     1.0  0.91111  0.85289  0.99645  1.0000
  H   H2843     1.0  0.83153  0.97582  0.12283  1.0000
  H   H2844     1.0  0.79536  0.49355  0.12231  1.0000
  C   C3545     1.0  0.99552  0.60559  0.11764  1.0000
  C   C3546     1.0  0.91030  0.49610  0.13599  1.0000
  C   C3547     1.0  0.76603  0.60390  0.21443  1.0000
  C   C3548     1.0  0.81588  0.53092  0.21702  1.0000
  C   C3549     1.0  0.78393  0.72883  0.05646  1.0000
  C   C3550     1.0  0.76536  0.83016  0.05528  1.0000
  C   C3551     1.0  0.98978  0.58618  0.29886  1.0000
  H   H2845     1.0  0.99290  0.50070  0.08653  1.0000
  C   C3552     1.0  0.99442  0.51789  0.07528  1.0000
  H   H2846     1.0  0.82915  0.53384  0.05764  1.0000
  C   C3553     1.0  0.76020  0.84301  0.09087  1.0000
  H   H2847     1.0  0.00058  0.95530  0.09827  1.0000
  C   C3554     1.0  0.99008  0.64920  0.02631  1.0000
  H   H2848     1.0  0.90217  0.97029  0.10848  1.0000
  H   H2849     1.0  0.96883  0.64698  0.07943  1.0000
  C   C3555     1.0  0.99096  0.58402  0.00384  1.0000
  C   C3556     1.0  0.75756  0.72394  0.21794  1.0000
  C   C3557     1.0  0.76348  0.85113  0.07048  1.0000
  C   C3558     1.0  0.77299  0.68688  0.07371  1.0000
  H   H2850     1.0  0.91400  0.50028  0.05189  1.0000
  H   H2851     1.0  0.99810  0.55156  0.31784  1.0000
  H   H2852     1.0  0.82565  0.51795  0.21238  1.0000
  C   C3559     1.0  0.76364  0.58834  0.19624  1.0000
  C   C3560     1.0  0.98274  0.67388  0.03385  1.0000
  C   C3561     1.0  0.97520  0.67314  0.05307  1.0000
  C   C3562     1.0  0.75826  0.69679  0.06946  1.0000
  H   H2853     1.0  0.97174  0.49213  0.20366  1.0000
  H   H2854     1.0  0.81141  0.50682  0.24501  1.0000
  C   C3563     1.0  0.99007  0.62368  0.03806  1.0000
  C   C3564     1.0  0.99755  0.57471  0.31566  1.0000
  H   H2855     1.0  0.99047  0.51234  0.14319  1.0000
  H   H2856     1.0  0.76673  0.73874  0.15202  1.0000
  C   C3565     1.0  0.00136  0.97612  0.09066  1.0000
  C   C3566     1.0  0.80782  0.52463  0.23537  1.0000
  H   H2857     1.0  0.87556  0.98417  0.04846  1.0000
  H   H2858     1.0  0.99528  0.50123  0.18299  1.0000
  C   C3567     1.0  0.99947  0.63323  0.12417  1.0000
  C   C3568     1.0  0.99856  0.58167  0.13012  1.0000
  H   H2859     1.0  0.78527  0.93456  0.99009  1.0000
  C   C3569     1.0  0.00246  0.50726  0.14062  1.0000
  H   H2860     1.0  0.76481  0.52559  0.23078  1.0000
  C   C3570     1.0  0.00284  0.63370  0.22095  1.0000
  C   C3571     1.0  0.00542  0.56396  0.06518  1.0000
  C   C3572     1.0  0.75868  0.56458  0.24723  1.0000
  C   C3573     1.0  0.00627  0.63700  0.14333  1.0000
  C   C3574     1.0  0.75694  0.53553  0.24171  1.0000
  C   C3575     1.0  0.75697  0.60165  0.17923  1.0000
  C   C3576     1.0  0.99238  0.68822  0.32969  1.0000
  H   H2861     1.0  0.78817  0.65298  0.63727  1.0000
  Fe  Fe241     1.0  0.96352  0.90906  0.64037  1.0000
  S   S481      1.0  0.96984  0.88081  0.61318  1.0000
  S   S482      1.0  0.94763  0.94597  0.63456  1.0000
  S   S483      1.0  0.82148  0.91587  0.64117  1.0000
  Fe  Fe242     1.0  0.80115  0.94546  0.63851  1.0000
  C   C3577     1.0  0.80185  0.56231  0.51589  1.0000
  C   C3578     1.0  0.77025  0.63596  0.41868  1.0000
  C   C3579     1.0  0.87854  0.79805  0.65483  1.0000
  Fe  Fe243     1.0  0.96229  0.71670  0.59396  1.0000
  S   S484      1.0  0.94773  0.73391  0.56876  1.0000
  S   S485      1.0  0.96740  0.74434  0.62171  1.0000
  Fe  Fe244     1.0  0.96267  0.65541  0.57621  1.0000
  S   S486      1.0  0.94828  0.66934  0.54921  1.0000
  S   S487      1.0  0.96804  0.60705  0.57803  1.0000
  Fe  Fe245     1.0  0.96366  0.70897  0.54745  1.0000
  S   S488      1.0  0.97110  0.73277  0.51740  1.0000
  Fe  Fe246     1.0  0.93399  0.69309  0.57285  1.0000
  S   S489      1.0  0.90883  0.69286  0.58291  1.0000
  S   S490      1.0  0.97901  0.69350  0.57287  1.0000
  S   S491      1.0  0.94770  0.67740  0.59956  1.0000
  Fe  Fe247     1.0  0.79198  0.64771  0.53555  1.0000
  S   S492      1.0  0.78284  0.66206  0.56675  1.0000
  S   S493      1.0  0.78089  0.63187  0.50559  1.0000
  Fe  Fe248     1.0  0.82552  0.66052  0.54762  1.0000
  S   S494      1.0  0.81905  0.67546  0.57946  1.0000
  S   S495      1.0  0.84950  0.65726  0.53348  1.0000
  Fe  Fe249     1.0  0.80288  0.63743  0.57958  1.0000
  S   S496      1.0  0.80227  0.61067  0.60891  1.0000
  Fe  Fe250     1.0  0.79974  0.69931  0.56458  1.0000
  S   S497      1.0  0.79320  0.74650  0.57092  1.0000
  S   S498      1.0  0.81085  0.62069  0.54889  1.0000
  S   S499      1.0  0.80730  0.68686  0.53233  1.0000
  C   C3580     1.0  0.98900  0.74116  0.50456  1.0000
  H   H2862     1.0  0.93820  0.83420  0.53421  1.0000
  C   C3581     1.0  0.95863  0.85978  0.53796  1.0000
  P   P119      1.0  0.76334  0.51462  0.52949  1.0000
  H   H2863     1.0  0.88423  0.54503  0.58361  1.0000
  C   C3582     1.0  0.89280  0.68084  0.56900  1.0000
  C   C3583     1.0  0.87838  0.68060  0.57901  1.0000
  C   C3584     1.0  0.86508  0.67293  0.56841  1.0000
  C   C3585     1.0  0.86605  0.66591  0.54751  1.0000
  C   C3586     1.0  0.88052  0.66559  0.53754  1.0000
  C   C3587     1.0  0.89388  0.67300  0.54825  1.0000
  H   H2864     1.0  0.87741  0.68699  0.59493  1.0000
  H   H2865     1.0  0.85405  0.67297  0.57629  1.0000
  H   H2866     1.0  0.88135  0.66000  0.52137  1.0000
  H   H2867     1.0  0.90492  0.67323  0.54034  1.0000
  C   C3588     1.0  0.80568  0.81058  0.62287  1.0000
  C   C3589     1.0  0.79629  0.81886  0.60660  1.0000
  C   C3590     1.0  0.79280  0.79910  0.59080  1.0000
  C   C3591     1.0  0.79864  0.77079  0.59091  1.0000
  C   C3592     1.0  0.80833  0.76269  0.60694  1.0000
  C   C3593     1.0  0.81179  0.78243  0.62279  1.0000
  H   H2868     1.0  0.79151  0.84035  0.60634  1.0000
  H   H2869     1.0  0.78533  0.80571  0.57851  1.0000
  H   H2870     1.0  0.81298  0.74111  0.60726  1.0000
  H   H2871     1.0  0.00013  0.82080  0.59093  1.0000
  C   C3594     1.0  0.79589  0.51257  0.60746  1.0000
  C   C3595     1.0  0.79479  0.52882  0.58921  1.0000
  C   C3596     1.0  0.79713  0.55886  0.58936  1.0000
  C   C3597     1.0  0.80022  0.57287  0.60784  1.0000
  C   C3598     1.0  0.80164  0.55657  0.62599  1.0000
  C   C3599     1.0  0.79957  0.52654  0.62579  1.0000
  H   H2872     1.0  0.79208  0.51812  0.57496  1.0000
  H   H2873     1.0  0.79642  0.57126  0.57525  1.0000
  C   C3600     1.0  0.99771  0.70401  0.43462  1.0000
  C   C3601     1.0  0.99340  0.75910  0.41754  1.0000
  C   C3602     1.0  0.96695  0.54398  0.63379  1.0000
  C   C3603     1.0  0.96726  0.53373  0.61351  1.0000
  C   C3604     1.0  0.96725  0.55328  0.59668  1.0000
  C   C3605     1.0  0.96674  0.58331  0.59982  1.0000
  C   C3606     1.0  0.96600  0.59352  0.62009  1.0000
  C   C3607     1.0  0.96629  0.57400  0.63691  1.0000
  C   C3608     1.0  0.76207  0.55970  0.55778  1.0000
  H   H2874     1.0  0.96794  0.54509  0.58110  1.0000
  H   H2875     1.0  0.96572  0.61649  0.62282  1.0000
  C   C3609     1.0  0.86949  0.98325  0.60771  1.0000
  C   C3610     1.0  0.96778  0.84299  0.61583  1.0000
  C   C3611     1.0  0.96766  0.82961  0.63521  1.0000
  C   C3612     1.0  0.96743  0.79936  0.63681  1.0000
  C   C3613     1.0  0.96687  0.78224  0.61907  1.0000
  C   C3614     1.0  0.96643  0.79560  0.59969  1.0000
  C   C3615     1.0  0.96699  0.82584  0.59810  1.0000
  P   P120      1.0  0.00082  0.66855  0.44540  1.0000
  C   C3616     1.0  0.95920  0.63974  0.48550  1.0000
  H   H2876     1.0  0.96615  0.78266  0.58589  1.0000
  H   H2877     1.0  0.96682  0.83596  0.58307  1.0000
  H   H2878     1.0  0.87721  0.94540  0.59149  1.0000
  H   H2879     1.0  0.77794  0.62225  0.40987  1.0000
  H   H2880     1.0  0.78231  0.94873  0.56682  1.0000
  C   C3617     1.0  0.84580  0.62279  0.64126  1.0000
  C   C3618     1.0  0.86094  0.48772  0.59354  1.0000
  C   C3619     1.0  0.92945  0.84544  0.59804  1.0000
  C   C3620     1.0  0.81049  0.51597  0.52833  1.0000
  H   H2881     1.0  0.89543  0.71684  0.63081  1.0000
  H   H2882     1.0  0.99492  0.71231  0.63065  1.0000
  H   H2883     1.0  0.97351  0.65845  0.33504  1.0000
  C   C3621     1.0  0.81380  0.54374  0.52098  1.0000
  C   C3622     1.0  0.75881  0.52393  0.48716  1.0000
  H   H2884     1.0  0.78844  0.66098  0.43192  1.0000
  H   H2885     1.0  0.87523  0.64776  0.61808  1.0000
  H   H2886     1.0  0.77431  0.55719  0.55893  1.0000
  C   C3623     1.0  0.84004  0.55578  0.65143  1.0000
  H   H2887     1.0  0.83667  0.63695  0.61193  1.0000
  H   H2888     1.0  0.98998  0.68467  0.48649  1.0000
  H   H2889     1.0  0.82558  0.55101  0.51935  1.0000
  H   H2890     1.0  0.99771  0.91072  0.59733  1.0000
  H   H2891     1.0  0.76149  0.59484  0.57933  1.0000
  C   C3624     1.0  0.92742  0.55258  0.57536  1.0000
  H   H2892     1.0  0.94946  0.63315  0.49506  1.0000
  H   H2893     1.0  0.97976  0.78649  0.54130  1.0000
  C   C3625     1.0  0.88091  0.52387  0.58912  1.0000
  C   C3626     1.0  0.92359  0.60416  0.57258  1.0000
  C   C3627     1.0  0.88344  0.74654  0.61139  1.0000
  H   H2894     1.0  0.93332  0.55151  0.62552  1.0000
  C   C3628     1.0  0.92803  0.86224  0.61580  1.0000
  H   H2895     1.0  0.81974  0.50166  0.53253  1.0000
  C   C3629     1.0  0.91836  0.80474  0.61660  1.0000
  C   C3630     1.0  0.90284  0.81276  0.54731  1.0000
  C   C3631     1.0  0.91048  0.78719  0.54229  1.0000
  C   C3632     1.0  0.90498  0.76090  0.55005  1.0000
  C   C3633     1.0  0.89199  0.76021  0.56299  1.0000
  C   C3634     1.0  0.88470  0.78583  0.56897  1.0000
  C   C3635     1.0  0.88988  0.81207  0.56039  1.0000
  P   P121      1.0  0.86773  0.78434  0.58539  1.0000
  C   C3636     1.0  0.86450  0.81741  0.59939  1.0000
  C   C3637     1.0  0.85215  0.77523  0.56865  1.0000
  C   C3638     1.0  0.85015  0.74645  0.56272  1.0000
  C   C3639     1.0  0.83807  0.73868  0.55002  1.0000
  C   C3640     1.0  0.82781  0.75959  0.54324  1.0000
  C   C3641     1.0  0.82993  0.78845  0.54860  1.0000
  C   C3642     1.0  0.84225  0.79639  0.56092  1.0000
  C   C3643     1.0  0.87695  0.83452  0.60545  1.0000
  C   C3644     1.0  0.87439  0.86047  0.61582  1.0000
  C   C3645     1.0  0.85939  0.86922  0.62050  1.0000
  C   C3646     1.0  0.84702  0.85162  0.61547  1.0000
  C   C3647     1.0  0.84955  0.82555  0.60531  1.0000
  C   C3648     1.0  0.86912  0.75669  0.60500  1.0000
  C   C3649     1.0  0.85659  0.72401  0.62952  1.0000
  H   H2896     1.0  0.96618  0.58226  0.65248  1.0000
  H   H2897     1.0  0.93929  0.71651  0.64444  1.0000
  H   H2898     1.0  0.92095  0.86354  0.64763  1.0000
  H   H2899     1.0  0.85408  0.79230  0.65174  1.0000
  H   H2900     1.0  0.90682  0.83308  0.54084  1.0000
  H   H2901     1.0  0.92046  0.78756  0.53208  1.0000
  H   H2902     1.0  0.96616  0.67869  0.36896  1.0000
  H   H2903     1.0  0.88763  0.73959  0.56831  1.0000
  H   H2904     1.0  0.88384  0.83195  0.56360  1.0000
  H   H2905     1.0  0.85794  0.72998  0.56791  1.0000
  H   H2906     1.0  0.83665  0.71638  0.54553  1.0000
  H   H2907     1.0  0.81813  0.75340  0.53394  1.0000
  H   H2908     1.0  0.82191  0.80458  0.54335  1.0000
  H   H2909     1.0  0.84387  0.81892  0.56449  1.0000
  H   H2910     1.0  0.88864  0.82782  0.60230  1.0000
  C   C3650     1.0  0.78662  0.55326  0.51833  1.0000
  H   H2911     1.0  0.85732  0.88912  0.62867  1.0000
  H   H2912     1.0  0.83543  0.85794  0.61978  1.0000
  H   H2913     1.0  0.83977  0.81187  0.60213  1.0000
  S   S500      1.0  0.90910  0.92305  0.64949  1.0000
  C   C3651     1.0  0.87797  0.92846  0.64962  1.0000
  C   C3652     1.0  0.92193  0.85024  0.63400  1.0000
  C   C3653     1.0  0.82624  0.65952  0.63718  1.0000
  H   H2914     1.0  0.89397  0.75483  0.60457  1.0000
  C   C3654     1.0  0.91565  0.55072  0.59042  1.0000
  C   C3655     1.0  0.87089  0.71370  0.63556  1.0000
  H   H2915     1.0  0.97895  0.71557  0.45543  1.0000
  C   C3656     1.0  0.76037  0.73119  0.51349  1.0000
  H   H2916     1.0  0.85095  0.92502  0.58825  1.0000
  C   C3657     1.0  0.00413  0.64418  0.42418  1.0000
  P   P122      1.0  0.85864  0.59600  0.63062  1.0000
  C   C3658     1.0  0.78316  0.52533  0.52546  1.0000
  H   H2917     1.0  0.96811  0.51083  0.61078  1.0000
  C   C3659     1.0  0.97451  0.85939  0.54075  1.0000
  H   H2918     1.0  0.82721  0.57154  0.57080  1.0000
  H   H2919     1.0  0.95267  0.88018  0.53689  1.0000
  S   S501      1.0  0.81002  0.83414  0.64379  1.0000
  H   H2920     1.0  0.84451  0.75322  0.60979  1.0000
  H   H2921     1.0  0.88403  0.87355  0.62059  1.0000
  H   H2922     1.0  0.91939  0.63611  0.64505  1.0000
  H   H2923     1.0  0.85748  0.52940  0.57976  1.0000
  C   C3660     1.0  0.98913  0.76067  0.48779  1.0000
  H   H2924     1.0  0.91067  0.74090  0.54595  1.0000
  C   C3661     1.0  0.90246  0.60356  0.65260  1.0000
  H   H2925     1.0  0.82860  0.95167  0.60232  1.0000
  C   C3662     1.0  0.98444  0.65711  0.46087  1.0000
  C   C3663     1.0  0.92646  0.75522  0.65048  1.0000
  H   H2926     1.0  0.97524  0.76362  0.44027  1.0000
  C   C3664     1.0  0.98396  0.74952  0.43385  1.0000
  C   C3665     1.0  0.99641  0.72260  0.35720  1.0000
  H   H2927     1.0  0.93390  0.53378  0.57073  1.0000
  C   C3666     1.0  0.85569  0.74549  0.61435  1.0000
  H   H2928     1.0  0.90178  0.66467  0.62337  1.0000
  C   C3667     1.0  0.86110  0.51076  0.64726  1.0000
  C   C3668     1.0  0.00512  0.59303  0.32918  1.0000
  S   S502      1.0  0.96811  0.52061  0.65574  1.0000
  C   C3669     1.0  0.92187  0.96266  0.59437  1.0000
  H   H2929     1.0  0.98066  0.87965  0.54157  1.0000
  C   C3670     1.0  0.76540  0.50379  0.64441  1.0000
  C   C3671     1.0  0.00033  0.74237  0.65470  1.0000
  H   H2930     1.0  0.99324  0.75918  0.64827  1.0000
  C   C3672     1.0  0.91376  0.98239  0.60651  1.0000
  H   H2931     1.0  0.00305  0.71307  0.52267  1.0000
  C   C3673     1.0  0.85265  0.94547  0.59590  1.0000
  H   H2932     1.0  0.81910  0.77575  0.63523  1.0000
  C   C3674     1.0  0.97577  0.68781  0.36030  1.0000
  H   H2933     1.0  0.99202  0.78062  0.41126  1.0000
  H   H2934     1.0  0.80030  0.51441  0.63996  1.0000
  C   C3675     1.0  0.92702  0.97054  0.57459  1.0000
  C   C3676     1.0  0.97997  0.67643  0.34109  1.0000
  H   H2935     1.0  0.98072  0.71983  0.38321  1.0000
  P   P123      1.0  0.00275  0.83213  0.54640  1.0000
  H   H2936     1.0  0.77098  0.69268  0.45159  1.0000
  C   C3677     1.0  0.92451  0.81674  0.59840  1.0000
  C   C3678     1.0  0.86568  0.51501  0.58674  1.0000
  H   H2937     1.0  0.96780  0.66953  0.50798  1.0000
  H   H2938     1.0  0.99179  0.63086  0.37546  1.0000
  C   C3679     1.0  0.84140  0.58126  0.59669  1.0000
  H   H2939     1.0  0.93473  0.76853  0.64208  1.0000
  C   C3680     1.0  0.91197  0.60258  0.58762  1.0000
  C   C3681     1.0  0.90813  0.57603  0.59672  1.0000
  C   C3682     1.0  0.86468  0.53807  0.63922  1.0000
  H   H2940     1.0  0.81873  0.67173  0.62726  1.0000
  C   C3683     1.0  0.77268  0.96332  0.56849  1.0000
  H   H2941     1.0  0.94077  0.58076  0.55540  1.0000
  C   C3684     1.0  0.93136  0.57923  0.56652  1.0000
  H   H2942     1.0  0.77155  0.61393  0.46546  1.0000
  C   C3685     1.0  0.76238  0.70242  0.50790  1.0000
  C   C3686     1.0  0.91741  0.82123  0.63469  1.0000
  H   H2943     1.0  0.92676  0.62483  0.56589  1.0000
  H   H2944     1.0  0.90617  0.62215  0.59230  1.0000
  H   H2945     1.0  0.89938  0.57520  0.60876  1.0000
  H   H2946     1.0  0.80422  0.56714  0.64033  1.0000
  H   H2947     1.0  0.92429  0.94136  0.60047  1.0000
  C   C3687     1.0  0.00070  0.71117  0.33807  1.0000
  C   C3688     1.0  0.88752  0.59364  0.64938  1.0000
  H   H2948     1.0  0.00290  0.74038  0.36342  1.0000
  C   C3689     1.0  0.83643  0.63953  0.62852  1.0000
  C   C3690     1.0  0.95820  0.80760  0.53767  1.0000
  C   C3691     1.0  0.92922  0.72564  0.65203  1.0000
  C   C3692     1.0  0.00534  0.84124  0.50384  1.0000
  H   H2949     1.0  0.85330  0.93236  0.64894  1.0000
  C   C3693     1.0  0.00483  0.74106  0.40957  1.0000
  C   C3694     1.0  0.86318  0.80658  0.65659  1.0000
  C   C3695     1.0  0.77030  0.98487  0.55373  1.0000
  H   H2950     1.0  0.97852  0.77078  0.48335  1.0000
  C   C3696     1.0  0.96953  0.66016  0.49283  1.0000
  H   H2951     1.0  0.93200  0.88443  0.61567  1.0000
  C   C3697     1.0  0.84005  0.96043  0.60395  1.0000
  H   H2952     1.0  0.91468  0.78248  0.61657  1.0000
  H   H2953     1.0  0.83260  0.57494  0.60784  1.0000
  H   H2954     1.0  0.95203  0.78740  0.53617  1.0000
  H   H2955     1.0  0.87545  0.54119  0.63097  1.0000
  C   C3698     1.0  0.79524  0.50671  0.53050  1.0000
  C   C3699     1.0  0.97403  0.80716  0.54061  1.0000
  C   C3700     1.0  0.88430  0.72502  0.62650  1.0000
  H   H2956     1.0  0.98706  0.66379  0.40475  1.0000
  H   H2957     1.0  0.91001  0.97624  0.62197  1.0000
  H   H2958     1.0  0.92577  0.80357  0.58472  1.0000
  H   H2959     1.0  0.00600  0.87269  0.62734  1.0000
  C   C3701     1.0  0.85435  0.56102  0.64177  1.0000
  P   P124      1.0  0.91108  0.51681  0.60305  1.0000
  H   H2960     1.0  0.98914  0.86710  0.57941  1.0000
  H   H2961     1.0  0.84616  0.71522  0.63644  1.0000
  C   C3702     1.0  0.97402  0.63656  0.45356  1.0000
  C   C3703     1.0  0.90581  0.50620  0.64537  1.0000
  C   C3704     1.0  0.84935  0.58794  0.56101  1.0000
  C   C3705     1.0  0.86362  0.59791  0.56739  1.0000
  C   C3706     1.0  0.86674  0.60001  0.58841  1.0000
  C   C3707     1.0  0.85554  0.59209  0.60327  1.0000
  C   C3708     1.0  0.98396  0.71097  0.36833  1.0000
  C   C3709     1.0  0.91435  0.52162  0.63035  1.0000
  C   C3710     1.0  0.95047  0.83389  0.53648  1.0000
  C   C3711     1.0  0.87775  0.60883  0.63617  1.0000
  H   H2962     1.0  0.83146  0.57254  0.65251  1.0000
  C   C3712     1.0  0.76368  0.61490  0.49716  1.0000
  H   H2963     1.0  0.77751  0.56820  0.51489  1.0000
  C   C3713     1.0  0.89774  0.64500  0.63085  1.0000
  C   C3714     1.0  0.88279  0.63519  0.62766  1.0000
  H   H2964     1.0  0.89680  0.49151  0.64124  1.0000
  C   C3715     1.0  0.98210  0.66876  0.48060  1.0000
  C   C3716     1.0  0.99557  0.64697  0.40612  1.0000
  C   C3717     1.0  0.83831  0.57927  0.57567  1.0000
  C   C3718     1.0  0.77615  0.65780  0.43107  1.0000
  H   H2965     1.0  0.95343  0.61205  0.46023  1.0000
  H   H2966     1.0  0.80432  0.58394  0.51026  1.0000
  H   H2967     1.0  0.97556  0.62710  0.43846  1.0000
  H   H2968     1.0  0.93469  0.85455  0.58418  1.0000
  H   H2969     1.0  0.84676  0.58753  0.54472  1.0000
  H   H2970     1.0  0.87210  0.60494  0.55596  1.0000
  H   H2971     1.0  0.87779  0.60819  0.59274  1.0000
  C   C3719     1.0  0.98229  0.83304  0.54247  1.0000
  C   C3720     1.0  0.89152  0.50545  0.59853  1.0000
  H   H2972     1.0  0.87914  0.92487  0.63322  1.0000
  C   C3721     1.0  0.92625  0.53987  0.63672  1.0000
  H   H2973     1.0  0.76515  0.94472  0.59742  1.0000
  C   C3722     1.0  0.76300  0.96109  0.58583  1.0000
  H   H2974     1.0  0.96814  0.84252  0.64898  1.0000
  S   S503      1.0  0.79872  0.97305  0.60964  1.0000
  C   C3723     1.0  0.98614  0.72213  0.44246  1.0000
  C   C3724     1.0  0.76223  0.60859  0.47605  1.0000
  H   H2975     1.0  0.75712  0.50249  0.61340  1.0000
  C   C3725     1.0  0.96144  0.62792  0.46588  1.0000
  S   S504      1.0  0.78405  0.91032  0.64647  1.0000
  C   C3726     1.0  0.75930  0.51598  0.62661  1.0000
  H   H2976     1.0  0.76951  0.68845  0.51713  1.0000
  C   C3727     1.0  0.90766  0.62893  0.64304  1.0000
  C   C3728     1.0  0.76620  0.67556  0.44239  1.0000
  H   H2977     1.0  0.77810  0.98634  0.54059  1.0000
  C   C3729     1.0  0.86739  0.95695  0.59771  1.0000
  H   H2978     1.0  0.00267  0.78223  0.46381  1.0000
  H   H2979     1.0  0.75716  0.66941  0.48610  1.0000
  H   H2980     1.0  0.99379  0.84966  0.50462  1.0000
  H   H2981     1.0  0.00181  0.77634  0.61149  1.0000
  H   H2982     1.0  0.88114  0.77711  0.64856  1.0000
  H   H2983     1.0  0.87157  0.69680  0.64711  1.0000
  C   C3730     1.0  0.00016  0.87638  0.57531  1.0000
  C   C3731     1.0  0.78241  0.64738  0.65173  1.0000
  H   H2984     1.0  0.86902  0.49298  0.64540  1.0000
  H   H2985     1.0  0.96777  0.78924  0.65186  1.0000
  C   C3732     1.0  0.00282  0.76714  0.47658  1.0000
  C   C3733     1.0  0.00504  0.90112  0.58554  1.0000
  C   C3734     1.0  0.00462  0.77589  0.59515  1.0000
  Fe  Fe251     1.0  0.80459  0.88170  0.65155  1.0000
  C   C3735     1.0  0.99811  0.62828  0.38957  1.0000
  C   C3736     1.0  0.00368  0.80115  0.58336  1.0000
  H   H2986     1.0  0.76594  0.73949  0.52709  1.0000
  H   H2987     1.0  0.93353  0.95534  0.56535  1.0000
  C   C3737     1.0  0.92363  0.48899  0.59316  1.0000
  H   H2988     1.0  0.76881  0.53768  0.48708  1.0000
  H   H2989     1.0  0.94081  0.49431  0.61656  1.0000
  H   H2990     1.0  0.76172  0.50057  0.57384  1.0000
  C   C3738     1.0  0.00125  0.71580  0.64467  1.0000
  C   C3739     1.0  0.00289  0.72837  0.51003  1.0000
  H   H2991     1.0  0.78458  0.60197  0.64678  1.0000
  C   C3740     1.0  0.00495  0.62279  0.32587  1.0000
  C   C3741     1.0  0.75959  0.56297  0.64269  1.0000
  C   C3742     1.0  0.00651  0.80055  0.56197  1.0000
  C   C3743     1.0  0.00642  0.85546  0.63868  1.0000
  H   H2992     1.0  0.75690  0.58569  0.64185  1.0000
  S   S505      1.0  0.94605  0.95398  0.68477  1.0000
  C   C3744     1.0  0.91334  0.76736  0.65988  1.0000
  H   H2993     1.0  0.97533  0.94773  0.74561  1.0000
  C   C3745     1.0  0.92304  0.83725  0.71494  1.0000
  Fe  Fe252     1.0  0.96297  0.91674  0.68687  1.0000
  S   S506      1.0  0.97037  0.89553  0.71765  1.0000
  H   H2994     1.0  0.91752  0.84360  0.72932  1.0000
  Fe  Fe253     1.0  0.78650  0.92570  0.67944  1.0000
  P   P125      1.0  0.77005  0.57317  0.68264  1.0000
  C   C3746     1.0  0.76911  0.96752  0.73198  1.0000
  C   C3747     1.0  0.90646  0.72006  0.67363  1.0000
  S   S507      1.0  0.84328  0.94107  0.69146  1.0000
  S   S508      1.0  0.76421  0.92996  0.69904  1.0000
  S   S509      1.0  0.80581  0.89445  0.68518  1.0000
  Fe  Fe254     1.0  0.93354  0.92809  0.66098  1.0000
  C   C3748     1.0  0.97612  0.76532  0.69558  1.0000
  C   C3749     1.0  0.83645  0.52839  0.65925  1.0000
  H   H2995     1.0  0.79039  0.49935  0.89807  1.0000
  H   H2996     1.0  0.77862  0.69150  0.66058  1.0000
  C   C3750     1.0  0.98774  0.88193  0.72870  1.0000
  H   H2997     1.0  0.93924  0.55543  0.66236  1.0000
  C   C3751     1.0  0.92129  0.81935  0.67987  1.0000
  C   C3752     1.0  0.75871  0.93001  0.94258  1.0000
  C   C3753     1.0  0.77524  0.89491  0.74483  1.0000
  C   C3754     1.0  0.99953  0.50892  0.71568  1.0000
  C   C3755     1.0  0.88958  0.93452  0.68289  1.0000
  C   C3756     1.0  0.87485  0.93841  0.69182  1.0000
  C   C3757     1.0  0.86165  0.93707  0.67971  1.0000
  H   H2998     1.0  0.96445  0.86238  0.89030  1.0000
  H   H2999     1.0  0.89393  0.75876  0.68038  1.0000
  H   H3000     1.0  0.89965  0.93528  0.69238  1.0000
  H   H3001     1.0  0.87367  0.94216  0.70824  1.0000
  H   H3002     1.0  0.90280  0.49637  0.67776  1.0000
  C   C3758     1.0  0.77704  0.66904  0.66486  1.0000
  H   H3003     1.0  0.95840  0.83427  0.69208  1.0000
  C   C3759     1.0  0.87122  0.85283  0.66971  1.0000
  C   C3760     1.0  0.99655  0.89700  0.90681  1.0000
  C   C3761     1.0  0.89035  0.81654  0.66106  1.0000
  C   C3762     1.0  0.93892  0.84027  0.71242  1.0000
  C   C3763     1.0  0.94607  0.83188  0.69398  1.0000
  H   H3004     1.0  0.94296  0.81558  0.66343  1.0000
  H   H3005     1.0  0.98422  0.83262  0.87246  1.0000
  C   C3764     1.0  0.78685  0.53634  0.70783  1.0000
  H   H3006     1.0  0.84759  0.84049  0.66558  1.0000
  H   H3007     1.0  0.99181  0.87743  0.66053  1.0000
  C   C3765     1.0  0.78741  0.56027  0.69445  1.0000
  C   C3766     1.0  0.96788  0.57303  0.98480  1.0000
  S   S510      1.0  0.80243  0.96235  0.67079  1.0000
  S   S511      1.0  0.94887  0.88983  0.66534  1.0000
  H   H3008     1.0  0.78426  0.91074  0.74237  1.0000
  C   C3767     1.0  0.75854  0.95194  0.72048  1.0000
  H   H3009     1.0  0.76477  0.91819  0.76977  1.0000
  C   C3768     1.0  0.76414  0.98444  0.74889  1.0000
  C   C3769     1.0  0.77798  0.93391  0.97671  1.0000
  C   C3770     1.0  0.77265  0.61074  0.67560  1.0000
  S   S512      1.0  0.97852  0.93474  0.66168  1.0000
  C   C3771     1.0  0.89114  0.92925  0.66174  1.0000
  H   H3010     1.0  0.79971  0.50686  0.72653  1.0000
  C   C3772     1.0  0.76741  0.63265  0.68883  1.0000
  C   C3773     1.0  0.84514  0.62696  0.66269  1.0000
  H   H3011     1.0  0.78268  0.86860  0.71933  1.0000
  H   H3012     1.0  0.95274  0.75329  0.70283  1.0000
  C   C3774     1.0  0.81505  0.56286  0.69887  1.0000
  H   H3013     1.0  0.76695  0.57593  0.72796  1.0000
  C   C3775     1.0  0.83495  0.64703  0.67130  1.0000
  C   C3776     1.0  0.96416  0.95633  0.95382  1.0000
  C   C3777     1.0  0.76627  0.55107  0.66038  1.0000
  H   H3014     1.0  0.95561  0.56927  0.98460  1.0000
  C   C3778     1.0  0.98777  0.93332  0.94203  1.0000
  H   H3015     1.0  0.99662  0.49505  0.81282  1.0000
  C   C3779     1.0  0.76866  0.50440  0.88321  1.0000
  H   H3016     1.0  0.83433  0.64989  0.68787  1.0000
  C   C3780     1.0  0.98836  0.49167  0.97720  1.0000
  H   H3017     1.0  0.89548  0.85994  0.67137  1.0000
  H   H3018     1.0  0.79775  0.78163  0.97591  1.0000
  H   H3019     1.0  0.99185  0.83822  0.68605  1.0000
  H   H3020     1.0  0.94573  0.84926  0.72469  1.0000
  H   H3021     1.0  0.97657  0.75190  0.68200  1.0000
  H   H3022     1.0  0.76146  0.82372  0.92087  1.0000
  H   H3023     1.0  0.77919  0.91668  0.92584  1.0000
  C   C3781     1.0  0.76238  0.85124  0.73435  1.0000
  C   C3782     1.0  0.76412  0.89904  0.76035  1.0000
  H   H3024     1.0  0.95479  0.97109  0.95117  1.0000
  H   H3025     1.0  0.97322  0.81424  0.74388  1.0000
  C   C3783     1.0  0.77874  0.49138  0.89694  1.0000
  C   C3784     1.0  0.98750  0.87262  0.74947  1.0000
  C   C3785     1.0  0.90359  0.74966  0.67197  1.0000
  C   C3786     1.0  0.76239  0.94034  0.97887  1.0000
  H   H3026     1.0  0.76545  0.67848  0.69365  1.0000
  C   C3787     1.0  0.91425  0.82645  0.69884  1.0000
  C   C3788     1.0  0.00162  0.87997  0.71754  1.0000
  H   H3027     1.0  0.97416  0.96253  0.92366  1.0000
  H   H3028     1.0  0.77608  0.52557  0.71139  1.0000
  H   H3029     1.0  0.78117  0.96620  0.72798  1.0000
  H   H3030     1.0  0.98671  0.94754  0.84192  1.0000
  C   C3789     1.0  0.98885  0.78191  0.70132  1.0000
  C   C3790     1.0  0.98093  0.89057  0.90432  1.0000
  C   C3791     1.0  0.77441  0.92363  0.94053  1.0000
  H   H3031     1.0  0.82473  0.53039  0.71872  1.0000
  C   C3792     1.0  0.99246  0.57492  0.96694  1.0000
  C   C3793     1.0  0.96254  0.76603  0.70739  1.0000
  C   C3794     1.0  0.98761  0.95145  0.74446  1.0000
  C   C3795     1.0  0.98862  0.91898  0.96111  1.0000
  C   C3796     1.0  0.76269  0.97354  0.90357  1.0000
  C   C3797     1.0  0.96154  0.78332  0.72495  1.0000
  C   C3798     1.0  0.00087  0.90989  0.83840  1.0000
  H   H3032     1.0  0.76292  0.95704  0.84404  1.0000
  H   H3033     1.0  0.97694  0.87415  0.75840  1.0000
  H   H3034     1.0  0.89888  0.70649  0.68292  1.0000
  H   H3035     1.0  0.76157  0.83311  0.72397  1.0000
  C   C3799     1.0  0.82545  0.66320  0.65854  1.0000
  H   H3036     1.0  0.95099  0.78397  0.73404  1.0000
  H   H3037     1.0  0.82599  0.57301  0.69537  1.0000
  H   H3038     1.0  0.99071  0.94921  0.77707  1.0000
  P   P126      1.0  0.00229  0.92748  0.92221  1.0000
  Fe  Fe255     1.0  0.82158  0.93009  0.67412  1.0000
  H   H3039     1.0  0.76562  0.90403  0.84689  1.0000
  H   H3040     1.0  0.90201  0.82393  0.70123  1.0000
  H   H3041     1.0  0.97809  0.48811  0.96844  1.0000
  C   C3800     1.0  0.97404  0.80033  0.73051  1.0000
  H   H3042     1.0  0.00032  0.85455  0.77488  1.0000
  H   H3043     1.0  0.97214  0.90332  0.91190  1.0000
  C   C3801     1.0  0.97651  0.86739  0.89201  1.0000
  C   C3802     1.0  0.98763  0.79970  0.71875  1.0000
  H   H3044     1.0  0.76922  0.81400  0.97405  1.0000
  H   H3045     1.0  0.79603  0.92004  0.95604  1.0000
  C   C3803     1.0  0.75942  0.91334  0.83417  1.0000
  C   C3804     1.0  0.86331  0.93256  0.65850  1.0000
  H   H3046     1.0  0.99933  0.57255  0.95292  1.0000
  H   H3047     1.0  0.99557  0.51747  0.70109  1.0000
  C   C3805     1.0  0.76885  0.52119  0.66123  1.0000
  H   H3048     1.0  0.00216  0.88726  0.70167  1.0000
  C   C3806     1.0  0.90918  0.50884  0.66628  1.0000
  C   C3807     1.0  0.93730  0.82146  0.67776  1.0000
  C   C3808     1.0  0.80166  0.57338  0.68995  1.0000
  C   C3809     1.0  0.99835  0.83565  0.67180  1.0000
  H   H3049     1.0  0.77111  0.97027  0.91537  1.0000
  C   C3810     1.0  0.88658  0.84450  0.66768  1.0000
  C   C3811     1.0  0.91920  0.70802  0.66353  1.0000
  H   H3050     1.0  0.92419  0.52766  0.68854  1.0000
  H   H3051     1.0  0.97119  0.56427  0.95240  1.0000
  H   H3052     1.0  0.00137  0.53391  0.83764  1.0000
  C   C3812     1.0  0.98762  0.85063  0.88196  1.0000
  C   C3813     1.0  0.97527  0.95165  0.93836  1.0000
  C   C3814     1.0  0.80027  0.52569  0.71651  1.0000
  C   C3815     1.0  0.81436  0.53891  0.71205  1.0000
  H   H3053     1.0  0.81739  0.67847  0.66518  1.0000
  H   H3054     1.0  0.80254  0.59156  0.67949  1.0000
  C   C3816     1.0  0.00454  0.95904  0.90598  1.0000
  H   H3055     1.0  0.00082  0.51127  0.95141  1.0000
  C   C3817     1.0  0.99584  0.93744  0.83302  1.0000
  H   H3056     1.0  0.76167  0.62747  0.70333  1.0000
  C   C3818     1.0  0.78399  0.92559  0.95754  1.0000
  H   H3057     1.0  0.99571  0.89866  0.85148  1.0000
  H   H3058     1.0  0.77362  0.51111  0.67476  1.0000
  C   C3819     1.0  0.92120  0.52659  0.67240  1.0000
  C   C3820     1.0  0.96524  0.94226  0.97285  1.0000
  C   C3821     1.0  0.00315  0.85718  0.88409  1.0000
  H   H3059     1.0  0.92148  0.68515  0.66487  1.0000
  H   H3060     1.0  0.95686  0.94630  0.98507  1.0000
  C   C3822     1.0  0.75786  0.94322  0.83260  1.0000
  C   C3823     1.0  0.75805  0.84187  0.91140  1.0000
  C   C3824     1.0  0.85951  0.83381  0.66432  1.0000
  H   H3061     1.0  0.99714  0.81326  0.72324  1.0000
  H   H3062     1.0  0.99801  0.90467  0.96446  1.0000
  H   H3063     1.0  0.85236  0.61437  0.67275  1.0000
  H   H3064     1.0  0.82533  0.52430  0.66643  1.0000
  H   H3065     1.0  0.86837  0.87423  0.67523  1.0000
  C   C3825     1.0  0.99961  0.58187  0.98539  1.0000
  C   C3826     1.0  0.77433  0.87113  0.73178  1.0000
  H   H3066     1.0  0.75740  0.81712  0.88344  1.0000
  C   C3827     1.0  0.76248  0.83153  0.98028  1.0000
  H   H3067     1.0  0.98775  0.95365  0.71128  1.0000
  P   P127      1.0  0.91025  0.80585  0.65866  1.0000
  C   C3828     1.0  0.97663  0.57024  0.96666  1.0000
  C   C3829     1.0  0.76958  0.66167  0.68343  1.0000
  H   H3068     1.0  0.77245  0.52242  0.87368  1.0000
  C   C3830     1.0  0.99642  0.95205  0.76226  1.0000
  H   H3069     1.0  0.99873  0.97353  0.81244  1.0000
  H   H3070     1.0  0.91006  0.59145  0.66244  1.0000
  C   C3831     1.0  0.00271  0.95212  0.81634  1.0000
  C   C3832     1.0  0.99462  0.95469  0.72504  1.0000
  C   C3833     1.0  0.97733  0.92330  0.97635  1.0000
  C   C3834     1.0  0.00131  0.50472  0.96742  1.0000
  C   C3835     1.0  0.00080  0.86147  0.75891  1.0000
  Fe  Fe256     1.0  0.96083  0.97020  0.65805  1.0000
  C   C3836     1.0  0.78029  0.61840  0.65712  1.0000
  C   C3837     1.0  0.84705  0.50600  0.65739  1.0000
  C   C3838     1.0  0.92965  0.54223  0.65764  1.0000
  H   H3071     1.0  0.75671  0.87068  0.93701  1.0000
  C   C3839     1.0  0.99838  0.85815  0.65739  1.0000
  H   H3072     1.0  0.88377  0.57424  0.65729  1.0000
  P   P128      1.0  0.00652  0.78110  0.68628  1.0000
  C   C3840     1.0  0.00652  0.81025  0.66766  1.0000
