data_image0
_chemical_formula_structural       C2SCSC4H2CFeHCFeCH2C7PHC10HC5H2C2HCH6SHC2H2CS2CHCH2CH2CH5CHCH3CFeSCHCFe2SCSC4H3C4HC2HSCFeHSHC2H3SC5H2SC2HCH2CH2CH6C3HCHC3H4CH2FeS2FeS2HC2HC6HC2HC3H2SC6HPHCHC2HCHPH2C2H2C3HCHCH2C3HC5H3C2H3C2H2CHCHCHCH3FeCH5C2HC2HPSC4SHCHC2HFeCFeS2FeS2H4CH2CHC8HCHC5HC4HCHSHCHSH2CHCFeCHC2H3CH2CH3C2HCH3PH3CSFeSHCHCSC5HFeHCHFeCS2CH2CHC4H2C5H4CHCHC2HC2H2CHC4HCH5CHC2SH2C2HC2PC2PCHCHC2H2C4HC7HC2H2CH2SHCHC2S2H2CH2CHFeHS2FeC4H3CHC3HC3H3SHC8H2CH2C2SHCH2SC2HCPFeCHC4H2CH2CHC3HC3HCPHCFeH2SCHC7H2SHFeHC2HCPC2HFeC2H2CHCH2SH2C3SCHC3HC2HC4H5CH2C4H3SHCH2CHC6HCHC2H5CHFeS2FeS2C3H3CHC7H4C7HC3HC2HC2HC2HSH2CFeH3CHCHFeH2C4H2CHCH2C2HCHC2SC3HCH2C3HC2H2CHCPCHCHCHCHPH2C5HS2H4C2HCHC2FeS2HCH4FeS2H3C2HC7HCHC2H2SH2CPH2CFeSH2C2HC4HCPC2HCHCH2C2HCPHCHCHCSCHCH2SC3HCHCH2CFeC2HCH2C3H2CSCH2SHC2H3CFeCHC3HC2HSHC2HCHC2HC2HCH3C3HC3H4CH3C2PHC2HC8HSC2H2CHCH3CFeCHCH2
_chemical_formula_sum              "C480 S64 H384 Fe32 P16"
_cell_length_a       35.0288
_cell_length_b       35.0562
_cell_length_c       24.9805
_cell_angle_alpha    90.2309
_cell_angle_beta     90.1694
_cell_angle_gamma    89.6638

_space_group_name_H-M_alt    "P 1"
_space_group_IT_number       1

loop_
  _space_group_symop_operation_xyz
  'x, y, z'

loop_
  _atom_site_type_symbol
  _atom_site_label
  _atom_site_symmetry_multiplicity
  _atom_site_fract_x
  _atom_site_fract_y
  _atom_site_fract_z
  _atom_site_occupancy
  C   C1        1.0  0.43510  0.08709  0.11990  1.0000
  C   C2        1.0  0.29826  0.23278  0.46290  1.0000
  S   S1        1.0  0.46125  0.21850  0.09917  1.0000
  C   C3        1.0  0.46476  0.00837  0.32432  1.0000
  S   S2        1.0  0.40937  0.20285  0.34122  1.0000
  C   C4        1.0  0.44665  0.21306  0.16621  1.0000
  C   C5        1.0  0.41048  0.19919  0.17895  1.0000
  C   C6        1.0  0.39926  0.19640  0.23278  1.0000
  C   C7        1.0  0.42448  0.20645  0.27420  1.0000
  H   H1        1.0  0.39110  0.19084  0.14734  1.0000
  H   H2        1.0  0.37109  0.18601  0.24232  1.0000
  C   C8        1.0  0.33603  0.28910  0.48015  1.0000
  Fe  Fe1       1.0  0.42482  0.19671  0.03040  1.0000
  H   H3        1.0  0.36826  0.01969  0.31425  1.0000
  C   C9        1.0  0.22139  0.32418  0.23266  1.0000
  Fe  Fe2       1.0  0.45225  0.20391  0.40925  1.0000
  C   C10       1.0  0.40087  0.10110  0.21906  1.0000
  H   H4        1.0  0.45150  0.09607  0.38057  1.0000
  H   H5        1.0  0.39377  0.26241  0.09577  1.0000
  C   C11       1.0  0.19737  0.18260  0.06971  1.0000
  C   C12       1.0  0.37194  0.31944  0.08690  1.0000
  C   C13       1.0  0.22964  0.31206  0.18027  1.0000
  C   C14       1.0  0.23652  0.18713  0.06206  1.0000
  C   C15       1.0  0.25648  0.21510  0.09056  1.0000
  C   C16       1.0  0.23739  0.23872  0.12737  1.0000
  C   C17       1.0  0.19805  0.23343  0.13557  1.0000
  P   P1        1.0  0.26285  0.27358  0.16726  1.0000
  H   H6        1.0  0.48320  0.01550  0.08958  1.0000
  C   C18       1.0  0.27917  0.25161  0.22854  1.0000
  C   C19       1.0  0.26133  0.21889  0.24862  1.0000
  C   C20       1.0  0.27582  0.20080  0.29429  1.0000
  C   C21       1.0  0.30801  0.21538  0.32027  1.0000
  C   C22       1.0  0.32525  0.24845  0.30131  1.0000
  C   C23       1.0  0.31109  0.26641  0.25553  1.0000
  C   C24       1.0  0.40674  0.06084  0.34793  1.0000
  C   C25       1.0  0.39581  0.09382  0.12306  1.0000
  C   C26       1.0  0.43997  0.09309  0.21630  1.0000
  C   C27       1.0  0.32990  0.25005  0.48673  1.0000
  H   H7        1.0  0.45649  0.09215  0.25289  1.0000
  C   C28       1.0  0.30467  0.29153  0.13332  1.0000
  C   C29       1.0  0.33649  0.26751  0.12599  1.0000
  C   C30       1.0  0.17812  0.20572  0.10655  1.0000
  C   C31       1.0  0.39779  0.02605  0.32333  1.0000
  C   C32       1.0  0.45751  0.08684  0.16656  1.0000
  H   H8        1.0  0.37858  0.09271  0.08700  1.0000
  H   H9        1.0  0.14771  0.20228  0.11241  1.0000
  C   C33       1.0  0.27890  0.29367  0.42552  1.0000
  C   C34       1.0  0.49147  0.01046  0.47831  1.0000
  H   H10       1.0  0.28652  0.21844  0.08246  1.0000
  C   C35       1.0  0.47362  0.04339  0.34826  1.0000
  H   H11       1.0  0.23681  0.20674  0.22853  1.0000
  H   H12       1.0  0.26263  0.17500  0.30891  1.0000
  H   H13       1.0  0.32020  0.20077  0.35456  1.0000
  H   H14       1.0  0.35061  0.25926  0.32108  1.0000
  H   H15       1.0  0.32587  0.29112  0.24038  1.0000
  H   H16       1.0  0.18260  0.25078  0.16428  1.0000
  S   S3        1.0  0.43702  0.16424  0.47570  1.0000
  H   H17       1.0  0.29361  0.20248  0.46819  1.0000
  C   C36       1.0  0.44461  0.06944  0.36053  1.0000
  C   C37       1.0  0.36968  0.28131  0.10222  1.0000
  H   H18       1.0  0.33587  0.23809  0.13900  1.0000
  H   H19       1.0  0.24795  0.24121  0.41451  1.0000
  C   C38       1.0  0.27265  0.25461  0.43257  1.0000
  S   S4        1.0  0.37004  0.16392  0.03448  1.0000
  S   S5        1.0  0.46189  0.25293  0.46536  1.0000
  C   C39       1.0  0.37875  0.10135  0.17245  1.0000
  H   H20       1.0  0.40709  0.01578  0.20893  1.0000
  C   C40       1.0  0.48074  0.04891  0.48592  1.0000
  H   H21       1.0  0.44769  0.08146  0.08104  1.0000
  H   H22       1.0  0.38434  0.08104  0.35803  1.0000
  C   C41       1.0  0.46075  0.21996  0.26153  1.0000
  H   H23       1.0  0.34844  0.10743  0.17451  1.0000
  H   H24       1.0  0.38782  0.10753  0.25731  1.0000
  C   C42       1.0  0.47170  0.22356  0.20765  1.0000
  H   H25       1.0  0.25853  0.31027  0.40255  1.0000
  H   H26       1.0  0.25145  0.16956  0.03293  1.0000
  H   H27       1.0  0.48005  0.22805  0.29336  1.0000
  H   H28       1.0  0.23536  0.31109  0.26669  1.0000
  H   H29       1.0  0.38512  0.32002  0.40290  1.0000
  C   C43       1.0  0.42667  0.99918  0.31235  1.0000
  H   H30       1.0  0.39603  0.01666  0.11106  1.0000
  C   C44       1.0  0.31106  0.31105  0.44847  1.0000
  H   H31       1.0  0.36042  0.30195  0.49973  1.0000
  H   H32       1.0  0.21644  0.32018  0.09637  1.0000
  H   H33       1.0  0.18198  0.16137  0.04672  1.0000
  C   C45       1.0  0.44296  0.05711  0.50014  1.0000
  Fe  Fe3       1.0  0.35080  0.20086  0.96580  1.0000
  S   S6        1.0  0.40374  0.23670  0.96650  1.0000
  C   C46       1.0  0.42382  0.09727  0.74069  1.0000
  H   H34       1.0  0.41846  0.12107  0.71399  1.0000
  C   C47       1.0  0.29737  0.29920  0.98118  1.0000
  Fe  Fe4       1.0  0.42674  0.19321  0.90832  1.0000
  Fe  Fe5       1.0  0.45254  0.21156  0.53207  1.0000
  S   S7        1.0  0.37265  0.15954  0.90325  1.0000
  C   C48       1.0  0.46735  0.03454  0.97719  1.0000
  S   S8        1.0  0.41143  0.22788  0.59858  1.0000
  C   C49       1.0  0.44919  0.21027  0.77279  1.0000
  C   C50       1.0  0.41068  0.21677  0.76062  1.0000
  C   C51       1.0  0.39920  0.22187  0.70699  1.0000
  C   C52       1.0  0.42594  0.21921  0.66527  1.0000
  H   H35       1.0  0.38998  0.21869  0.79255  1.0000
  H   H36       1.0  0.36959  0.22795  0.69782  1.0000
  H   H37       1.0  0.43195  0.13320  0.80993  1.0000
  C   C53       1.0  0.21833  0.31348  0.98130  1.0000
  C   C54       1.0  0.34387  0.30817  0.63405  1.0000
  C   C55       1.0  0.48288  0.99885  0.65209  1.0000
  C   C56       1.0  0.42852  0.02558  0.97299  1.0000
  H   H38       1.0  0.32784  0.29403  0.98106  1.0000
  C   C57       1.0  0.27236  0.26903  0.97186  1.0000
  C   C58       1.0  0.39747  0.29997  0.86293  1.0000
  H   H39       1.0  0.41609  0.05485  0.67942  1.0000
  S   S9        1.0  0.46580  0.20759  0.83942  1.0000
  C   C59       1.0  0.41630  0.02751  0.50616  1.0000
  Fe  Fe6       1.0  0.39687  0.12550  0.97195  1.0000
  H   H40       1.0  0.18030  0.23069  0.84519  1.0000
  S   S10       1.0  0.28920  0.22187  0.95992  1.0000
  H   H41       1.0  0.36000  0.28448  0.79870  1.0000
  C   C60       1.0  0.23278  0.27641  0.97161  1.0000
  C   C61       1.0  0.40375  0.32427  0.90646  1.0000
  H   H42       1.0  0.21319  0.25323  0.96426  1.0000
  H   H43       1.0  0.47889  0.02852  0.66251  1.0000
  H   H44       1.0  0.41814  0.27779  0.85345  1.0000
  S   S11       1.0  0.39157  0.06063  0.97491  1.0000
  C   C62       1.0  0.24071  0.24137  0.84323  1.0000
  C   C63       1.0  0.26929  0.26815  0.83358  1.0000
  C   C64       1.0  0.43761  0.03626  0.81012  1.0000
  C   C65       1.0  0.22096  0.31453  0.80852  1.0000
  C   C66       1.0  0.20233  0.25128  0.83646  1.0000
  H   H45       1.0  0.43421  0.08625  0.50693  1.0000
  H   H46       1.0  0.24843  0.21318  0.85750  1.0000
  S   S12       1.0  0.45249  0.15616  0.97226  1.0000
  C   C67       1.0  0.42291  0.05978  0.72123  1.0000
  C   C68       1.0  0.46410  0.21123  0.67752  1.0000
  H   H47       1.0  0.29872  0.25992  0.84033  1.0000
  C   C69       1.0  0.43073  0.02897  0.75549  1.0000
  H   H48       1.0  0.18786  0.31862  0.98187  1.0000
  H   H49       1.0  0.48497  0.20919  0.64591  1.0000
  C   C70       1.0  0.47575  0.20738  0.73107  1.0000
  H   H50       1.0  0.44205  0.01333  0.83837  1.0000
  H   H51       1.0  0.35356  0.99884  0.77427  1.0000
  C   C71       1.0  0.49508  0.00503  0.97895  1.0000
  H   H52       1.0  0.16269  0.29563  0.81394  1.0000
  H   H53       1.0  0.34974  0.23317  0.51053  1.0000
  H   H54       1.0  0.26357  0.29754  0.70814  1.0000
  H   H55       1.0  0.47739  0.28846  0.65336  1.0000
  H   H56       1.0  0.38720  0.03443  0.51705  1.0000
  H   H57       1.0  0.44301  0.07919  0.87174  1.0000
  C   C72       1.0  0.29153  0.30789  0.69726  1.0000
  C   C73       1.0  0.30710  0.29674  0.64805  1.0000
  C   C74       1.0  0.25963  0.30501  0.81633  1.0000
  H   H58       1.0  0.35676  0.29771  0.59742  1.0000
  C   C75       1.0  0.36437  0.30382  0.83206  1.0000
  H   H59       1.0  0.29124  0.27806  0.62155  1.0000
  C   C76       1.0  0.19246  0.28785  0.81907  1.0000
  C   C77       1.0  0.43145  0.10421  0.79477  1.0000
  C   C78       1.0  0.43800  0.07374  0.82952  1.0000
  H   H60       1.0  0.47600  0.06407  0.97983  1.0000
  H   H61       1.0  0.42922  0.32079  0.93074  1.0000
  H   H62       1.0  0.04013  0.45678  0.39285  1.0000
  H   H63       1.0  0.20805  0.60220  0.17146  1.0000
  C   C79       1.0  0.26740  0.42799  0.32663  1.0000
  H   H64       1.0  0.15134  0.55197  0.32609  1.0000
  H   H65       1.0  0.24611  0.55462  0.33834  1.0000
  Fe  Fe7       1.0  0.15684  0.51377  0.43836  1.0000
  S   S13       1.0  0.17377  0.47723  0.36703  1.0000
  S   S14       1.0  0.13676  0.57465  0.43757  1.0000
  Fe  Fe8       1.0  0.14606  0.49912  0.06008  1.0000
  S   S15       1.0  0.12839  0.43785  0.06522  1.0000
  S   S16       1.0  0.15139  0.54000  0.13063  1.0000
  H   H66       1.0  0.14302  0.57570  0.23331  1.0000
  C   C80       1.0  0.06006  0.40069  0.28448  1.0000
  C   C81       1.0  0.30697  0.59392  0.42998  1.0000
  H   H67       1.0  0.17217  0.46489  0.17147  1.0000
  C   C82       1.0  0.16651  0.49496  0.30169  1.0000
  C   C83       1.0  0.17250  0.47060  0.25778  1.0000
  C   C84       1.0  0.16732  0.48382  0.20511  1.0000
  C   C85       1.0  0.15675  0.52180  0.19608  1.0000
  C   C86       1.0  0.15108  0.54627  0.24002  1.0000
  C   C87       1.0  0.15571  0.53286  0.29266  1.0000
  H   H68       1.0  0.18134  0.44147  0.26471  1.0000
  C   C88       1.0  0.39445  0.34679  0.42022  1.0000
  C   C89       1.0  0.04898  0.47440  0.20470  1.0000
  H   H69       1.0  0.25063  0.50117  0.40119  1.0000
  C   C90       1.0  0.08699  0.41739  0.38732  1.0000
  C   C91       1.0  0.30063  0.58169  0.25228  1.0000
  C   C92       1.0  0.02544  0.52286  0.33134  1.0000
  H   H70       1.0  0.13159  0.37665  0.37078  1.0000
  H   H71       1.0  0.05162  0.57730  0.12870  1.0000
  S   S17       1.0  0.03010  0.56958  0.49814  1.0000
  C   C93       1.0  0.28470  0.59115  0.38328  1.0000
  C   C94       1.0  0.01113  0.46757  0.22033  1.0000
  C   C95       1.0  0.30735  0.33006  0.11834  1.0000
  C   C96       1.0  0.01295  0.57431  0.19553  1.0000
  C   C97       1.0  0.19488  0.35364  0.24139  1.0000
  C   C98       1.0  0.27482  0.60949  0.27102  1.0000
  H   H72       1.0  0.27609  0.43226  0.41125  1.0000
  P   P2        1.0  0.31770  0.36190  0.44300  1.0000
  H   H73       1.0  0.23808  0.38675  0.46168  1.0000
  C   C99       1.0  0.05705  0.48486  0.15214  1.0000
  H   H74       1.0  0.47671  0.39560  0.44235  1.0000
  C   C100      1.0  0.18428  0.35862  0.14589  1.0000
  C   C101      1.0  0.30928  0.56327  0.46553  1.0000
  H   H75       1.0  0.30099  0.35695  0.24644  1.0000
  C   C102      1.0  0.04160  0.42877  0.31540  1.0000
  H   H76       1.0  0.07240  0.47193  0.23292  1.0000
  P   P3        1.0  0.28155  0.63044  0.33673  1.0000
  H   H77       1.0  0.35157  0.61299  0.15398  1.0000
  H   H78       1.0  0.32341  0.33236  0.33397  1.0000
  C   C103      1.0  0.43347  0.35499  0.42060  1.0000
  C   C104      1.0  0.10613  0.39058  0.35557  1.0000
  H   H79       1.0  0.25165  0.45468  0.32429  1.0000
  H   H80       1.0  0.32185  0.61987  0.43997  1.0000
  C   C105      1.0  0.29987  0.37947  0.37961  1.0000
  C   C106      1.0  0.02753  0.48901  0.11500  1.0000
  C   C107      1.0  0.17628  0.37078  0.19797  1.0000
  H   H81       1.0  0.34254  0.37349  0.08338  1.0000
  C   C108      1.0  0.27442  0.40697  0.28005  1.0000
  H   H82       1.0  0.42002  0.63106  0.15647  1.0000
  C   C109      1.0  0.05459  0.43618  0.36759  1.0000
  H   H83       1.0  0.20795  0.61352  0.38815  1.0000
  H   H84       1.0  0.10691  0.36076  0.27998  1.0000
  C   C110      1.0  0.23437  0.59731  0.19348  1.0000
  C   C111      1.0  0.26027  0.56989  0.17506  1.0000
  C   C112      1.0  0.30742  0.35887  0.33243  1.0000
  H   H85       1.0  0.28374  0.34967  0.12361  1.0000
  C   C113      1.0  0.38117  0.40785  0.46233  1.0000
  C   C114      1.0  0.44640  0.38948  0.44195  1.0000
  C   C115      1.0  0.26720  0.52665  0.40851  1.0000
  C   C116      1.0  0.26456  0.55728  0.37306  1.0000
  C   C117      1.0  0.24148  0.61698  0.24129  1.0000
  H   H86       1.0  0.25394  0.55397  0.13876  1.0000
  H   H87       1.0  0.31304  0.54019  0.19060  1.0000
  H   H88       1.0  0.04980  0.39385  0.24462  1.0000
  C   C118      1.0  0.39800  0.65280  0.15977  1.0000
  C   C119      1.0  0.29345  0.56214  0.20436  1.0000
  H   H89       1.0  0.32560  0.57415  0.27575  1.0000
  H   H90       1.0  0.04504  0.57562  0.36613  1.0000
  H   H91       1.0  0.09760  0.42402  0.42702  1.0000
  C   C120      1.0  0.34095  0.34391  0.09552  1.0000
  C   C121      1.0  0.28956  0.52960  0.45471  1.0000
  H   H92       1.0  0.08621  0.49005  0.14017  1.0000
  H   H93       1.0  0.18889  0.36340  0.28175  1.0000
  C   C122      1.0  0.09241  0.38189  0.30438  1.0000
  H   H94       1.0  0.05383  0.51427  0.31882  1.0000
  C   C123      1.0  0.28073  0.41475  0.37610  1.0000
  H   H95       1.0  0.26414  0.41740  0.24175  1.0000
  C   C124      1.0  0.36808  0.37273  0.44249  1.0000
  H   H96       1.0  0.29041  0.50631  0.48309  1.0000
  C   C125      1.0  0.42024  0.41604  0.46237  1.0000
  H   H97       1.0  0.03557  0.57044  0.22472  1.0000
  H   H98       1.0  0.22014  0.63685  0.25572  1.0000
  H   H99       1.0  0.43029  0.44299  0.47826  1.0000
  Fe  Fe9       1.0  0.09374  0.55469  0.49899  1.0000
  C   C126      1.0  0.25439  0.39138  0.49799  1.0000
  H   H100      1.0  0.17031  0.37200  0.11197  1.0000
  H   H101      1.0  0.15126  0.65327  0.40669  1.0000
  H   H102      1.0  0.35171  0.63840  0.27085  1.0000
  H   H103      1.0  0.15569  0.39353  0.20442  1.0000
  H   H104      1.0  0.03405  0.49718  0.07436  1.0000
  C   C127      1.0  0.35347  0.65750  0.30465  1.0000
  C   C128      1.0  0.29489  0.37271  0.28285  1.0000
  H   H105      1.0  0.99978  0.58245  0.06107  1.0000
  C   C129      1.0  0.02054  0.55789  0.35739  1.0000
  C   C130      1.0  0.35946  0.64266  0.15841  1.0000
  H   H106      1.0  0.36124  0.42888  0.47780  1.0000
  P   P4        1.0  0.00091  0.45397  0.28830  1.0000
  S   S18       1.0  0.11192  0.49346  0.49501  1.0000
  C   C131      1.0  0.20814  0.64329  0.37692  1.0000
  C   C132      1.0  0.02201  0.57815  0.14138  1.0000
  C   C133      1.0  0.21063  0.32927  0.13708  1.0000
  C   C134      1.0  0.00405  0.49525  0.48583  1.0000
  S   S19       1.0  0.22773  0.38984  0.01084  1.0000
  H   H107      1.0  0.03348  0.48709  0.48103  1.0000
  C   C135      1.0  0.24040  0.65953  0.35304  1.0000
  H   H108      1.0  0.45377  0.33447  0.40450  1.0000
  C   C136      1.0  0.29348  0.38216  0.50045  1.0000
  C   C137      1.0  0.32376  0.65992  0.34213  1.0000
  H   H109      1.0  0.39773  0.32988  0.06829  1.0000
  Fe  Fe10      1.0  0.17360  0.42636  0.00247  1.0000
  C   C138      1.0  0.36457  0.33201  0.66820  1.0000
  Fe  Fe11      1.0  0.15225  0.50903  0.56126  1.0000
  S   S20       1.0  0.16188  0.46742  0.62882  1.0000
  S   S21       1.0  0.13197  0.56952  0.56921  1.0000
  Fe  Fe12      1.0  0.14980  0.49606  0.93663  1.0000
  S   S22       1.0  0.13264  0.43451  0.93333  1.0000
  S   S23       1.0  0.16250  0.53383  0.86559  1.0000
  H   H110      1.0  0.15237  0.43138  0.73095  1.0000
  H   H111      1.0  0.39333  0.34026  0.65761  1.0000
  H   H112      1.0  0.15180  0.45673  0.82377  1.0000
  H   H113      1.0  0.36593  0.36095  0.74404  1.0000
  C   C139      1.0  0.04265  0.47758  0.86160  1.0000
  H   H114      1.0  0.08049  0.52357  0.84229  1.0000
  H   H115      1.0  0.23461  0.48864  0.82798  1.0000
  C   C140      1.0  0.05512  0.50804  0.83056  1.0000
  H   H116      1.0  0.16826  0.56992  0.76342  1.0000
  C   C141      1.0  0.23160  0.62175  0.68747  1.0000
  C   C142      1.0  0.24154  0.43275  0.86207  1.0000
  C   C143      1.0  0.16014  0.48633  0.69433  1.0000
  C   C144      1.0  0.16435  0.52545  0.70370  1.0000
  C   C145      1.0  0.16445  0.53971  0.75638  1.0000
  C   C146      1.0  0.15995  0.51505  0.79999  1.0000
  C   C147      1.0  0.15508  0.47602  0.79055  1.0000
  C   C148      1.0  0.15557  0.46167  0.73790  1.0000
  H   H117      1.0  0.16834  0.54461  0.67048  1.0000
  C   C149      1.0  0.99636  0.50926  0.97585  1.0000
  H   H118      1.0  0.30397  0.65330  0.53357  1.0000
  C   C150      1.0  0.28140  0.41431  0.76842  1.0000
  C   C151      1.0  0.25563  0.41161  0.59086  1.0000
  C   C152      1.0  0.27700  0.38666  0.80843  1.0000
  C   C153      1.0  0.24345  0.34346  0.99191  1.0000
  C   C154      1.0  0.03512  0.51826  0.78428  1.0000
  H   H119      1.0  0.05807  0.46981  0.89755  1.0000
  C   C155      1.0  0.05215  0.45647  0.60818  1.0000
  C   C156      1.0  0.03571  0.48185  0.64484  1.0000
  C   C157      1.0  0.29407  0.40091  0.59435  1.0000
  C   C158      1.0  0.25650  0.39606  0.85499  1.0000
  H   H120      1.0  0.24090  0.42338  0.62547  1.0000
  C   C159      1.0  0.20337  0.63803  0.65513  1.0000
  H   H121      1.0  0.99977  0.54978  0.60907  1.0000
  S   S24       1.0  0.19895  0.52309  0.50447  1.0000
  H   H122      1.0  0.34247  0.37728  0.55326  1.0000
  C   C160      1.0  0.34897  0.34354  0.71717  1.0000
  H   H123      1.0  0.21265  0.34251  0.79425  1.0000
  S   S25       1.0  0.19308  0.48756  0.00168  1.0000
  H   H124      1.0  0.01029  0.61748  0.58876  1.0000
  H   H125      1.0  0.22915  0.59222  0.69970  1.0000
  C   C161      1.0  0.26595  0.45093  0.77537  1.0000
  H   H126      1.0  0.26874  0.47212  0.74420  1.0000
  C   C162      1.0  0.37842  0.65397  0.60016  1.0000
  Fe  Fe13      1.0  0.17699  0.58357  0.50765  1.0000
  C   C163      1.0  0.24644  0.46024  0.82242  1.0000
  H   H127      1.0  0.22594  0.43981  0.89828  1.0000
  C   C164      1.0  0.03015  0.42771  0.58490  1.0000
  C   C165      1.0  0.26316  0.64334  0.70327  1.0000
  H   H128      1.0  0.38144  0.37090  0.95342  1.0000
  H   H129      1.0  0.29642  0.40769  0.73182  1.0000
  H   H130      1.0  0.32406  0.64300  0.63556  1.0000
  C   C166      1.0  0.23579  0.40669  0.54278  1.0000
  H   H131      1.0  0.00081  0.43349  0.87080  1.0000
  H   H132      1.0  0.32383  0.37894  0.89848  1.0000
  C   C167      1.0  0.33757  0.33268  0.84365  1.0000
  H   H133      1.0  0.17933  0.62107  0.64199  1.0000
  H   H134      1.0  0.08205  0.45906  0.59809  1.0000
  H   H135      1.0  0.05336  0.50380  0.66271  1.0000
  C   C168      1.0  0.28292  0.33615  0.99097  1.0000
  C   C169      1.0  0.37688  0.35246  0.91914  1.0000
  H   H136      1.0  0.02545  0.51846  0.97120  1.0000
  C   C170      1.0  0.31290  0.38607  0.54945  1.0000
  H   H137      1.0  0.30920  0.40389  0.63197  1.0000
  H   H138      1.0  0.37800  0.62810  0.57633  1.0000
  H   H139      1.0  0.04284  0.40841  0.55599  1.0000
  P   P5        1.0  0.29639  0.33906  0.80048  1.0000
  H   H140      1.0  0.25218  0.37503  0.88608  1.0000
  H   H141      1.0  0.04588  0.54140  0.76016  1.0000
  H   H142      1.0  0.28508  0.63005  0.72765  1.0000
  C   C171      1.0  0.34398  0.35679  0.88781  1.0000
  S   S26       1.0  0.23029  0.62062  0.51857  1.0000
  Fe  Fe14      1.0  0.08904  0.45220  0.99584  1.0000
  S   S27       1.0  0.10441  0.51400  0.99487  1.0000
  H   H143      1.0  0.30251  0.35928  0.99832  1.0000
  C   C172      1.0  0.00177  0.60930  0.62877  1.0000
  H   H144      1.0  0.20581  0.41467  0.54056  1.0000
  C   C173      1.0  0.01031  0.45707  0.84632  1.0000
  S   S28       1.0  0.02577  0.43628  0.99382  1.0000
  C   C174      1.0  0.31275  0.33067  0.73277  1.0000
  C   C175      1.0  0.00207  0.49832  0.76917  1.0000
  C   C176      1.0  0.99702  0.47862  0.65862  1.0000
  C   C177      1.0  0.99670  0.63708  0.66845  1.0000
  C   C178      1.0  0.99603  0.57079  0.64053  1.0000
  H   H145      1.0  0.32538  0.56613  0.50237  1.0000
  Fe  Fe15      1.0  0.45979  0.81604  0.07503  1.0000
  H   H146      1.0  0.23369  0.81689  0.30615  1.0000
  C   C179      1.0  0.31247  0.89893  0.31515  1.0000
  H   H147      1.0  0.40906  0.67814  0.28175  1.0000
  Fe  Fe16      1.0  0.42868  0.81565  0.45312  1.0000
  C   C180      1.0  0.34537  0.91220  0.28988  1.0000
  S   S29       1.0  0.37474  0.84957  0.44236  1.0000
  S   S30       1.0  0.41908  0.81996  0.14517  1.0000
  C   C181      1.0  0.24990  0.72775  0.08909  1.0000
  H   H148      1.0  0.20805  0.71151  0.02985  1.0000
  H   H149      1.0  0.16546  0.68023  0.09528  1.0000
  C   C182      1.0  0.32061  0.78308  0.11954  1.0000
  H   H150      1.0  0.35571  0.75203  0.26112  1.0000
  C   C183      1.0  0.45182  0.79767  0.31996  1.0000
  C   C184      1.0  0.43276  0.81108  0.21191  1.0000
  C   C185      1.0  0.40779  0.82204  0.25304  1.0000
  C   C186      1.0  0.41763  0.81610  0.30684  1.0000
  H   H151      1.0  0.38085  0.83558  0.24332  1.0000
  H   H152      1.0  0.39870  0.82575  0.33807  1.0000
  C   C187      1.0  0.30466  0.90945  0.36799  1.0000
  C   C188      1.0  0.32864  0.76546  0.27023  1.0000
  C   C189      1.0  0.32966  0.93348  0.39545  1.0000
  C   C190      1.0  0.36004  0.70749  0.39172  1.0000
  C   C191      1.0  0.45189  0.91967  0.30751  1.0000
  H   H153      1.0  0.38192  0.96471  0.39293  1.0000
  H   H154      1.0  0.27951  0.89873  0.38795  1.0000
  H   H155      1.0  0.39135  0.95655  0.06027  1.0000
  H   H156      1.0  0.34636  0.78037  0.35038  1.0000
  C   C192      1.0  0.38617  0.67995  0.31074  1.0000
  H   H157      1.0  0.34644  0.74302  0.06376  1.0000
  C   C193      1.0  0.20177  0.69257  0.16291  1.0000
  H   H158      1.0  0.28544  0.81164  0.37409  1.0000
  C   C194      1.0  0.26010  0.80233  0.29613  1.0000
  C   C195      1.0  0.23590  0.73617  0.49608  1.0000
  H   H159      1.0  0.44197  0.92981  0.39201  1.0000
  C   C196      1.0  0.35092  0.80044  0.03555  1.0000
  C   C197      1.0  0.28920  0.79957  0.33430  1.0000
  H   H160      1.0  0.29806  0.83082  0.16525  1.0000
  H   H161      1.0  0.40840  0.89273  0.20356  1.0000
  C   C198      1.0  0.34113  0.70946  0.16661  1.0000
  H   H162      1.0  0.24379  0.70720  0.22206  1.0000
  C   C199      1.0  0.46479  0.98072  0.48479  1.0000
  C   C200      1.0  0.32376  0.84955  0.09242  1.0000
  C   C201      1.0  0.32719  0.68548  0.38532  1.0000
  C   C202      1.0  0.36267  0.94665  0.37040  1.0000
  H   H163      1.0  0.35060  0.90324  0.24927  1.0000
  C   C203      1.0  0.38952  0.70482  0.35435  1.0000
  H   H164      1.0  0.38831  0.74883  0.17096  1.0000
  H   H165      1.0  0.24229  0.78898  0.21595  1.0000
  H   H166      1.0  0.49466  0.88824  0.42211  1.0000
  H   H167      1.0  0.43805  0.69926  0.16521  1.0000
  H   H168      1.0  0.20737  0.75089  0.34163  1.0000
  C   C204      1.0  0.17552  0.70440  0.37445  1.0000
  H   H169      1.0  0.47352  0.95137  0.47921  1.0000
  C   C205      1.0  0.46713  0.79281  0.22478  1.0000
  C   C206      1.0  0.26507  0.78634  0.24516  1.0000
  S   S31       1.0  0.46440  0.78898  0.38730  1.0000
  H   H170      1.0  0.41486  0.72225  0.35903  1.0000
  H   H171      1.0  0.26812  0.74099  0.05972  1.0000
  C   C207      1.0  0.39635  0.95591  0.10295  1.0000
  C   C208      1.0  0.32353  0.78156  0.32108  1.0000
  H   H172      1.0  0.18306  0.67884  0.19134  1.0000
  C   C209      1.0  0.21580  0.71102  0.07190  1.0000
  C   C210      1.0  0.33974  0.77262  0.07221  1.0000
  P   P6        1.0  0.41465  0.95240  0.28637  1.0000
  C   C211      1.0  0.37991  0.71927  0.16809  1.0000
  C   C212      1.0  0.40602  0.92011  0.18424  1.0000
  P   P7        1.0  0.30515  0.74670  0.16581  1.0000
  C   C213      1.0  0.29928  0.76739  0.23191  1.0000
  H   H173      1.0  0.36242  0.72702  0.42537  1.0000
  C   C214      1.0  0.40819  0.69112  0.16473  1.0000
  H   H174      1.0  0.47086  0.90319  0.22810  1.0000
  C   C215      1.0  0.37090  0.93622  0.31731  1.0000
  C   C216      1.0  0.45918  0.91507  0.36244  1.0000
  H   H175      1.0  0.26418  0.71164  0.32112  1.0000
  H   H176      1.0  0.39879  0.89469  0.10630  1.0000
  C   C217      1.0  0.40867  0.95402  0.21417  1.0000
  C   C218      1.0  0.20748  0.72077  0.35071  1.0000
  C   C219      1.0  0.23602  0.70893  0.18019  1.0000
  C   C220      1.0  0.40022  0.92106  0.12897  1.0000
  H   H177      1.0  0.15073  0.72181  0.38373  1.0000
  C   C221      1.0  0.23972  0.69843  0.33965  1.0000
  C   C222      1.0  0.19176  0.69342  0.10876  1.0000
  C   C223      1.0  0.47637  0.78565  0.27874  1.0000
  C   C224      1.0  0.26025  0.72690  0.14345  1.0000
  C   C225      1.0  0.42695  0.98916  0.49866  1.0000
  C   C226      1.0  0.33106  0.67081  0.16209  1.0000
  C   C227      1.0  0.39890  0.98986  0.13198  1.0000
  H   H178      1.0  0.29321  0.88023  0.29377  1.0000
  C   C228      1.0  0.31250  0.82180  0.12918  1.0000
  C   C229      1.0  0.34296  0.83888  0.04568  1.0000
  H   H179      1.0  0.32403  0.94136  0.43672  1.0000
  H   H180      1.0  0.31819  0.87944  0.10053  1.0000
  C   C230      1.0  0.47523  0.90038  0.27050  1.0000
  H   H181      1.0  0.48640  0.78395  0.19324  1.0000
  H   H182      1.0  0.30444  0.68821  0.41431  1.0000
  S   S32       1.0  0.46771  0.76467  0.02249  1.0000
  H   H183      1.0  0.21669  0.75926  0.48568  1.0000
  C   C231      1.0  0.40519  0.98907  0.18738  1.0000
  H   H184      1.0  0.35226  0.86041  0.01764  1.0000
  C   C232      1.0  0.48918  0.89170  0.37980  1.0000
  C   C233      1.0  0.17581  0.66570  0.38734  1.0000
  S   S33       1.0  0.44281  0.85308  0.00601  1.0000
  S   S34       1.0  0.29117  0.79167  0.49906  1.0000
  H   H185      1.0  0.48759  0.98821  0.31658  1.0000
  H   H186      1.0  0.49095  0.94558  0.09039  1.0000
  C   C234      1.0  0.22159  0.69876  0.50035  1.0000
  H   H187      1.0  0.19161  0.69330  0.49376  1.0000
  H   H188      1.0  0.30147  0.66222  0.16045  1.0000
  C   C235      1.0  0.47677  0.81000  0.75375  1.0000
  H   H189      1.0  0.43671  0.92845  0.96920  1.0000
  Fe  Fe17      1.0  0.42562  0.82233  0.57492  1.0000
  H   H190      1.0  0.27776  0.67302  0.89396  1.0000
  S   S35       1.0  0.37095  0.85597  0.57302  1.0000
  S   S36       1.0  0.41401  0.79076  0.88718  1.0000
  Fe  Fe18      1.0  0.45693  0.80351  0.95290  1.0000
  C   C236      1.0  0.46937  0.93165  0.66374  1.0000
  C   C237      1.0  0.42774  0.80053  0.82068  1.0000
  C   C238      1.0  0.39986  0.80357  0.78034  1.0000
  C   C239      1.0  0.41050  0.80981  0.72674  1.0000
  H   H191      1.0  0.37003  0.80110  0.79061  1.0000
  H   H192      1.0  0.38892  0.81238  0.69589  1.0000
  H   H193      1.0  0.44943  0.70768  0.80846  1.0000
  C   C240      1.0  0.28486  0.67643  0.52320  1.0000
  H   H194      1.0  0.39756  0.95113  0.62685  1.0000
  C   C241      1.0  0.37880  0.72122  0.66028  1.0000
  C   C242      1.0  0.28844  0.83859  0.68923  1.0000
  C   C243      1.0  0.41807  0.98708  0.96896  1.0000
  H   H195      1.0  0.38113  0.92101  0.78151  1.0000
  C   C244      1.0  0.48469  0.70585  0.87915  1.0000
  C   C245      1.0  0.23812  0.69761  0.65437  1.0000
  C   C246      1.0  0.46279  0.96991  0.67838  1.0000
  H   H196      1.0  0.45987  0.87289  0.89405  1.0000
  H   H197      1.0  0.37917  0.74752  0.68273  1.0000
  H   H198      1.0  0.43328  0.73211  0.62395  1.0000
  S   S37       1.0  0.46462  0.81186  0.64591  1.0000
  H   H199      1.0  0.29298  0.82816  0.60446  1.0000
  C   C247      1.0  0.47381  0.94517  0.80625  1.0000
  C   C248      1.0  0.40953  0.71248  0.62682  1.0000
  C   C249      1.0  0.44915  0.81142  0.71310  1.0000
  C   C250      1.0  0.46615  0.80476  0.80731  1.0000
  C   C251      1.0  0.20664  0.67588  0.63859  1.0000
  C   C252      1.0  0.29977  0.68249  0.86675  1.0000
  C   C253      1.0  0.48181  0.91871  0.84647  1.0000
  C   C254      1.0  0.43736  0.94673  0.78275  1.0000
  H   H200      1.0  0.39239  0.71061  0.86653  1.0000
  H   H201      1.0  0.34278  0.68730  0.92829  1.0000
  C   C255      1.0  0.33634  0.69041  0.88607  1.0000
  H   H202      1.0  0.38825  0.97982  0.96454  1.0000
  H   H203      1.0  0.45415  0.90873  0.68326  1.0000
  C   C256      1.0  0.26656  0.68158  0.68721  1.0000
  C   C257      1.0  0.35634  0.70755  0.79660  1.0000
  S   S38       1.0  0.45409  0.85731  0.51162  1.0000
  H   H204      1.0  0.30378  0.75907  0.61410  1.0000
  C   C258      1.0  0.40926  0.67894  0.59648  1.0000
  H   H205      1.0  0.32905  0.71934  0.52700  1.0000
  H   H206      1.0  0.39564  0.87501  0.85307  1.0000
  S   S39       1.0  0.40509  0.77743  0.51687  1.0000
  C   C259      1.0  0.29131  0.68745  0.81246  1.0000
  C   C260      1.0  0.47806  0.71031  0.82437  1.0000
  H   H207      1.0  0.37838  0.71842  0.77070  1.0000
  C   C261      1.0  0.34760  0.69650  0.66420  1.0000
  P   P8        1.0  0.30795  0.70887  0.70738  1.0000
  Fe  Fe19      1.0  0.35217  0.81360  0.50966  1.0000
  C   C262      1.0  0.24610  0.66857  0.51341  1.0000
  H   H208      1.0  0.18522  0.68805  0.61227  1.0000
  C   C263      1.0  0.36448  0.70317  0.85109  1.0000
  C   C264      1.0  0.29916  0.71386  0.51935  1.0000
  C   C265      1.0  0.48433  0.96639  0.97755  1.0000
  C   C266      1.0  0.31974  0.69937  0.77666  1.0000
  H   H209      1.0  0.33237  0.94434  0.59292  1.0000
  H   H210      1.0  0.48785  0.80271  0.83790  1.0000
  C   C267      1.0  0.29340  0.81557  0.64401  1.0000
  H   H211      1.0  0.28486  0.84006  0.77524  1.0000
  H   H212      1.0  0.29351  0.77086  0.78566  1.0000
  C   C268      1.0  0.29349  0.78279  0.74579  1.0000
  H   H213      1.0  0.28470  0.86912  0.68475  1.0000
  C   C269      1.0  0.29921  0.77630  0.64958  1.0000
  C   C270      1.0  0.29909  0.75951  0.70048  1.0000
  C   C271      1.0  0.28849  0.82220  0.74011  1.0000
  H   H214      1.0  0.24022  0.72656  0.64004  1.0000
  C   C272      1.0  0.45360  0.89352  0.86318  1.0000
  C   C273      1.0  0.41730  0.89483  0.84002  1.0000
  C   C274      1.0  0.44562  0.95774  0.97176  1.0000
  H   H215      1.0  0.46129  0.69954  0.90588  1.0000
  C   C275      1.0  0.40918  0.92114  0.79960  1.0000
  P   P9        1.0  0.42824  0.98062  0.73001  1.0000
  H   H216      1.0  0.26235  0.68264  0.79888  1.0000
  C   C276      1.0  0.37411  0.95967  0.65241  1.0000
  Fe  Fe20      1.0  0.39851  0.88865  0.50603  1.0000
  H   H217      1.0  0.43282  0.67252  0.56986  1.0000
  H   H218      1.0  0.36643  0.79233  0.99966  1.0000
  S   S40       1.0  0.39150  0.95339  0.50610  1.0000
  C   C277      1.0  0.33690  0.95578  0.63283  1.0000
  H   H219      1.0  0.27708  0.96445  0.64855  1.0000
  C   C278      1.0  0.38051  0.97496  0.70372  1.0000
  C   C279      1.0  0.30583  0.96720  0.66411  1.0000
  C   C280      1.0  0.34916  0.98662  0.73479  1.0000
  C   C281      1.0  0.31197  0.98264  0.71508  1.0000
  C   C282      1.0  0.49503  0.92258  0.62285  1.0000
  C   C283      1.0  0.34777  0.66256  0.63407  1.0000
  C   C284      1.0  0.27475  0.74396  0.50531  1.0000
  H   H220      1.0  0.00140  0.66684  0.65923  1.0000
  H   H221      1.0  0.28795  0.99188  0.73920  1.0000
  S   S41       1.0  0.56099  0.28824  0.46900  1.0000
  H   H222      1.0  0.70040  0.27241  0.43992  1.0000
  Fe  Fe21      1.0  0.52372  0.23406  0.46820  1.0000
  H   H223      1.0  0.59753  0.15477  0.31735  1.0000
  C   C285      1.0  0.53569  0.10004  0.21286  1.0000
  C   C286      1.0  0.52014  0.13137  0.08673  1.0000
  H   H224      1.0  0.62270  0.09577  0.27455  1.0000
  C   C287      1.0  0.54906  0.07005  0.06671  1.0000
  P   P10       1.0  0.50772  0.07555  0.16260  1.0000
  C   C288      1.0  0.57254  0.08697  0.22588  1.0000
  C   C289      1.0  0.73981  0.28782  0.27586  1.0000
  H   H225      1.0  0.58572  0.27090  0.35561  1.0000
  Fe  Fe22      1.0  0.49906  0.14923  0.47673  1.0000
  C   C290      1.0  0.55901  0.28769  0.28153  1.0000
  C   C291      1.0  0.59459  0.10638  0.26390  1.0000
  H   H226      1.0  0.53433  0.18041  0.29018  1.0000
  H   H227      1.0  0.68471  0.29521  0.23940  1.0000
  C   C292      1.0  0.52656  0.09313  0.10038  1.0000
  H   H228      1.0  0.74305  0.25870  0.26186  1.0000
  C   C293      1.0  0.51122  0.02419  0.16598  1.0000
  H   H229      1.0  0.53564  0.26784  0.28550  1.0000
  H   H230      1.0  0.53521  0.02173  0.24607  1.0000
  S   S42       1.0  0.51515  0.08572  0.47717  1.0000
  H   H231      1.0  0.79374  0.28825  0.31766  1.0000
  H   H232      1.0  0.55545  0.04073  0.07683  1.0000
  C   C294      1.0  0.58055  0.13971  0.28779  1.0000
  C   C295      1.0  0.52259  0.13449  0.23527  1.0000
  C   C296      1.0  0.54480  0.15401  0.27287  1.0000
  S   S43       1.0  0.51418  0.18720  0.40664  1.0000
  C   C297      1.0  0.56362  0.08484  0.01903  1.0000
  H   H233      1.0  0.52967  0.17578  0.02920  1.0000
  C   C298      1.0  0.49706  0.00208  0.12346  1.0000
  C   C299      1.0  0.60956  0.30332  0.46506  1.0000
  C   C300      1.0  0.58730  0.28934  0.32094  1.0000
  H   H234      1.0  0.58438  0.06193  0.20638  1.0000
  C   C301      1.0  0.70674  0.30854  0.26343  1.0000
  C   C302      1.0  0.63958  0.27835  0.45255  1.0000
  H   H235      1.0  0.63368  0.24855  0.44515  1.0000
  C   C303      1.0  0.52666  0.00574  0.21099  1.0000
  C   C304      1.0  0.53523  0.14623  0.03955  1.0000
  C   C305      1.0  0.67744  0.29201  0.44956  1.0000
  C   C306      1.0  0.76846  0.30448  0.30699  1.0000
  H   H236      1.0  0.49972  0.23432  0.19797  1.0000
  H   H237      1.0  0.50342  0.14976  0.11264  1.0000
  H   H238      1.0  0.50286  0.04995  0.35920  1.0000
  H   H239      1.0  0.63932  0.31575  0.34685  1.0000
  H   H240      1.0  0.52059  0.00367  0.46743  1.0000
  C   C307      1.0  0.55656  0.12286  0.00532  1.0000
  H   H241      1.0  0.49549  0.14673  0.22322  1.0000
  H   H242      1.0  0.53905  0.31003  0.20627  1.0000
  C   C308      1.0  0.56090  0.31164  0.23704  1.0000
  C   C309      1.0  0.61751  0.31496  0.31598  1.0000
  C   C310      1.0  0.72400  0.26807  0.61654  1.0000
  C   C311      1.0  0.58316  0.32217  0.65745  1.0000
  H   H243      1.0  0.57998  0.30965  0.74238  1.0000
  H   H244      1.0  0.67877  0.29505  0.83584  1.0000
  H   H245      1.0  0.72574  0.21995  0.56269  1.0000
  S   S44       1.0  0.51436  0.19449  0.53837  1.0000
  H   H246      1.0  0.65101  0.28441  0.74591  1.0000
  C   C312      1.0  0.50669  0.29825  0.65468  1.0000
  H   H247      1.0  0.65637  0.22250  0.54273  1.0000
  H   H248      1.0  0.50555  0.20223  0.74021  1.0000
  C   C313      1.0  0.66180  0.29816  0.62869  1.0000
  H   H249      1.0  0.56749  0.13425  0.96816  1.0000
  C   C314      1.0  0.70791  0.24145  0.58154  1.0000
  C   C315      1.0  0.64592  0.27129  0.59327  1.0000
  C   C316      1.0  0.67328  0.31910  0.80977  1.0000
  C   C317      1.0  0.66887  0.24290  0.57027  1.0000
  C   C318      1.0  0.52452  0.31018  0.60777  1.0000
  C   C319      1.0  0.70108  0.29619  0.64022  1.0000
  H   H250      1.0  0.61602  0.27203  0.58268  1.0000
  C   C320      1.0  0.65743  0.31321  0.75893  1.0000
  H   H251      1.0  0.75437  0.26724  0.62484  1.0000
  C   C321      1.0  0.52688  0.29825  0.70303  1.0000
  C   C322      1.0  0.56497  0.31020  0.70454  1.0000
  H   H252      1.0  0.71420  0.31670  0.66698  1.0000
  H   H253      1.0  0.52496  0.01213  0.98264  1.0000
  H   H254      1.0  0.50927  0.30919  0.56993  1.0000
  H   H255      1.0  0.58026  0.06673  0.99256  1.0000
  H   H256      1.0  0.52318  0.01224  0.59006  1.0000
  C   C323      1.0  0.56245  0.32231  0.60921  1.0000
  H   H257      1.0  0.51312  0.28830  0.73922  1.0000
  Fe  Fe23      1.0  0.76152  0.51575  0.03232  1.0000
  S   S45       1.0  0.78883  0.57361  0.03239  1.0000
  S   S46       1.0  0.75137  0.47626  0.10256  1.0000
  Fe  Fe24      1.0  0.77492  0.48364  0.41187  1.0000
  S   S47       1.0  0.80550  0.42733  0.40692  1.0000
  S   S48       1.0  0.76610  0.52703  0.34595  1.0000
  C   C324      1.0  0.75300  0.59946  0.46966  1.0000
  C   C325      1.0  0.91231  0.62211  0.28650  1.0000
  C   C326      1.0  0.99405  0.49882  0.32267  1.0000
  H   H258      1.0  0.68339  0.50369  0.32863  1.0000
  H   H259      1.0  0.61860  0.38182  0.36955  1.0000
  H   H260      1.0  0.68825  0.45014  0.26512  1.0000
  C   C327      1.0  0.63562  0.41958  0.18295  1.0000
  H   H261      1.0  0.64604  0.49696  0.41220  1.0000
  C   C328      1.0  0.69103  0.38003  0.16424  1.0000
  C   C329      1.0  0.75737  0.49089  0.16970  1.0000
  C   C330      1.0  0.76088  0.46310  0.20985  1.0000
  C   C331      1.0  0.76468  0.47380  0.26395  1.0000
  C   C332      1.0  0.76397  0.51239  0.27830  1.0000
  C   C333      1.0  0.76048  0.54014  0.23819  1.0000
  C   C334      1.0  0.75748  0.52945  0.18399  1.0000
  H   H262      1.0  0.76061  0.43320  0.19900  1.0000
  H   H263      1.0  0.76726  0.45222  0.29456  1.0000
  H   H264      1.0  0.75973  0.57003  0.24906  1.0000
  H   H265      1.0  0.75428  0.55094  0.15333  1.0000
  C   C335      1.0  0.66173  0.39132  0.19926  1.0000
  C   C336      1.0  0.87562  0.61964  0.36853  1.0000
  C   C337      1.0  0.89742  0.37390  0.30464  1.0000
  C   C338      1.0  0.96052  0.42242  0.29436  1.0000
  C   C339      1.0  0.80565  0.63716  0.12904  1.0000
  C   C340      1.0  0.65586  0.35564  0.47144  1.0000
  C   C341      1.0  0.59094  0.33756  0.23215  1.0000
  H   H266      1.0  0.72819  0.39145  0.32876  1.0000
  C   C342      1.0  0.85158  0.59251  0.34534  1.0000
  C   C343      1.0  0.97476  0.57443  0.21178  1.0000
  C   C344      1.0  0.70208  0.34611  0.28218  1.0000
  H   H267      1.0  0.95231  0.43364  0.37901  1.0000
  C   C345      1.0  0.62952  0.43896  0.39532  1.0000
  C   C346      1.0  0.93676  0.47699  0.48842  1.0000
  H   H268      1.0  0.71768  0.38936  0.08767  1.0000
  C   C347      1.0  0.63234  0.40832  0.35946  1.0000
  C   C348      1.0  0.97545  0.46732  0.48232  1.0000
  H   H269      1.0  0.61396  0.43564  0.43239  1.0000
  C   C349      1.0  0.98140  0.47364  0.18342  1.0000
  C   C350      1.0  0.94232  0.41826  0.34400  1.0000
  H   H270      1.0  0.92412  0.65609  0.35669  1.0000
  S   S49       1.0  0.73424  0.34630  0.45476  1.0000
  H   H271      1.0  0.98081  0.59575  0.39659  1.0000
  H   H272      1.0  0.95190  0.47050  0.19511  1.0000
  C   C351      1.0  0.99451  0.53343  0.49532  1.0000
  Fe  Fe25      1.0  0.76026  0.40601  0.46414  1.0000
  H   H273      1.0  0.77488  0.63405  0.12780  1.0000
  H   H274      1.0  0.61324  0.42920  0.20971  1.0000
  H   H275      1.0  0.66183  0.38541  0.47881  1.0000
  C   C352      1.0  0.86686  0.52225  0.12894  1.0000
  H   H276      1.0  0.71220  0.35911  0.17599  1.0000
  C   C353      1.0  0.82809  0.61026  0.15601  1.0000
  H   H277      1.0  0.93238  0.58240  0.08907  1.0000
  Fe  Fe26      1.0  0.83759  0.44760  0.48003  1.0000
  H   H278      1.0  0.84328  0.47837  0.07839  1.0000
  H   H279      1.0  0.59186  0.35558  0.19718  1.0000
  C   C354      1.0  0.61802  0.34207  0.47417  1.0000
  C   C355      1.0  0.66823  0.42514  0.09806  1.0000
  C   C356      1.0  0.85357  0.48551  0.11810  1.0000
  C   C357      1.0  0.64758  0.47344  0.38402  1.0000
  H   H280      1.0  0.84085  0.43028  0.15036  1.0000
  H   H281      1.0  0.61936  0.45889  0.12056  1.0000
  C   C358      1.0  0.94533  0.57908  0.17400  1.0000
  H   H282      1.0  0.96678  0.48792  0.10189  1.0000
  C   C359      1.0  0.95758  0.51091  0.33890  1.0000
  H   H283      1.0  0.93272  0.49345  0.33208  1.0000
  H   H284      1.0  0.81436  0.58682  0.17617  1.0000
  C   C360      1.0  0.85240  0.45829  0.15872  1.0000
  C   C361      1.0  0.63889  0.43639  0.13251  1.0000
  H   H285      1.0  0.86734  0.54296  0.09680  1.0000
  C   C362      1.0  0.66861  0.47726  0.33696  1.0000
  H   H286      1.0  0.83809  0.55996  0.27522  1.0000
  C   C363      1.0  0.88901  0.59395  0.26349  1.0000
  C   C364      1.0  0.91639  0.37655  0.25565  1.0000
  S   S50       1.0  0.80946  0.50490  0.48160  1.0000
  C   C365      1.0  0.65314  0.41203  0.31182  1.0000
  C   C366      1.0  0.98967  0.48378  0.13067  1.0000
  C   C367      1.0  0.86523  0.46755  0.21016  1.0000
  H   H287      1.0  0.82776  0.58121  0.36783  1.0000
  C   C368      1.0  0.87894  0.53205  0.18082  1.0000
  H   H288      1.0  0.86392  0.44657  0.24181  1.0000
  H   H289      1.0  0.96831  0.57040  0.25365  1.0000
  C   C369      1.0  0.85790  0.58008  0.29284  1.0000
  C   C370      1.0  0.86798  0.61341  0.15658  1.0000
  C   C371      1.0  0.87890  0.50417  0.22104  1.0000
  H   H290      1.0  0.92494  0.55409  0.37983  1.0000
  C   C372      1.0  0.91061  0.39450  0.34889  1.0000
  C   C373      1.0  0.95462  0.58106  0.11939  1.0000
  H   H291      1.0  0.88893  0.51073  0.26093  1.0000
  H   H292      1.0  0.76294  0.57276  0.45245  1.0000
  C   C374      1.0  0.74090  0.62887  0.43606  1.0000
  H   H293      1.0  0.98344  0.43790  0.47512  1.0000
  C   C375      1.0  0.61938  0.33960  0.27185  1.0000
  P   P11       1.0  0.89590  0.57959  0.19459  1.0000
  C   C376      1.0  0.95285  0.54583  0.36520  1.0000
  H   H294      1.0  0.67180  0.43919  0.05980  1.0000
  C   C377      1.0  0.73114  0.36278  0.31303  1.0000
  H   H295      1.0  0.90659  0.36007  0.22153  1.0000
  C   C378      1.0  0.98427  0.56934  0.37441  1.0000
  H   H296      1.0  0.87275  0.35562  0.30859  1.0000
  C   C379      1.0  0.67144  0.44671  0.30106  1.0000
  H   H297      1.0  0.78591  0.35448  0.35063  1.0000
  P   P12       1.0  0.65899  0.37223  0.26623  1.0000
  H   H298      1.0  0.74172  0.62484  0.39297  1.0000
  H   H299      1.0  0.89630  0.39212  0.38721  1.0000
  C   C380      1.0  0.68590  0.33071  0.45907  1.0000
  C   C381      1.0  0.94810  0.40037  0.25062  1.0000
  C   C382      1.0  0.99283  0.58105  0.10328  1.0000
  C   C383      1.0  0.88507  0.64481  0.13162  1.0000
  C   C384      1.0  0.69416  0.39690  0.11384  1.0000
  H   H300      1.0  0.96285  0.40129  0.21265  1.0000
  S   S51       1.0  0.72745  0.46133  0.46304  1.0000
  S   S52       1.0  0.90230  0.43999  0.48460  1.0000
  H   H301      1.0  0.65917  0.62359  0.02273  1.0000
  H   H302      1.0  0.87061  0.62919  0.40924  1.0000
  H   H303      1.0  0.59515  0.36181  0.48355  1.0000
  H   H304      1.0  0.60076  0.65764  0.05382  1.0000
  C   C385      1.0  0.76419  0.34196  0.32527  1.0000
  C   C386      1.0  0.92694  0.51523  0.49799  1.0000
  H   H305      1.0  0.93519  0.63475  0.26370  1.0000
  C   C387      1.0  0.95572  0.54327  0.50151  1.0000
  H   H306      1.0  0.91563  0.64885  0.13328  1.0000
  C   C388      1.0  0.90583  0.63462  0.33900  1.0000
  C   C389      1.0  0.65290  0.65202  0.00838  1.0000
  Fe  Fe27      1.0  0.76138  0.51008  0.91024  1.0000
  S   S53       1.0  0.78926  0.56722  0.90131  1.0000
  S   S54       1.0  0.74928  0.46607  0.84540  1.0000
  H   H307      1.0  0.87277  0.60980  0.62347  1.0000
  C   C390      1.0  0.96643  0.53606  0.97121  1.0000
  H   H308      1.0  0.59788  0.65260  0.61285  1.0000
  H   H309      1.0  0.69552  0.36060  0.86571  1.0000
  H   H310      1.0  0.58108  0.39879  0.62674  1.0000
  H   H311      1.0  0.75889  0.42216  0.74907  1.0000
  Fe  Fe28      1.0  0.76490  0.47742  0.53280  1.0000
  S   S55       1.0  0.79549  0.42108  0.53715  1.0000
  S   S56       1.0  0.73975  0.51250  0.60032  1.0000
  H   H312      1.0  0.75628  0.43953  0.65268  1.0000
  H   H313      1.0  0.72886  0.55478  0.69661  1.0000
  H   H314      1.0  0.69217  0.64763  0.72063  1.0000
  C   C391      1.0  0.63575  0.57250  0.68834  1.0000
  C   C392      1.0  0.65045  0.34426  0.72482  1.0000
  H   H315      1.0  0.81265  0.59355  0.77109  1.0000
  C   C393      1.0  0.95018  0.45966  0.99084  1.0000
  C   C394      1.0  0.74679  0.47914  0.77743  1.0000
  C   C395      1.0  0.73849  0.51661  0.76240  1.0000
  C   C396      1.0  0.73586  0.52602  0.70791  1.0000
  C   C397      1.0  0.74267  0.49855  0.66803  1.0000
  C   C398      1.0  0.75111  0.46103  0.68298  1.0000
  C   C399      1.0  0.75259  0.45126  0.73759  1.0000
  H   H316      1.0  0.73362  0.53817  0.79277  1.0000
  C   C400      1.0  0.63967  0.37919  0.61955  1.0000
  H   H317      1.0  0.64096  0.60794  0.75837  1.0000
  C   C401      1.0  0.65109  0.60255  0.71811  1.0000
  C   C402      1.0  0.90837  0.50825  0.76495  1.0000
  H   H318      1.0  0.92510  0.51074  0.80131  1.0000
  H   H319      1.0  0.75358  0.61709  0.72964  1.0000
  S   S57       1.0  0.80281  0.49061  0.97329  1.0000
  H   H320      1.0  0.65823  0.47808  0.55456  1.0000
  H   H321      1.0  0.70051  0.37034  0.60830  1.0000
  C   C403      1.0  0.60942  0.40523  0.61242  1.0000
  P   P13       1.0  0.63296  0.33600  0.65753  1.0000
  H   H322      1.0  0.59253  0.46053  0.58286  1.0000
  H   H323      1.0  0.84552  0.50415  0.63675  1.0000
  C   C404      1.0  0.84614  0.50488  0.72290  1.0000
  Fe  Fe29      1.0  0.82770  0.54892  0.96928  1.0000
  S   S58       1.0  0.72082  0.64673  0.94976  1.0000
  H   H324      1.0  0.63822  0.54098  0.61425  1.0000
  H   H325      1.0  0.94594  0.44459  0.64747  1.0000
  C   C405      1.0  0.67858  0.58700  0.61534  1.0000
  C   C406      1.0  0.81280  0.60260  0.72959  1.0000
  H   H326      1.0  0.89083  0.47752  0.99014  1.0000
  C   C407      1.0  0.97536  0.44892  0.63622  1.0000
  C   C408      1.0  0.75181  0.60422  0.52525  1.0000
  C   C409      1.0  0.61588  0.44054  0.58814  1.0000
  C   C410      1.0  0.86861  0.50678  0.76909  1.0000
  H   H327      1.0  0.87248  0.58987  0.71855  1.0000
  C   C411      1.0  0.92594  0.50680  0.71442  1.0000
  P   P14       1.0  0.73498  0.64346  0.62001  1.0000
  C   C412      1.0  0.81294  0.62487  0.62226  1.0000
  C   C413      1.0  0.86322  0.50508  0.67246  1.0000
  H   H328      1.0  0.57595  0.33088  0.57228  1.0000
  C   C414      1.0  0.92816  0.52499  0.97635  1.0000
  H   H329      1.0  0.68365  0.41550  0.80604  1.0000
  C   C415      1.0  0.64931  0.56492  0.63687  1.0000
  H   H330      1.0  0.97457  0.40176  0.58073  1.0000
  H   H331      1.0  0.76128  0.58103  0.55063  1.0000
  C   C416      1.0  0.84651  0.60051  0.70001  1.0000
  C   C417      1.0  0.77863  0.62639  0.65137  1.0000
  H   H332      1.0  0.97300  0.56561  0.96325  1.0000
  C   C418      1.0  0.65964  0.38128  0.74243  1.0000
  P   P15       1.0  0.97713  0.51054  0.70825  1.0000
  H   H333      1.0  0.85510  0.50715  0.80817  1.0000
  C   C419      1.0  0.73802  0.63839  0.54786  1.0000
  H   H334      1.0  0.96576  0.45037  0.78797  1.0000
  C   C420      1.0  0.90297  0.50664  0.66815  1.0000
  H   H335      1.0  0.71154  0.43276  0.56867  1.0000
  C   C421      1.0  0.84660  0.61168  0.64641  1.0000
  S   S59       1.0  0.89181  0.56046  0.97112  1.0000
  C   C422      1.0  0.67579  0.38698  0.79308  1.0000
  H   H336      1.0  0.61388  0.55462  0.70556  1.0000
  C   C423      1.0  0.92013  0.48655  0.98610  1.0000
  H   H337      1.0  0.81545  0.50383  0.72625  1.0000
  H   H338      1.0  0.81387  0.63373  0.58086  1.0000
  S   S60       1.0  0.71748  0.53076  0.96949  1.0000
  C   C424      1.0  0.69489  0.61669  0.64545  1.0000
  C   C425      1.0  0.68029  0.62479  0.69665  1.0000
  C   C426      1.0  0.68285  0.42485  0.57969  1.0000
  H   H339      1.0  0.65518  0.40587  0.71708  1.0000
  C   C427      1.0  0.77911  0.61578  0.70560  1.0000
  H   H340      1.0  0.91578  0.50748  0.62869  1.0000
  C   C428      1.0  0.65270  0.45044  0.57211  1.0000
  H   H341      1.0  0.66729  0.64271  0.85030  1.0000
  H   H342      1.0  0.68926  0.57960  0.57610  1.0000
  C   C429      1.0  0.67641  0.38929  0.60266  1.0000
  Fe  Fe30      1.0  0.74770  0.58745  0.96501  1.0000
  C   C430      1.0  0.99033  0.46704  0.79985  1.0000
  C   C431      1.0  0.68262  0.35596  0.82671  1.0000
  H   H343      1.0  0.97117  0.57993  0.77187  1.0000
  C   C432      1.0  0.98561  0.62638  0.71994  1.0000
  H   H344      1.0  0.89728  0.52313  0.50297  1.0000
  H   H345      1.0  0.94364  0.43008  0.99859  1.0000
  C   C433      1.0  0.98552  0.55983  0.69235  1.0000
  C   C434      1.0  0.97985  0.58790  0.73182  1.0000
  C   C435      1.0  0.98854  0.47084  0.98600  1.0000
  H   H346      1.0  0.98159  0.64786  0.75076  1.0000
  H   H347      1.0  0.94790  0.57269  0.50890  1.0000
  C   C436      1.0  0.99178  0.42392  0.59898  1.0000
  S   S61       1.0  0.52130  0.83338  0.07305  1.0000
  C   C437      1.0  0.50492  0.87670  0.28803  1.0000
  H   H348      1.0  0.80548  0.68753  0.08005  1.0000
  H   H349      1.0  0.52375  0.91388  0.16591  1.0000
  S   S62       1.0  0.56883  0.73169  0.03287  1.0000
  H   H350      1.0  0.87593  0.69483  0.08316  1.0000
  C   C438      1.0  0.61967  0.67144  0.02586  1.0000
  C   C439      1.0  0.51955  0.94455  0.16668  1.0000
  H   H351      1.0  0.53411  0.85304  0.35634  1.0000
  H   H352      1.0  0.52201  0.86102  0.25920  1.0000
  H   H353      1.0  0.54434  0.95199  0.24500  1.0000
  C   C440      1.0  0.53143  0.96608  0.21086  1.0000
  Fe  Fe31      1.0  0.52934  0.78312  0.01640  1.0000
  C   C441      1.0  0.51183  0.87227  0.34268  1.0000
  H   H354      1.0  0.50290  0.77134  0.28861  1.0000
  C   C442      1.0  0.82292  0.66735  0.10222  1.0000
  C   C443      1.0  0.86260  0.67131  0.10379  1.0000
  C   C444      1.0  0.50137  0.96244  0.12377  1.0000
  H   H355      1.0  0.71820  0.68595  0.43184  1.0000
  C   C445      1.0  0.72759  0.66316  0.45805  1.0000
  C   C446      1.0  0.61076  0.70849  0.00778  1.0000
  H   H356      1.0  0.50973  0.91798  0.86524  1.0000
  S   S63       1.0  0.51862  0.81895  0.94263  1.0000
  H   H357      1.0  0.58298  0.90305  0.77625  1.0000
  C   C447      1.0  0.55154  0.72012  0.86584  1.0000
  C   C448      1.0  0.54510  0.72491  0.81068  1.0000
  H   H358      1.0  0.66152  0.77021  0.76501  1.0000
  C   C449      1.0  0.58454  0.79202  0.77026  1.0000
  H   H359      1.0  0.56871  0.86553  0.85764  1.0000
  C   C450      1.0  0.57385  0.72408  0.69990  1.0000
  C   C451      1.0  0.66235  0.74212  0.78272  1.0000
  H   H360      1.0  0.66721  0.69218  0.61796  1.0000
  C   C452      1.0  0.54051  0.73127  0.61489  1.0000
  C   C453      1.0  0.71448  0.76950  0.66595  1.0000
  H   H361      1.0  0.72341  0.74329  0.79430  1.0000
  C   C454      1.0  0.59352  0.85339  0.72706  1.0000
  H   H362      1.0  0.68873  0.72105  0.92843  1.0000
  H   H363      1.0  0.57955  0.72467  0.88317  1.0000
  H   H364      1.0  0.57002  0.79543  0.85439  1.0000
  C   C455      1.0  0.59429  0.81349  0.72495  1.0000
  C   C456      1.0  0.75743  0.71532  0.65744  1.0000
  C   C457      1.0  0.72723  0.69272  0.63867  1.0000
  H   H365      1.0  0.53330  0.76914  0.68148  1.0000
  C   C458      1.0  0.52147  0.71043  0.89974  1.0000
  C   C459      1.0  0.72609  0.66796  0.51370  1.0000
  C   C460      1.0  0.57639  0.81115  0.81842  1.0000
  H   H366      1.0  0.65608  0.75956  0.64250  1.0000
  H   H367      1.0  0.53371  0.94469  0.56382  1.0000
  H   H368      1.0  0.59991  0.86985  0.69161  1.0000
  H   H369      1.0  0.71553  0.69470  0.52961  1.0000
  C   C461      1.0  0.54800  0.74394  0.66696  1.0000
  H   H370      1.0  0.70959  0.79915  0.67655  1.0000
  H   H371      1.0  0.77436  0.77084  0.68594  1.0000
  H   H372      1.0  0.52042  0.74696  0.58999  1.0000
  C   C462      1.0  0.75097  0.75355  0.67125  1.0000
  C   C463      1.0  0.62866  0.72128  0.78989  1.0000
  P   P16       1.0  0.58335  0.74043  0.76750  1.0000
  H   H373      1.0  0.60179  0.79960  0.68769  1.0000
  C   C464      1.0  0.51445  0.95160  0.59633  1.0000
  C   C465      1.0  0.57579  0.85102  0.82049  1.0000
  H   H374      1.0  0.78594  0.70356  0.66156  1.0000
  C   C466      1.0  0.66929  0.70679  0.95512  1.0000
  C   C467      1.0  0.55861  0.69849  0.59524  1.0000
  C   C468      1.0  0.58398  0.87214  0.77470  1.0000
  C   C469      1.0  0.69071  0.70902  0.63319  1.0000
  C   C470      1.0  0.59167  0.69098  0.67997  1.0000
  C   C471      1.0  0.68436  0.74723  0.64687  1.0000
  C   C472      1.0  0.69926  0.69094  0.82281  1.0000
  C   C473      1.0  0.63071  0.68495  0.81334  1.0000
  H   H375      1.0  0.55269  0.68871  0.55485  1.0000
  S   S64       1.0  0.51978  0.92986  0.98404  1.0000
  C   C474      1.0  0.50806  0.71978  0.79024  1.0000
  C   C475      1.0  0.63573  0.72596  0.97188  1.0000
  H   H376      1.0  0.52657  0.70714  0.94229  1.0000
  H   H377      1.0  0.50171  0.72431  0.74840  1.0000
  C   C476      1.0  0.69753  0.72691  0.79901  1.0000
  H   H378      1.0  0.60518  0.66828  0.81945  1.0000
  C   C477      1.0  0.58409  0.67826  0.62785  1.0000
  H   H379      1.0  0.62966  0.75454  0.95803  1.0000
  H   H380      1.0  0.72627  0.67960  0.83728  1.0000
  H   H381      1.0  0.61126  0.67479  0.70459  1.0000
  C   C478      1.0  0.66587  0.67005  0.83009  1.0000
  Fe  Fe32      1.0  0.50454  0.86743  0.99960  1.0000
  C   C479      1.0  0.50850  0.98967  0.61112  1.0000
  H   H382      1.0  0.50660  0.81254  0.74382  1.0000
  C   C480      1.0  0.67812  0.66962  0.97300  1.0000
  H   H383      1.0  0.49932  0.89301  0.61131  1.0000
  H   H384      1.0  0.49593  0.96463  0.79368  1.0000
