data_image0
_chemical_formula_structural       FeS2FePSCFeS3HSHCSFeS2FeSFeS2HC6H4CH2C2H2C6H3C2HC6H2C5HC2H4C7SC7H6CHC2SCH5C2HCHPC2HCHC3HC2HCSH2CHC3H2CHC2H2CHCHPC3HCH2C2HC2HCPH2C2H3CH3CH2C2HC3SHCHC6H2CHCH2FeC5H2C2HC2H5C2HSCFeC2HC3HCH3C3H2CH2CHPCFeSFeS2FeHFeS3H2C3HC2H5CH3C2SCH2C5HCHCHC3HC3HC3PC5H7C2H3C2HC4H2CHC2HCH2C2H2FeS2HCFeS2FeC6H4CHFeHC7PC18H12CH3CH4SC3HC2HC2H5C3HCH2FeCH2SFeSCS3C6H4C4FeH2CH3CH3CH2C5HC4HCHCHCHCHC3H2C2HCSCH2C2HC2FeHCSH2CHC4H2C5H2CH2C2HCH2CHC2H2CHCHCH3C2HCSFeS2FeS2Fe2S3HC2HC3H2C4H3C6H4C2HC3PCH2CH2CH4C3SC2HC6H2CH2C2PCHCH5CHCHCSCSPCH2CHC3H2CHC2H3C2HCH3C2HCH2CH6CH2CHCHC2H2C3HC4PC3H4C4HC3H3CH2CPC2H2C5H2C4FeS2CFeSCSC2HC2HSHC6H4CHC2HCHC3H2C4PC7SCH2C4HCH9CHCH3CHCHFeHC4H2PCHC2H2FeH4C2H3C2FeS2FeSFeSFeS3CSC4H2C6H4C4H5CHCH4CHC2HC3HCHCHC2HC5HPHC2HC3HC4H2C2H2C5SH2SCH3CH2C3HCH5C3HC2H3CHC3H3CH4C2H2PCHC3H3CH4SHCH2CPC6HC6H3C2HCHC6HCHCH2CHC2HC2H4C4H3CHC2H2C5HCH2C2H2CHC4H2SH2CFeS2FeSCFeSFeS3HFeS2CFeCHSH2C6H3C6H4C5H6CH5C2HCHCHCHC2HCHFeCPC9PC2HCHPCHC2HC2HC3HSC2H2CHCH3C4HSH3C2HC3HCHCHCHC3HCHCSCH2C2HC3HPC2HC3H2C2H6SCHCFeCH5CHCH3CFeS2FeSFeSFeS2FeSCFeS2FeSFeS3HSC6HCH3C8H4C4H3CH6PCHC4H3PC3H2CHC2HCSH4CH2C6PCHC7H2C4H3CH2C2H4C5HCHC3HCSC3HCHC3HCH2CH2C2H2C5H6CHCHC2H2CHC3
_chemical_formula_sum              "Fe48 S96 P24 C720 H576"
_cell_length_a       36.0876
_cell_length_b       36.0502
_cell_length_c       45.5517
_cell_angle_alpha    89.9689
_cell_angle_beta     89.9131
_cell_angle_gamma    120.05

_space_group_name_H-M_alt    "P 1"
_space_group_IT_number       1

loop_
  _space_group_symop_operation_xyz
  'x, y, z'

loop_
  _atom_site_type_symbol
  _atom_site_label
  _atom_site_symmetry_multiplicity
  _atom_site_fract_x
  _atom_site_fract_y
  _atom_site_fract_z
  _atom_site_occupancy
  Fe  Fe1       1.0  0.09622  0.34342  0.15499  1.0000
  S   S1        1.0  0.04942  0.27325  0.14925  1.0000
  S   S2        1.0  0.15719  0.37068  0.18148  1.0000
  Fe  Fe2       1.0  0.05119  0.37237  0.11070  1.0000
  P   P1        1.0  0.17548  0.00576  0.06801  1.0000
  S   S3        1.0  0.06610  0.43543  0.08710  1.0000
  C   C1        1.0  0.02464  0.45719  0.25938  1.0000
  Fe  Fe3       1.0  0.05664  0.28950  0.10081  1.0000
  S   S4        1.0  0.06624  0.24679  0.06745  1.0000
  S   S5        1.0  0.04569  0.36171  0.15964  1.0000
  S   S6        1.0  0.10561  0.35855  0.10696  1.0000
  H   H1        1.0  0.24910  0.14812  0.22820  1.0000
  S   S7        1.0  0.36826  0.17422  0.01220  1.0000
  H   H2        1.0  0.20982  0.39089  0.28266  1.0000
  C   C2        1.0  0.28186  0.00630  0.09997  1.0000
  S   S8        1.0  0.33564  0.04614  0.17651  1.0000
  Fe  Fe4       1.0  0.26453  0.06321  0.23465  1.0000
  S   S9        1.0  0.33293  0.11157  0.22537  1.0000
  S   S10       1.0  0.22120  0.07570  0.26601  1.0000
  Fe  Fe5       1.0  0.31623  0.09651  0.17777  1.0000
  S   S11       1.0  0.33114  0.15351  0.14876  1.0000
  Fe  Fe6       1.0  0.34714  0.05717  0.22528  1.0000
  S   S12       1.0  0.40381  0.06626  0.25438  1.0000
  S   S13       1.0  0.24678  0.05031  0.18667  1.0000
  H   H3        1.0  0.09377  0.31390  0.01471  1.0000
  C   C3        1.0  0.35492  0.16523  0.04974  1.0000
  C   C4        1.0  0.37134  0.14466  0.06716  1.0000
  C   C5        1.0  0.36191  0.13822  0.09737  1.0000
  C   C6        1.0  0.33691  0.15336  0.11035  1.0000
  C   C7        1.0  0.32031  0.17363  0.09283  1.0000
  C   C8        1.0  0.32899  0.17927  0.06259  1.0000
  H   H4        1.0  0.39173  0.13405  0.05734  1.0000
  H   H5        1.0  0.37537  0.12314  0.11079  1.0000
  H   H6        1.0  0.30127  0.18569  0.10272  1.0000
  H   H7        1.0  0.31672  0.19563  0.04935  1.0000
  C   C9        1.0  0.10171  0.46369  0.21017  1.0000
  H   H8        1.0  0.21824  0.40255  0.22861  1.0000
  H   H9        1.0  0.37751  0.29295  0.05868  1.0000
  C   C10       1.0  0.23061  0.12322  0.28518  1.0000
  C   C11       1.0  0.27114  0.15995  0.28643  1.0000
  H   H10       1.0  0.04909  0.41595  0.01396  1.0000
  H   H11       1.0  0.29779  0.15944  0.27605  1.0000
  C   C12       1.0  0.14174  0.10442  0.18398  1.0000
  C   C13       1.0  0.11406  0.25054  0.05252  1.0000
  C   C14       1.0  0.15498  0.28548  0.05779  1.0000
  C   C15       1.0  0.18802  0.25382  0.02676  1.0000
  C   C16       1.0  0.14709  0.21866  0.02180  1.0000
  C   C17       1.0  0.11056  0.21723  0.03441  1.0000
  H   H12       1.0  0.15843  0.31146  0.07156  1.0000
  H   H13       1.0  0.01986  0.25513  0.23372  1.0000
  H   H14       1.0  0.07921  0.19001  0.03012  1.0000
  C   C18       1.0  0.04706  0.09030  0.31231  1.0000
  C   C19       1.0  0.42237  0.22280  0.19943  1.0000
  H   H15       1.0  0.30635  0.31650  0.18715  1.0000
  C   C20       1.0  0.15086  0.36294  0.21955  1.0000
  C   C21       1.0  0.11035  0.33703  0.23162  1.0000
  C   C22       1.0  0.10571  0.33061  0.26206  1.0000
  C   C23       1.0  0.14143  0.34987  0.28055  1.0000
  C   C24       1.0  0.18214  0.37552  0.26846  1.0000
  C   C25       1.0  0.18679  0.38240  0.23796  1.0000
  H   H16       1.0  0.08265  0.32221  0.21744  1.0000
  H   H17       1.0  0.07424  0.31065  0.27129  1.0000
  C   C26       1.0  0.08364  0.17888  0.30534  1.0000
  C   C27       1.0  0.14204  0.00546  0.15406  1.0000
  C   C28       1.0  0.19152  0.28717  0.04485  1.0000
  C   C29       1.0  0.14570  0.99285  0.10201  1.0000
  C   C30       1.0  0.14577  0.10235  0.21436  1.0000
  H   H18       1.0  0.20131  0.32191  0.20737  1.0000
  C   C31       1.0  0.05142  0.47620  0.08564  1.0000
  C   C32       1.0  0.21205  0.13099  0.05084  1.0000
  H   H19       1.0  0.05425  0.26528  0.31363  1.0000
  H   H20       1.0  0.22274  0.31478  0.04877  1.0000
  H   H21       1.0  0.15303  0.08846  0.16943  1.0000
  H   H22       1.0  0.25191  0.34119  0.24907  1.0000
  C   C33       1.0  0.38124  0.17012  0.31136  1.0000
  C   C34       1.0  0.19464  0.29921  0.22501  1.0000
  C   C35       1.0  0.13546  0.45766  0.20129  1.0000
  C   C36       1.0  0.11104  0.15005  0.19106  1.0000
  C   C37       1.0  0.28001  0.39385  0.17695  1.0000
  C   C38       1.0  0.31241  0.02879  0.07828  1.0000
  C   C39       1.0  0.21466  0.28047  0.27094  1.0000
  S   S14       1.0  0.27862  0.00854  0.23731  1.0000
  C   C40       1.0  0.17729  0.24036  0.27038  1.0000
  C   C41       1.0  0.15699  0.25951  0.22458  1.0000
  C   C42       1.0  0.13274  0.12441  0.23309  1.0000
  C   C43       1.0  0.14778  0.22998  0.24744  1.0000
  C   C44       1.0  0.22323  0.30996  0.24837  1.0000
  C   C45       1.0  0.32835  0.09510  0.30380  1.0000
  C   C46       1.0  0.30000  0.37258  0.18879  1.0000
  H   H23       1.0  0.38528  0.27670  0.11049  1.0000
  H   H24       1.0  0.01476  0.42526  0.25158  1.0000
  H   H25       1.0  0.14331  0.19251  0.00817  1.0000
  H   H26       1.0  0.13502  0.25206  0.20643  1.0000
  H   H27       1.0  0.25343  0.13461  0.17587  1.0000
  H   H28       1.0  0.21921  0.32190  0.12475  1.0000
  C   C47       1.0  0.09557  0.48411  0.16054  1.0000
  H   H29       1.0  0.16040  0.08488  0.22343  1.0000
  C   C48       1.0  0.24775  0.16940  0.21216  1.0000
  C   C49       1.0  0.03606  0.36212  0.25945  1.0000
  S   S15       1.0  0.23566  0.25792  0.01099  1.0000
  C   C50       1.0  0.18469  0.20246  0.10353  1.0000
  H   H30       1.0  0.13819  0.12426  0.25643  1.0000
  H   H31       1.0  0.06578  0.38395  0.24844  1.0000
  H   H32       1.0  0.23914  0.20863  0.24396  1.0000
  H   H33       1.0  0.07750  0.24451  0.25404  1.0000
  H   H34       1.0  0.23703  0.28877  0.28893  1.0000
  C   C51       1.0  0.35298  0.28752  0.07465  1.0000
  C   C52       1.0  0.02143  0.22672  0.22814  1.0000
  H   H35       1.0  0.99337  0.20055  0.29151  1.0000
  C   C53       1.0  0.17863  0.12766  0.03356  1.0000
  H   H36       1.0  0.17170  0.21774  0.28785  1.0000
  P   P2        1.0  0.09995  0.17817  0.24564  1.0000
  C   C54       1.0  0.05404  0.22070  0.23942  1.0000
  C   C55       1.0  0.11379  0.14713  0.22163  1.0000
  H   H37       1.0  0.23898  0.16232  0.05588  1.0000
  C   C56       1.0  0.25032  0.16174  0.18248  1.0000
  H   H38       1.0  0.18010  0.15650  0.02513  1.0000
  C   C57       1.0  0.31670  0.28914  0.06600  1.0000
  C   C58       1.0  0.05675  0.18450  0.23152  1.0000
  C   C59       1.0  0.24236  0.20357  0.22084  1.0000
  H   H39       1.0  0.11487  0.01923  0.03294  1.0000
  C   C60       1.0  0.02500  0.15320  0.21347  1.0000
  C   C61       1.0  0.11936  0.21459  0.12603  1.0000
  H   H40       1.0  0.35944  0.21355  0.20696  1.0000
  C   C62       1.0  0.12465  0.12848  0.17234  1.0000
  S   S16       1.0  0.00151  0.30335  0.10086  1.0000
  H   H41       1.0  0.16643  0.25925  0.15578  1.0000
  H   H42       1.0  0.38644  0.12913  0.27899  1.0000
  C   C63       1.0  0.24930  0.18916  0.16134  1.0000
  H   H43       1.0  0.05816  0.08863  0.26622  1.0000
  C   C64       1.0  0.24310  0.19814  0.31553  1.0000
  C   C65       1.0  0.08150  0.15368  0.28123  1.0000
  C   C66       1.0  0.11065  0.18538  0.10332  1.0000
  H   H44       1.0  0.32934  0.26350  0.14678  1.0000
  H   H45       1.0  0.09897  0.16949  0.18163  1.0000
  C   C67       1.0  0.06195  0.10905  0.28472  1.0000
  H   H46       1.0  0.23631  0.25687  0.20668  1.0000
  C   C68       1.0  0.30138  0.04426  0.05365  1.0000
  C   C69       1.0  0.19380  0.23223  0.12616  1.0000
  H   H47       1.0  0.09424  0.22008  0.13409  1.0000
  H   H48       1.0  0.25206  0.04997  0.03159  1.0000
  C   C70       1.0  0.98744  0.43117  0.19074  1.0000
  H   H49       1.0  0.02548  0.12422  0.20797  1.0000
  C   C71       1.0  0.24594  0.22476  0.16981  1.0000
  H   H50       1.0  0.25176  0.18281  0.13842  1.0000
  P   P3        1.0  0.43076  0.21701  0.30039  1.0000
  C   C72       1.0  0.28809  0.27083  0.11552  1.0000
  C   C73       1.0  0.01112  0.46917  0.09431  1.0000
  C   C74       1.0  0.24099  0.23097  0.19966  1.0000
  H   H51       1.0  0.06496  0.37352  0.30228  1.0000
  C   C75       1.0  0.16057  0.23736  0.13782  1.0000
  H   H52       1.0  0.12256  0.13091  0.14877  1.0000
  H   H53       1.0  0.23565  0.39195  0.14456  1.0000
  C   C76       1.0  0.99765  0.32648  0.30389  1.0000
  C   C77       1.0  0.16536  0.01534  0.12782  1.0000
  H   H54       1.0  0.16158  0.99726  0.00365  1.0000
  C   C78       1.0  0.42882  0.22157  0.26089  1.0000
  C   C79       1.0  0.24111  0.33515  0.14308  1.0000
  H   H55       1.0  0.25644  0.28218  0.07917  1.0000
  C   C80       1.0  0.14365  0.08734  0.02716  1.0000
  P   P4        1.0  0.24671  0.26065  0.14193  1.0000
  H   H56       1.0  0.09181  0.45798  0.23284  1.0000
  H   H57       1.0  0.07889  0.16857  0.09377  1.0000
  C   C81       1.0  0.99773  0.20267  0.31509  1.0000
  C   C82       1.0  0.21116  0.09403  0.06118  1.0000
  H   H58       1.0  0.16479  0.09612  0.29868  1.0000
  H   H59       1.0  0.32513  0.06203  0.03692  1.0000
  H   H60       1.0  0.46871  0.13579  0.19994  1.0000
  C   C83       1.0  0.26000  0.03774  0.05087  1.0000
  H   H61       1.0  0.36481  0.21244  0.26096  1.0000
  H   H62       1.0  0.15066  0.44676  0.21686  1.0000
  H   H63       1.0  0.41023  0.28404  0.28259  1.0000
  C   C84       1.0  0.32527  0.27053  0.12429  1.0000
  H   H64       1.0  0.44506  0.04470  0.20614  1.0000
  H   H65       1.0  0.20956  0.19734  0.09454  1.0000
  C   C85       1.0  0.14322  0.17915  0.09219  1.0000
  C   C86       1.0  0.03552  0.35618  0.28981  1.0000
  H   H66       1.0  0.13647  0.15696  0.07427  1.0000
  C   C87       1.0  0.46291  0.22697  0.24295  1.0000
  C   C88       1.0  0.28436  0.28090  0.08633  1.0000
  C   C89       1.0  0.35738  0.27849  0.10384  1.0000
  S   S17       1.0  0.34316  0.26724  0.98713  1.0000
  H   H67       1.0  0.23741  0.09739  0.07465  1.0000
  C   C90       1.0  0.25917  0.31244  0.15599  1.0000
  H   H68       1.0  0.01716  0.43835  0.30488  1.0000
  C   C91       1.0  0.17679  0.05330  0.05408  1.0000
  C   C92       1.0  0.14246  0.05023  0.03766  1.0000
  C   C93       1.0  0.25097  0.37533  0.15390  1.0000
  C   C94       1.0  0.36731  0.13132  0.29650  1.0000
  C   C95       1.0  0.27737  0.19691  0.30156  1.0000
  C   C96       1.0  0.05110  0.44349  0.00276  1.0000
  H   H69       1.0  0.28717  0.42482  0.18544  1.0000
  H   H70       1.0  0.11751  0.08486  0.01401  1.0000
  C   C97       1.0  0.15046  0.34519  0.98765  1.0000
  H   H71       1.0  0.09722  0.21320  0.30294  1.0000
  C   C98       1.0  0.22928  0.01573  0.07282  1.0000
  H   H72       1.0  0.31783  0.06535  0.29203  1.0000
  H   H73       1.0  0.32323  0.38738  0.20624  1.0000
  Fe  Fe7       1.0  0.99798  0.29174  0.15015  1.0000
  C   C99       1.0  0.29004  0.33224  0.17811  1.0000
  C   C100      1.0  0.45956  0.22740  0.21234  1.0000
  C   C101      1.0  0.39174  0.21730  0.24766  1.0000
  C   C102      1.0  0.47693  0.21228  0.31010  1.0000
  C   C103      1.0  0.38868  0.21822  0.21709  1.0000
  H   H74       1.0  0.30912  0.22473  0.30259  1.0000
  H   H75       1.0  0.31350  0.29652  0.04342  1.0000
  C   C104      1.0  0.19630  0.12432  0.29923  1.0000
  C   C105      1.0  0.44954  0.05908  0.25224  1.0000
  H   H76       1.0  0.19886  0.03997  0.12777  1.0000
  C   C106      1.0  0.98649  0.40941  0.16496  1.0000
  C   C107      1.0  0.99116  0.19648  0.20910  1.0000
  H   H77       1.0  0.41915  0.22185  0.17571  1.0000
  H   H78       1.0  0.01328  0.42278  0.14988  1.0000
  H   H79       1.0  0.34468  0.03440  0.08067  1.0000
  H   H80       1.0  0.17454  0.45893  0.16507  1.0000
  H   H81       1.0  0.15757  0.02165  0.17421  1.0000
  C   C108      1.0  0.47401  0.06520  0.27777  1.0000
  C   C109      1.0  0.46329  0.04954  0.22601  1.0000
  H   H82       1.0  0.46348  0.07194  0.29827  1.0000
  S   S18       1.0  0.13336  0.34545  0.31870  1.0000
  C   C110      1.0  0.14910  0.46466  0.17207  1.0000
  Fe  Fe8       1.0  0.26609  0.99987  0.18829  1.0000
  C   C111      1.0  0.08820  0.48345  0.00520  1.0000
  C   C112      1.0  0.99858  0.33899  0.24319  1.0000
  H   H83       1.0  0.99891  0.34319  0.21957  1.0000
  C   C113      1.0  0.20233  0.16152  0.31406  1.0000
  C   C114      1.0  0.42145  0.28962  0.30499  1.0000
  C   C115      1.0  0.12935  0.47814  0.15176  1.0000
  H   H84       1.0  0.03305  0.05599  0.31502  1.0000
  C   C116      1.0  0.08106  0.47644  0.18975  1.0000
  H   H85       1.0  0.11473  0.48660  0.01824  1.0000
  H   H86       1.0  0.98741  0.43801  0.10246  1.0000
  H   H87       1.0  0.13940  0.48287  0.12896  1.0000
  C   C117      1.0  0.99254  0.15946  0.20205  1.0000
  C   C118      1.0  0.24032  0.99951  0.09722  1.0000
  C   C119      1.0  0.11124  0.31056  0.99645  1.0000
  H   H88       1.0  0.29027  0.99385  0.11892  1.0000
  H   H89       1.0  0.06455  0.24435  0.98927  1.0000
  C   C120      1.0  0.02586  0.46451  0.28959  1.0000
  H   H90       1.0  0.41012  0.34261  0.31000  1.0000
  H   H91       1.0  0.16314  0.37562  0.99888  1.0000
  C   C121      1.0  0.47337  0.17212  0.31512  1.0000
  H   H92       1.0  0.44298  0.14273  0.31335  1.0000
  P   P5        1.0  0.03508  0.48100  0.20028  1.0000
  C   C122      1.0  0.43503  0.26353  0.31867  1.0000
  Fe  Fe9       1.0  0.17607  0.33111  0.34697  1.0000
  S   S19       1.0  0.15116  0.26149  0.35616  1.0000
  Fe  Fe10      1.0  0.24707  0.36193  0.39351  1.0000
  S   S20       1.0  0.22465  0.29310  0.40670  1.0000
  S   S21       1.0  0.29913  0.41931  0.42026  1.0000
  Fe  Fe11      1.0  0.22042  0.27893  0.35787  1.0000
  H   H93       1.0  0.12491  0.35606  0.51154  1.0000
  Fe  Fe12      1.0  0.15639  0.28081  0.40373  1.0000
  S   S22       1.0  0.09850  0.24116  0.43461  1.0000
  S   S23       1.0  0.24526  0.34839  0.34498  1.0000
  S   S24       1.0  0.17915  0.34955  0.39422  1.0000
  H   H94       1.0  0.06562  0.13790  0.43793  1.0000
  H   H95       1.0  0.24629  0.31438  0.48649  1.0000
  C   C123      1.0  0.05894  0.25187  0.45016  1.0000
  C   C124      1.0  0.02928  0.22280  0.47069  1.0000
  C   C125      1.0  0.37048  0.48405  0.38998  1.0000
  H   H96       1.0  0.14191  0.33383  0.46431  1.0000
  C   C126      1.0  0.02316  0.29407  0.45472  1.0000
  C   C127      1.0  0.05544  0.28756  0.44219  1.0000
  H   H97       1.0  0.03131  0.19496  0.47705  1.0000
  H   H98       1.0  0.01260  0.21200  0.39954  1.0000
  H   H99       1.0  0.06343  0.27100  0.36759  1.0000
  H   H100      1.0  0.07761  0.31020  0.42636  1.0000
  H   H101      1.0  0.03948  0.10140  0.35787  1.0000
  C   C128      1.0  0.03705  0.24243  0.35794  1.0000
  H   H102      1.0  0.25155  0.46842  0.42990  1.0000
  H   H103      1.0  0.02116  0.32195  0.44841  1.0000
  H   H104      1.0  0.29339  0.39262  0.49348  1.0000
  C   C129      1.0  0.03187  0.23924  0.32751  1.0000
  C   C130      1.0  0.18222  0.43547  0.43149  1.0000
  S   S25       1.0  0.25368  0.24599  0.33468  1.0000
  C   C131      1.0  0.14745  0.42294  0.38390  1.0000
  H   H105      1.0  0.07064  0.17971  0.35143  1.0000
  H   H106      1.0  0.26520  0.44146  0.48670  1.0000
  C   C132      1.0  0.44844  0.30507  0.36348  1.0000
  C   C133      1.0  0.03092  0.12183  0.43717  1.0000
  C   C134      1.0  0.06633  0.35697  0.51512  1.0000
  C   C135      1.0  0.23339  0.33566  0.48429  1.0000
  C   C136      1.0  0.01086  0.13212  0.41499  1.0000
  H   H107      1.0  0.02224  0.08444  0.47612  1.0000
  C   C137      1.0  0.12652  0.40697  0.48502  1.0000
  H   H108      1.0  0.05131  0.32898  0.52924  1.0000
  C   C138      1.0  0.10387  0.42800  0.47772  1.0000
  H   H109      1.0  0.17060  0.28529  0.47210  1.0000
  C   C139      1.0  0.05054  0.11581  0.33642  1.0000
  C   C140      1.0  0.24352  0.40733  0.48473  1.0000
  C   C141      1.0  0.17451  0.34693  0.47187  1.0000
  H   H110      1.0  0.03080  0.15543  0.39874  1.0000
  C   C142      1.0  0.10784  0.37200  0.50449  1.0000
  C   C143      1.0  0.31602  0.13598  0.34065  1.0000
  C   C144      1.0  0.25978  0.37966  0.48855  1.0000
  H   H111      1.0  0.01101  0.36485  0.51481  1.0000
  C   C145      1.0  0.44834  0.27144  0.34811  1.0000
  C   C146      1.0  0.14476  0.41794  0.41446  1.0000
  C   C147      1.0  0.19077  0.31931  0.47602  1.0000
  P   P6        1.0  0.17998  0.42702  0.47070  1.0000
  C   C148      1.0  0.35520  0.17223  0.33355  1.0000
  C   C149      1.0  0.20046  0.39106  0.47691  1.0000
  C   C150      1.0  0.00845  0.20875  0.37596  1.0000
  C   C151      1.0  0.06241  0.41293  0.48847  1.0000
  C   C152      1.0  0.43485  0.33081  0.34970  1.0000
  H   H112      1.0  0.11863  0.40820  0.37071  1.0000
  H   H113      1.0  0.35621  0.46602  0.37016  1.0000
  H   H114      1.0  0.18941  0.44684  0.34636  1.0000
  H   H115      1.0  0.29543  0.13808  0.35711  1.0000
  H   H116      1.0  0.21079  0.44624  0.53083  1.0000
  H   H117      1.0  0.36417  0.20180  0.34498  1.0000
  H   H118      1.0  0.45766  0.25092  0.35942  1.0000
  C   C153      1.0  0.22224  0.45671  0.41739  1.0000
  C   C154      1.0  0.21257  0.47701  0.48964  1.0000
  H   H119      1.0  0.11355  0.39896  0.42443  1.0000
  H   H120      1.0  0.43407  0.35633  0.36179  1.0000
  H   H121      1.0  0.27162  0.06974  0.33056  1.0000
  C   C155      1.0  0.18744  0.44467  0.37011  1.0000
  C   C156      1.0  0.00649  0.09191  0.45876  1.0000
  H   H122      1.0  0.99841  0.32222  0.32731  1.0000
  C   C157      1.0  0.22260  0.47645  0.51934  1.0000
  C   C158      1.0  0.30254  0.09748  0.32571  1.0000
  C   C159      1.0  0.99715  0.22946  0.48334  1.0000
  C   C160      1.0  0.06834  0.15997  0.33283  1.0000
  H   H123      1.0  0.11816  0.45581  0.46347  1.0000
  H   H124      1.0  0.04464  0.42863  0.48231  1.0000
  C   C161      1.0  0.04354  0.37723  0.50698  1.0000
  H   H125      1.0  0.45819  0.31064  0.38630  1.0000
  C   C162      1.0  0.22481  0.46148  0.38687  1.0000
  C   C163      1.0  0.99368  0.26517  0.47544  1.0000
  H   H126      1.0  0.17559  0.16156  0.32478  1.0000
  C   C164      1.0  0.34948  0.46848  0.41690  1.0000
  H   H127      1.0  0.25587  0.47673  0.37620  1.0000
  H   H128      1.0  0.35330  0.48133  0.46336  1.0000
  C   C165      1.0  0.42141  0.32310  0.32048  1.0000
  C   C166      1.0  0.30028  0.01458  0.96948  1.0000
  H   H129      1.0  0.23986  0.32535  0.97513  1.0000
  H   H130      1.0  0.46172  0.37529  0.86495  1.0000
  Fe  Fe13      1.0  0.34879  0.26777  0.93781  1.0000
  S   S26       1.0  0.27713  0.23751  0.93120  1.0000
  S   S27       1.0  0.39778  0.32118  0.90703  1.0000
  H   H131      1.0  0.99053  0.47193  0.96188  1.0000
  C   C167      1.0  0.44423  0.37336  0.91044  1.0000
  Fe  Fe14      1.0  0.27430  0.17310  0.93301  1.0000
  S   S28       1.0  0.23161  0.11546  0.90327  1.0000
  S   S29       1.0  0.34558  0.20353  0.93631  1.0000
  Fe  Fe15      1.0  0.33462  0.20104  0.98500  1.0000
  C   C168      1.0  0.45612  0.39607  0.93695  1.0000
  C   C169      1.0  0.47027  0.39247  0.88555  1.0000
  C   C170      1.0  0.28416  0.04280  0.87582  1.0000
  C   C171      1.0  0.27885  0.07508  0.88953  1.0000
  C   C172      1.0  0.24058  0.07573  0.88624  1.0000
  C   C173      1.0  0.20786  0.04348  0.86902  1.0000
  H   H132      1.0  0.43441  0.41061  0.68236  1.0000
  H   H133      1.0  0.31384  0.04270  0.87874  1.0000
  H   H134      1.0  0.30437  0.09942  0.90266  1.0000
  H   H135      1.0  0.17811  0.04349  0.86622  1.0000
  C   C174      1.0  0.42697  0.46624  0.68466  1.0000
  H   H136      1.0  0.44738  0.30866  0.95395  1.0000
  Fe  Fe16      1.0  0.27102  0.23349  0.98082  1.0000
  H   H137      1.0  0.22389  0.05933  0.95585  1.0000
  C   C175      1.0  0.25159  0.01081  0.85837  1.0000
  C   C176      1.0  0.16269  0.17281  0.93908  1.0000
  C   C177      1.0  0.16090  0.15583  0.91122  1.0000
  C   C178      1.0  0.16708  0.18083  0.88624  1.0000
  C   C179      1.0  0.17434  0.22261  0.88907  1.0000
  C   C180      1.0  0.17468  0.23933  0.91698  1.0000
  C   C181      1.0  0.17001  0.21456  0.94191  1.0000
  P   P7        1.0  0.18801  0.29436  0.92137  1.0000
  C   C182      1.0  0.24495  0.32336  0.92779  1.0000
  C   C183      1.0  0.17361  0.31328  0.88913  1.0000
  C   C184      1.0  0.20009  0.35520  0.87877  1.0000
  C   C185      1.0  0.18816  0.36983  0.85407  1.0000
  C   C186      1.0  0.14950  0.34294  0.83985  1.0000
  C   C187      1.0  0.12254  0.30151  0.85047  1.0000
  C   C188      1.0  0.13438  0.28681  0.87516  1.0000
  C   C189      1.0  0.26115  0.33365  0.95645  1.0000
  C   C190      1.0  0.46997  0.00146  0.91061  1.0000
  C   C191      1.0  0.33331  0.36224  0.93795  1.0000
  C   C192      1.0  0.31742  0.35145  0.90940  1.0000
  C   C193      1.0  0.27337  0.33177  0.90431  1.0000
  C   C194      1.0  0.15801  0.30043  0.95094  1.0000
  C   C195      1.0  0.11797  0.26610  0.95937  1.0000
  C   C196      1.0  0.44745  0.44289  0.69077  1.0000
  C   C197      1.0  0.47783  0.31002  0.95704  1.0000
  C   C198      1.0  0.41491  0.00479  0.86899  1.0000
  C   C199      1.0  0.17353  0.34035  0.96472  1.0000
  H   H138      1.0  0.15982  0.15413  0.95846  1.0000
  H   H139      1.0  0.15620  0.12381  0.90899  1.0000
  H   H140      1.0  0.16744  0.16807  0.86477  1.0000
  H   H141      1.0  0.18064  0.24198  0.86954  1.0000
  H   H142      1.0  0.17328  0.22814  0.96350  1.0000
  H   H143      1.0  0.22976  0.37671  0.88985  1.0000
  H   H144      1.0  0.20882  0.40212  0.84605  1.0000
  H   H145      1.0  0.14026  0.35430  0.82072  1.0000
  H   H146      1.0  0.09235  0.28079  0.83964  1.0000
  H   H147      1.0  0.11291  0.25481  0.88339  1.0000
  H   H148      1.0  0.36733  0.37645  0.94187  1.0000
  H   H149      1.0  0.39819  0.45211  0.67140  1.0000
  C   C200      1.0  0.28739  0.07434  0.96820  1.0000
  H   H150      1.0  0.33931  0.35693  0.89141  1.0000
  H   H151      1.0  0.26146  0.32201  0.88221  1.0000
  H   H152      1.0  0.10467  0.23528  0.94864  1.0000
  C   C201      1.0  0.23012  0.00282  0.95660  1.0000
  H   H153      1.0  0.39425  0.00782  0.85334  1.0000
  H   H154      1.0  0.31729  0.36001  0.98374  1.0000
  H   H155      1.0  0.20373  0.36760  0.95802  1.0000
  H   H156      1.0  0.43693  0.38196  0.95642  1.0000
  S   S30       1.0  0.26298  0.16725  0.98201  1.0000
  C   C202      1.0  0.24495  0.04659  0.96012  1.0000
  C   C203      1.0  0.21328  0.01136  0.85515  1.0000
  C   C204      1.0  0.30518  0.35317  0.96148  1.0000
  H   H157      1.0  0.34790  0.08020  0.97922  1.0000
  C   C205      1.0  0.01828  0.47538  0.97346  1.0000
  C   C206      1.0  0.36118  0.99025  0.75792  1.0000
  H   H158      1.0  0.29910  0.10836  0.97051  1.0000
  C   C207      1.0  0.09481  0.27121  0.98211  1.0000
  C   C208      1.0  0.31501  0.05836  0.97292  1.0000
  H   H159      1.0  0.32213  0.00285  0.97347  1.0000
  H   H160      1.0  0.34669  0.99999  0.74104  1.0000
  H   H161      1.0  0.40706  0.04567  0.89978  1.0000
  H   H162      1.0  0.47828  0.45866  0.83401  1.0000
  H   H163      1.0  0.98742  0.40838  0.98505  1.0000
  C   C209      1.0  0.01633  0.43935  0.98662  1.0000
  C   C210      1.0  0.42248  0.02698  0.89549  1.0000
  C   C211      1.0  0.39887  0.98963  0.75210  1.0000
  H   H164      1.0  0.41351  0.99866  0.73057  1.0000
  C   C212      1.0  0.44981  0.02516  0.91636  1.0000
  H   H165      1.0  0.45566  0.04248  0.93686  1.0000
  H   H166      1.0  0.45173  0.25550  0.98612  1.0000
  Fe  Fe17      1.0  0.03346  0.64863  0.05539  1.0000
  C   C213      1.0  0.08134  0.51702  0.07470  1.0000
  H   H167      1.0  0.34109  0.73389  0.28796  1.0000
  H   H168      1.0  0.11897  0.55035  0.99510  1.0000
  S   S31       1.0  0.04067  0.75037  0.01720  1.0000
  Fe  Fe18      1.0  0.04874  0.74120  0.06549  1.0000
  S   S32       1.0  0.06277  0.79668  0.09734  1.0000
  C   C214      1.0  0.03622  0.52446  0.17982  1.0000
  S   S33       1.0  0.09255  0.71445  0.05895  1.0000
  S   S34       1.0  0.02723  0.65445  0.00665  1.0000
  S   S35       1.0  0.23500  0.93517  0.16343  1.0000
  C   C215      1.0  0.11114  0.83520  0.11529  1.0000
  C   C216      1.0  0.11187  0.86934  0.13093  1.0000
  C   C217      1.0  0.14934  0.90051  0.14542  1.0000
  C   C218      1.0  0.18666  0.89766  0.14494  1.0000
  C   C219      1.0  0.18584  0.86346  0.12938  1.0000
  C   C220      1.0  0.14857  0.83264  0.11457  1.0000
  H   H169      1.0  0.08314  0.87162  0.13188  1.0000
  H   H170      1.0  0.14911  0.92624  0.15741  1.0000
  H   H171      1.0  0.21427  0.86059  0.12897  1.0000
  H   H172      1.0  0.14858  0.80647  0.10298  1.0000
  C   C221      1.0  0.40749  0.75419  0.28022  1.0000
  C   C222      1.0  0.07129  0.55012  0.07223  1.0000
  C   C223      1.0  0.03070  0.54290  0.08023  1.0000
  C   C224      1.0  0.21818  0.84586  0.02476  1.0000
  Fe  Fe19      1.0  0.08256  0.72140  0.01080  1.0000
  H   H173      1.0  0.09528  0.58134  0.06452  1.0000
  H   H174      1.0  0.10646  0.62596  0.15629  1.0000
  C   C225      1.0  0.21813  0.86840  0.04962  1.0000
  H   H175      1.0  0.22332  0.92650  0.06614  1.0000
  H   H176      1.0  0.21345  0.85389  0.07111  1.0000
  H   H177      1.0  0.23300  0.95967  0.01713  1.0000
  C   C226      1.0  0.37170  0.74287  0.29793  1.0000
  H   H178      1.0  0.08016  0.49369  0.14425  1.0000
  H   H179      1.0  0.11281  0.52327  0.06826  1.0000
  H   H180      1.0  0.08530  0.94572  0.08266  1.0000
  C   C227      1.0  0.04876  0.53204  0.25003  1.0000
  H   H181      1.0  0.45429  0.69413  0.31629  1.0000
  H   H182      1.0  0.21279  0.81357  0.02689  1.0000
  C   C228      1.0  0.04985  0.53929  0.28028  1.0000
  C   C229      1.0  0.09878  0.97401  0.15454  1.0000
  C   C230      1.0  0.22440  0.86458  0.99702  1.0000
  C   C231      1.0  0.99939  0.55575  0.15425  1.0000
  C   C232      1.0  0.22381  0.90948  0.04672  1.0000
  H   H183      1.0  0.05781  0.55870  0.23520  1.0000
  C   C233      1.0  0.99819  0.52136  0.16934  1.0000
  C   C234      1.0  0.03846  0.50558  0.30005  1.0000
  C   C235      1.0  0.14879  0.96563  0.01311  1.0000
  C   C236      1.0  0.16862  0.68025  0.00676  1.0000
  H   H184      1.0  0.10494  0.56583  0.18341  1.0000
  C   C237      1.0  0.22926  0.92807  0.01889  1.0000
  H   H185      1.0  0.06836  0.59984  0.02226  1.0000
  C   C238      1.0  0.11457  0.88867  0.00622  1.0000
  H   H186      1.0  0.09999  0.86085  0.99201  1.0000
  C   C239      1.0  0.07525  0.56261  0.17536  1.0000
  H   H187      1.0  0.08102  0.96590  0.17499  1.0000
  C   C240      1.0  0.13164  0.65400  0.02287  1.0000
  H   H188      1.0  0.13989  0.91424  0.07786  1.0000
  C   C241      1.0  0.15120  0.96033  0.04348  1.0000
  C   C242      1.0  0.11821  0.88336  0.03622  1.0000
  C   C243      1.0  0.07855  0.95279  0.12868  1.0000
  H   H189      1.0  0.10683  0.85155  0.04522  1.0000
  H   H190      1.0  0.12963  0.66093  0.04576  1.0000
  C   C244      1.0  0.22960  0.90566  0.99377  1.0000
  C   C245      1.0  0.07627  0.59686  0.16024  1.0000
  H   H191      1.0  0.04500  0.92830  0.12902  1.0000
  C   C246      1.0  0.13669  0.91901  0.05473  1.0000
  S   S36       1.0  0.01532  0.58309  0.07685  1.0000
  C   C247      1.0  0.03836  0.59345  0.14973  1.0000
  H   H192      1.0  0.00545  0.53139  0.01779  1.0000
  H   H193      1.0  0.05965  0.57116  0.28839  1.0000
  C   C248      1.0  0.09033  0.51957  0.99208  1.0000
  C   C249      1.0  0.10175  0.96246  0.10244  1.0000
  H   H194      1.0  0.47447  0.77450  0.27901  1.0000
  C   C250      1.0  0.13002  0.92977  0.99463  1.0000
  C   C251      1.0  0.09686  0.61917  0.00943  1.0000
  Fe  Fe20      1.0  0.98487  0.68226  0.01694  1.0000
  H   H195      1.0  0.03921  0.61965  0.13741  1.0000
  C   C252      1.0  0.98826  0.54122  0.00319  1.0000
  S   S37       1.0  0.98950  0.67484  0.06586  1.0000
  H   H196      1.0  0.19485  0.70823  0.01692  1.0000
  H   H197      1.0  0.21694  0.98101  0.11396  1.0000
  C   C253      1.0  0.44707  0.76599  0.29304  1.0000
  H   H198      1.0  0.40460  0.75395  0.25653  1.0000
  C   C254      1.0  0.00091  0.50219  0.09154  1.0000
  C   C255      1.0  0.03615  0.49086  0.23932  1.0000
  C   C256      1.0  0.01660  0.70026  0.62909  1.0000
  C   C257      1.0  0.13903  0.62813  0.61750  1.0000
  H   H199      1.0  0.09626  0.76794  0.58314  1.0000
  H   H200      1.0  0.13990  0.75699  0.62014  1.0000
  C   C258      1.0  0.25336  0.55486  0.49033  1.0000
  C   C259      1.0  0.36898  0.49279  0.44236  1.0000
  C   C260      1.0  0.10547  0.74101  0.62286  1.0000
  C   C261      1.0  0.26404  0.55402  0.51971  1.0000
  C   C262      1.0  0.41013  0.52303  0.38864  1.0000
  H   H201      1.0  0.46330  0.63121  0.32265  1.0000
  H   H202      1.0  0.21936  0.51797  0.45269  1.0000
  C   C263      1.0  0.08086  0.74717  0.60180  1.0000
  H   H203      1.0  0.41716  0.75486  0.36508  1.0000
  H   H204      1.0  0.98217  0.68497  0.63179  1.0000
  C   C264      1.0  0.12859  0.65802  0.62845  1.0000
  C   C265      1.0  0.24846  0.51483  0.53426  1.0000
  H   H205      1.0  0.26540  0.58525  0.47907  1.0000
  C   C266      1.0  0.42967  0.54731  0.41410  1.0000
  H   H206      1.0  0.28444  0.58375  0.53118  1.0000
  H   H207      1.0  0.13589  0.62089  0.59424  1.0000
  C   C267      1.0  0.08574  0.71440  0.64727  1.0000
  H   H208      1.0  0.42581  0.53447  0.36765  1.0000
  C   C268      1.0  0.45118  0.76688  0.32373  1.0000
  C   C269      1.0  0.04114  0.69445  0.65036  1.0000
  H   H209      1.0  0.45739  0.86278  0.49398  1.0000
  H   H210      1.0  0.25664  0.51415  0.55704  1.0000
  C   C270      1.0  0.40867  0.53174  0.44103  1.0000
  H   H211      1.0  0.42297  0.54973  0.46086  1.0000
  C   C271      1.0  0.15320  0.60742  0.63652  1.0000
  H   H212      1.0  0.16116  0.58420  0.62798  1.0000
  C   C272      1.0  0.03639  0.72663  0.60486  1.0000
  H   H213      1.0  0.11733  0.67326  0.61328  1.0000
  H   H214      1.0  0.34765  0.73424  0.34219  1.0000
  H   H215      1.0  0.01719  0.73138  0.58865  1.0000
  C   C273      1.0  0.37543  0.74314  0.32848  1.0000
  C   C274      1.0  0.22747  0.51653  0.47536  1.0000
  H   H216      1.0  0.03949  0.51132  0.32347  1.0000
  C   C275      1.0  0.41499  0.75501  0.34138  1.0000
  S   S38       1.0  0.48013  0.59639  0.41073  1.0000
  Fe  Fe21      1.0  0.17729  0.81114  0.81801  1.0000
  S   S39       1.0  0.15465  0.85825  0.81106  1.0000
  S   S40       1.0  0.13190  0.75130  0.84350  1.0000
  Fe  Fe22      1.0  0.25431  0.85741  0.77564  1.0000
  S   S41       1.0  0.23381  0.90583  0.76492  1.0000
  S   S42       1.0  0.31673  0.86997  0.75190  1.0000
  Fe  Fe23      1.0  0.22430  0.90933  0.81374  1.0000
  Fe  Fe24      1.0  0.16543  0.85027  0.76319  1.0000
  S   S43       1.0  0.11698  0.84088  0.72670  1.0000
  S   S44       1.0  0.24617  0.86205  0.82443  1.0000
  S   S45       1.0  0.18675  0.80214  0.77019  1.0000
  H   H217      1.0  0.19726  0.98213  0.95012  1.0000
  C   C276      1.0  0.06704  0.79477  0.71661  1.0000
  C   C277      1.0  0.04641  0.79555  0.69053  1.0000
  H   H218      1.0  0.31811  0.64539  0.78305  1.0000
  C   C278      1.0  0.00813  0.72187  0.72503  1.0000
  C   C279      1.0  0.04733  0.75767  0.73386  1.0000
  C   C280      1.0  0.35026  0.69470  0.75049  1.0000
  H   H219      1.0  0.42725  0.57253  0.84652  1.0000
  H   H220      1.0  0.06226  0.75663  0.75413  1.0000
  C   C281      1.0  0.35937  0.85789  0.74954  1.0000
  C   C282      1.0  0.35853  0.82351  0.76453  1.0000
  C   C283      1.0  0.39256  0.81487  0.76137  1.0000
  C   C284      1.0  0.39509  0.88345  0.73150  1.0000
  H   H221      1.0  0.33142  0.80325  0.77833  1.0000
  H   H222      1.0  0.39130  0.78822  0.77316  1.0000
  H   H223      1.0  0.39631  0.91008  0.71969  1.0000
  C   C285      1.0  0.13431  0.75408  0.88211  1.0000
  C   C286      1.0  0.17270  0.78142  0.89641  1.0000
  C   C287      1.0  0.17484  0.78083  0.92717  1.0000
  C   C288      1.0  0.13831  0.75406  0.94388  1.0000
  C   C289      1.0  0.09970  0.72724  0.92962  1.0000
  C   C290      1.0  0.09780  0.72692  0.89876  1.0000
  H   H224      1.0  0.20101  0.80228  0.88375  1.0000
  H   H225      1.0  0.20494  0.80133  0.93795  1.0000
  H   H226      1.0  0.07157  0.70652  0.94243  1.0000
  H   H227      1.0  0.06795  0.70582  0.88780  1.0000
  C   C291      1.0  0.31318  0.91310  0.89663  1.0000
  C   C292      1.0  0.34513  0.91309  0.91385  1.0000
  H   H228      1.0  0.36997  0.90904  0.90366  1.0000
  C   C293      1.0  0.31278  0.92343  0.95738  1.0000
  C   C294      1.0  0.28002  0.92277  0.94029  1.0000
  C   C295      1.0  0.28090  0.91813  0.90969  1.0000
  P   P8        1.0  0.23861  0.92961  0.95766  1.0000
  C   C296      1.0  0.06832  0.60747  0.91046  1.0000
  H   H229      1.0  0.44684  0.58877  0.73848  1.0000
  H   H230      1.0  0.14044  0.62833  0.94151  1.0000
  C   C297      1.0  0.34508  0.91848  0.94420  1.0000
  H   H231      1.0  0.45621  0.89499  0.71443  1.0000
  H   H232      1.0  0.07193  0.77597  0.81211  1.0000
  C   C298      1.0  0.12073  0.84034  0.92527  1.0000
  H   H233      1.0  0.07311  0.58335  0.83890  1.0000
  H   H234      1.0  0.09528  0.80852  0.93119  1.0000
  H   H235      1.0  0.00756  0.58654  0.73332  1.0000
  H   H236      1.0  0.27036  0.80009  0.70056  1.0000
  C   C299      1.0  0.19025  0.90266  0.93576  1.0000
  C   C300      1.0  0.18738  0.92139  0.90945  1.0000
  C   C301      1.0  0.15201  0.89951  0.89099  1.0000
  S   S46       1.0  0.14217  0.75500  0.98245  1.0000
  C   C302      1.0  0.00748  0.81735  0.79714  1.0000
  C   C303      1.0  0.05545  0.63838  0.70727  1.0000
  H   H237      1.0  0.28875  0.80664  0.82933  1.0000
  C   C304      1.0  0.38133  0.65607  0.77370  1.0000
  C   C305      1.0  0.98764  0.72247  0.69886  1.0000
  C   C306      1.0  0.05537  0.53493  0.90585  1.0000
  C   C307      1.0  0.11880  0.85884  0.89878  1.0000
  C   C308      1.0  0.04438  0.64340  0.75927  1.0000
  C   C309      1.0  0.03335  0.61956  0.73331  1.0000
  H   H238      1.0  0.16778  0.60038  0.68130  1.0000
  H   H239      1.0  0.99363  0.69341  0.73862  1.0000
  C   C310      1.0  0.06004  0.54020  0.87536  1.0000
  H   H240      1.0  0.21325  0.95244  0.90274  1.0000
  H   H241      1.0  0.15099  0.91379  0.87028  1.0000
  C   C311      1.0  0.42924  0.87494  0.72843  1.0000
  C   C312      1.0  0.44802  0.62043  0.77915  1.0000
  P   P9        1.0  0.11783  0.70498  0.67341  1.0000
  C   C313      1.0  0.19782  0.83253  0.68973  1.0000
  H   H242      1.0  0.15708  0.84630  0.96365  1.0000
  C   C314      1.0  0.38768  0.71835  0.73412  1.0000
  H   H243      1.0  0.36998  0.91868  0.95755  1.0000
  H   H244      1.0  0.06108  0.82402  0.67696  1.0000
  H   H245      1.0  0.46568  0.65771  0.65426  1.0000
  H   H246      1.0  0.44339  0.88868  0.79980  1.0000
  H   H247      1.0  0.08082  0.64316  0.87013  1.0000
  C   C315      1.0  0.20437  0.75848  0.68791  1.0000
  H   H248      1.0  0.12742  0.93366  0.97127  1.0000
  C   C316      1.0  0.00441  0.55779  0.97515  1.0000
  H   H249      1.0  0.02511  0.67524  0.66942  1.0000
  C   C317      1.0  0.41917  0.67993  0.75744  1.0000
  S   S47       1.0  0.46974  0.82684  0.73977  1.0000
  C   C318      1.0  0.42816  0.84030  0.74319  1.0000
  S   S48       1.0  0.26028  0.97048  0.84210  1.0000
  P   P10       1.0  0.46439  0.67192  0.76247  1.0000
  C   C319      1.0  0.98087  0.56990  0.95687  1.0000
  H   H250      1.0  0.19496  0.86103  0.69110  1.0000
  H   H251      1.0  0.33487  0.88087  0.81321  1.0000
  C   C320      1.0  0.33571  0.80681  0.85854  1.0000
  H   H252      1.0  0.37831  0.63212  0.78932  1.0000
  C   C321      1.0  0.09895  0.60973  0.97984  1.0000
  C   C322      1.0  0.24011  0.79798  0.69510  1.0000
  C   C323      1.0  0.44363  0.50777  0.69566  1.0000
  H   H253      1.0  0.42770  0.51971  0.76221  1.0000
  H   H254      1.0  0.04669  0.61949  0.68734  1.0000
  C   C324      1.0  0.08836  0.68145  0.70692  1.0000
  H   H255      1.0  0.43598  0.89060  0.86877  1.0000
  C   C325      1.0  0.05952  0.56857  0.92363  1.0000
  C   C326      1.0  0.16499  0.75580  0.68158  1.0000
  H   H256      1.0  0.38932  0.81599  0.88464  1.0000
  H   H257      1.0  0.26439  0.86544  0.70188  1.0000
  H   H258      1.0  0.05696  0.51420  0.86171  1.0000
  C   C327      1.0  0.09914  0.70509  0.73306  1.0000
  C   C328      1.0  0.07748  0.68605  0.75918  1.0000
  H   H259      1.0  0.31324  0.90918  0.87307  1.0000
  C   C329      1.0  0.15626  0.86205  0.94368  1.0000
  H   H260      1.0  0.04886  0.50478  0.91543  1.0000
  H   H261      1.0  0.34250  0.95203  0.82758  1.0000
  H   H262      1.0  0.19982  0.69163  0.96478  1.0000
  C   C330      1.0  0.44247  0.58562  0.76203  1.0000
  C   C331      1.0  0.23684  0.83497  0.69591  1.0000
  H   H263      1.0  0.44581  0.64161  0.82329  1.0000
  C   C332      1.0  0.00705  0.75980  0.68172  1.0000
  H   H264      1.0  0.31530  0.77382  0.86533  1.0000
  H   H265      1.0  0.39078  0.74340  0.71936  1.0000
  C   C333      1.0  0.34702  0.66347  0.77020  1.0000
  H   H266      1.0  0.42780  0.52590  0.69089  1.0000
  H   H267      1.0  0.43035  0.64948  0.70230  1.0000
  H   H268      1.0  0.14926  0.65288  0.70092  1.0000
  H   H269      1.0  0.09194  0.84138  0.88409  1.0000
  H   H270      1.0  0.13177  0.79185  0.67874  1.0000
  H   H271      1.0  0.45119  0.73074  0.72524  1.0000
  C   C334      1.0  0.47249  0.91932  0.80215  1.0000
  H   H272      1.0  0.12374  0.73845  0.73330  1.0000
  H   H273      1.0  0.08602  0.70475  0.77927  1.0000
  C   C335      1.0  0.44179  0.61520  0.80966  1.0000
  H   H274      1.0  0.01422  0.73366  0.84700  1.0000
  C   C336      1.0  0.06908  0.57910  0.86247  1.0000
  H   H275      1.0  0.06827  0.82979  0.78002  1.0000
  C   C337      1.0  0.42616  0.54175  0.80577  1.0000
  C   C338      1.0  0.46459  0.66217  0.70150  1.0000
  H   H276      1.0  0.02716  0.62903  0.77943  1.0000
  H   H277      1.0  0.20766  0.73032  0.68767  1.0000
  C   C339      1.0  0.04475  0.78097  0.81355  1.0000
  C   C340      1.0  0.42199  0.71107  0.73756  1.0000
  C   C341      1.0  0.34693  0.86784  0.82944  1.0000
  H   H278      1.0  0.07190  0.63399  0.92381  1.0000
  C   C342      1.0  0.04270  0.81125  0.79550  1.0000
  C   C343      1.0  0.14641  0.64630  0.67756  1.0000
  C   C344      1.0  0.43159  0.54644  0.77535  1.0000
  C   C345      1.0  0.16200  0.79314  0.68271  1.0000
  P   P11       1.0  0.05469  0.56299  0.96312  1.0000
  C   C346      1.0  0.07326  0.61274  0.88003  1.0000
  C   C347      1.0  0.17131  0.67092  0.97735  1.0000
  C   C348      1.0  0.32066  0.82535  0.83840  1.0000
  H   H279      1.0  0.32414  0.70117  0.74817  1.0000
  H   H280      1.0  0.31335  0.92762  0.98095  1.0000
  H   H281      1.0  0.00588  0.84055  0.78285  1.0000
  H   H282      1.0  0.25683  0.91819  0.89566  1.0000
  C   C349      1.0  0.13699  0.63539  0.96406  1.0000
  C   C350      1.0  0.43116  0.57608  0.82290  1.0000
  C   C351      1.0  0.38836  0.89247  0.84086  1.0000
  C   C352      1.0  0.01169  0.75685  0.83336  1.0000
  H   H283      1.0  0.99199  0.76102  0.66154  1.0000
  C   C353      1.0  0.40360  0.87317  0.86057  1.0000
  C   C354      1.0  0.05505  0.51591  0.97649  1.0000
  C   C355      1.0  0.37730  0.83063  0.86947  1.0000
  H   H284      1.0  0.22452  0.84666  0.97804  1.0000
  H   H285      1.0  0.41842  0.51160  0.81609  1.0000
  H   H286      1.0  0.44624  0.97609  0.76855  1.0000
  C   C356      1.0  0.35932  0.96336  0.80691  1.0000
  H   H287      1.0  0.99222  0.65892  0.94566  1.0000
  H   H288      1.0  0.99257  0.72618  0.95611  1.0000
  C   C357      1.0  0.39797  0.96385  0.80166  1.0000
  P   P12       1.0  0.42243  0.94790  0.83006  1.0000
  C   C358      1.0  0.41732  0.97668  0.77386  1.0000
  C   C359      1.0  0.98155  0.71082  0.93496  1.0000
  H   H289      1.0  0.99202  0.58258  0.93517  1.0000
  H   H290      1.0  0.31235  0.97782  0.78993  1.0000
  C   C360      1.0  0.98124  0.67267  0.92906  1.0000
  C   C361      1.0  0.15690  0.61651  0.66654  1.0000
  C   C362      1.0  0.47205  0.95367  0.81634  1.0000
  C   C363      1.0  0.34162  0.97740  0.78538  1.0000
  C   C364      1.0  0.13232  0.66744  0.65859  1.0000
  H   H291      1.0  0.47876  0.96141  0.88007  1.0000
  H   H292      1.0  0.18786  0.98717  0.84187  1.0000
  C   C365      1.0  0.25774  0.98643  0.96106  1.0000
  C   C366      1.0  0.43404  0.97977  0.86325  1.0000
  C   C367      1.0  0.46227  0.97902  0.88419  1.0000
  C   C368      1.0  0.89643  0.20978  0.29594  1.0000
  Fe  Fe25      1.0  0.72455  0.07549  0.26313  1.0000
  S   S49       1.0  0.69838  0.11968  0.26933  1.0000
  S   S50       1.0  0.77676  0.08884  0.22854  1.0000
  C   C369      1.0  0.50126  0.04708  0.22530  1.0000
  Fe  Fe26      1.0  0.63302  0.06075  0.27514  1.0000
  S   S51       1.0  0.57438  0.05106  0.24813  1.0000
  C   C370      1.0  0.51738  0.24942  0.31226  1.0000
  S   S52       1.0  0.65850  0.01581  0.26577  1.0000
  C   C371      1.0  0.82635  0.23992  0.28849  1.0000
  C   C372      1.0  0.52595  0.05356  0.25078  1.0000
  H   H293      1.0  0.52446  0.14671  0.16340  1.0000
  C   C373      1.0  0.86633  0.17555  0.31317  1.0000
  C   C374      1.0  0.51170  0.06227  0.27714  1.0000
  H   H294      1.0  0.49175  0.22994  0.25233  1.0000
  S   S53       1.0  0.93775  0.26436  0.18040  1.0000
  H   H295      1.0  0.52963  0.06664  0.29707  1.0000
  C   C375      1.0  0.89199  0.21497  0.19233  1.0000
  C   C376      1.0  0.86330  0.21632  0.21284  1.0000
  C   C377      1.0  0.82811  0.17832  0.22411  1.0000
  C   C378      1.0  0.82046  0.13810  0.21476  1.0000
  C   C379      1.0  0.84850  0.13672  0.19376  1.0000
  C   C380      1.0  0.88384  0.17469  0.18259  1.0000
  H   H296      1.0  0.86821  0.24694  0.22018  1.0000
  H   H297      1.0  0.80679  0.18004  0.24002  1.0000
  H   H298      1.0  0.84283  0.10593  0.18604  1.0000
  H   H299      1.0  0.90471  0.17268  0.16640  1.0000
  C   C381      1.0  0.70386  0.32512  0.19528  1.0000
  H   H300      1.0  0.93669  0.22633  0.25709  1.0000
  C   C382      1.0  0.95111  0.41344  0.20903  1.0000
  C   C383      1.0  0.90117  0.15861  0.26365  1.0000
  H   H301      1.0  0.82967  0.10695  0.31849  1.0000
  C   C384      1.0  0.91406  0.20098  0.27121  1.0000
  H   H302      1.0  0.77949  0.29604  0.26452  1.0000
  C   C385      1.0  0.87802  0.31583  0.28600  1.0000
  C   C386      1.0  0.95985  0.30269  0.28764  1.0000
  C   C387      1.0  0.51326  0.16183  0.23578  1.0000
  H   H303      1.0  0.96675  0.20195  0.19979  1.0000
  H   H304      1.0  0.72006  0.33829  0.17458  1.0000
  C   C388      1.0  0.53336  0.15608  0.18604  1.0000
  C   C389      1.0  0.57597  0.17315  0.19490  1.0000
  C   C390      1.0  0.58730  0.18369  0.22447  1.0000
  C   C391      1.0  0.55578  0.17895  0.24468  1.0000
  P   P13       1.0  0.64262  0.20786  0.23563  1.0000
  C   C392      1.0  0.64687  0.19771  0.27393  1.0000
  C   C393      1.0  0.67045  0.18486  0.21686  1.0000
  C   C394      1.0  0.64811  0.14218  0.20723  1.0000
  C   C395      1.0  0.67024  0.12310  0.19526  1.0000
  C   C396      1.0  0.71484  0.14647  0.19282  1.0000
  C   C397      1.0  0.73733  0.18903  0.20227  1.0000
  C   C398      1.0  0.71531  0.20804  0.21456  1.0000
  S   S54       1.0  0.73661  0.07102  0.31121  1.0000
  C   C399      1.0  0.85373  0.13326  0.30560  1.0000
  H   H305      1.0  0.95005  0.43035  0.22832  1.0000
  H   H306      1.0  0.90926  0.01501  0.31421  1.0000
  C   C400      1.0  0.61824  0.15764  0.28608  1.0000
  C   C401      1.0  0.66594  0.26428  0.22812  1.0000
  C   C402      1.0  0.68689  0.28152  0.20134  1.0000
  C   C403      1.0  0.66062  0.29081  0.24818  1.0000
  H   H307      1.0  0.93198  0.29203  0.24420  1.0000
  C   C404      1.0  0.80426  0.28984  0.27216  1.0000
  H   H308      1.0  0.85351  0.35632  0.27148  1.0000
  H   H309      1.0  0.59991  0.17762  0.17874  1.0000
  H   H310      1.0  0.56378  0.18779  0.26739  1.0000
  H   H311      1.0  0.61373  0.12299  0.20988  1.0000
  H   H312      1.0  0.65280  0.08965  0.18885  1.0000
  H   H313      1.0  0.73206  0.13120  0.18438  1.0000
  H   H314      1.0  0.77194  0.20682  0.20073  1.0000
  H   H315      1.0  0.73338  0.24043  0.22281  1.0000
  H   H316      1.0  0.95131  0.35210  0.13914  1.0000
  C   C405      1.0  0.86853  0.27374  0.29208  1.0000
  H   H317      1.0  0.71234  0.38533  0.21083  1.0000
  C   C406      1.0  0.95112  0.36937  0.15859  1.0000
  H   H318      1.0  0.59324  0.13319  0.27273  1.0000
  H   H319      1.0  0.68969  0.26126  0.18498  1.0000
  H   H320      1.0  0.81754  0.20720  0.29352  1.0000
  C   C407      1.0  0.91581  0.37323  0.20265  1.0000
  H   H321      1.0  0.88834  0.35906  0.21716  1.0000
  C   C408      1.0  0.69940  0.35160  0.21567  1.0000
  H   H322      1.0  0.91336  0.15187  0.24385  1.0000
  Fe  Fe27      1.0  0.66889  0.01561  0.31480  1.0000
  H   H323      1.0  0.96860  0.13585  0.18750  1.0000
  C   C409      1.0  0.96061  0.30973  0.25724  1.0000
  C   C410      1.0  0.87078  0.12478  0.28068  1.0000
  C   C411      1.0  0.84600  0.32378  0.27601  1.0000
  C   C412      1.0  0.67763  0.33441  0.24206  1.0000
  H   H324      1.0  0.51164  0.04016  0.20477  1.0000
  H   H325      1.0  0.76190  0.22147  0.27625  1.0000
  P   P14       1.0  0.91023  0.26401  0.30516  1.0000
  C   C413      1.0  0.68088  0.22797  0.29111  1.0000
  H   H326      1.0  0.88936  0.31929  0.17300  1.0000
  C   C414      1.0  0.79441  0.24796  0.27854  1.0000
  C   C415      1.0  0.91609  0.35096  0.17764  1.0000
  H   H327      1.0  0.85943  0.09195  0.27402  1.0000
  H   H328      1.0  0.64304  0.27771  0.26843  1.0000
  Fe  Fe28      1.0  0.70800  0.11311  0.31733  1.0000
  H   H329      1.0  0.70453  0.25836  0.28191  1.0000
  H   H330      1.0  0.67359  0.35482  0.25765  1.0000
  H   H331      1.0  0.48858  0.15618  0.25169  1.0000
  H   H332      1.0  0.91010  0.34255  0.28916  1.0000
  C   C416      1.0  0.62251  0.14835  0.31524  1.0000
  C   C417      1.0  0.50199  0.15025  0.20651  1.0000
  H   H333      1.0  0.52127  0.25837  0.99298  1.0000
  H   H334      1.0  0.48545  0.23045  0.19858  1.0000
  H   H335      1.0  0.52100  0.28067  0.30816  1.0000
  C   C418      1.0  0.55343  0.24650  0.31976  1.0000
  C   C419      1.0  0.68539  0.21848  0.32023  1.0000
  Fe  Fe29      1.0  0.82828  0.18398  0.56699  1.0000
  S   S55       1.0  0.78103  0.20553  0.55790  1.0000
  S   S56       1.0  0.81539  0.12725  0.59766  1.0000
  Fe  Fe30      1.0  0.89179  0.24601  0.51934  1.0000
  S   S57       1.0  0.84688  0.27090  0.50765  1.0000
  Fe  Fe31      1.0  0.83676  0.27370  0.55638  1.0000
  S   S58       1.0  0.82195  0.32161  0.58058  1.0000
  Fe  Fe32      1.0  0.79484  0.20206  0.51026  1.0000
  S   S59       1.0  0.73732  0.16471  0.48084  1.0000
  S   S60       1.0  0.88448  0.25249  0.56846  1.0000
  S   S61       1.0  0.83927  0.17667  0.51892  1.0000
  C   C420      1.0  0.87617  0.15066  0.39037  1.0000
  S   S62       1.0  0.74909  0.17446  0.34230  1.0000
  C   C421      1.0  0.83450  0.37663  0.58151  1.0000
  C   C422      1.0  0.80610  0.38690  0.59582  1.0000
  C   C423      1.0  0.81501  0.42977  0.59822  1.0000
  C   C424      1.0  0.87209  0.41033  0.56942  1.0000
  H   H336      1.0  0.77660  0.36134  0.60487  1.0000
  H   H337      1.0  0.73300  0.01516  0.36258  1.0000
  C   C425      1.0  0.74053  0.16909  0.44240  1.0000
  C   C426      1.0  0.70852  0.13598  0.42558  1.0000
  C   C427      1.0  0.71095  0.13723  0.39481  1.0000
  C   C428      1.0  0.74480  0.17227  0.38074  1.0000
  C   C429      1.0  0.77603  0.20610  0.39749  1.0000
  C   C430      1.0  0.77424  0.20431  0.42832  1.0000
  H   H338      1.0  0.68225  0.10879  0.43643  1.0000
  H   H339      1.0  0.68661  0.11113  0.38204  1.0000
  H   H340      1.0  0.80196  0.23345  0.38661  1.0000
  H   H341      1.0  0.79861  0.23028  0.44119  1.0000
  C   C431      1.0  0.76927  0.08936  0.61841  1.0000
  C   C432      1.0  0.76763  0.05195  0.62945  1.0000
  C   C433      1.0  0.75263  0.06640  0.39382  1.0000
  C   C434      1.0  0.92286  0.27849  0.40600  1.0000
  H   H342      1.0  0.82147  0.04293  0.47903  1.0000
  H   H343      1.0  0.85081  0.07919  0.52638  1.0000
  H   H344      1.0  0.74740  0.08911  0.55724  1.0000
  H   H345      1.0  0.50651  0.13828  0.32640  1.0000
  H   H346      1.0  0.89440  0.40334  0.55834  1.0000
  C   C435      1.0  0.65008  0.00424  0.51301  1.0000
  H   H347      1.0  0.95710  0.24389  0.34830  1.0000
  C   C436      1.0  0.94167  0.08249  0.43605  1.0000
  H   H348      1.0  0.71243  0.24116  0.33325  1.0000
  H   H349      1.0  0.68219  0.04362  0.47523  1.0000
  H   H350      1.0  0.91054  0.47887  0.56280  1.0000
  H   H351      1.0  0.76231  0.05789  0.46700  1.0000
  C   C437      1.0  0.89179  0.28518  0.36053  1.0000
  H   H352      1.0  0.87851  0.30176  0.40328  1.0000
  C   C438      1.0  0.89570  0.02606  0.33096  1.0000
  C   C439      1.0  0.69985  0.06555  0.64188  1.0000
  H   H353      1.0  0.87071  0.29392  0.34951  1.0000
  C   C440      1.0  0.82023  0.04967  0.52570  1.0000
  C   C441      1.0  0.73671  0.99456  0.40630  1.0000
  C   C442      1.0  0.58753  0.03155  0.62022  1.0000
  H   H354      1.0  0.66049  0.17096  0.35460  1.0000
  C   C443      1.0  0.80335  0.02906  0.49897  1.0000
  H   H355      1.0  0.96515  0.25292  0.40226  1.0000
  C   C444      1.0  0.91646  0.16107  0.43503  1.0000
  H   H356      1.0  0.85139  0.18148  0.33187  1.0000
  C   C445      1.0  0.96606  0.11311  0.41456  1.0000
  C   C446      1.0  0.68356  0.03942  0.49868  1.0000
  H   H357      1.0  0.84658  0.06351  0.39189  1.0000
  C   C447      1.0  0.96917  0.16885  0.33308  1.0000
  C   C448      1.0  0.85254  0.16672  0.40422  1.0000
  C   C449      1.0  0.71863  0.06982  0.51471  1.0000
  C   C450      1.0  0.50953  0.16936  0.32255  1.0000
  C   C451      1.0  0.76072  0.07800  0.42333  1.0000
  H   H358      1.0  0.81018  0.04923  0.57230  1.0000
  P   P15       1.0  0.93900  0.12761  0.38744  1.0000
  H   H359      1.0  0.89953  0.18768  0.47142  1.0000
  C   C452      1.0  0.74057  0.02465  0.38534  1.0000
  C   C453      1.0  0.68686  0.03028  0.55939  1.0000
  H   H360      1.0  0.75470  0.08949  0.37767  1.0000
  C   C454      1.0  0.86071  0.05402  0.37457  1.0000
  C   C455      1.0  0.83465  0.01586  0.35946  1.0000
  C   C456      1.0  0.85293  0.46356  0.58662  1.0000
  H   H361      1.0  0.62025  0.04074  0.57930  1.0000
  C   C457      1.0  0.94483  0.26204  0.39049  1.0000
  C   C458      1.0  0.90797  0.14729  0.40577  1.0000
  C   C459      1.0  0.75695  0.04808  0.44432  1.0000
  C   C460      1.0  0.94013  0.25689  0.36003  1.0000
  H   H362      1.0  0.82813  0.16943  0.39218  1.0000
  H   H363      1.0  0.84243  0.19207  0.44448  1.0000
  C   C461      1.0  0.88121  0.45331  0.57208  1.0000
  C   C462      1.0  0.86054  0.17948  0.43359  1.0000
  H   H364      1.0  0.79416  0.04672  0.62531  1.0000
  H   H365      1.0  0.59694  0.06506  0.62227  1.0000
  C   C463      1.0  0.79728  0.03280  0.55168  1.0000
  C   C464      1.0  0.73472  0.09563  0.62457  1.0000
  C   C465      1.0  0.89612  0.28974  0.39107  1.0000
  C   C466      1.0  0.74544  0.00618  0.43598  1.0000
  C   C467      1.0  0.54948  0.20648  0.32503  1.0000
  S   S63       1.0  0.95384  0.27572  0.49078  1.0000
  H   H366      1.0  0.60056  0.11703  0.32427  1.0000
  H   H367      1.0  0.68873  0.02710  0.58291  1.0000
  S   S64       1.0  0.64083  0.05839  0.32413  1.0000
  C   C468      1.0  0.90439  0.07911  0.36740  1.0000
  H   H368      1.0  0.74460  0.09719  0.50381  1.0000
  H   H369      1.0  0.92613  0.28194  0.42969  1.0000
  H   H370      1.0  0.90708  0.06734  0.43607  1.0000
  C   C469      1.0  0.72025  0.06525  0.54497  1.0000
  H   H371      1.0  0.76920  0.11005  0.43014  1.0000
  H   H372      1.0  0.94180  0.16032  0.44719  1.0000
  C   C470      1.0  0.91410  0.26901  0.34473  1.0000
  C   C471      1.0  0.97514  0.17105  0.36366  1.0000
  C   C472      1.0  0.73232  0.02143  0.64622  1.0000
  H   H373      1.0  0.94296  0.04898  0.47493  1.0000
  C   C473      1.0  0.92191  0.06412  0.34611  1.0000
  H   H374      1.0  0.86966  0.14077  0.36772  1.0000
  H   H375      1.0  0.79212  0.43642  0.60864  1.0000
  H   H376      1.0  0.94241  0.14142  0.32298  1.0000
  H   H377      1.0  0.73522  0.12409  0.61647  1.0000
  H   H378      1.0  0.95582  0.08199  0.34113  1.0000
  C   C474      1.0  0.89258  0.17678  0.44889  1.0000
  C   C475      1.0  0.76283  0.99175  0.49791  1.0000
  C   C476      1.0  0.65613  0.17874  0.33232  1.0000
  H   H379      1.0  0.67399  0.07147  0.64692  1.0000
  C   C477      1.0  0.75739  0.99534  0.55100  1.0000
  C   C478      1.0  0.96185  0.07203  0.45809  1.0000
  H   H380      1.0  0.57735  0.20411  0.33090  1.0000
  H   H381      1.0  0.77450  0.30815  0.64788  1.0000
  H   H382      1.0  0.74493  0.48145  0.63469  1.0000
  C   C479      1.0  0.60110  0.01762  0.59598  1.0000
  H   H383      1.0  0.97515  0.20697  0.49931  1.0000
  C   C480      1.0  0.69823  0.02818  0.65291  1.0000
  C   C481      1.0  0.85203  0.00208  0.33751  1.0000
  C   C482      1.0  0.65112  0.99996  0.54360  1.0000
  H   H384      1.0  0.84479  0.31238  0.64579  1.0000
  H   H385      1.0  0.87912  0.47175  0.64778  1.0000
  H   H386      1.0  0.58442  0.27529  0.32167  1.0000
  C   C483      1.0  0.56279  0.00250  0.64217  1.0000
  H   H387      1.0  0.80093  0.99675  0.36484  1.0000
  H   H388      1.0  0.81022  0.48210  0.65092  1.0000
  H   H389      1.0  0.58598  0.31334  0.96762  1.0000
  H   H390      1.0  0.55326  0.01350  0.66133  1.0000
  C   C484      1.0  0.50767  0.43332  0.88712  1.0000
  C   C485      1.0  0.49311  0.43724  0.93835  1.0000
  H   H391      1.0  0.52741  0.44727  0.86789  1.0000
  H   H392      1.0  0.65100  0.44727  0.73094  1.0000
  P   P16       1.0  0.82904  0.44486  0.70221  1.0000
  C   C486      1.0  0.69942  0.33800  0.91927  1.0000
  H   H393      1.0  0.85003  0.39617  0.74482  1.0000
  C   C487      1.0  0.56379  0.40246  0.83262  1.0000
  C   C488      1.0  0.51929  0.45620  0.91351  1.0000
  C   C489      1.0  0.58557  0.39078  0.88971  1.0000
  H   H394      1.0  0.50987  0.02101  0.82732  1.0000
  H   H395      1.0  0.63665  0.45680  0.88587  1.0000
  H   H396      1.0  0.74036  0.40051  0.72400  1.0000
  C   C490      1.0  0.61645  0.46569  0.76043  1.0000
  H   H397      1.0  0.68879  0.45540  0.93011  1.0000
  H   H398      1.0  0.66380  0.38532  0.96737  1.0000
  H   H399      1.0  0.53218  0.32593  0.88544  1.0000
  H   H400      1.0  0.67508  0.31753  0.87553  1.0000
  S   S65       1.0  0.65344  0.99185  0.67530  1.0000
  H   H401      1.0  0.76646  0.36437  0.67278  1.0000
  C   C491      1.0  0.80984  0.46159  0.78863  1.0000
  H   H402      1.0  0.61754  0.46675  0.83602  1.0000
  H   H403      1.0  0.50165  0.45450  0.95893  1.0000
  C   C492      1.0  0.87698  0.37080  0.67099  1.0000
  P   P17       1.0  0.60047  0.38309  0.92617  1.0000
  C   C493      1.0  0.82641  0.44076  0.74179  1.0000
  C   C494      1.0  0.59877  0.43604  0.84686  1.0000
  C   C495      1.0  0.74192  0.41865  0.70463  1.0000
  C   C496      1.0  0.55388  0.34312  0.94601  1.0000
  C   C497      1.0  0.83663  0.41202  0.78739  1.0000
  C   C498      1.0  0.59810  0.44609  0.96052  1.0000
  H   H404      1.0  0.90091  0.42974  0.69480  1.0000
  C   C499      1.0  0.70476  0.41793  0.69502  1.0000
  C   C500      1.0  0.60956  0.43028  0.87529  1.0000
  C   C501      1.0  0.79737  0.36636  0.67299  1.0000
  C   C502      1.0  0.83888  0.41470  0.75672  1.0000
  C   C503      1.0  0.78066  0.44267  0.68930  1.0000
  C   C504      1.0  0.51445  0.34145  0.94266  1.0000
  H   H405      1.0  0.49844  0.45849  0.78211  1.0000
  H   H406      1.0  0.71693  0.36146  0.96349  1.0000
  H   H407      1.0  0.82029  0.43329  0.82708  1.0000
  C   C505      1.0  0.51950  0.28167  0.97892  1.0000
  C   C506      1.0  0.50987  0.99366  0.81750  1.0000
  H   H408      1.0  0.51205  0.36431  0.92862  1.0000
  C   C507      1.0  0.81207  0.46433  0.75800  1.0000
  H   H409      1.0  0.51257  0.33692  0.83579  1.0000
  C   C508      1.0  0.83309  0.40123  0.68602  1.0000
  C   C509      1.0  0.61781  0.47388  0.70766  1.0000
  C   C510      1.0  0.55090  0.35693  0.87503  1.0000
  C   C511      1.0  0.82210  0.43542  0.80333  1.0000
  C   C512      1.0  0.87287  0.40297  0.68516  1.0000
  C   C513      1.0  0.80163  0.33418  0.65897  1.0000
  H   H410      1.0  0.80263  0.48490  0.74688  1.0000
  C   C514      1.0  0.62971  0.46016  0.73277  1.0000
  H   H411      1.0  0.55512  0.40714  0.81075  1.0000
  C   C515      1.0  0.53989  0.36292  0.84670  1.0000
  H   H412      1.0  0.84605  0.39166  0.79880  1.0000
  H   H413      1.0  0.67751  0.44119  0.66276  1.0000
  C   C516      1.0  0.63921  0.36544  0.92335  1.0000
  H   H414      1.0  0.57702  0.02960  0.80640  1.0000
  C   C517      1.0  0.54788  0.99873  0.80553  1.0000
  C   C518      1.0  0.64255  0.34602  0.89754  1.0000
  H   H415      1.0  0.67507  0.39963  0.70702  1.0000
  C   C519      1.0  0.84142  0.33657  0.65775  1.0000
  C   C520      1.0  0.67260  0.33241  0.89554  1.0000
  H   H416      1.0  0.62772  0.45712  0.77991  1.0000
  H   H417      1.0  0.62207  0.34134  0.87892  1.0000
  H   H418      1.0  0.49170  0.00057  0.92662  1.0000
  H   H419      1.0  0.63000  0.47165  0.68637  1.0000
  C   C521      1.0  0.70597  0.44096  0.67000  1.0000
  C   C522      1.0  0.78119  0.46449  0.66369  1.0000
  C   C523      1.0  0.62410  0.43377  0.94537  1.0000
  C   C524      1.0  0.59152  0.48523  0.76309  1.0000
  H   H420      1.0  0.50000  0.44243  0.71238  1.0000
  H   H421      1.0  0.79853  0.47978  0.80093  1.0000
  H   H422      1.0  0.90790  0.37282  0.66957  1.0000
  C   C525      1.0  0.48480  0.46114  0.70768  1.0000
  H   H423      1.0  0.56380  0.42519  0.96163  1.0000
  C   C526      1.0  0.66825  0.46308  0.94292  1.0000
  C   C527      1.0  0.66612  0.37072  0.94717  1.0000
  H   H424      1.0  0.72271  0.32747  0.91767  1.0000
  H   H425      1.0  0.73203  0.99323  0.65463  1.0000
  C   C528      1.0  0.74406  0.46387  0.65422  1.0000
  C   C529      1.0  0.55619  0.31303  0.96444  1.0000
  C   C530      1.0  0.69615  0.35712  0.94508  1.0000
  C   C531      1.0  0.48029  0.28006  0.97513  1.0000
  C   C532      1.0  0.61602  0.48662  0.97347  1.0000
  H   H426      1.0  0.58762  0.80001  0.31835  1.0000
  C   C533      1.0  0.92781  0.55166  0.99518  1.0000
  H   H427      1.0  0.50863  0.85860  0.31232  1.0000
  H   H428      1.0  0.63104  0.91629  0.26986  1.0000
  C   C534      1.0  0.56892  0.89066  0.28990  1.0000
  C   C535      1.0  0.53756  0.85786  0.30718  1.0000
  H   H429      1.0  0.64193  0.85745  0.28769  1.0000
  H   H430      1.0  0.93938  0.52770  0.03541  1.0000
  C   C536      1.0  0.58153  0.82472  0.31052  1.0000
  H   H431      1.0  0.56451  0.91674  0.28237  1.0000
  C   C537      1.0  0.95037  0.53854  0.01321  1.0000
  C   C538      1.0  0.61256  0.85730  0.29290  1.0000
  C   C539      1.0  0.60644  0.89042  0.28280  1.0000
  C   C540      1.0  0.54374  0.82477  0.31793  1.0000
  H   H432      1.0  0.97033  0.55298  0.14524  1.0000
  H   H433      1.0  0.89939  0.55130  0.00337  1.0000
  S   S66       1.0  0.92061  0.64644  0.99167  1.0000
  H   H434      1.0  0.96945  0.49600  0.09796  1.0000
  H   H435      1.0  0.96772  0.49234  0.17237  1.0000
  C   C541      1.0  0.51274  0.84340  0.38216  1.0000
  Fe  Fe33      1.0  0.55408  0.72290  0.48551  1.0000
  S   S67       1.0  0.62509  0.75117  0.48002  1.0000
  S   S68       1.0  0.52779  0.75524  0.51463  1.0000
  Fe  Fe34      1.0  0.53030  0.65120  0.44017  1.0000
  S   S69       1.0  0.60069  0.67569  0.43152  1.0000
  C   C542      1.0  0.66700  0.87527  0.59493  1.0000
  Fe  Fe35      1.0  0.61041  0.68254  0.48084  1.0000
  S   S70       1.0  0.64095  0.65300  0.51070  1.0000
  Fe  Fe36      1.0  0.60984  0.74288  0.43155  1.0000
  S   S71       1.0  0.65064  0.79441  0.39679  1.0000
  S   S72       1.0  0.53939  0.65462  0.48926  1.0000
  S   S73       1.0  0.53951  0.71798  0.43724  1.0000
  H   H436      1.0  0.80448  0.65644  0.49497  1.0000
  Fe  Fe37      1.0  0.82823  0.63837  0.60001  1.0000
  S   S74       1.0  0.78606  0.56705  0.60384  1.0000
  S   S75       1.0  0.81644  0.67899  0.56616  1.0000
  C   C543      1.0  0.69406  0.58645  0.39456  1.0000
  Fe  Fe38      1.0  0.84620  0.56371  0.61191  1.0000
  C   C544      1.0  0.65076  0.86992  0.56647  1.0000
  H   H437      1.0  0.55271  0.55098  0.48852  1.0000
  S   S76       1.0  0.88945  0.63518  0.60438  1.0000
  H   H438      1.0  0.75531  0.64327  0.38628  1.0000
  H   H439      1.0  0.69595  0.87960  0.48690  1.0000
  C   C545      1.0  0.64852  0.84027  0.38362  1.0000
  C   C546      1.0  0.67587  0.86491  0.36048  1.0000
  C   C547      1.0  0.67547  0.90145  0.34939  1.0000
  C   C548      1.0  0.64751  0.91391  0.36120  1.0000
  C   C549      1.0  0.62112  0.88997  0.38484  1.0000
  C   C550      1.0  0.62129  0.85334  0.39585  1.0000
  H   H440      1.0  0.58757  0.73623  0.54389  1.0000
  H   H441      1.0  0.60030  0.89993  0.39473  1.0000
  H   H442      1.0  0.60035  0.83527  0.41383  1.0000
  C   C551      1.0  0.69003  0.66197  0.52693  1.0000
  C   C552      1.0  0.72867  0.70080  0.52420  1.0000
  C   C553      1.0  0.76671  0.70558  0.53668  1.0000
  C   C554      1.0  0.76673  0.67209  0.55268  1.0000
  C   C555      1.0  0.72789  0.63367  0.55606  1.0000
  C   C556      1.0  0.69005  0.62856  0.54300  1.0000
  H   H443      1.0  0.72937  0.72704  0.51223  1.0000
  H   H444      1.0  0.79644  0.73544  0.53385  1.0000
  H   H445      1.0  0.72720  0.60750  0.56816  1.0000
  H   H446      1.0  0.66054  0.59835  0.54533  1.0000
  C   C557      1.0  0.57820  0.77786  0.60897  1.0000
  C   C558      1.0  0.69437  0.56214  0.47072  1.0000
  C   C559      1.0  0.73281  0.61083  0.37941  1.0000
  C   C560      1.0  0.54680  0.76312  0.55102  1.0000
  C   C561      1.0  0.57657  0.75119  0.55954  1.0000
  H   H447      1.0  0.54897  0.86339  0.55391  1.0000
  H   H448      1.0  0.86184  0.94139  0.44916  1.0000
  H   H449      1.0  0.72596  0.96208  0.39929  1.0000
  H   H450      1.0  0.65992  0.96685  0.44894  1.0000
  H   H451      1.0  0.53242  0.55386  0.39597  1.0000
  H   H452      1.0  0.68687  0.65703  0.37310  1.0000
  C   C562      1.0  0.75173  0.63550  0.46470  1.0000
  H   H453      1.0  0.73066  0.74010  0.61886  1.0000
  H   H454      1.0  0.72171  0.78064  0.40812  1.0000
  H   H455      1.0  0.67318  0.58946  0.65059  1.0000
  H   H456      1.0  0.56666  0.76897  0.36929  1.0000
  H   H457      1.0  0.61940  0.82598  0.49367  1.0000
  C   C563      1.0  0.71758  0.70748  0.62658  1.0000
  C   C564      1.0  0.49120  0.77251  0.40084  1.0000
  H   H458      1.0  0.63727  0.52381  0.39840  1.0000
  C   C565      1.0  0.55374  0.55832  0.41407  1.0000
  H   H459      1.0  0.69728  0.85544  0.35086  1.0000
  C   C566      1.0  0.50333  0.80115  0.37703  1.0000
  H   H460      1.0  0.67959  0.85538  0.60281  1.0000
  C   C567      1.0  0.67185  0.88729  0.48001  1.0000
  H   H461      1.0  0.53738  0.80459  0.61630  1.0000
  C   C568      1.0  0.68374  0.92745  0.46761  1.0000
  C   C569      1.0  0.48633  0.88042  0.50681  1.0000
  H   H462      1.0  0.77333  0.58707  0.52095  1.0000
  C   C570      1.0  0.59755  0.57513  0.40909  1.0000
  H   H463      1.0  0.67634  0.68122  0.58894  1.0000
  Fe  Fe39      1.0  0.88554  0.64373  0.65326  1.0000
  C   C571      1.0  0.71552  0.74829  0.41137  1.0000
  P   P18       1.0  0.68235  0.60851  0.42636  1.0000
  C   C572      1.0  0.62534  0.58227  0.43270  1.0000
  C   C573      1.0  0.71119  0.60192  0.45645  1.0000
  C   C574      1.0  0.82908  0.93149  0.44332  1.0000
  C   C575      1.0  0.51035  0.73669  0.34195  1.0000
  C   C576      1.0  0.76616  0.93919  0.44851  1.0000
  C   C577      1.0  0.77396  0.63000  0.48785  1.0000
  C   C578      1.0  0.60870  0.57293  0.46132  1.0000
  C   C579      1.0  0.56496  0.55651  0.46625  1.0000
  C   C580      1.0  0.54449  0.73941  0.35837  1.0000
  P   P19       1.0  0.60799  0.95581  0.56298  1.0000
  C   C581      1.0  0.53747  0.54916  0.44265  1.0000
  C   C582      1.0  0.63054  0.92386  0.57567  1.0000
  H   H464      1.0  0.87584  0.75427  0.59936  1.0000
  C   C583      1.0  0.53230  0.78187  0.57169  1.0000
  H   H465      1.0  0.62956  0.57992  0.48004  1.0000
  P   P20       1.0  0.50246  0.78239  0.34005  1.0000
  C   C584      1.0  0.71672  0.55676  0.49387  1.0000
  H   H466      1.0  0.66379  0.53540  0.46418  1.0000
  C   C585      1.0  0.74443  0.90538  0.42855  1.0000
  C   C586      1.0  0.52051  0.66482  0.34851  1.0000
  H   H467      1.0  0.51885  0.88980  0.41436  1.0000
  C   C587      1.0  0.60846  0.90573  0.46285  1.0000
  C   C588      1.0  0.74285  0.59340  0.35533  1.0000
  H   H468      1.0  0.76621  0.66609  0.45354  1.0000
  C   C589      1.0  0.87108  0.75851  0.62235  1.0000
  C   C590      1.0  0.50772  0.92520  0.50741  1.0000
  C   C591      1.0  0.54843  0.78985  0.60052  1.0000
  H   H469      1.0  0.49529  0.94234  0.49511  1.0000
  S   S77       1.0  0.82793  0.65216  0.64828  1.0000
  C   C592      1.0  0.69609  0.67840  0.39175  1.0000
  C   C593      1.0  0.80884  0.95229  0.45567  1.0000
  H   H470      1.0  0.82261  0.88147  0.41415  1.0000
  H   H471      1.0  0.80509  0.73928  0.61636  1.0000
  C   C594      1.0  0.69751  0.66378  0.42009  1.0000
  H   H472      1.0  0.50375  0.53762  0.44651  1.0000
  C   C595      1.0  0.50181  0.85837  0.52330  1.0000
  H   H473      1.0  0.70320  0.52639  0.50534  1.0000
  H   H474      1.0  0.70573  0.68011  0.46604  1.0000
  H   H475      1.0  0.61478  0.74867  0.59495  1.0000
  C   C596      1.0  0.63321  0.89462  0.55675  1.0000
  C   C597      1.0  0.67052  0.63164  0.61819  1.0000
  C   C598      1.0  0.65170  0.93637  0.45888  1.0000
  C   C599      1.0  0.59698  0.86593  0.47528  1.0000
  H   H476      1.0  0.67903  0.91016  0.63545  1.0000
  S   S78       1.0  0.86696  0.51891  0.58972  1.0000
  H   H477      1.0  0.62110  0.89053  0.53466  1.0000
  H   H478      1.0  0.55554  0.91184  0.61399  1.0000
  H   H479      1.0  0.52376  0.63680  0.35185  1.0000
  C   C600      1.0  0.80703  0.89773  0.42360  1.0000
  C   C601      1.0  0.74008  0.97502  0.52425  1.0000
  H   H480      1.0  0.64741  0.95301  0.61872  1.0000
  C   C602      1.0  0.66610  0.90564  0.61349  1.0000
  C   C603      1.0  0.68682  0.67415  0.60944  1.0000
  C   C604      1.0  0.59194  0.75823  0.58848  1.0000
  H   H481      1.0  0.58389  0.91277  0.45609  1.0000
  C   C605      1.0  0.70675  0.69149  0.44399  1.0000
  H   H482      1.0  0.70874  0.94675  0.52434  1.0000
  C   C606      1.0  0.70528  0.72062  0.38743  1.0000
  H   H483      1.0  0.70335  0.73169  0.36568  1.0000
  C   C607      1.0  0.71465  0.55127  0.34661  1.0000
  H   H484      1.0  0.64748  0.60585  0.60449  1.0000
  C   C608      1.0  0.71607  0.73367  0.43966  1.0000
  C   C609      1.0  0.54477  0.94793  0.52431  1.0000
  C   C610      1.0  0.62863  0.85671  0.48372  1.0000
  H   H485      1.0  0.72242  0.75456  0.45837  1.0000
  C   C611      1.0  0.68497  0.62245  0.64410  1.0000
  H   H486      1.0  0.65097  0.84599  0.55219  1.0000
  C   C612      1.0  0.59035  0.97449  0.59376  1.0000
  S   S79       1.0  0.64387  0.95872  0.34759  1.0000
  C   C613      1.0  0.66646  0.54377  0.38623  1.0000
  H   H487      1.0  0.56363  0.84202  0.47859  1.0000
  H   H488      1.0  0.71159  0.89470  0.42254  1.0000
  C   C614      1.0  0.56449  0.94530  0.61547  1.0000
  C   C615      1.0  0.53863  0.88108  0.54036  1.0000
  H   H489      1.0  0.74735  0.85862  0.40092  1.0000
  C   C616      1.0  0.64790  0.92980  0.60395  1.0000
  C   C617      1.0  0.76473  0.88478  0.41619  1.0000
  C   C618      1.0  0.56123  0.92604  0.54024  1.0000
  H   H490      1.0  0.77268  0.61249  0.34358  1.0000
  P   P21       1.0  0.73979  0.96679  0.46294  1.0000
  C   C619      1.0  0.83081  0.75000  0.63216  1.0000
  C   C620      1.0  0.75638  0.59077  0.50254  1.0000
  H   H491      1.0  0.60984  0.58371  0.38694  1.0000
  C   C621      1.0  0.55094  0.95934  0.63965  1.0000
  C   C622      1.0  0.51100  0.85698  0.41063  1.0000
  C   C623      1.0  0.54981  0.70379  0.36135  1.0000
  H   H492      1.0  0.57611  0.70620  0.37428  1.0000
  H   H493      1.0  0.50828  0.78989  0.56547  1.0000
  C   C624      1.0  0.48635  0.66171  0.33215  1.0000
  C   C625      1.0  0.67658  0.52640  0.36214  1.0000
  H   H494      1.0  0.52204  0.86626  0.36440  1.0000
  H   H495      1.0  0.82655  0.97815  0.47091  1.0000
  H   H496      1.0  0.49881  0.83905  0.45625  1.0000
  H   H497      1.0  0.72253  0.53777  0.32800  1.0000
  H   H498      1.0  0.69624  0.91951  0.33136  1.0000
  H   H499      1.0  0.56049  0.98260  0.52512  1.0000
  S   S80       1.0  0.59839  0.78580  0.64498  1.0000
  C   C626      1.0  0.90470  0.77099  0.64223  1.0000
  H   H500      1.0  0.93551  0.77643  0.63467  1.0000
  C   C627      1.0  0.49006  0.78634  0.42933  1.0000
  Fe  Fe40      1.0  0.78823  0.58082  0.65226  1.0000
  C   C628      1.0  0.49978  0.82849  0.43419  1.0000
  H   H501      1.0  0.48506  0.82358  0.52324  1.0000
  H   H502      1.0  0.93901  0.54053  0.63110  1.0000
  H   H503      1.0  0.62358  0.98082  0.50014  1.0000
  H   H504      1.0  0.54423  0.68810  0.65148  1.0000
  H   H505      1.0  0.48259  0.73939  0.39754  1.0000
  C   C629      1.0  0.92692  0.53766  0.65329  1.0000
  H   H506      1.0  0.73942  0.98270  0.57121  1.0000
  C   C630      1.0  0.48131  0.69753  0.32872  1.0000
  H   H507      1.0  0.83168  0.97257  0.32577  1.0000
  H   H508      1.0  0.65501  0.49354  0.35568  1.0000
  H   H509      1.0  0.48175  0.76431  0.44767  1.0000
  C   C631      1.0  0.73179  0.69865  0.65301  1.0000
  Fe  Fe41      1.0  0.62215  0.85675  0.73919  1.0000
  S   S81       1.0  0.56073  0.80396  0.72104  1.0000
  S   S82       1.0  0.65597  0.84411  0.77748  1.0000
  Fe  Fe42      1.0  0.62406  0.92272  0.69367  1.0000
  S   S83       1.0  0.56197  0.87219  0.67298  1.0000
  Fe  Fe43      1.0  0.53726  0.85168  0.71938  1.0000
  S   S84       1.0  0.84475  0.57239  0.66089  1.0000
  Fe  Fe44      1.0  0.59063  0.82946  0.67698  1.0000
  S   S85       1.0  0.59781  0.90392  0.74014  1.0000
  S   S86       1.0  0.65355  0.88055  0.69512  1.0000
  Fe  Fe45      1.0  0.62357  0.55301  0.88769  1.0000
  S   S87       1.0  0.65688  0.62531  0.89303  1.0000
  C   C632      1.0  0.58771  0.58001  0.72773  1.0000
  Fe  Fe46      1.0  0.68837  0.56144  0.84132  1.0000
  S   S88       1.0  0.72556  0.63311  0.84272  1.0000
  S   S89       1.0  0.70949  0.52339  0.81376  1.0000
  Fe  Fe47      1.0  0.71948  0.62441  0.89194  1.0000
  S   S90       1.0  0.77842  0.66811  0.92034  1.0000
  Fe  Fe48      1.0  0.66118  0.62921  0.84351  1.0000
  S   S91       1.0  0.64091  0.66347  0.80973  1.0000
  S   S92       1.0  0.68588  0.55255  0.89026  1.0000
  S   S93       1.0  0.62424  0.55693  0.83842  1.0000
  H   H510      1.0  0.69631  0.75301  0.66924  1.0000
  S   S94       1.0  0.72598  0.55609  0.67706  1.0000
  C   C633      1.0  0.71797  0.53689  0.77626  1.0000
  C   C634      1.0  0.97424  0.79320  0.81687  1.0000
  C   C635      1.0  0.74409  0.52913  0.72862  1.0000
  C   C636      1.0  0.72766  0.55292  0.71549  1.0000
  C   C637      1.0  0.70756  0.56981  0.73295  1.0000
  C   C638      1.0  0.70352  0.56258  0.76341  1.0000
  H   H511      1.0  0.50181  0.52739  0.85982  1.0000
  C   C639      1.0  0.97609  0.76273  0.83512  1.0000
  H   H512      1.0  0.69428  0.58771  0.72281  1.0000
  H   H513      1.0  0.68763  0.57532  0.77672  1.0000
  H   H514      1.0  0.78838  0.68242  0.70852  1.0000
  C   C640      1.0  0.72474  0.78437  0.66882  1.0000
  C   C641      1.0  0.53193  0.56609  0.82147  1.0000
  C   C642      1.0  0.64853  0.71515  0.80068  1.0000
  C   C643      1.0  0.63134  0.72002  0.77417  1.0000
  C   C644      1.0  0.63459  0.75952  0.76640  1.0000
  C   C645      1.0  0.65453  0.79474  0.78525  1.0000
  C   C646      1.0  0.67279  0.79028  0.81142  1.0000
  C   C647      1.0  0.66991  0.75083  0.81910  1.0000
  H   H515      1.0  0.61492  0.69287  0.75967  1.0000
  H   H516      1.0  0.62121  0.76278  0.74600  1.0000
  H   H517      1.0  0.68858  0.81734  0.82613  1.0000
  H   H518      1.0  0.68345  0.74784  0.83952  1.0000
  C   C648      1.0  0.81861  0.66159  0.93893  1.0000
  C   C649      1.0  0.75598  0.86143  0.66689  1.0000
  C   C650      1.0  0.84894  0.61840  0.95653  1.0000
  C   C651      1.0  0.81728  0.62214  0.94061  1.0000
  H   H519      1.0  0.84704  0.58756  0.95802  1.0000
  H   H520      1.0  0.79149  0.59438  0.93003  1.0000
  H   H521      1.0  0.87850  0.83801  0.91453  1.0000
  C   C652      1.0  0.53260  0.52759  0.77784  1.0000
  H   H522      1.0  0.58746  0.70899  0.69701  1.0000
  H   H523      1.0  0.74307  0.75628  0.77983  1.0000
  H   H524      1.0  0.85431  0.72802  0.95176  1.0000
  H   H525      1.0  0.74974  0.50073  0.76883  1.0000
  H   H526      1.0  0.91537  0.71302  0.79590  1.0000
  H   H527      1.0  0.83375  0.83478  0.67200  1.0000
  P   P22       1.0  0.54969  0.52697  0.74059  1.0000
  C   C653      1.0  0.88456  0.69362  0.96858  1.0000
  H   H528      1.0  0.60998  0.64837  0.66985  1.0000
  C   C654      1.0  0.55302  0.69506  0.69832  1.0000
  C   C655      1.0  0.53330  0.69078  0.72553  1.0000
  C   C656      1.0  0.89274  0.49859  0.66285  1.0000
  C   C657      1.0  0.95023  0.70743  0.88721  1.0000
  H   H529      1.0  0.54225  0.59625  0.83267  1.0000
  H   H530      1.0  0.51077  0.89791  0.77936  1.0000
  H   H531      1.0  0.53021  0.67607  0.80258  1.0000
  P   P23       1.0  0.77167  0.74230  0.67500  1.0000
  C   C658      1.0  0.56494  0.77929  0.82147  1.0000
  C   C659      1.0  0.56119  0.73881  0.82135  1.0000
  C   C660      1.0  0.53093  0.70644  0.80338  1.0000
  H   H532      1.0  0.62885  0.59423  0.76561  1.0000
  H   H533      1.0  0.55264  0.70047  0.74511  1.0000
  C   C661      1.0  0.48086  0.52602  0.71266  1.0000
  H   H534      1.0  0.87966  0.52963  0.73099  1.0000
  C   C662      1.0  0.80184  0.83027  0.67029  1.0000
  C   C663      1.0  0.73862  0.52058  0.75888  1.0000
  H   H535      1.0  0.55729  0.57518  0.68564  1.0000
  C   C664      1.0  0.76321  0.70974  0.77387  1.0000
  S   S95       1.0  0.56532  0.50864  0.91672  1.0000
  H   H536      1.0  0.59548  0.49648  0.98412  1.0000
  H   H537      1.0  0.58998  0.80502  0.83419  1.0000
  H   H538      1.0  0.58307  0.73312  0.83424  1.0000
  H   H539      1.0  0.91010  0.72132  0.97939  1.0000
  C   C665      1.0  0.77537  0.68862  0.75368  1.0000
  H   H540      1.0  0.76112  0.70211  0.79704  1.0000
  H   H541      1.0  0.78283  0.66457  0.76122  1.0000
  C   C666      1.0  0.82164  0.62017  0.83847  1.0000
  C   C667      1.0  0.82233  0.62046  0.80781  1.0000
  C   C668      1.0  0.85623  0.65400  0.79268  1.0000
  C   C669      1.0  0.88950  0.68754  0.80821  1.0000
  C   C670      1.0  0.88917  0.68754  0.83910  1.0000
  C   C671      1.0  0.85506  0.65343  0.85411  1.0000
  P   P24       1.0  0.93204  0.73052  0.85958  1.0000
  C   C672      1.0  0.91463  0.76467  0.87640  1.0000
  H   H542      1.0  0.67131  0.69480  0.70208  1.0000
  C   C673      1.0  0.94373  0.57343  0.67162  1.0000
  C   C674      1.0  0.92694  0.57002  0.69977  1.0000
  C   C675      1.0  0.94501  0.80676  0.88451  1.0000
  C   C676      1.0  0.93202  0.83319  0.89808  1.0000
  C   C677      1.0  0.88864  0.81780  0.90373  1.0000
  C   C678      1.0  0.85826  0.77607  0.89567  1.0000
  C   C679      1.0  0.87112  0.74964  0.88198  1.0000
  H   H543      1.0  0.95560  0.86550  0.90444  1.0000
  H   H544      1.0  0.48686  0.76206  0.77299  1.0000
  C   C680      1.0  0.58336  0.59514  0.70020  1.0000
  C   C681      1.0  0.95034  0.66921  0.88133  1.0000
  C   C682      1.0  0.76707  0.72868  0.71367  1.0000
  C   C683      1.0  0.68612  0.50342  0.95616  1.0000
  H   H545      1.0  0.79493  0.59428  0.85009  1.0000
  H   H546      1.0  0.79654  0.59469  0.79576  1.0000
  H   H547      1.0  0.85671  0.65400  0.76886  1.0000
  C   C684      1.0  0.61344  0.63653  0.69096  1.0000
  H   H548      1.0  0.85403  0.65280  0.87792  1.0000
  H   H549      1.0  0.85429  0.77233  0.70482  1.0000
  C   C685      1.0  0.65380  0.64684  0.73547  1.0000
  C   C686      1.0  0.52862  0.68319  0.67266  1.0000
  H   H550      1.0  0.96581  0.75723  0.91957  1.0000
  H   H551      1.0  0.82459  0.76365  0.90044  1.0000
  H   H552      1.0  0.84679  0.71744  0.87630  1.0000
  H   H553      1.0  0.93916  0.59827  0.71354  1.0000
  C   C687      1.0  0.82396  0.75429  0.66204  1.0000
  C   C688      1.0  0.75311  0.74037  0.76415  1.0000
  C   C689      1.0  0.85833  0.76804  0.68176  1.0000
  C   C690      1.0  0.71994  0.82045  0.66702  1.0000
  C   C691      1.0  0.88267  0.65396  0.97086  1.0000
  H   H554      1.0  0.75209  0.88935  0.66585  1.0000
  C   C692      1.0  0.75483  0.74973  0.73420  1.0000
  H   H555      1.0  0.74653  0.77341  0.72740  1.0000
  C   C693      1.0  0.89837  0.77586  0.67191  1.0000
  C   C694      1.0  0.94276  0.56683  0.96692  1.0000
  C   C695      1.0  0.54309  0.56623  0.79203  1.0000
  H   H556      1.0  0.58406  0.49158  0.78485  1.0000
  C   C696      1.0  0.71546  0.65571  0.66145  1.0000
  S   S96       1.0  0.93871  0.67530  0.68860  1.0000
  C   C697      1.0  0.62395  0.60567  0.74476  1.0000
  C   C698      1.0  0.64830  0.66259  0.70885  1.0000
  C   C699      1.0  0.89282  0.53092  0.70949  1.0000
  H   H557      1.0  0.54170  0.81899  0.80338  1.0000
  C   C700      1.0  0.77780  0.69836  0.72375  1.0000
  H   H558      1.0  0.92442  0.78517  0.68732  1.0000
  C   C701      1.0  0.85274  0.69729  0.95283  1.0000
  C   C702      1.0  0.53784  0.78719  0.80403  1.0000
  C   C703      1.0  0.79690  0.86634  0.66850  1.0000
  H   H559      1.0  0.92548  0.57779  0.95333  1.0000
  C   C704      1.0  0.50306  0.71387  0.78604  1.0000
  H   H560      1.0  0.56083  0.59673  0.78089  1.0000
  H   H561      1.0  0.68064  0.66669  0.74945  1.0000
  C   C705      1.0  0.50681  0.75460  0.78656  1.0000
  H   H562      1.0  0.49353  0.55824  0.72111  1.0000
  H   H563      1.0  0.53214  0.93696  0.65684  1.0000
  C   C706      1.0  0.50909  0.52737  0.83669  1.0000
  C   C707      1.0  0.48437  0.66636  0.67427  1.0000
  H   H564      1.0  0.94681  0.79784  0.81760  1.0000
  H   H565      1.0  0.93871  0.65293  0.86055  1.0000
  C   C708      1.0  0.96597  0.72812  0.91420  1.0000
  C   C709      1.0  0.59234  0.49283  0.71018  1.0000
  C   C710      1.0  0.57867  0.49832  0.73789  1.0000
  C   C711      1.0  0.96575  0.65190  0.90224  1.0000
  C   C712      1.0  0.76578  0.78894  0.67019  1.0000
  H   H566      1.0  0.96540  0.62226  0.89777  1.0000
  H   H567      1.0  0.68814  0.81664  0.66603  1.0000
  H   H568      1.0  0.82480  0.89818  0.66868  1.0000
  H   H569      1.0  0.96865  0.60412  0.66360  1.0000
  H   H570      1.0  0.72003  0.52620  0.95384  1.0000
  H   H571      1.0  0.72616  0.64731  0.68114  1.0000
  C   C713      1.0  0.87519  0.49488  0.69099  1.0000
  H   H572      1.0  0.75913  0.51562  0.71518  1.0000
  C   C714      1.0  0.51057  0.92450  0.79030  1.0000
  H   H573      1.0  0.97881  0.81899  0.88063  1.0000
  C   C715      1.0  0.50202  0.50307  0.71840  1.0000
  C   C716      1.0  0.54825  0.96412  0.79200  1.0000
  H   H574      1.0  0.58464  0.50462  0.69058  1.0000
  H   H575      1.0  0.57758  0.96805  0.78245  1.0000
  C   C717      1.0  0.48921  0.67552  0.72728  1.0000
  H   H576      1.0  0.67361  0.54710  0.98063  1.0000
  C   C718      1.0  0.65998  0.51526  0.97131  1.0000
  C   C719      1.0  0.49628  0.48866  0.82220  1.0000
  C   C720      1.0  0.50780  0.48871  0.79285  1.0000
