data_image0
_chemical_formula_structural       FeS2FeSCFeSFeS3FeSH2Fe2S2C8H2CHC6H4C3HSC2H2CHC2H2PHSC5HCHCHC2HCHC2H2CSCHC2H4C3HC4HCH5C3H2C4H4CPC2H3CH2C3H2CHCH3CH2CHFeCSHCFeS2FeSCFeSFeS3FeSCFeHFeS2C8H2CHC5H4CH2C2HC3HC2H5CHC2HC2H2C3H2CHCH2C2H2CHCH3C4SHPC2SC2HC3H2C6H4CHCHCH4CHC3H3CHCH5C2HCHCHC2HCHCSC2HCPC3HC4H3CH2CHCH2CHCH2CFeS2FeS2FeSFeS3CH2SFeCSCSCFeSCSHSCSC2HC8H2C3H2C6H4C6H4C6H4C6H5CH5C2FeH2C8HSH5CHC2HCHCHCH3C3HC4H2C2HCH2C3H2C3H2CHCSHPHCH3C2HCH2C9SHCH2CH2C6PC14H7CH6C7HCH7C2HC2FeCH2CH2CH3C6PC15HC2H10CHPC2H3PCH2C3HCHSHC4HCHSH2CH2C2HC2H5C4HC2H2CH2CHFeS2FeS2FeSFeS3CH2SFeCSFeS2FeSHCHSCSHCHC2HC5H2C3HC7H4C6H4C6H4C2H5C2H4CHC6H3C2PC2HC2HCHC3HC2HC3H3C5HCHC2FeH2CHC2H2C2H2CHCH2C2HC2HC4H2C2HC2PHCH5SC6PC18H7CH12CH4CH5CHCPCSHSH5SH2C5SH3C2HC5FeC4SC3PHC2H3CFeH2CFeC4H3C4H2C2HFeC4HCHCHC3H3SPHCSC4HC2HC2HPCHFeS2FeS2FeSFeS3FeS2CFeH3SHC3PHC3H3C6H4C4HC6H6C3H5C2HCHC2H2C4HC2H3C2PC5HCH2C2FeC14H3CHC2HC2H5C2H4CHC2PC2H2CHCHCH2CHCHC2H2SC2H3CHCH2C5HC3H7C2HC3H2C2HC2H2CH5C4PH2CH2CH3C5H2CHC3H3CSFeS2FeS2FeSFeS3FeS2HFeH2CHCHC2HC4H3C6H4C3HC7H6C2H2C6PC18H16C6H5C2HC10H2CH2CSC2H2C6H4CHCPC3H4CHC2H6C3HCHCH3CHPC5H2C3H2CHCHSHC4HCH2CPCSHCH2C4FeHSH6CHCH2C2HC2HFeS2FeS2FeSFeCS2FeS2HCFeS2H3C5H3C7H4C6H2CHC3H2C7PH3C2HC5H4SH6C2PCH2C2HCH6CFeCHCHCH2CHCHC2H2C3HC2PC2HC3H3CHCH4C6HC2HC6HCH2CHC3HC4H2CSC4H3CHC2SCH4CHC5H3C2HCFeS2FeS2FeSFeS3FeS2CHFeS2H2C2HC4PH2C6H4C6H4C3HC2H2C3PC8PC3HSH2C2HC8H8CFeHC2H3CHCH2C2H3CH3CHC4H2SH2C2H6C2H6C3HCPCHC2H3C3HC6H3CH3C3H2CH2C2HC2H3CHCHC4HCHCH2CFeCSFeS2FeSCSCSC3SFeS2FeS2FeSFeS3C4HC6H4C3HPC6H4C6H4C6H3C2H2C4H3CH2C2HC3PC5HC12HCH13CH4CSHC2HCHCH2SH3C3H2C2HCHC2H2C2HCHCH3CH2C5H2C2HC2HC5H9CHCH3C7PC8SHC8H7CH4Fe2H5SC2HPCHCSCH3CSCH4C2SC2SH4CH2FeC4H2CHCHC2HCHC2HC6HC2HC3H2CPHFeHSFeS2FeS2HSHC2HSFeS2FeS2FeSFeS3HC3HC6H4C2HCHC6H4C6H5C4H3CFeCHCH2CH2CH2C5PC5SC3PHCH2CH2CH4C2H2C2HC2PCHCH2C6H3CH3CHCHCHCPH2C2HCSCH3PCH4C2H2CHC4H10C3H5CHC3H6SH2CHC5SH4C4HC2HCH2C4PC14H2C2PH3CH9FeC8HC3HCHCH2C4H2CHSC5FeC2HC4H3C3H3CH2C2HC9HC2H3C3H2CH2C7SC3HCHCH2CHCH3C2H4C2HCHCFeCSFeHSHFeHS2FeS2CFeS2CPHC6H4FeC6HC4H3C2HC2HC2H3C2HC3H3CH2SH3CHCH2CH2CHCH2C3HPH5C4HCHCHC3HCS2C2H2CH2C2HC4HFeCHC2SCH2FeS2FeHSCFeCS2FeS2HFeSCHC8HCH2CH2C3H3PHC4HC7H2CHPC3H2C4H2C2HCH4CPH3C2H3SHC3H2C3HCH2CH2C5HCSCH3C2FeH2C4H2C2H2C4SCHC2HC3H5C3H7C
_chemical_formula_sum              "Fe96 S192 C1440 H1152 P48"
_cell_length_a       51.5214
_cell_length_b       51.2497
_cell_length_c       41.1954
_cell_angle_alpha    89.8121
_cell_angle_beta     90.0425
_cell_angle_gamma    120.159

_space_group_name_H-M_alt    "P 1"
_space_group_IT_number       1

loop_
  _space_group_symop_operation_xyz
  'x, y, z'

loop_
  _atom_site_type_symbol
  _atom_site_label
  _atom_site_symmetry_multiplicity
  _atom_site_fract_x
  _atom_site_fract_y
  _atom_site_fract_z
  _atom_site_occupancy
  Fe  Fe1       1.0  0.40747  0.13725  0.20011  1.0000
  S   S1        1.0  0.37498  0.10548  0.16253  1.0000
  S   S2        1.0  0.38927  0.16023  0.23281  1.0000
  Fe  Fe2       1.0  0.45645  0.12495  0.17772  1.0000
  S   S3        1.0  0.42761  0.09357  0.13866  1.0000
  C   C1        1.0  0.35176  0.00347  0.24962  1.0000
  Fe  Fe3       1.0  0.41429  0.12876  0.12780  1.0000
  S   S4        1.0  0.41389  0.14324  0.07426  1.0000
  Fe  Fe4       1.0  0.39140  0.07347  0.17733  1.0000
  S   S5        1.0  0.36585  0.02132  0.18409  1.0000
  S   S6        1.0  0.44591  0.16136  0.16499  1.0000
  S   S7        1.0  0.42112  0.10398  0.21665  1.0000
  Fe  Fe5       1.0  0.40990  0.27116  0.44299  1.0000
  S   S8        1.0  0.45546  0.28329  0.42560  1.0000
  H   H1        1.0  0.43994  0.11579  0.03517  1.0000
  H   H2        1.0  0.41042  0.01193  0.25777  1.0000
  Fe  Fe6       1.0  0.40728  0.31740  0.39413  1.0000
  Fe  Fe7       1.0  0.43882  0.28239  0.37497  1.0000
  S   S9        1.0  0.45825  0.26259  0.33917  1.0000
  S   S10       1.0  0.39149  0.26713  0.39190  1.0000
  C   C2        1.0  0.44641  0.00288  0.26840  1.0000
  C   C3        1.0  0.38571  0.17786  0.36566  1.0000
  C   C4        1.0  0.40882  0.18821  0.26271  1.0000
  C   C5        1.0  0.39347  0.20020  0.27958  1.0000
  C   C6        1.0  0.40821  0.22296  0.30304  1.0000
  C   C7        1.0  0.43849  0.23383  0.31003  1.0000
  C   C8        1.0  0.45389  0.22193  0.29306  1.0000
  C   C9        1.0  0.43912  0.19912  0.26962  1.0000
  H   H3        1.0  0.37004  0.19197  0.27432  1.0000
  H   H4        1.0  0.39616  0.23209  0.31570  1.0000
  C   C10       1.0  0.48299  0.26695  0.21851  1.0000
  H   H5        1.0  0.45123  0.19027  0.25657  1.0000
  C   C11       1.0  0.42283  0.22755  0.01977  1.0000
  C   C12       1.0  0.42272  0.22648  0.05404  1.0000
  C   C13       1.0  0.41997  0.20110  0.07110  1.0000
  C   C14       1.0  0.41705  0.17605  0.05421  1.0000
  C   C15       1.0  0.41721  0.17714  0.01994  1.0000
  C   C16       1.0  0.42024  0.20264  0.00288  1.0000
  H   H6        1.0  0.42459  0.24537  0.06760  1.0000
  H   H7        1.0  0.41979  0.20080  0.09734  1.0000
  H   H8        1.0  0.41490  0.15803  0.00643  1.0000
  H   H9        1.0  0.46750  0.07260  0.40375  1.0000
  C   C17       1.0  0.49487  0.03918  0.24535  1.0000
  C   C18       1.0  0.40382  0.19482  0.39152  1.0000
  C   C19       1.0  0.40525  0.09400  0.40738  1.0000
  H   H10       1.0  0.36361  0.02721  0.25551  1.0000
  S   S11       1.0  0.42577  0.26027  0.99966  1.0000
  C   C20       1.0  0.40997  0.00582  0.33061  1.0000
  C   C21       1.0  0.02801  0.32332  0.38412  1.0000
  H   H11       1.0  0.48137  0.17533  0.06338  1.0000
  H   H12       1.0  0.49593  0.07501  0.21668  1.0000
  C   C22       1.0  0.46564  0.05045  0.13493  1.0000
  H   H13       1.0  0.46809  0.18176  0.33347  1.0000
  C   C23       1.0  0.00387  0.30454  0.40416  1.0000
  C   C24       1.0  0.29092  0.32338  0.19729  1.0000
  H   H14       1.0  0.36539  0.05913  0.35964  1.0000
  H   H15       1.0  0.48393  0.15708  0.00685  1.0000
  P   P1        1.0  0.41727  0.12026  0.34594  1.0000
  H   H16       1.0  0.48809  0.27860  0.24161  1.0000
  S   S12       1.0  0.45396  0.33223  0.37503  1.0000
  C   C25       1.0  0.40963  0.07932  0.43367  1.0000
  C   C26       1.0  0.47529  0.05872  0.10289  1.0000
  C   C27       1.0  0.47018  0.16608  0.31768  1.0000
  C   C28       1.0  0.48301  0.08273  0.02884  1.0000
  C   C29       1.0  0.43061  0.16731  0.38883  1.0000
  H   H17       1.0  0.28447  0.30873  0.21840  1.0000
  C   C30       1.0  0.35546  0.08280  0.27310  1.0000
  H   H18       1.0  0.43076  0.02471  0.32186  1.0000
  C   C31       1.0  0.33805  0.04641  0.31701  1.0000
  H   H19       1.0  0.43610  0.22302  0.47817  1.0000
  C   C32       1.0  0.44891  0.13513  0.31852  1.0000
  C   C33       1.0  0.49127  0.19938  0.06714  1.0000
  H   H20       1.0  0.38789  0.10002  0.40887  1.0000
  C   C34       1.0  0.44941  0.02000  0.14369  1.0000
  H   H21       1.0  0.43549  0.09167  0.29684  1.0000
  C   C35       1.0  0.30478  0.33291  0.14047  1.0000
  C   C36       1.0  0.38051  0.10243  0.29151  1.0000
  H   H22       1.0  0.44808  0.16349  0.39815  1.0000
  H   H23       1.0  0.47740  0.23048  0.29802  1.0000
  C   C37       1.0  0.46869  0.03652  0.07926  1.0000
  S   S13       1.0  0.42169  0.31987  0.44679  1.0000
  C   C38       1.0  0.99679  0.30078  0.33676  1.0000
  H   H24       1.0  0.29340  0.29146  0.16552  1.0000
  C   C39       1.0  0.42318  0.10095  0.37943  1.0000
  C   C40       1.0  0.33424  0.05477  0.28581  1.0000
  H   H25       1.0  0.31921  0.32536  0.01622  1.0000
  H   H26       1.0  0.44030  0.20293  0.42302  1.0000
  H   H27       1.0  0.31503  0.03940  0.27129  1.0000
  H   H28       1.0  0.35259  0.08942  0.24890  1.0000
  C   C41       1.0  0.44621  0.23250  0.18020  1.0000
  C   C42       1.0  0.45307  0.24817  0.20952  1.0000
  C   C43       1.0  0.48216  0.05495  0.23113  1.0000
  H   H29       1.0  0.44177  0.05710  0.22450  1.0000
  C   C44       1.0  0.45885  0.11305  0.02870  1.0000
  C   C45       1.0  0.42631  0.18961  0.40304  1.0000
  C   C46       1.0  0.43197  0.07151  0.43231  1.0000
  C   C47       1.0  0.43397  0.01922  0.25440  1.0000
  H   H30       1.0  0.32162  0.02453  0.32664  1.0000
  C   C48       1.0  0.29606  0.31376  0.16753  1.0000
  H   H31       1.0  0.40059  0.21218  0.40249  1.0000
  H   H32       1.0  0.42293  0.21731  0.17375  1.0000
  H   H33       1.0  0.43512  0.24526  0.22560  1.0000
  H   H34       1.0  0.46326  0.22316  0.13718  1.0000
  H   H35       1.0  0.43901  0.06853  0.04905  1.0000
  C   C49       1.0  0.38458  0.09426  0.32284  1.0000
  C   C50       1.0  0.39283  0.01118  0.35306  1.0000
  C   C51       1.0  0.45845  0.08631  0.03662  1.0000
  H   H36       1.0  0.39674  0.12409  0.28127  1.0000
  H   H37       1.0  0.36859  0.18228  0.35643  1.0000
  C   C52       1.0  0.44578  0.09325  0.37835  1.0000
  C   C53       1.0  0.47587  0.12680  0.27512  1.0000
  C   C54       1.0  0.41240  0.15005  0.36287  1.0000
  C   C55       1.0  0.36304  0.06611  0.33558  1.0000
  H   H38       1.0  0.30860  0.32493  0.11772  1.0000
  H   H39       1.0  0.37602  0.14328  0.33085  1.0000
  H   H40       1.0  0.13504  0.32444  0.48779  1.0000
  H   H41       1.0  0.43541  0.06024  0.45278  1.0000
  C   C56       1.0  0.48369  0.13636  0.01283  1.0000
  P   P2        1.0  0.48140  0.04746  0.03795  1.0000
  C   C57       1.0  0.45171  0.04496  0.23565  1.0000
  C   C58       1.0  0.39008  0.15571  0.35117  1.0000
  H   H42       1.0  0.42043  0.32854  0.01039  1.0000
  H   H43       1.0  0.48784  0.08247  0.09670  1.0000
  H   H44       1.0  0.47048  0.06776  0.15291  1.0000
  C   C59       1.0  0.02456  0.32127  0.35041  1.0000
  H   H45       1.0  0.39582  0.07422  0.45524  1.0000
  H   H46       1.0  0.40000  0.03394  0.36079  1.0000
  C   C60       1.0  0.46926  0.23570  0.15967  1.0000
  C   C61       1.0  0.45192  0.11556  0.29703  1.0000
  C   C62       1.0  0.45344  0.00599  0.08852  1.0000
  H   H47       1.0  0.48192  0.31181  0.01968  1.0000
  H   H48       1.0  0.16848  0.31809  0.44923  1.0000
  C   C63       1.0  0.45004  0.07849  0.40469  1.0000
  H   H49       1.0  0.46024  0.09861  0.35741  1.0000
  C   C64       1.0  0.49124  0.21789  0.04219  1.0000
  H   H50       1.0  0.48160  0.20826  0.01884  1.0000
  H   H51       1.0  0.48752  0.00154  0.27479  1.0000
  H   H52       1.0  0.44131  0.01369  0.16840  1.0000
  C   C65       1.0  0.47711  0.01324  0.26393  1.0000
  H   H53       1.0  0.00666  0.30633  0.43030  1.0000
  H   H54       1.0  0.49561  0.21399  0.43705  1.0000
  C   C66       1.0  0.45597  0.02107  0.00822  1.0000
  H   H55       1.0  0.47787  0.11177  0.25816  1.0000
  Fe  Fe8       1.0  0.46691  0.33167  0.42714  1.0000
  C   C67       1.0  0.49397  0.17726  0.29548  1.0000
  S   S14       1.0  0.38917  0.23958  0.48750  1.0000
  H   H56       1.0  0.41630  0.00429  0.03854  1.0000
  C   C68       1.0  0.42519  0.00314  0.01510  1.0000
  Fe  Fe9       1.0  0.41809  0.14299  0.69779  1.0000
  S   S15       1.0  0.38571  0.11505  0.65831  1.0000
  S   S16       1.0  0.39764  0.15958  0.73556  1.0000
  Fe  Fe10      1.0  0.46680  0.13101  0.67183  1.0000
  S   S17       1.0  0.43725  0.10237  0.63135  1.0000
  C   C69       1.0  0.48725  0.05215  0.65303  1.0000
  Fe  Fe11      1.0  0.42541  0.13928  0.62428  1.0000
  S   S18       1.0  0.43126  0.16128  0.57319  1.0000
  Fe  Fe12      1.0  0.40072  0.08131  0.66965  1.0000
  S   S19       1.0  0.36967  0.02977  0.67649  1.0000
  S   S20       1.0  0.45706  0.16883  0.66366  1.0000
  S   S21       1.0  0.43101  0.10834  0.71024  1.0000
  Fe  Fe13      1.0  0.43235  0.27971  0.94735  1.0000
  S   S22       1.0  0.47695  0.29580  0.92328  1.0000
  C   C70       1.0  0.43442  0.27128  0.72214  1.0000
  Fe  Fe14      1.0  0.41151  0.30663  0.89089  1.0000
  H   H57       1.0  0.41270  0.12844  0.78624  1.0000
  Fe  Fe15      1.0  0.45068  0.27844  0.87702  1.0000
  S   S23       1.0  0.47036  0.25779  0.84345  1.0000
  S   S24       1.0  0.40546  0.26012  0.90123  1.0000
  C   C71       1.0  0.33033  0.30074  0.57480  1.0000
  C   C72       1.0  0.35921  0.00576  0.71172  1.0000
  C   C73       1.0  0.41838  0.18701  0.76527  1.0000
  C   C74       1.0  0.40281  0.19302  0.78934  1.0000
  C   C75       1.0  0.41837  0.21523  0.81298  1.0000
  C   C76       1.0  0.44971  0.23101  0.81320  1.0000
  C   C77       1.0  0.46530  0.22498  0.78919  1.0000
  C   C78       1.0  0.44972  0.20303  0.76527  1.0000
  H   H58       1.0  0.37860  0.18027  0.78982  1.0000
  H   H59       1.0  0.40617  0.21984  0.83126  1.0000
  C   C79       1.0  0.31150  0.26084  0.77071  1.0000
  H   H60       1.0  0.46193  0.19855  0.74685  1.0000
  C   C80       1.0  0.40211  0.21887  0.51148  1.0000
  C   C81       1.0  0.38833  0.20657  0.54167  1.0000
  C   C82       1.0  0.39728  0.18959  0.56115  1.0000
  C   C83       1.0  0.41975  0.18386  0.55045  1.0000
  C   C84       1.0  0.43344  0.19606  0.52019  1.0000
  H   H61       1.0  0.35399  0.24653  0.53717  1.0000
  H   H62       1.0  0.37044  0.21003  0.55008  1.0000
  H   H63       1.0  0.38629  0.18033  0.58413  1.0000
  H   H64       1.0  0.45057  0.19162  0.51131  1.0000
  C   C85       1.0  0.45254  0.11301  0.87956  1.0000
  H   H65       1.0  0.48944  0.03591  0.97010  1.0000
  H   H66       1.0  0.35234  0.26906  0.82464  1.0000
  C   C86       1.0  0.37203  0.01633  0.74234  1.0000
  C   C87       1.0  0.46685  0.05851  0.75211  1.0000
  H   H67       1.0  0.38888  0.03984  0.74523  1.0000
  C   C88       1.0  0.48876  0.02613  0.64608  1.0000
  C   C89       1.0  0.47527  0.29350  0.52013  1.0000
  C   C90       1.0  0.45222  0.17587  0.89136  1.0000
  H   H68       1.0  0.34939  0.02789  0.83710  1.0000
  C   C91       1.0  0.45422  0.27428  0.58323  1.0000
  C   C92       1.0  0.42512  0.21379  0.50115  1.0000
  H   H69       1.0  0.44569  0.26612  0.60741  1.0000
  H   H70       1.0  0.28941  0.26034  0.58845  1.0000
  H   H71       1.0  0.29242  0.13919  0.67771  1.0000
  H   H72       1.0  0.46091  0.06985  0.67378  1.0000
  H   H73       1.0  0.41687  0.27976  0.56954  1.0000
  C   C93       1.0  0.33359  0.19578  0.81246  1.0000
  H   H74       1.0  0.13310  0.30217  0.76057  1.0000
  C   C94       1.0  0.39915  0.10658  0.79766  1.0000
  C   C95       1.0  0.32917  0.20526  0.86922  1.0000
  H   H75       1.0  0.49622  0.13018  0.75081  1.0000
  C   C96       1.0  0.44532  0.19508  0.90856  1.0000
  C   C97       1.0  0.33262  0.20790  0.73599  1.0000
  H   H76       1.0  0.43598  0.29745  0.51387  1.0000
  H   H77       1.0  0.45703  0.07212  0.74528  1.0000
  C   C98       1.0  0.31980  0.24997  0.56355  1.0000
  C   C99       1.0  0.43829  0.10576  0.91003  1.0000
  C   C100      1.0  0.38878  0.07200  0.84255  1.0000
  H   H78       1.0  0.46106  0.21089  0.92601  1.0000
  H   H79       1.0  0.37704  0.17390  0.87570  1.0000
  C   C101      1.0  0.40484  0.15517  0.86272  1.0000
  H   H80       1.0  0.42751  0.04502  0.88464  1.0000
  C   C102      1.0  0.43200  0.15570  0.86835  1.0000
  H   H81       1.0  0.47788  0.29469  0.74506  1.0000
  H   H82       1.0  0.49207  0.05691  0.58657  1.0000
  C   C103      1.0  0.37365  0.08461  0.78154  1.0000
  C   C104      1.0  0.12679  0.31814  0.76932  1.0000
  H   H83       1.0  0.41965  0.01987  0.69147  1.0000
  H   H84       1.0  0.29369  0.32957  0.53584  1.0000
  C   C105      1.0  0.30355  0.15833  0.69392  1.0000
  H   H85       1.0  0.29824  0.24107  0.78565  1.0000
  C   C106      1.0  0.35530  0.29193  0.73752  1.0000
  H   H86       1.0  0.26867  0.16970  0.69100  1.0000
  H   H87       1.0  0.42861  0.02725  0.78012  1.0000
  H   H88       1.0  0.44330  0.27014  0.69870  1.0000
  C   C107      1.0  0.31835  0.30714  0.74695  1.0000
  C   C108      1.0  0.29024  0.17555  0.70141  1.0000
  C   C109      1.0  0.46921  0.14750  0.81801  1.0000
  C   C110      1.0  0.35858  0.31276  0.55976  1.0000
  S   S25       1.0  0.45455  0.32279  0.86380  1.0000
  H   H89       1.0  0.29387  0.21313  0.72791  1.0000
  P   P3        1.0  0.44017  0.12929  0.84840  1.0000
  C   C111      1.0  0.44836  0.09433  0.93484  1.0000
  C   C112      1.0  0.33807  0.23521  0.86175  1.0000
  S   S26       1.0  0.37564  0.31865  0.87503  1.0000
  C   C113      1.0  0.36328  0.05001  0.82630  1.0000
  C   C114      1.0  0.43905  0.02159  0.67919  1.0000
  H   H90       1.0  0.48286  0.30092  0.49556  1.0000
  C   C115      1.0  0.46615  0.02097  0.97659  1.0000
  C   C116      1.0  0.47695  0.10848  0.87430  1.0000
  C   C117      1.0  0.34506  0.24559  0.82977  1.0000
  H   H91       1.0  0.48856  0.11405  0.85124  1.0000
  H   H92       1.0  0.48647  0.19312  0.83575  1.0000
  C   C118      1.0  0.34759  0.26168  0.54815  1.0000
  C   C119      1.0  0.44246  0.28641  0.77847  1.0000
  C   C120      1.0  0.41796  0.02292  0.87382  1.0000
  C   C121      1.0  0.31115  0.26949  0.57685  1.0000
  C   C122      1.0  0.36691  0.29288  0.54621  1.0000
  C   C123      1.0  0.30467  0.20023  0.72239  1.0000
  H   H93       1.0  0.37636  0.29664  0.72673  1.0000
  H   H94       1.0  0.41952  0.10921  0.91472  1.0000
  H   H95       1.0  0.49327  0.27027  0.58996  1.0000
  H   H96       1.0  0.30486  0.22573  0.56475  1.0000
  C   C124      1.0  0.43393  0.01729  0.85009  1.0000
  H   H97       1.0  0.36712  0.19558  0.73862  1.0000
  C   C125      1.0  0.32695  0.18555  0.84458  1.0000
  H   H98       1.0  0.32408  0.19739  0.89412  1.0000
  C   C126      1.0  0.34276  0.22592  0.80480  1.0000
  H   H99       1.0  0.45597  0.03526  0.84291  1.0000
  H   H100      1.0  0.33153  0.18005  0.79382  1.0000
  H   H101      1.0  0.32000  0.16230  0.85033  1.0000
  H   H102      1.0  0.38872  0.24750  0.70606  1.0000
  C   C127      1.0  0.41808  0.19408  0.90316  1.0000
  H   H103      1.0  0.34463  0.32023  0.49930  1.0000
  C   C128      1.0  0.40343  0.25815  0.72656  1.0000
  C   C129      1.0  0.33854  0.26601  0.75663  1.0000
  C   C130      1.0  0.40711  0.10036  0.82813  1.0000
  H   H104      1.0  0.34169  0.15239  0.70182  1.0000
  H   H105      1.0  0.47331  0.17672  0.89602  1.0000
  H   H106      1.0  0.38790  0.30106  0.53344  1.0000
  C   C131      1.0  0.33126  0.16573  0.70746  1.0000
  H   H107      1.0  0.39402  0.06669  0.86616  1.0000
  C   C132      1.0  0.43805  0.28208  0.56200  1.0000
  H   H108      1.0  0.33993  0.25062  0.88081  1.0000
  H   H109      1.0  0.36791  0.08958  0.75785  1.0000
  H   H110      1.0  0.01004  0.31872  0.87314  1.0000
  H   H111      1.0  0.41273  0.20887  0.91664  1.0000
  H   H112      1.0  0.32284  0.31535  0.58470  1.0000
  C   C133      1.0  0.48098  0.27616  0.57299  1.0000
  C   C134      1.0  0.35574  0.05632  0.79582  1.0000
  H   H113      1.0  0.43743  0.08909  0.95839  1.0000
  C   C135      1.0  0.48697  0.09706  0.89920  1.0000
  H   H114      1.0  0.08535  0.29846  0.74243  1.0000
  C   C136      1.0  0.39789  0.17420  0.88025  1.0000
  H   H115      1.0  0.45733  0.10579  0.79309  1.0000
  C   C137      1.0  0.34517  0.31237  0.73271  1.0000
  C   C138      1.0  0.46223  0.04976  0.66903  1.0000
  H   H116      1.0  0.42008  0.20277  0.97668  1.0000
  C   C139      1.0  0.49141  0.02223  0.76765  1.0000
  H   H117      1.0  0.38897  0.14023  0.84486  1.0000
  C   C140      1.0  0.44877  0.29199  0.53062  1.0000
  S   S27       1.0  0.43457  0.32470  0.93904  1.0000
  C   C141      1.0  0.34569  0.19032  0.72842  1.0000
  C   C142      1.0  0.47272  0.09004  0.92946  1.0000
  H   H118      1.0  0.33618  0.03914  0.78305  1.0000
  C   C143      1.0  0.49524  0.06603  0.74043  1.0000
  P   P4        1.0  0.35145  0.23956  0.76343  1.0000
  C   C144      1.0  0.46299  0.01471  0.77981  1.0000
  C   C145      1.0  0.47223  0.12999  0.79374  1.0000
  C   C146      1.0  0.41146  0.27296  0.78311  1.0000
  H   H119      1.0  0.48064  0.08147  0.94881  1.0000
  C   C147      1.0  0.39163  0.25799  0.75737  1.0000
  C   C148      1.0  0.45078  0.03299  0.77172  1.0000
  C   C149      1.0  0.45392  0.28518  0.74817  1.0000
  C   C150      1.0  0.30156  0.28142  0.76597  1.0000
  H   H120      1.0  0.45761  0.29690  0.79871  1.0000
  H   H121      1.0  0.40321  0.27372  0.80702  1.0000
  H   H122      1.0  0.28107  0.27772  0.77748  1.0000
  C   C151      1.0  0.09998  0.31617  0.75901  1.0000
  H   H123      1.0  0.37266  0.00509  0.79294  1.0000
  H   H124      1.0  0.48760  0.22630  0.55443  1.0000
  C   C152      1.0  0.49134  0.28510  0.54105  1.0000
  H   H125      1.0  0.03776  0.33151  0.92527  1.0000
  C   C153      1.0  0.48866  0.17889  0.81794  1.0000
  H   H126      1.0  0.31096  0.32344  0.74390  1.0000
  H   H127      1.0  0.48956  0.23744  0.78904  1.0000
  C   C154      1.0  0.49426  0.14367  0.76977  1.0000
  H   H128      1.0  0.35852  0.33286  0.71886  1.0000
  C   C155      1.0  0.44630  0.00163  0.95300  1.0000
  H   H129      1.0  0.37666  0.00465  0.90105  1.0000
  H   H130      1.0  0.45435  0.00127  0.92880  1.0000
  C   C156      1.0  0.38937  0.00015  0.88321  1.0000
  Fe  Fe16      1.0  0.33223  0.49099  0.24532  1.0000
  S   S28       1.0  0.33826  0.46037  0.21150  1.0000
  S   S29       1.0  0.36797  0.53937  0.25581  1.0000
  Fe  Fe17      1.0  0.26847  0.44227  0.26199  1.0000
  S   S30       1.0  0.27078  0.40808  0.22960  1.0000
  S   S31       1.0  0.22339  0.43241  0.28170  1.0000
  Fe  Fe18      1.0  0.31719  0.42519  0.25148  1.0000
  S   S32       1.0  0.34080  0.39760  0.26360  1.0000
  Fe  Fe19      1.0  0.29149  0.44638  0.19337  1.0000
  S   S33       1.0  0.28093  0.44617  0.13890  1.0000
  S   S34       1.0  0.31303  0.45696  0.28612  1.0000
  S   S35       1.0  0.28744  0.47955  0.22495  1.0000
  C   C157      1.0  0.38529  0.44760  0.03449  1.0000
  H   H131      1.0  0.38305  0.40174  0.09797  1.0000
  H   H132      1.0  0.29038  0.35950  0.22311  1.0000
  S   S36       1.0  0.45256  0.62310  0.14173  1.0000
  Fe  Fe20      1.0  0.15562  0.44985  0.01525  1.0000
  C   C158      1.0  0.37611  0.38291  0.45189  1.0000
  S   S37       1.0  0.16725  0.44071  0.06679  1.0000
  C   C159      1.0  0.28093  0.41174  0.39991  1.0000
  S   S38       1.0  0.13165  0.45431  0.44982  1.0000
  C   C160      1.0  0.47367  0.44175  0.44491  1.0000
  Fe  Fe21      1.0  0.16377  0.43743  0.45966  1.0000
  S   S39       1.0  0.20438  0.44315  0.43197  1.0000
  C   C161      1.0  0.29430  0.35207  0.19997  1.0000
  S   S40       1.0  0.37914  0.34062  0.38273  1.0000
  H   H133      1.0  0.35200  0.59466  0.38486  1.0000
  S   S41       1.0  0.11606  0.45754  0.01080  1.0000
  C   C162      1.0  0.19454  0.62077  0.40617  1.0000
  S   S42       1.0  0.11627  0.60444  0.09511  1.0000
  C   C163      1.0  0.04265  0.64253  0.27991  1.0000
  C   C164      1.0  0.45300  0.35733  0.04564  1.0000
  H   H134      1.0  0.45983  0.47220  0.04109  1.0000
  C   C165      1.0  0.28038  0.40579  0.45855  1.0000
  C   C166      1.0  0.14076  0.56011  0.01313  1.0000
  C   C167      1.0  0.14736  0.59014  0.01038  1.0000
  C   C168      1.0  0.13957  0.60368  0.03523  1.0000
  C   C169      1.0  0.12518  0.58735  0.06315  1.0000
  C   C170      1.0  0.11848  0.55723  0.06602  1.0000
  C   C171      1.0  0.12619  0.54359  0.04104  1.0000
  C   C172      1.0  0.26650  0.40742  0.42985  1.0000
  H   H135      1.0  0.14487  0.62687  0.03296  1.0000
  H   H136      1.0  0.10717  0.54434  0.08751  1.0000
  C   C173      1.0  0.16853  0.57586  0.14250  1.0000
  C   C174      1.0  0.01811  0.37294  0.43772  1.0000
  C   C175      1.0  0.02424  0.38590  0.40662  1.0000
  H   H137      1.0  0.04713  0.40214  0.40006  1.0000
  H   H138      1.0  0.36955  0.40968  0.15576  1.0000
  C   C176      1.0  0.21848  0.43663  0.32329  1.0000
  C   C177      1.0  0.24189  0.44490  0.34537  1.0000
  C   C178      1.0  0.23694  0.44677  0.37855  1.0000
  C   C179      1.0  0.20882  0.44081  0.38990  1.0000
  C   C180      1.0  0.18558  0.43336  0.36778  1.0000
  C   C181      1.0  0.19042  0.43119  0.33450  1.0000
  H   H139      1.0  0.26362  0.44936  0.33693  1.0000
  H   H140      1.0  0.25486  0.45249  0.39566  1.0000
  H   H141      1.0  0.16384  0.42881  0.37633  1.0000
  H   H142      1.0  0.17226  0.42486  0.31745  1.0000
  C   C182      1.0  0.24946  0.44564  0.11954  1.0000
  C   C183      1.0  0.25075  0.45182  0.08600  1.0000
  C   C184      1.0  0.22614  0.45080  0.06948  1.0000
  C   C185      1.0  0.19966  0.44343  0.08627  1.0000
  C   C186      1.0  0.19860  0.43776  0.11990  1.0000
  C   C187      1.0  0.22325  0.43892  0.13643  1.0000
  H   H143      1.0  0.27077  0.45695  0.07253  1.0000
  H   H144      1.0  0.22745  0.45523  0.04366  1.0000
  H   H145      1.0  0.17833  0.43201  0.13325  1.0000
  H   H146      1.0  0.22170  0.43395  0.16212  1.0000
  C   C188      1.0  0.39180  0.56207  0.22396  1.0000
  C   C189      1.0  0.41586  0.59101  0.23099  1.0000
  C   C190      1.0  0.43504  0.60972  0.20615  1.0000
  C   C191      1.0  0.43014  0.59968  0.17400  1.0000
  C   C192      1.0  0.40606  0.57077  0.16698  1.0000
  C   C193      1.0  0.38693  0.55201  0.19179  1.0000
  H   H147      1.0  0.41976  0.59898  0.25577  1.0000
  H   H148      1.0  0.45346  0.63198  0.21186  1.0000
  H   H149      1.0  0.40234  0.56278  0.14224  1.0000
  H   H150      1.0  0.36840  0.52984  0.18603  1.0000
  C   C194      1.0  0.35132  0.38212  0.29726  1.0000
  C   C195      1.0  0.34120  0.38111  0.32909  1.0000
  C   C196      1.0  0.34983  0.36834  0.35461  1.0000
  C   C197      1.0  0.36886  0.35634  0.34905  1.0000
  C   C198      1.0  0.37321  0.64806  0.20772  1.0000
  C   C199      1.0  0.32851  0.63709  0.32411  1.0000
  H   H151      1.0  0.32627  0.38970  0.33384  1.0000
  H   H152      1.0  0.41985  0.47782  0.06735  1.0000
  H   H153      1.0  0.40565  0.38255  0.05912  1.0000
  H   H154      1.0  0.22343  0.35055  0.45339  1.0000
  H   H155      1.0  0.34826  0.65727  0.09748  1.0000
  C   C200      1.0  0.34974  0.59629  0.24648  1.0000
  H   H156      1.0  0.49010  0.43399  0.04478  1.0000
  H   H157      1.0  0.00886  0.58200  0.99371  1.0000
  H   H158      1.0  0.12191  0.63753  0.18756  1.0000
  H   H159      1.0  0.19354  0.58545  0.37693  1.0000
  H   H160      1.0  0.37618  0.38939  0.42678  1.0000
  C   C201      1.0  0.38825  0.48289  0.14562  1.0000
  C   C202      1.0  0.33790  0.37504  0.07894  1.0000
  Fe  Fe22      1.0  0.09778  0.41311  0.47821  1.0000
  H   H161      1.0  0.24452  0.40545  0.43050  1.0000
  H   H162      1.0  0.25307  0.51036  0.19347  1.0000
  C   C203      1.0  0.33611  0.58048  0.13562  1.0000
  C   C204      1.0  0.30804  0.55492  0.14210  1.0000
  C   C205      1.0  0.30101  0.52675  0.12982  1.0000
  C   C206      1.0  0.32185  0.52387  0.11081  1.0000
  C   C207      1.0  0.34979  0.54918  0.10414  1.0000
  C   C208      1.0  0.35702  0.57739  0.11661  1.0000
  C   C209      1.0  0.20560  0.59993  0.19668  1.0000
  C   C210      1.0  0.19756  0.59546  0.40085  1.0000
  H   H163      1.0  0.34112  0.57613  0.26134  1.0000
  S   S43       1.0  0.09922  0.66566  0.12573  1.0000
  H   H164      1.0  0.27951  0.50700  0.13528  1.0000
  H   H165      1.0  0.31639  0.50192  0.10160  1.0000
  H   H166      1.0  0.36613  0.54692  0.08975  1.0000
  H   H167      1.0  0.37907  0.59648  0.11167  1.0000
  H   H168      1.0  0.32792  0.57157  0.20373  1.0000
  C   C211      1.0  0.43832  0.37570  0.99893  1.0000
  H   H169      1.0  0.19465  0.63539  0.19422  1.0000
  C   C212      1.0  0.17280  0.60256  0.15645  1.0000
  C   C213      1.0  0.37018  0.36995  0.29167  1.0000
  H   H170      1.0  0.34651  0.41815  0.42579  1.0000
  C   C214      1.0  0.36394  0.35303  0.03493  1.0000
  H   H171      1.0  0.21634  0.36897  0.10706  1.0000
  C   C215      1.0  0.04018  0.56314  0.07028  1.0000
  H   H172      1.0  0.36495  0.49838  0.11497  1.0000
  C   C216      1.0  0.01178  0.58381  0.04555  1.0000
  H   H173      1.0  0.32219  0.64895  0.30688  1.0000
  H   H174      1.0  0.30598  0.59452  0.42022  1.0000
  H   H175      1.0  0.16142  0.61370  0.14628  1.0000
  C   C217      1.0  0.40092  0.42497  0.99297  1.0000
  C   C218      1.0  0.34223  0.59383  0.21358  1.0000
  C   C219      1.0  0.33312  0.34235  0.03386  1.0000
  H   H176      1.0  0.21207  0.58315  0.47815  1.0000
  C   C220      1.0  0.38939  0.45781  0.15711  1.0000
  C   C221      1.0  0.27938  0.63959  0.16379  1.0000
  C   C222      1.0  0.43730  0.46024  0.03122  1.0000
  C   C223      1.0  0.34709  0.42489  0.12266  1.0000
  H   H177      1.0  0.19455  0.66440  0.00964  1.0000
  H   H178      1.0  0.35545  0.41541  0.99936  1.0000
  C   C224      1.0  0.37071  0.66244  0.10386  1.0000
  C   C225      1.0  0.32410  0.41495  0.42703  1.0000
  H   H179      1.0  0.20954  0.50199  0.44622  1.0000
  C   C226      1.0  0.40506  0.65395  0.13620  1.0000
  H   H180      1.0  0.32086  0.41905  0.37525  1.0000
  H   H181      1.0  0.14881  0.64793  0.28776  1.0000
  C   C227      1.0  0.31159  0.62037  0.14601  1.0000
  C   C228      1.0  0.26145  0.37657  0.10771  1.0000
  C   C229      1.0  0.35706  0.65186  0.33814  1.0000
  H   H182      1.0  0.18766  0.62972  0.38621  1.0000
  H   H183      1.0  0.24170  0.62945  0.13277  1.0000
  C   C230      1.0  0.36883  0.38539  0.08009  1.0000
  C   C231      1.0  0.36883  0.42892  0.14584  1.0000
  C   C232      1.0  0.46731  0.42318  0.47212  1.0000
  H   H184      1.0  0.32878  0.44779  0.09461  1.0000
  H   H185      1.0  0.29169  0.55672  0.15689  1.0000
  C   C233      1.0  0.15034  0.64291  0.45921  1.0000
  H   H186      1.0  0.38766  0.64780  0.37063  1.0000
  C   C234      1.0  0.26804  0.61097  0.11404  1.0000
  S   S44       1.0  0.04692  0.38122  0.46744  1.0000
  H   H187      1.0  0.30596  0.39368  0.17574  1.0000
  P   P5        1.0  0.32043  0.38728  0.10866  1.0000
  H   H188      1.0  0.25962  0.36953  0.13277  1.0000
  C   C235      1.0  0.30325  0.37140  0.17309  1.0000
  H   H189      1.0  0.21981  0.60915  0.21785  1.0000
  H   H190      1.0  0.30941  0.64496  0.39063  1.0000
  H   H191      1.0  0.28032  0.59057  0.47211  1.0000
  C   C236      1.0  0.35395  0.61972  0.19385  1.0000
  C   C237      1.0  0.30456  0.63640  0.16854  1.0000
  H   H192      1.0  0.26982  0.41231  0.37775  1.0000
  C   C238      1.0  0.02316  0.57732  0.07327  1.0000
  H   H193      1.0  0.40355  0.50516  0.15520  1.0000
  H   H194      1.0  0.48586  0.39148  0.07710  1.0000
  C   C239      1.0  0.09147  0.61418  0.48367  1.0000
  C   C240      1.0  0.13270  0.61120  0.45943  1.0000
  C   C241      1.0  0.45866  0.40565  0.00777  1.0000
  C   C242      1.0  0.30969  0.41549  0.39849  1.0000
  C   C243      1.0  0.49324  0.47283  0.44763  1.0000
  C   C244      1.0  0.36538  0.63646  0.36001  1.0000
  C   C245      1.0  0.28502  0.65292  0.42796  1.0000
  C   C246      1.0  0.47271  0.38706  0.05515  1.0000
  C   C247      1.0  0.36955  0.62441  0.25983  1.0000
  S   S45       1.0  0.08028  0.64633  0.04928  1.0000
  H   H195      1.0  0.26648  0.40422  0.01891  1.0000
  C   C248      1.0  0.43072  0.44157  0.00394  1.0000
  H   H196      1.0  0.46387  0.43195  0.42159  1.0000
  H   H197      1.0  0.29838  0.59570  0.10061  1.0000
  C   C249      1.0  0.29317  0.60775  0.11865  1.0000
  H   H198      1.0  0.21937  0.38601  0.05019  1.0000
  H   H199      1.0  0.34134  0.36743  0.37881  1.0000
  C   C250      1.0  0.08543  0.48445  0.14067  1.0000
  C   C251      1.0  0.07659  0.46393  0.11505  1.0000
  C   C252      1.0  0.09825  0.46248  0.09602  1.0000
  C   C253      1.0  0.12877  0.48189  0.10213  1.0000
  C   C254      1.0  0.13786  0.50287  0.12750  1.0000
  C   C255      1.0  0.11595  0.50361  0.14717  1.0000
  P   P6        1.0  0.17725  0.52640  0.13675  1.0000
  C   C256      1.0  0.18925  0.50628  0.16347  1.0000
  C   C257      1.0  0.19760  0.53539  0.09867  1.0000
  C   C258      1.0  0.21448  0.52173  0.09031  1.0000
  C   C259      1.0  0.22984  0.52848  0.06075  1.0000
  C   C260      1.0  0.22790  0.54829  0.03885  1.0000
  C   C261      1.0  0.21012  0.56092  0.04626  1.0000
  C   C262      1.0  0.19508  0.55458  0.07602  1.0000
  C   C263      1.0  0.21995  0.51785  0.16971  1.0000
  C   C264      1.0  0.22939  0.50178  0.18926  1.0000
  C   C265      1.0  0.20827  0.47410  0.20281  1.0000
  C   C266      1.0  0.17772  0.46255  0.19697  1.0000
  C   C267      1.0  0.16819  0.47848  0.17734  1.0000
  C   C268      1.0  0.18313  0.56110  0.15514  1.0000
  C   C269      1.0  0.20154  0.57329  0.18261  1.0000
  H   H200      1.0  0.06866  0.48533  0.15571  1.0000
  H   H201      1.0  0.05300  0.44887  0.11009  1.0000
  H   H202      1.0  0.09145  0.44605  0.07667  1.0000
  H   H203      1.0  0.14519  0.48022  0.08721  1.0000
  H   H204      1.0  0.12237  0.51886  0.16758  1.0000
  H   H205      1.0  0.21502  0.50495  0.10583  1.0000
  H   H206      1.0  0.24218  0.51726  0.05423  1.0000
  C   C270      1.0  0.26113  0.62687  0.13656  1.0000
  H   H207      1.0  0.00555  0.60055  0.29736  1.0000
  H   H208      1.0  0.18094  0.56409  0.08063  1.0000
  H   H209      1.0  0.21553  0.46126  0.21743  1.0000
  H   H210      1.0  0.16146  0.44084  0.20714  1.0000
  H   H211      1.0  0.14443  0.46863  0.17262  1.0000
  H   H212      1.0  0.21267  0.56234  0.19346  1.0000
  C   C271      1.0  0.13824  0.65990  0.47180  1.0000
  C   C272      1.0  0.28831  0.38691  0.09028  1.0000
  C   C273      1.0  0.20411  0.58205  0.42674  1.0000
  C   C274      1.0  0.20816  0.59425  0.45784  1.0000
  C   C275      1.0  0.20540  0.61966  0.46320  1.0000
  C   C276      1.0  0.19875  0.63328  0.43737  1.0000
  C   C277      1.0  0.23668  0.37608  0.09315  1.0000
  H   H213      1.0  0.14790  0.62777  0.23273  1.0000
  C   C278      1.0  0.13694  0.64075  0.23706  1.0000
  H   H214      1.0  0.39342  0.34818  0.31215  1.0000
  H   H215      1.0  0.15339  0.56660  0.12211  1.0000
  H   H216      1.0  0.23496  0.50512  0.39464  1.0000
  H   H217      1.0  0.05888  0.63545  0.28447  1.0000
  H   H218      1.0  0.23398  0.43726  0.48460  1.0000
  H   H219      1.0  0.09039  0.57256  0.47330  1.0000
  H   H220      1.0  0.37812  0.37029  0.26729  1.0000
  C   C279      1.0  0.37838  0.42826  0.00798  1.0000
  C   C280      1.0  0.23845  0.38583  0.06111  1.0000
  H   H221      1.0  0.20505  0.56161  0.42298  1.0000
  C   C281      1.0  0.27046  0.57212  0.45493  1.0000
  C   C282      1.0  0.30961  0.41031  0.45701  1.0000
  Fe  Fe23      1.0  0.11362  0.64675  0.08460  1.0000
  C   C283      1.0  0.35768  0.35286  0.46124  1.0000
  H   H222      1.0  0.20719  0.57488  0.02845  1.0000
  H   H223      1.0  0.02310  0.63169  0.16836  1.0000
  C   C284      1.0  0.10815  0.66301  0.21718  1.0000
  H   H224      1.0  0.27414  0.65216  0.18110  1.0000
  H   H225      1.0  0.25413  0.60139  0.09275  1.0000
  C   C285      1.0  0.19140  0.61467  0.18348  1.0000
  H   H226      1.0  0.12096  0.52041  0.04339  1.0000
  H   H227      1.0  0.23656  0.53901  0.15887  1.0000
  H   H228      1.0  0.28624  0.59593  0.32081  1.0000
  C   C286      1.0  0.21360  0.52487  0.31159  1.0000
  C   C287      1.0  0.21722  0.50942  0.28572  1.0000
  C   C288      1.0  0.24321  0.50745  0.28350  1.0000
  C   C289      1.0  0.26530  0.52019  0.30744  1.0000
  C   C290      1.0  0.26168  0.53535  0.33384  1.0000
  C   C291      1.0  0.23588  0.53810  0.33537  1.0000
  P   P7        1.0  0.29033  0.55250  0.36477  1.0000
  C   C292      1.0  0.27224  0.55026  0.40320  1.0000
  C   C293      1.0  0.31082  0.53243  0.36768  1.0000
  C   C294      1.0  0.30495  0.51159  0.39283  1.0000
  C   C295      1.0  0.32015  0.49538  0.39404  1.0000
  C   C296      1.0  0.34129  0.49985  0.37021  1.0000
  C   C297      1.0  0.34761  0.52086  0.34541  1.0000
  C   C298      1.0  0.33260  0.53722  0.34421  1.0000
  C   C299      1.0  0.28492  0.57426  0.42542  1.0000
  C   C300      1.0  0.34601  0.45022  0.11137  1.0000
  C   C301      1.0  0.47529  0.41114  0.03653  1.0000
  C   C302      1.0  0.23061  0.52221  0.44046  1.0000
  C   C303      1.0  0.24504  0.52416  0.41109  1.0000
  C   C304      1.0  0.31635  0.59136  0.35410  1.0000
  C   C305      1.0  0.30818  0.60696  0.33206  1.0000
  C   C306      1.0  0.10872  0.64562  0.48317  1.0000
  H   H229      1.0  0.01988  0.58448  0.09693  1.0000
  C   C307      1.0  0.43581  0.35167  0.01759  1.0000
  C   C308      1.0  0.34515  0.60633  0.36796  1.0000
  H   H230      1.0  0.19327  0.52608  0.31350  1.0000
  H   H231      1.0  0.19970  0.49848  0.26767  1.0000
  H   H232      1.0  0.24581  0.49503  0.26380  1.0000
  H   H233      1.0  0.28467  0.51740  0.30537  1.0000
  H   H234      1.0  0.23267  0.54996  0.35523  1.0000
  H   H235      1.0  0.28824  0.50719  0.41121  1.0000
  H   H236      1.0  0.31507  0.47893  0.41317  1.0000
  H   H237      1.0  0.35261  0.48684  0.37070  1.0000
  H   H238      1.0  0.36376  0.52410  0.32664  1.0000
  H   H239      1.0  0.33753  0.55302  0.32440  1.0000
  C   C309      1.0  0.26511  0.39629  0.04360  1.0000
  H   H240      1.0  0.40556  0.46064  0.17564  1.0000
  P   P8        1.0  0.18894  0.66187  0.44554  1.0000
  C   C310      1.0  0.24330  0.54609  0.46245  1.0000
  C   C311      1.0  0.36652  0.47907  0.12286  1.0000
  H   H241      1.0  0.40936  0.64189  0.15516  1.0000
  H   H242      1.0  0.14139  0.59714  0.45092  1.0000
  H   H243      1.0  0.06007  0.54554  0.03772  1.0000
  P   P9        1.0  0.34454  0.61684  0.15116  1.0000
  C   C312      1.0  0.01725  0.57601  0.01480  1.0000
  H   H244      1.0  0.45258  0.39900  0.46978  1.0000
  H   H245      1.0  0.26724  0.62956  0.42919  1.0000
  C   C313      1.0  0.04591  0.55552  0.03961  1.0000
  C   C314      1.0  0.30879  0.66162  0.40619  1.0000
  C   C315      1.0  0.28998  0.39691  0.05812  1.0000
  H   H246      1.0  0.36780  0.44999  0.04625  1.0000
  C   C316      1.0  0.13739  0.65204  0.26804  1.0000
  H   H247      1.0  0.23894  0.55266  0.01544  1.0000
  S   S46       1.0  0.01612  0.64792  0.10102  1.0000
  H   H248      1.0  0.05004  0.55919  0.09165  1.0000
  C   C317      1.0  0.41467  0.46336  0.04630  1.0000
  C   C318      1.0  0.20920  0.35395  0.47008  1.0000
  C   C319      1.0  0.38178  0.37448  0.05808  1.0000
  C   C320      1.0  0.37559  0.64683  0.12904  1.0000
  H   H249      1.0  0.31052  0.40529  0.04433  1.0000
  C   C321      1.0  0.37894  0.35731  0.31720  1.0000
  H   H250      1.0  0.20707  0.62771  0.48778  1.0000
  S   S47       1.0  0.12959  0.39486  0.48497  1.0000
  H   H251      1.0  0.31859  0.64668  0.18958  1.0000
  H   H252      1.0  0.23191  0.54427  0.48524  1.0000
  C   C322      1.0  0.12228  0.64620  0.21166  1.0000
  H   H253      1.0  0.99770  0.49339  0.99518  1.0000
  H   H254      1.0  0.04338  0.33575  0.33492  1.0000
  C   C323      1.0  0.03439  0.56178  0.01162  1.0000
  C   C324      1.0  0.10350  0.59698  0.47189  1.0000
  H   H255      1.0  0.08824  0.61067  0.00191  1.0000
  C   C325      1.0  0.00078  0.37751  0.38373  1.0000
  C   C326      1.0  0.38119  0.65032  0.24050  1.0000
  H   H256      1.0  0.37638  0.62593  0.28495  1.0000
  H   H257      1.0  0.40969  0.42740  0.46705  1.0000
  H   H258      1.0  0.00606  0.38759  0.35980  1.0000
  H   H259      1.0  0.32130  0.41045  0.47891  1.0000
  H   H260      1.0  0.34353  0.33631  0.44328  1.0000
  C   C327      1.0  0.39514  0.40418  0.47453  1.0000
  C   C328      1.0  0.00048  0.62760  0.16568  1.0000
  C   C329      1.0  0.30862  0.36199  0.14313  1.0000
  C   C330      1.0  0.01243  0.62266  0.28733  1.0000
  H   H261      1.0  0.99807  0.46577  0.14647  1.0000
  C   C331      1.0  0.01644  0.46443  0.99078  1.0000
  C   C332      1.0  0.17805  0.33524  0.46787  1.0000
  H   H262      1.0  0.00000  0.59628  0.04796  1.0000
  H   H263      1.0  0.45071  0.33857  0.06008  1.0000
  C   C333      1.0  0.32008  0.35308  0.05593  1.0000
  H   H264      1.0  0.04930  0.33964  0.39484  1.0000
  H   H265      1.0  0.37387  0.34437  0.01803  1.0000
  C   C334      1.0  0.99963  0.65947  0.26825  1.0000
  H   H266      1.0  0.29599  0.34386  0.05532  1.0000
  Fe  Fe24      1.0  0.33379  0.47445  0.75067  1.0000
  S   S48       1.0  0.34065  0.44799  0.71191  1.0000
  S   S49       1.0  0.36819  0.52308  0.76307  1.0000
  Fe  Fe25      1.0  0.27447  0.42005  0.77172  1.0000
  S   S50       1.0  0.27760  0.38987  0.73380  1.0000
  S   S51       1.0  0.23333  0.39944  0.80449  1.0000
  Fe  Fe26      1.0  0.32618  0.41091  0.74965  1.0000
  S   S52       1.0  0.35526  0.38824  0.75530  1.0000
  Fe  Fe27      1.0  0.29153  0.42960  0.69997  1.0000
  S   S53       1.0  0.27931  0.43172  0.64647  1.0000
  S   S54       1.0  0.32198  0.43873  0.78914  1.0000
  S   S55       1.0  0.28574  0.45830  0.73715  1.0000
  C   C335      1.0  0.41191  0.53078  0.86992  1.0000
  H   H267      1.0  0.27566  0.37743  0.60993  1.0000
  H   H268      1.0  0.20485  0.46780  0.79221  1.0000
  S   S56       1.0  0.45201  0.62216  0.65918  1.0000
  Fe  Fe28      1.0  0.14546  0.42196  0.53121  1.0000
  C   C336      1.0  0.34363  0.36201  0.81759  1.0000
  S   S57       1.0  0.15568  0.40447  0.57853  1.0000
  Fe  Fe29      1.0  0.10437  0.43125  0.96386  1.0000
  S   S58       1.0  0.13266  0.47242  0.93340  1.0000
  S   S59       1.0  0.05409  0.39712  0.95494  1.0000
  Fe  Fe30      1.0  0.17051  0.46330  0.94276  1.0000
  S   S60       1.0  0.20802  0.47786  0.90547  1.0000
  H   H269      1.0  0.20158  0.50103  0.83373  1.0000
  C   C337      1.0  0.28592  0.35208  0.57560  1.0000
  H   H270      1.0  0.47485  0.35958  0.51134  1.0000
  S   S61       1.0  0.11108  0.43701  0.52704  1.0000
  C   C338      1.0  0.36283  0.37515  0.64460  1.0000
  S   S62       1.0  0.08428  0.57893  0.56004  1.0000
  H   H271      1.0  0.42968  0.38009  0.60724  1.0000
  C   C339      1.0  0.42161  0.36256  0.55814  1.0000
  H   H272      1.0  0.41218  0.41169  0.52326  1.0000
  C   C340      1.0  0.37816  0.36496  0.51586  1.0000
  C   C341      1.0  0.14283  0.54124  0.52228  1.0000
  H   H273      1.0  0.09253  0.36694  0.92621  1.0000
  C   C342      1.0  0.13868  0.58380  0.54275  1.0000
  C   C343      1.0  0.10757  0.56521  0.54577  1.0000
  C   C344      1.0  0.09425  0.53468  0.53699  1.0000
  C   C345      1.0  0.11177  0.52270  0.52539  1.0000
  C   C346      1.0  0.47883  0.63894  0.80500  1.0000
  H   H274      1.0  0.14911  0.60731  0.54950  1.0000
  H   H275      1.0  0.07019  0.52018  0.53921  1.0000
  C   C347      1.0  0.41542  0.53280  0.90380  1.0000
  C   C348      1.0  0.02679  0.38878  0.92351  1.0000
  C   C349      1.0  0.03373  0.40440  0.89387  1.0000
  H   H276      1.0  0.05635  0.42263  0.88953  1.0000
  C   C350      1.0  0.09629  0.60880  0.97836  1.0000
  C   C351      1.0  0.22744  0.42135  0.83353  1.0000
  C   C352      1.0  0.24542  0.45277  0.83424  1.0000
  C   C353      1.0  0.23940  0.46960  0.85685  1.0000
  C   C354      1.0  0.21522  0.45526  0.87871  1.0000
  C   C355      1.0  0.19740  0.42381  0.87819  1.0000
  C   C356      1.0  0.20372  0.40694  0.85588  1.0000
  H   H277      1.0  0.26381  0.46409  0.81725  1.0000
  H   H278      1.0  0.25331  0.49392  0.85716  1.0000
  H   H279      1.0  0.17890  0.41253  0.89505  1.0000
  H   H280      1.0  0.19017  0.38259  0.85597  1.0000
  C   C357      1.0  0.24473  0.42581  0.62951  1.0000
  C   C358      1.0  0.24531  0.44084  0.60056  1.0000
  C   C359      1.0  0.21849  0.43488  0.58472  1.0000
  C   C360      1.0  0.19054  0.41324  0.59727  1.0000
  C   C361      1.0  0.19001  0.39827  0.62622  1.0000
  C   C362      1.0  0.21679  0.40472  0.64244  1.0000
  H   H281      1.0  0.26669  0.45715  0.59022  1.0000
  H   H282      1.0  0.21945  0.44678  0.56262  1.0000
  H   H283      1.0  0.16866  0.38124  0.63596  1.0000
  H   H284      1.0  0.21579  0.39261  0.66439  1.0000
  C   C363      1.0  0.39215  0.54935  0.73353  1.0000
  C   C364      1.0  0.38617  0.54454  0.70029  1.0000
  C   C365      1.0  0.40482  0.56693  0.67773  1.0000
  C   C366      1.0  0.42998  0.59393  0.68813  1.0000
  C   C367      1.0  0.43642  0.59830  0.72132  1.0000
  C   C368      1.0  0.41731  0.57630  0.74386  1.0000
  H   H285      1.0  0.36680  0.52393  0.69201  1.0000
  H   H286      1.0  0.39965  0.56338  0.65212  1.0000
  H   H287      1.0  0.45570  0.61895  0.72964  1.0000
  H   H288      1.0  0.42196  0.58016  0.76945  1.0000
  C   C369      1.0  0.36183  0.37068  0.78985  1.0000
  C   C370      1.0  0.01137  0.39617  0.86966  1.0000
  H   H289      1.0  0.33619  0.50234  0.86626  1.0000
  H   H290      1.0  0.02661  0.62048  0.68376  1.0000
  H   H291      1.0  0.10112  0.39161  0.73709  1.0000
  H   H292      1.0  0.10119  0.49915  0.51868  1.0000
  H   H293      1.0  0.37993  0.51842  0.83052  1.0000
  C   C371      1.0  0.07676  0.39195  0.77970  1.0000
  C   C372      1.0  0.48545  0.46796  0.57287  1.0000
  H   H294      1.0  0.43828  0.63491  0.82466  1.0000
  H   H295      1.0  0.45628  0.47465  0.54031  1.0000
  H   H296      1.0  0.02728  0.40625  0.71903  1.0000
  H   H297      1.0  0.49350  0.58625  0.88333  1.0000
  C   C373      1.0  0.02146  0.57922  0.92879  1.0000
  H   H298      1.0  0.33372  0.33945  0.86420  1.0000
  C   C374      1.0  0.28767  0.34623  0.54276  1.0000
  C   C375      1.0  0.15623  0.57182  0.53104  1.0000
  C   C376      1.0  0.08064  0.36126  0.90327  1.0000
  C   C377      1.0  0.04024  0.47090  0.73636  1.0000
  C   C378      1.0  0.41020  0.47387  0.75875  1.0000
  C   C379      1.0  0.43903  0.52552  0.77761  1.0000
  H   H299      1.0  0.26340  0.40369  0.56807  1.0000
  H   H300      1.0  0.41438  0.45633  0.57949  1.0000
  H   H301      1.0  0.39320  0.52541  0.95011  1.0000
  C   C380      1.0  0.04289  0.51764  0.97583  1.0000
  C   C381      1.0  0.46478  0.36381  0.53235  1.0000
  P   P10       1.0  0.44372  0.54204  0.84334  1.0000
  C   C382      1.0  0.39020  0.34861  0.81455  1.0000
  C   C383      1.0  0.35856  0.34385  0.49310  1.0000
  H   H302      1.0  0.43730  0.54130  0.91472  1.0000
  C   C384      1.0  0.37161  0.33945  0.84204  1.0000
  C   C385      1.0  0.13016  0.44175  0.83837  1.0000
  H   H303      1.0  0.36242  0.36859  0.66976  1.0000
  C   C386      1.0  0.41240  0.48471  0.81611  1.0000
  H   H304      1.0  0.15133  0.37770  0.82040  1.0000
  C   C387      1.0  0.45247  0.42761  0.94271  1.0000
  C   C388      1.0  0.43043  0.43073  0.89164  1.0000
  C   C389      1.0  0.39046  0.52382  0.92398  1.0000
  H   H305      1.0  0.04982  0.39677  0.81691  1.0000
  C   C390      1.0  0.46134  0.40871  0.92783  1.0000
  C   C391      1.0  0.38529  0.36402  0.78874  1.0000
  H   H306      1.0  0.01184  0.46364  0.77734  1.0000
  C   C392      1.0  0.00179  0.57908  0.90531  1.0000
  C   C393      1.0  0.08283  0.39416  0.74627  1.0000
  C   C394      1.0  0.01716  0.49201  0.98789  1.0000
  H   H307      1.0  0.01775  0.40455  0.77836  1.0000
  H   H308      1.0  0.42596  0.64280  0.75447  1.0000
  H   H309      1.0  0.43365  0.51249  0.72728  1.0000
  C   C395      1.0  0.43759  0.44694  0.61711  1.0000
  C   C396      1.0  0.43481  0.45652  0.58617  1.0000
  C   C397      1.0  0.45860  0.46693  0.56408  1.0000
  C   C398      1.0  0.45380  0.40004  0.89546  1.0000
  C   C399      1.0  0.43808  0.41076  0.87747  1.0000
  H   H310      1.0  0.18027  0.58621  0.52909  1.0000
  C   C400      1.0  0.12370  0.63255  0.96731  1.0000
  H   H311      1.0  0.43169  0.45483  0.93467  1.0000
  C   C401      1.0  0.35351  0.40391  0.60434  1.0000
  C   C402      1.0  0.40222  0.46394  0.79071  1.0000
  Fe  Fe31      1.0  0.14612  0.47678  0.49873  1.0000
  H   H312      1.0  0.41914  0.58329  0.84536  1.0000
  H   H313      1.0  0.16075  0.41861  0.77973  1.0000
  C   C403      1.0  0.04144  0.40284  0.73595  1.0000
  H   H314      1.0  0.41929  0.43925  0.63437  1.0000
  C   C404      1.0  0.04207  0.46956  0.70260  1.0000
  C   C405      1.0  0.48015  0.43575  0.50212  1.0000
  H   H315      1.0  0.24839  0.48947  0.49833  1.0000
  H   H316      1.0  0.12790  0.60343  0.89481  1.0000
  C   C406      1.0  0.46415  0.44772  0.62598  1.0000
  C   C407      1.0  0.27078  0.38820  0.56062  1.0000
  H   H317      1.0  0.39952  0.37040  0.76750  1.0000
  H   H318      1.0  0.15403  0.48444  0.86318  1.0000
  C   C408      1.0  0.47505  0.51391  0.86595  1.0000
  H   H319      1.0  0.46366  0.62510  0.58526  1.0000
  C   C409      1.0  0.15887  0.43264  0.79801  1.0000
  H   H320      1.0  0.46637  0.44053  0.65009  1.0000
  H   H321      1.0  0.40161  0.45768  0.73909  1.0000
  C   C410      1.0  0.18194  0.47960  0.82779  1.0000
  C   C411      1.0  0.18382  0.46086  0.80453  1.0000
  H   H322      1.0  0.06945  0.40045  0.69860  1.0000
  C   C412      1.0  0.27287  0.38280  0.52759  1.0000
  C   C413      1.0  0.20260  0.37948  0.51596  1.0000
  H   H323      1.0  0.08933  0.53508  0.96112  1.0000
  C   C414      1.0  0.01723  0.55197  0.94190  1.0000
  C   C415      1.0  0.27748  0.37307  0.58449  1.0000
  C   C416      1.0  0.43790  0.43944  0.92405  1.0000
  C   C417      1.0  0.03411  0.33403  0.87337  1.0000
  H   H324      1.0  0.14157  0.52058  0.79362  1.0000
  H   H325      1.0  0.13611  0.65238  0.98231  1.0000
  C   C418      1.0  0.17151  0.36058  0.51389  1.0000
  C   C419      1.0  0.42845  0.50465  0.75217  1.0000
  H   H326      1.0  0.11996  0.39023  0.87547  1.0000
  C   C420      1.0  0.15509  0.47013  0.84455  1.0000
  C   C421      1.0  0.26222  0.48033  0.50655  1.0000
  P   P11       1.0  0.04333  0.55310  0.97213  1.0000
  H   H327      1.0  0.06015  0.47824  0.75107  1.0000
  C   C422      1.0  0.09597  0.37474  0.87449  1.0000
  H   H328      1.0  0.41810  0.43886  0.87764  1.0000
  H   H329      1.0  0.04117  0.44105  0.98463  1.0000
  H   H330      1.0  0.15662  0.64896  0.92907  1.0000
  H   H331      1.0  0.47841  0.50087  0.98214  1.0000
  H   H332      1.0  0.10964  0.43458  0.85196  1.0000
  S   S63       1.0  0.14159  0.42002  0.97059  1.0000
  C   C423      1.0  0.14674  0.39322  0.69277  1.0000
  C   C424      1.0  0.16177  0.38264  0.71217  1.0000
  C   C425      1.0  0.18830  0.40305  0.72793  1.0000
  C   C426      1.0  0.19998  0.43409  0.72409  1.0000
  C   C427      1.0  0.18530  0.44497  0.70418  1.0000
  C   C428      1.0  0.15840  0.42425  0.68877  1.0000
  P   P12       1.0  0.19960  0.48509  0.70041  1.0000
  C   C429      1.0  0.19144  0.49371  0.66032  1.0000
  C   C430      1.0  0.18135  0.49634  0.73019  1.0000
  C   C431      1.0  0.15218  0.47571  0.74099  1.0000
  C   C432      1.0  0.13789  0.48446  0.76374  1.0000
  C   C433      1.0  0.15250  0.51393  0.77567  1.0000
  C   C434      1.0  0.18124  0.53479  0.76453  1.0000
  C   C435      1.0  0.19554  0.52613  0.74169  1.0000
  C   C436      1.0  0.19260  0.47782  0.63322  1.0000
  C   C437      1.0  0.18531  0.48362  0.60235  1.0000
  C   C438      1.0  0.17688  0.50539  0.59820  1.0000
  C   C439      1.0  0.17598  0.52161  0.62493  1.0000
  C   C440      1.0  0.18328  0.51588  0.65589  1.0000
  C   C441      1.0  0.23991  0.50401  0.70606  1.0000
  C   C442      1.0  0.25878  0.50674  0.68006  1.0000
  C   C443      1.0  0.28974  0.51972  0.68482  1.0000
  C   C444      1.0  0.30213  0.52996  0.71554  1.0000
  C   C445      1.0  0.28351  0.52690  0.74166  1.0000
  C   C446      1.0  0.25253  0.51380  0.73705  1.0000
  H   H333      1.0  0.12645  0.37738  0.68006  1.0000
  H   H334      1.0  0.15312  0.35863  0.71466  1.0000
  H   H335      1.0  0.19999  0.39486  0.74305  1.0000
  H   H336      1.0  0.22051  0.44938  0.73669  1.0000
  H   H337      1.0  0.14657  0.43201  0.67335  1.0000
  H   H338      1.0  0.14046  0.45278  0.73221  1.0000
  H   H339      1.0  0.11566  0.46821  0.77246  1.0000
  C   C447      1.0  0.13519  0.63060  0.93732  1.0000
  H   H340      1.0  0.19245  0.55772  0.77360  1.0000
  H   H341      1.0  0.21760  0.54273  0.73289  1.0000
  H   H342      1.0  0.19883  0.46068  0.63600  1.0000
  H   H343      1.0  0.18578  0.47088  0.58164  1.0000
  H   H344      1.0  0.17086  0.50955  0.57427  1.0000
  H   H345      1.0  0.16937  0.53846  0.62157  1.0000
  H   H346      1.0  0.18227  0.52866  0.67617  1.0000
  H   H347      1.0  0.24971  0.49820  0.65624  1.0000
  H   H348      1.0  0.30406  0.52111  0.66483  1.0000
  H   H349      1.0  0.32604  0.53936  0.71937  1.0000
  H   H350      1.0  0.29310  0.53391  0.76567  1.0000
  H   H351      1.0  0.23850  0.51070  0.75787  1.0000
  C   C448      1.0  0.11074  0.35977  0.79190  1.0000
  H   H352      1.0  0.47363  0.40016  0.94127  1.0000
  H   H353      1.0  0.00538  0.60021  0.89518  1.0000
  H   H354      1.0  0.48193  0.39111  0.60919  1.0000
  H   H355      1.0  0.38751  0.44015  0.79573  1.0000
  C   C449      1.0  0.49448  0.56562  0.88308  1.0000
  H   H356      1.0  0.39492  0.40915  0.97311  1.0000
  H   H357      1.0  0.47471  0.42128  0.52313  1.0000
  H   H358      1.0  0.15693  0.36306  0.53103  1.0000
  H   H359      1.0  0.32575  0.49973  0.54949  1.0000
  H   H360      1.0  0.06906  0.60311  0.49399  1.0000
  C   C450      1.0  0.04164  0.46240  0.98244  1.0000
  H   H361      1.0  0.43159  0.40333  0.85265  1.0000
  C   C451      1.0  0.37262  0.37117  0.58748  1.0000
  P   P13       1.0  0.38272  0.35326  0.55588  1.0000
  C   C452      1.0  0.44073  0.59465  0.83333  1.0000
  S   S64       1.0  0.09294  0.63503  0.62902  1.0000
  H   H362      1.0  0.34560  0.41936  0.59831  1.0000
  S   S65       1.0  0.07631  0.65004  0.55725  1.0000
  H   H363      1.0  0.45239  0.54920  0.77165  1.0000
  H   H364      1.0  0.45922  0.49410  0.85266  1.0000
  H   H365      1.0  0.10512  0.65090  0.89488  1.0000
  H   H366      1.0  0.21166  0.39613  0.53506  1.0000
  H   H367      1.0  0.45989  0.38465  0.88444  1.0000
  S   S66       1.0  0.16553  0.52709  0.50725  1.0000
  H   H368      1.0  0.36161  0.39762  0.55489  1.0000
  H   H369      1.0  0.01774  0.45859  0.65745  1.0000
  C   C453      1.0  0.29784  0.45646  0.52700  1.0000
  C   C454      1.0  0.48359  0.63836  0.57059  1.0000
  C   C455      1.0  0.03606  0.40188  0.76931  1.0000
  C   C456      1.0  0.11894  0.60502  0.91802  1.0000
  C   C457      1.0  0.09116  0.58150  0.92870  1.0000
  S   S67       1.0  0.18075  0.46313  0.50622  1.0000
  H   H370      1.0  0.01701  0.40850  0.84701  1.0000
  H   H371      1.0  0.40522  0.47655  0.84060  1.0000
  H   H372      1.0  0.42419  0.37078  0.97770  1.0000
  C   C458      1.0  0.37217  0.36278  0.62012  1.0000
  C   C459      1.0  0.36284  0.39160  0.57978  1.0000
  H   H373      1.0  0.07071  0.33453  0.76275  1.0000
  C   C460      1.0  0.28084  0.36128  0.51881  1.0000
  C   C461      1.0  0.38319  0.51994  0.85660  1.0000
  C   C462      1.0  0.35831  0.51089  0.87681  1.0000
  C   C463      1.0  0.36192  0.51281  0.91049  1.0000
  C   C464      1.0  0.22165  0.37692  0.49349  1.0000
  Fe  Fe32      1.0  0.14625  0.49791  0.98054  1.0000
  C   C465      1.0  0.99875  0.63272  0.65634  1.0000
  C   C466      1.0  0.13210  0.42255  0.81548  1.0000
  C   C467      1.0  0.45146  0.62396  0.82152  1.0000
  C   C468      1.0  0.35348  0.39567  0.63670  1.0000
  S   S68       1.0  0.15128  0.54459  0.98095  1.0000
  C   C469      1.0  0.34840  0.34642  0.84327  1.0000
  C   C470      1.0  0.48521  0.59560  0.81259  1.0000
  C   C471      1.0  0.25404  0.45067  0.49874  1.0000
  P   P14       1.0  0.10005  0.38580  0.80781  1.0000
  H   H374      1.0  0.48696  0.66151  0.79550  1.0000
  C   C472      1.0  0.47358  0.54057  0.86502  1.0000
  C   C473      1.0  0.43119  0.51568  0.80987  1.0000
  H   H375      1.0  0.34583  0.40493  0.65567  1.0000
  H   H376      1.0  0.06343  0.47613  0.69109  1.0000
  H   H377      1.0  0.34254  0.50580  0.92607  1.0000
  C   C474      1.0  0.14538  0.34060  0.79120  1.0000
  Fe  Fe33      1.0  0.10014  0.62679  0.57702  1.0000
  H   H378      1.0  0.04002  0.60069  0.93674  1.0000
  H   H379      1.0  0.29077  0.34020  0.59425  1.0000
  C   C475      1.0  0.48157  0.37569  0.56058  1.0000
  Fe  Fe34      1.0  0.07156  0.66058  0.60926  1.0000
  C   C476      1.0  0.01274  0.46277  0.75117  1.0000
  C   C477      1.0  0.05401  0.39700  0.79114  1.0000
  C   C478      1.0  0.00489  0.61886  0.68229  1.0000
  C   C479      1.0  0.07985  0.58302  0.95923  1.0000
  H   H380      1.0  0.09944  0.65903  0.49220  1.0000
  H   H381      1.0  0.37854  0.34625  0.62660  1.0000
  H   H382      1.0  0.32537  0.36667  0.81899  1.0000
  C   C480      1.0  0.43891  0.37513  0.58623  1.0000
  C   C481      1.0  0.06508  0.39939  0.72446  1.0000
  C   C482      1.0  0.06768  0.48802  0.97167  1.0000
  C   C483      1.0  0.46874  0.38159  0.58741  1.0000
  H   H383      1.0  0.40805  0.34338  0.81291  1.0000
  H   H384      1.0  0.07866  0.56193  0.91339  1.0000
  C   C484      1.0  0.30584  0.48608  0.53511  1.0000
  C   C485      1.0  0.45746  0.58014  0.82875  1.0000
  H   H385      1.0  0.31203  0.44767  0.53479  1.0000
  Fe  Fe35      1.0  0.47732  0.33876  0.91204  1.0000
  C   C486      1.0  0.01632  0.45967  0.68365  1.0000
  C   C487      1.0  0.28798  0.49798  0.52495  1.0000
  C   C488      1.0  0.27159  0.43841  0.50914  1.0000
  C   C489      1.0  0.06845  0.51557  0.96857  1.0000
  H   H386      1.0  0.38153  0.64419  0.77528  1.0000
  C   C490      1.0  0.48804  0.45821  0.60398  1.0000
  H   H387      1.0  0.08749  0.48665  0.96596  1.0000
  C   C491      1.0  0.13712  0.36099  0.80282  1.0000
  H   H388      1.0  0.18394  0.65595  0.51633  1.0000
  C   C492      1.0  0.43504  0.35746  0.53105  1.0000
  C   C493      1.0  0.39641  0.39521  0.50633  1.0000
  C   C494      1.0  0.08030  0.36836  0.84497  1.0000
  H   H389      1.0  0.29404  0.52083  0.53137  1.0000
  H   H390      1.0  0.15861  0.60300  0.98885  1.0000
  H   H391      1.0  0.42250  0.34844  0.50881  1.0000
  S   S69       1.0  0.02616  0.65494  0.62603  1.0000
  P   P15       1.0  0.26183  0.40073  0.49718  1.0000
  H   H392      1.0  0.16619  0.34223  0.79939  1.0000
  C   C495      1.0  0.40285  0.66497  0.77288  1.0000
  S   S70       1.0  0.18619  0.49209  0.98762  1.0000
  C   C496      1.0  0.09187  0.33681  0.77038  1.0000
  C   C497      1.0  0.04940  0.34724  0.84448  1.0000
  C   C498      1.0  0.42791  0.66413  0.76132  1.0000
  C   C499      1.0  0.99706  0.36512  0.92847  1.0000
  H   H393      1.0  0.17298  0.66141  0.75415  1.0000
  C   C500      1.0  0.49571  0.62479  0.80056  1.0000
  C   C501      1.0  0.04972  0.34109  0.90274  1.0000
  H   H394      1.0  0.03692  0.34120  0.82195  1.0000
  C   C502      1.0  0.48781  0.66432  0.55469  1.0000
  C   C503      1.0  0.49593  0.47051  0.98760  1.0000
  H   H395      1.0  0.28114  0.35565  0.49354  1.0000
  P   P16       1.0  0.45964  0.43651  0.98537  1.0000
  C   C504      1.0  0.15919  0.33871  0.48962  1.0000
  H   H396      1.0  0.39122  0.69729  0.06733  1.0000
  Fe  Fe36      1.0  0.31858  0.83567  0.32575  1.0000
  S   S71       1.0  0.31051  0.86642  0.35731  1.0000
  S   S72       1.0  0.36170  0.83385  0.32059  1.0000
  Fe  Fe37      1.0  0.25483  0.80608  0.29746  1.0000
  S   S73       1.0  0.24280  0.83561  0.32699  1.0000
  S   S74       1.0  0.22233  0.76305  0.27054  1.0000
  Fe  Fe38      1.0  0.28938  0.87387  0.31245  1.0000
  S   S75       1.0  0.30372  0.92362  0.30014  1.0000
  Fe  Fe39      1.0  0.26494  0.82562  0.36889  1.0000
  S   S76       1.0  0.25022  0.81074  0.42222  1.0000
  S   S77       1.0  0.29934  0.84437  0.28054  1.0000
  S   S78       1.0  0.27510  0.79487  0.33981  1.0000
  Fe  Fe40      1.0  0.13322  0.71093  0.10523  1.0000
  S   S79       1.0  0.10011  0.71391  0.07164  1.0000
  S   S80       1.0  0.16632  0.75430  0.13064  1.0000
  C   C505      1.0  0.30568  0.83184  0.11897  1.0000
  Fe  Fe41      1.0  0.11667  0.69335  0.03439  1.0000
  H   H397      1.0  0.20661  0.86253  0.48498  1.0000
  H   H398      1.0  0.46351  0.88919  0.05510  1.0000
  H   H399      1.0  0.16481  0.72151  0.36863  1.0000
  S   S81       1.0  0.15072  0.69195  0.06757  1.0000
  H   H400      1.0  0.12360  0.67717  0.29784  1.0000
  C   C506      1.0  0.30742  0.80797  0.01129  1.0000
  C   C507      1.0  0.21777  0.78340  0.44444  1.0000
  C   C508      1.0  0.39827  0.93855  0.26485  1.0000
  P   P17       1.0  0.25190  0.78943  0.04053  1.0000
  H   H401      1.0  0.45891  0.94237  0.27195  1.0000
  C   C509      1.0  0.16356  0.75299  0.45299  1.0000
  C   C510      1.0  0.18843  0.77188  0.43297  1.0000
  C   C511      1.0  0.24959  0.78095  0.10745  1.0000
  H   H402      1.0  0.39503  0.96709  0.22784  1.0000
  H   H403      1.0  0.14106  0.74505  0.44410  1.0000
  H   H404      1.0  0.18486  0.77841  0.40914  1.0000
  C   C512      1.0  0.20710  0.76123  0.23157  1.0000
  C   C513      1.0  0.18827  0.73277  0.21769  1.0000
  C   C514      1.0  0.17539  0.73024  0.18688  1.0000
  C   C515      1.0  0.18130  0.75622  0.16971  1.0000
  C   C516      1.0  0.19998  0.78466  0.18365  1.0000
  C   C517      1.0  0.21286  0.78720  0.21448  1.0000
  H   H405      1.0  0.18357  0.71258  0.23088  1.0000
  H   H406      1.0  0.16100  0.70828  0.17636  1.0000
  H   H407      1.0  0.20462  0.80485  0.17046  1.0000
  H   H408      1.0  0.22717  0.80921  0.22500  1.0000
  C   C518      1.0  0.37094  0.92084  0.21395  1.0000
  C   C519      1.0  0.32268  0.95029  0.26772  1.0000
  C   C520      1.0  0.32135  0.94152  0.23530  1.0000
  C   C521      1.0  0.22414  0.69900  0.04298  1.0000
  H   H409      1.0  0.30936  0.91777  0.22935  1.0000
  C   C522      1.0  0.43394  0.86108  0.39947  1.0000
  C   C523      1.0  0.43738  0.85099  0.36918  1.0000
  C   C524      1.0  0.41560  0.84388  0.34489  1.0000
  C   C525      1.0  0.38972  0.84573  0.35098  1.0000
  C   C526      1.0  0.38650  0.85620  0.38113  1.0000
  C   C527      1.0  0.40872  0.86417  0.40511  1.0000
  H   H410      1.0  0.45685  0.84880  0.36441  1.0000
  H   H411      1.0  0.41863  0.83645  0.32139  1.0000
  H   H412      1.0  0.36680  0.85794  0.38605  1.0000
  H   H413      1.0  0.40615  0.87237  0.42834  1.0000
  H   H414      1.0  0.24410  0.78333  0.48507  1.0000
  H   H415      1.0  0.24659  0.77508  0.15937  1.0000
  C   C528      1.0  0.48003  0.69336  0.00832  1.0000
  C   C529      1.0  0.38902  0.94447  0.23496  1.0000
  C   C530      1.0  0.42431  0.69212  0.09397  1.0000
  H   H416      1.0  0.46272  0.90381  0.17407  1.0000
  H   H417      1.0  0.25697  0.84734  0.02234  1.0000
  H   H418      1.0  0.48279  0.91933  0.36314  1.0000
  H   H419      1.0  0.13562  0.78100  0.17646  1.0000
  H   H420      1.0  0.09629  0.75435  0.13494  1.0000
  C   C531      1.0  0.26037  0.78853  0.13918  1.0000
  C   C532      1.0  0.40498  0.75769  0.37973  1.0000
  H   H421      1.0  0.03614  0.70143  0.25090  1.0000
  C   C533      1.0  0.31879  0.81204  0.43987  1.0000
  H   H422      1.0  0.44342  0.94324  0.99253  1.0000
  C   C534      1.0  0.43921  0.87548  0.13331  1.0000
  C   C535      1.0  0.42926  0.67640  0.11868  1.0000
  H   H423      1.0  0.22120  0.86591  0.02552  1.0000
  H   H424      1.0  0.35280  0.99124  0.38254  1.0000
  C   C536      1.0  0.47647  0.94649  0.02704  1.0000
  C   C537      1.0  0.33809  0.98151  0.27455  1.0000
  C   C538      1.0  0.21465  0.73848  0.00463  1.0000
  C   C539      1.0  0.22046  0.69403  0.39038  1.0000
  H   H425      1.0  0.26618  0.66762  0.46555  1.0000
  C   C540      1.0  0.34505  0.77621  0.42958  1.0000
  C   C541      1.0  0.12320  0.66879  0.27363  1.0000
  H   H426      1.0  0.46897  0.67433  0.02482  1.0000
  H   H427      1.0  0.38185  0.81004  0.45841  1.0000
  H   H428      1.0  0.34766  0.77018  0.36044  1.0000
  C   C542      1.0  0.35991  0.80264  0.44821  1.0000
  C   C543      1.0  0.20571  0.72250  0.35551  1.0000
  P   P18       1.0  0.36118  0.75234  0.42365  1.0000
  C   C544      1.0  0.22521  0.80238  0.03962  1.0000
  C   C545      1.0  0.41667  0.78493  0.45449  1.0000
  C   C546      1.0  0.33108  0.71350  0.42464  1.0000
  C   C547      1.0  0.18528  0.82437  0.04503  1.0000
  C   C548      1.0  0.33465  0.96348  0.21031  1.0000
  H   H429      1.0  0.36372  0.86186  0.25897  1.0000
  C   C549      1.0  0.10871  0.67467  0.24812  1.0000
  H   H430      1.0  0.18910  0.76130  0.06054  1.0000
  H   H431      1.0  0.32702  0.85201  0.12357  1.0000
  C   C550      1.0  0.45907  0.94320  0.29822  1.0000
  C   C551      1.0  0.37100  0.88497  0.25208  1.0000
  Fe  Fe42      1.0  0.06683  0.66673  0.08994  1.0000
  C   C552      1.0  0.11668  0.75884  0.18178  1.0000
  C   C553      1.0  0.09458  0.74375  0.15826  1.0000
  C   C554      1.0  0.07080  0.71469  0.16448  1.0000
  C   C555      1.0  0.06921  0.70070  0.19419  1.0000
  C   C556      1.0  0.09132  0.71571  0.21805  1.0000
  C   C557      1.0  0.11528  0.74483  0.21143  1.0000
  C   C558      1.0  0.36191  0.89110  0.22250  1.0000
  C   C559      1.0  0.37376  0.95230  0.33259  1.0000
  C   C560      1.0  0.10939  0.72305  0.28755  1.0000
  C   C561      1.0  0.09319  0.72774  0.31201  1.0000
  C   C562      1.0  0.10835  0.74801  0.33726  1.0000
  C   C563      1.0  0.13972  0.76380  0.33821  1.0000
  C   C564      1.0  0.15597  0.75935  0.31392  1.0000
  C   C565      1.0  0.14090  0.73904  0.28876  1.0000
  H   H432      1.0  0.36569  0.92934  0.32473  1.0000
  H   H433      1.0  0.30509  0.74801  0.40124  1.0000
  H   H434      1.0  0.09696  0.66695  0.19720  1.0000
  C   C566      1.0  0.22164  0.77463  0.47576  1.0000
  H   H435      1.0  0.15429  0.78071  0.06521  1.0000
  C   C567      1.0  0.38822  0.75871  0.45511  1.0000
  C   C568      1.0  0.39503  0.68514  0.08657  1.0000
  H   H436      1.0  0.45718  0.94205  0.39238  1.0000
  C   C569      1.0  0.29504  0.82418  0.08712  1.0000
  C   C570      1.0  0.22586  0.71278  0.36341  1.0000
  H   H437      1.0  0.06891  0.71582  0.31179  1.0000
  H   H438      1.0  0.41478  0.75178  0.39966  1.0000
  H   H439      1.0  0.42188  0.85120  0.08853  1.0000
  H   H440      1.0  0.05384  0.70276  0.14606  1.0000
  H   H441      1.0  0.34735  0.87273  0.20659  1.0000
  C   C571      1.0  0.47253  0.93001  0.34957  1.0000
  C   C572      1.0  0.43956  0.87144  0.09980  1.0000
  H   H442      1.0  0.09577  0.75154  0.35610  1.0000
  H   H443      1.0  0.15148  0.77961  0.35768  1.0000
  H   H444      1.0  0.18033  0.77172  0.31441  1.0000
  H   H445      1.0  0.15390  0.73586  0.27021  1.0000
  C   C573      1.0  0.19478  0.68486  0.40970  1.0000
  H   H446      1.0  0.15169  0.68424  0.47304  1.0000
  C   C574      1.0  0.23821  0.72967  0.05095  1.0000
  C   C575      1.0  0.34675  0.82040  0.45335  1.0000
  P   P19       1.0  0.09029  0.69627  0.25522  1.0000
  C   C576      1.0  0.44409  0.95596  0.34876  1.0000
  C   C577      1.0  0.37922  0.76011  0.38433  1.0000
  H   H447      1.0  0.37156  0.77930  0.30705  1.0000
  H   H448      1.0  0.33934  0.98878  0.29938  1.0000
  C   C578      1.0  0.20543  0.68813  0.01581  1.0000
  H   H449      1.0  0.22771  0.68361  0.05784  1.0000
  C   C579      1.0  0.44422  0.95597  0.31461  1.0000
  H   H450      1.0  0.22718  0.76194  0.10363  1.0000
  C   C580      1.0  0.46311  0.89315  0.08088  1.0000
  H   H451      1.0  0.45998  0.80967  0.47741  1.0000
  H   H452      1.0  0.39463  0.90284  0.29659  1.0000
  C   C581      1.0  0.44353  0.99777  0.12057  1.0000
  H   H453      1.0  0.24995  0.86076  0.46136  1.0000
  C   C582      1.0  0.38870  0.90844  0.27339  1.0000
  H   H454      1.0  0.35982  0.71691  0.48110  1.0000
  C   C583      1.0  0.05154  0.67102  0.26642  1.0000
  C   C584      1.0  0.27935  0.80606  0.00834  1.0000
  H   H455      1.0  0.38168  0.96988  0.99702  1.0000
  H   H456      1.0  0.29629  0.82008  0.16971  1.0000
  S   S82       1.0  0.46055  0.87021  0.43091  1.0000
  C   C585      1.0  0.23309  0.74953  0.03206  1.0000
  C   C586      1.0  0.19626  0.78398  0.05222  1.0000
  H   H457      1.0  0.30888  0.82614  0.44337  1.0000
  H   H458      1.0  0.35858  0.84106  0.46720  1.0000
  H   H459      1.0  0.21005  0.73732  0.33486  1.0000
  C   C587      1.0  0.26718  0.79825  0.08108  1.0000
  H   H460      1.0  0.25313  0.73773  0.07160  1.0000
  C   C588      1.0  0.02984  0.67952  0.26112  1.0000
  H   H461      1.0  0.42113  0.85849  0.14802  1.0000
  H   H462      1.0  0.33277  0.95620  0.18539  1.0000
  C   C589      1.0  0.43796  0.78957  0.47822  1.0000
  C   C590      1.0  0.28839  0.81394  0.14497  1.0000
  C   C591      1.0  0.46261  0.90107  0.14798  1.0000
  C   C592      1.0  0.41874  0.76335  0.34924  1.0000
  C   C593      1.0  0.38056  0.77258  0.32714  1.0000
  H   H463      1.0  0.43110  0.97419  0.12752  1.0000
  C   C594      1.0  0.23433  0.83226  0.03074  1.0000
  C   C595      1.0  0.46576  0.94658  0.99581  1.0000
  C   C596      1.0  0.30384  0.78580  0.42133  1.0000
  H   H464      1.0  0.28223  0.77950  0.41068  1.0000
  H   H465      1.0  0.46231  0.94337  0.04778  1.0000
  H   H466      1.0  0.13329  0.75666  0.22864  1.0000
  H   H467      1.0  0.36327  0.92562  0.19141  1.0000
  H   H468      1.0  0.24450  0.72199  0.44694  1.0000
  H   H469      1.0  0.15480  0.68851  0.41570  1.0000
  H   H470      1.0  0.41759  0.77585  0.29951  1.0000
  C   C597      1.0  0.36632  0.98715  0.36545  1.0000
  C   C598      1.0  0.23793  0.71400  0.47152  1.0000
  H   H471      1.0  0.44519  0.70481  0.01136  1.0000
  C   C599      1.0  0.48621  0.91939  0.09530  1.0000
  C   C600      1.0  0.48624  0.92277  0.12913  1.0000
  C   C601      1.0  0.33184  0.69178  0.40459  1.0000
  H   H472      1.0  0.47638  0.76763  0.04991  1.0000
  H   H473      1.0  0.23660  0.68716  0.39652  1.0000
  C   C602      1.0  0.35699  0.95773  0.35546  1.0000
  C   C603      1.0  0.18015  0.71351  0.37449  1.0000
  H   H474      1.0  0.15808  0.76969  0.99431  1.0000
  C   C604      1.0  0.16745  0.74473  0.48456  1.0000
  C   C605      1.0  0.17645  0.79499  0.05502  1.0000
  H   H475      1.0  0.30815  0.83895  0.06744  1.0000
  H   H476      1.0  0.16980  0.83276  0.04706  1.0000
  C   C606      1.0  0.31691  0.76801  0.41607  1.0000
  H   H477      1.0  0.42253  0.80173  0.43552  1.0000
  H   H478      1.0  0.33611  0.93907  0.36454  1.0000
  H   H479      1.0  0.05096  0.67796  0.19824  1.0000
  H   H480      1.0  0.35021  0.69805  0.38778  1.0000
  H   H481      1.0  0.44321  0.70960  0.08057  1.0000
  C   C607      1.0  0.47316  0.93030  0.31567  1.0000
  C   C608      1.0  0.28436  0.67433  0.44835  1.0000
  C   C609      1.0  0.21423  0.84301  0.03290  1.0000
  C   C610      1.0  0.36708  0.76753  0.35773  1.0000
  P   P20       1.0  0.42280  0.96900  0.29174  1.0000
  H   H482      1.0  0.44909  0.98857  0.07100  1.0000
  H   H483      1.0  0.45186  0.68131  0.12413  1.0000
  C   C611      1.0  0.40654  0.77080  0.32295  1.0000
  H   H484      1.0  0.43923  0.76253  0.34613  1.0000
  H   H485      1.0  0.24585  0.72022  0.34878  1.0000
  C   C612      1.0  0.46661  0.71046  0.00074  1.0000
  H   H486      1.0  0.31325  0.80046  0.03327  1.0000
  H   H487      1.0  0.30673  0.72069  0.46316  1.0000
  H   H488      1.0  0.43253  0.96519  0.36219  1.0000
  C   C613      1.0  0.40025  0.97633  0.31975  1.0000
  C   C614      1.0  0.45809  0.94289  0.36608  1.0000
  C   C615      1.0  0.34981  0.99468  0.21711  1.0000
  C   C616      1.0  0.17464  0.69476  0.40143  1.0000
  C   C617      1.0  0.30736  0.70446  0.44685  1.0000
  H   H489      1.0  0.49152  0.97870  0.10309  1.0000
  H   H490      1.0  0.37287  0.67515  0.33182  1.0000
  C   C618      1.0  0.38144  0.73734  0.47994  1.0000
  H   H491      1.0  0.48399  0.91985  0.30298  1.0000
  C   C619      1.0  0.24360  0.85425  0.48648  1.0000
  C   C620      1.0  0.21209  0.68605  0.47807  1.0000
  C   C621      1.0  0.20080  0.70792  0.99659  1.0000
  H   H492      1.0  0.38259  0.66841  0.19313  1.0000
  H   H493      1.0  0.39697  0.67210  0.25071  1.0000
  H   H494      1.0  0.21122  0.75362  0.98925  1.0000
  C   C622      1.0  0.40538  0.98385  0.99145  1.0000
  S   S83       1.0  0.46122  0.89015  0.89802  1.0000
  Fe  Fe43      1.0  0.30531  0.83472  0.81913  1.0000
  S   S84       1.0  0.30553  0.86809  0.85436  1.0000
  S   S85       1.0  0.33772  0.81686  0.82187  1.0000
  Fe  Fe44      1.0  0.25206  0.83014  0.78189  1.0000
  S   S86       1.0  0.24910  0.86340  0.81517  1.0000
  S   S87       1.0  0.22010  0.81508  0.73900  1.0000
  Fe  Fe45      1.0  0.29948  0.89079  0.80983  1.0000
  S   S88       1.0  0.32885  0.94242  0.80221  1.0000
  Fe  Fe46      1.0  0.25499  0.83702  0.85598  1.0000
  S   S89       1.0  0.22847  0.82452  0.90458  1.0000
  S   S90       1.0  0.30192  0.85867  0.77483  1.0000
  S   S91       1.0  0.25532  0.80260  0.82267  1.0000
  Fe  Fe47      1.0  0.13676  0.67858  0.62304  1.0000
  S   S92       1.0  0.11536  0.70526  0.60628  1.0000
  S   S93       1.0  0.17225  0.69203  0.66222  1.0000
  H   H495      1.0  0.46717  0.97779  0.65367  1.0000
  Fe  Fe48      1.0  0.12208  0.69239  0.55566  1.0000
  H   H496      1.0  0.19131  0.84660  0.54172  1.0000
  H   H497      1.0  0.28577  0.83070  0.93005  1.0000
  C   C623      1.0  0.48615  0.83384  0.55961  1.0000
  H   H498      1.0  0.40879  0.97884  0.74515  1.0000
  C   C624      1.0  0.11046  0.77147  0.59815  1.0000
  H   H499      1.0  0.19275  0.74827  0.82381  1.0000
  C   C625      1.0  0.20069  0.79059  0.92466  1.0000
  C   C626      1.0  0.18888  0.79302  0.95464  1.0000
  H   H500      1.0  0.45496  0.93915  0.55863  1.0000
  C   C627      1.0  0.15665  0.73822  0.95919  1.0000
  C   C628      1.0  0.16813  0.73573  0.92896  1.0000
  C   C629      1.0  0.19016  0.76160  0.91201  1.0000
  C   C630      1.0  0.47648  0.95345  0.80753  1.0000
  H   H501      1.0  0.20039  0.74921  0.51961  1.0000
  H   H502      1.0  0.16015  0.71361  0.91868  1.0000
  H   H503      1.0  0.19893  0.75909  0.88912  1.0000
  C   C631      1.0  0.20697  0.78055  0.71844  1.0000
  C   C632      1.0  0.18535  0.77284  0.69398  1.0000
  C   C633      1.0  0.17490  0.74604  0.67623  1.0000
  C   C634      1.0  0.18558  0.72641  0.68325  1.0000
  C   C635      1.0  0.20720  0.73410  0.70775  1.0000
  C   C636      1.0  0.21787  0.76108  0.72535  1.0000
  H   H504      1.0  0.17658  0.78763  0.68880  1.0000
  H   H505      1.0  0.15841  0.74051  0.65735  1.0000
  H   H506      1.0  0.21568  0.71909  0.71316  1.0000
  H   H507      1.0  0.23452  0.76685  0.74417  1.0000
  C   C637      1.0  0.32825  0.95510  0.73577  1.0000
  C   C638      1.0  0.34057  0.96584  0.76654  1.0000
  C   C639      1.0  0.11545  0.71073  0.73571  1.0000
  H   H508      1.0  0.31126  0.93162  0.73294  1.0000
  C   C640      1.0  0.18802  0.72912  0.80879  1.0000
  C   C641      1.0  0.42687  0.86896  0.87717  1.0000
  C   C642      1.0  0.41705  0.83972  0.86594  1.0000
  C   C643      1.0  0.38944  0.82379  0.84945  1.0000
  C   C644      1.0  0.37158  0.83697  0.84397  1.0000
  C   C645      1.0  0.38136  0.86610  0.85542  1.0000
  C   C646      1.0  0.40891  0.88202  0.87187  1.0000
  H   H509      1.0  0.43065  0.82940  0.87005  1.0000
  H   H510      1.0  0.38177  0.80110  0.84108  1.0000
  H   H511      1.0  0.36791  0.87653  0.85121  1.0000
  H   H512      1.0  0.41642  0.90465  0.88041  1.0000
  H   H513      1.0  0.49368  0.92452  0.55103  1.0000
  H   H514      1.0  0.42310  0.97399  0.68176  1.0000
  C   C647      1.0  0.10239  0.66853  0.88384  1.0000
  C   C648      1.0  0.05368  0.68419  0.74593  1.0000
  H   H515      1.0  0.34949  0.82024  0.98773  1.0000
  H   H516      1.0  0.47478  0.94875  0.94441  1.0000
  C   C649      1.0  0.43574  0.75576  0.83234  1.0000
  C   C650      1.0  0.41319  0.75713  0.85016  1.0000
  C   C651      1.0  0.12463  0.77031  0.56975  1.0000
  C   C652      1.0  0.15595  0.78607  0.56770  1.0000
  C   C653      1.0  0.17343  0.80361  0.59392  1.0000
  C   C654      1.0  0.45811  0.71841  0.76725  1.0000
  P   P21       1.0  0.21397  0.82231  0.59180  1.0000
  C   C655      1.0  0.23068  0.85437  0.61902  1.0000
  C   C656      1.0  0.22540  0.79541  0.60288  1.0000
  C   C657      1.0  0.25240  0.80476  0.61974  1.0000
  C   C658      1.0  0.26035  0.78360  0.62972  1.0000
  C   C659      1.0  0.24185  0.75312  0.62222  1.0000
  C   C660      1.0  0.21568  0.74388  0.60428  1.0000
  C   C661      1.0  0.20739  0.76484  0.59468  1.0000
  C   C662      1.0  0.24240  0.88393  0.60712  1.0000
  C   C663      1.0  0.25585  0.90855  0.62831  1.0000
  C   C664      1.0  0.25761  0.90389  0.66149  1.0000
  C   C665      1.0  0.24585  0.87459  0.67355  1.0000
  C   C666      1.0  0.23244  0.84996  0.65247  1.0000
  C   C667      1.0  0.22587  0.83516  0.55070  1.0000
  C   C668      1.0  0.21037  0.84580  0.53181  1.0000
  C   C669      1.0  0.10438  0.70704  0.76756  1.0000
  C   C670      1.0  0.08786  0.68097  0.90103  1.0000
  C   C671      1.0  0.09598  0.71479  0.85604  1.0000
  C   C672      1.0  0.25072  0.83475  0.53732  1.0000
  H   H517      1.0  0.11140  0.75641  0.54957  1.0000
  H   H518      1.0  0.16640  0.78395  0.54580  1.0000
  H   H519      1.0  0.47779  0.75439  0.89562  1.0000
  H   H520      1.0  0.26707  0.82826  0.62576  1.0000
  H   H521      1.0  0.28050  0.79074  0.64392  1.0000
  H   H522      1.0  0.24731  0.73648  0.63094  1.0000
  H   H523      1.0  0.20108  0.72019  0.59905  1.0000
  H   H524      1.0  0.18663  0.75686  0.58144  1.0000
  H   H525      1.0  0.24135  0.88817  0.58156  1.0000
  H   H526      1.0  0.26499  0.93132  0.61902  1.0000
  H   H527      1.0  0.26807  0.92295  0.67791  1.0000
  H   H528      1.0  0.24711  0.87087  0.69932  1.0000
  H   H529      1.0  0.22366  0.82748  0.66235  1.0000
  H   H530      1.0  0.33586  0.83539  0.93605  1.0000
  H   H531      1.0  0.11663  0.78903  0.64669  1.0000
  H   H532      1.0  0.26307  0.82670  0.55133  1.0000
  C   C673      1.0  0.14682  0.76099  0.80522  1.0000
  C   C674      1.0  0.14874  0.77886  0.77840  1.0000
  C   C675      1.0  0.16096  0.81000  0.78190  1.0000
  C   C676      1.0  0.17148  0.82357  0.81208  1.0000
  C   C677      1.0  0.17008  0.80607  0.83879  1.0000
  C   C678      1.0  0.15791  0.77496  0.83540  1.0000
  H   H533      1.0  0.23262  0.73597  0.81442  1.0000
  H   H534      1.0  0.16319  0.82375  0.76089  1.0000
  H   H535      1.0  0.18144  0.84778  0.81459  1.0000
  H   H536      1.0  0.17886  0.81669  0.86208  1.0000
  H   H537      1.0  0.15733  0.76191  0.85637  1.0000
  C   C679      1.0  0.47792  0.98130  0.85558  1.0000
  C   C680      1.0  0.36312  0.74491  0.73603  1.0000
  H   H538      1.0  0.39466  0.75739  0.83819  1.0000
  C   C681      1.0  0.15424  0.68666  0.77538  1.0000
  C   C682      1.0  0.43118  0.76804  0.50255  1.0000
  C   C683      1.0  0.45558  0.69080  0.75887  1.0000
  C   C684      1.0  0.38119  0.78998  0.76851  1.0000
  C   C685      1.0  0.48692  0.81223  0.79162  1.0000
  C   C686      1.0  0.43266  0.71965  0.77728  1.0000
  C   C687      1.0  0.21909  0.85507  0.49974  1.0000
  C   C688      1.0  0.41438  0.75816  0.88409  1.0000
  C   C689      1.0  0.40528  0.69257  0.78122  1.0000
  C   C690      1.0  0.15899  0.80454  0.62243  1.0000
  H   H539      1.0  0.34265  0.77275  0.73721  1.0000
  H   H540      1.0  0.48516  0.73757  0.54235  1.0000
  C   C691      1.0  0.48354  0.95009  0.96867  1.0000
  H   H541      1.0  0.34739  0.72930  0.71843  1.0000
  H   H542      1.0  0.37924  0.80910  0.77643  1.0000
  C   C692      1.0  0.41506  0.95054  0.77987  1.0000
  S   S94       1.0  0.14587  0.66804  0.57248  1.0000
  C   C693      1.0  0.41597  0.98289  0.96051  1.0000
  C   C694      1.0  0.09583  0.70106  0.70927  1.0000
  H   H543      1.0  0.47102  0.67104  0.55678  1.0000
  H   H544      1.0  0.14146  0.76913  0.75458  1.0000
  C   C695      1.0  0.40526  0.92054  0.78898  1.0000
  C   C696      1.0  0.38409  0.89661  0.77021  1.0000
  C   C697      1.0  0.37238  0.90241  0.74229  1.0000
  C   C698      1.0  0.38154  0.93212  0.73338  1.0000
  C   C699      1.0  0.40275  0.95612  0.75209  1.0000
  C   C700      1.0  0.11434  0.67962  0.85302  1.0000
  H   H545      1.0  0.41995  0.80190  0.79789  1.0000
  H   H546      1.0  0.38576  0.69284  0.79057  1.0000
  H   H547      1.0  0.35440  0.95399  0.87573  1.0000
  H   H548      1.0  0.46875  0.94568  0.78310  1.0000
  C   C701      1.0  0.25957  0.84437  0.50533  1.0000
  H   H549      1.0  0.19649  0.81515  0.96475  1.0000
  C   C702      1.0  0.24691  0.72363  0.52916  1.0000
  P   P22       1.0  0.44186  0.98142  0.80473  1.0000
  C   C703      1.0  0.36274  0.99653  0.76943  1.0000
  C   C704      1.0  0.08440  0.70388  0.88700  1.0000
  C   C705      1.0  0.36055  0.76947  0.74637  1.0000
  H   H550      1.0  0.41350  0.91554  0.81094  1.0000
  H   H551      1.0  0.37618  0.87350  0.77778  1.0000
  H   H552      1.0  0.35552  0.88383  0.72812  1.0000
  H   H553      1.0  0.37151  0.93655  0.71250  1.0000
  C   C706      1.0  0.46698  0.97111  0.82415  1.0000
  H   H554      1.0  0.46358  0.76747  0.72442  1.0000
  C   C707      1.0  0.33757  0.97488  0.70867  1.0000
  C   C708      1.0  0.12763  0.78854  0.62449  1.0000
  H   H555      1.0  0.38241  0.94352  0.83497  1.0000
  H   H556      1.0  0.43883  0.75853  0.92675  1.0000
  H   H557      1.0  0.25994  0.73836  0.54888  1.0000
  H   H558      1.0  0.08618  0.75858  0.59994  1.0000
  H   H559      1.0  0.46431  0.82196  0.54814  1.0000
  H   H560      1.0  0.17175  0.81730  0.64327  1.0000
  C   C709      1.0  0.07330  0.69384  0.77251  1.0000
  C   C710      1.0  0.40601  0.76030  0.77169  1.0000
  C   C711      1.0  0.46591  0.99801  0.65744  1.0000
  H   H561      1.0  0.46648  0.98450  0.59034  1.0000
  C   C712      1.0  0.48334  0.97789  0.58809  1.0000
  H   H562      1.0  0.06412  0.69092  0.79671  1.0000
  C   C713      1.0  0.22135  0.69586  0.53590  1.0000
  H   H563      1.0  0.32760  0.96626  0.68517  1.0000
  H   H564      1.0  0.24957  0.81124  0.97497  1.0000
  H   H565      1.0  0.39783  0.72531  0.52233  1.0000
  C   C714      1.0  0.17706  0.67999  0.76990  1.0000
  H   H566      1.0  0.48330  0.79358  0.57956  1.0000
  P   P23       1.0  0.13037  0.72056  0.80130  1.0000
  C   C715      1.0  0.21068  0.72213  0.80361  1.0000
  C   C716      1.0  0.15971  0.71164  0.79442  1.0000
  C   C717      1.0  0.32024  0.82737  0.95629  1.0000
  C   C718      1.0  0.37691  0.97158  0.86922  1.0000
  C   C719      1.0  0.47679  0.95229  0.56992  1.0000
  H   H567      1.0  0.39737  0.76002  0.89769  1.0000
  H   H568      1.0  0.48137  0.81304  0.81682  1.0000
  C   C720      1.0  0.45964  0.75494  0.88294  1.0000
  C   C721      1.0  0.20528  0.69774  0.78398  1.0000
  C   C722      1.0  0.38593  0.74044  0.74839  1.0000
  H   H569      1.0  0.09364  0.73301  0.84580  1.0000
  H   H570      1.0  0.07347  0.71378  0.90053  1.0000
  C   C723      1.0  0.49553  0.94507  0.82266  1.0000
  H   H571      1.0  0.13933  0.72110  0.73134  1.0000
  C   C724      1.0  0.44102  0.99576  0.67368  1.0000
  H   H572      1.0  0.22309  0.69284  0.77937  1.0000
  S   S95       1.0  0.13494  0.72245  0.50943  1.0000
  H   H573      1.0  0.44804  0.77135  0.52038  1.0000
  C   C725      1.0  0.11166  0.70322  0.83909  1.0000
  C   C726      1.0  0.42139  0.98867  0.83564  1.0000
  C   C727      1.0  0.43762  0.75715  0.90048  1.0000
  C   C728      1.0  0.47715  0.78674  0.73978  1.0000
  H   H574      1.0  0.27824  0.84334  0.49465  1.0000
  C   C729      1.0  0.45864  0.75418  0.84901  1.0000
  H   H575      1.0  0.10455  0.70371  0.68478  1.0000
  H   H576      1.0  0.38785  0.72168  0.73946  1.0000
  C   C730      1.0  0.20397  0.67718  0.51053  1.0000
  P   P24       1.0  0.43552  0.75509  0.78851  1.0000
  C   C731      1.0  0.39291  0.96576  0.84573  1.0000
  S   S96       1.0  0.49449  0.83102  0.90902  1.0000
  H   H577      1.0  0.47582  0.75256  0.83560  1.0000
  C   C732      1.0  0.46940  0.78664  0.77250  1.0000
  H   H578      1.0  0.48003  0.73859  0.76598  1.0000
  H   H579      1.0  0.40058  0.96790  0.94221  1.0000
  C   C733      1.0  0.40291  0.74201  0.50350  1.0000
  C   C734      1.0  0.40404  0.78565  0.78083  1.0000
  C   C735      1.0  0.06497  0.68791  0.71435  1.0000
  C   C736      1.0  0.19679  0.75526  0.49554  1.0000
  Fe  Fe49      1.0  0.49502  0.87519  0.90927  1.0000
  H   H580      1.0  0.12625  0.67024  0.84055  1.0000
  S   S97       1.0  0.12884  0.70473  0.97984  1.0000
  H   H581      1.0  0.04984  0.68065  0.69374  1.0000
  H   H582      1.0  0.13251  0.67249  0.76434  1.0000
  H   H583      1.0  0.47517  0.69012  0.75047  1.0000
  H   H584      1.0  0.21464  0.68894  0.56084  1.0000
  H   H585      1.0  0.18633  0.69970  0.97551  1.0000
  H   H586      1.0  0.02966  0.67380  0.74967  1.0000
  C   C737      1.0  0.16715  0.76718  0.97171  1.0000
  H   H587      1.0  0.27477  0.75441  0.49168  1.0000
  C   C738      1.0  0.29208  0.82481  0.95290  1.0000
  H   H588      1.0  0.49621  0.87714  0.54093  1.0000
  H   H589      1.0  0.47136  0.99522  0.86882  1.0000
  C   C739      1.0  0.32789  0.81888  0.98545  1.0000
  C   C740      1.0  0.48116  0.73530  0.97994  1.0000
  H   H590      1.0  0.47113  0.74906  0.97470  1.0000
  C   C741      1.0  0.27162  0.81397  0.97866  1.0000
  C   C742      1.0  0.25528  0.73261  0.49697  1.0000
  H   H591      1.0  0.07989  0.67334  0.92553  1.0000
  Fe  Fe50      1.0  0.66366  0.11062  0.06736  1.0000
  S   S98       1.0  0.65032  0.13711  0.03496  1.0000
  S   S99       1.0  0.65024  0.06064  0.05862  1.0000
  Fe  Fe51      1.0  0.69291  0.16314  0.11792  1.0000
  S   S100      1.0  0.68073  0.19242  0.08823  1.0000
  S   S101      1.0  0.71196  0.17587  0.17015  1.0000
  Fe  Fe52      1.0  0.63592  0.15100  0.08011  1.0000
  S   S102      1.0  0.59340  0.15404  0.07428  1.0000
  Fe  Fe53      1.0  0.69601  0.17691  0.04495  1.0000
  C   C743      1.0  0.57764  0.21446  0.15222  1.0000
  S   S103      1.0  0.64626  0.12198  0.11249  1.0000
  S   S104      1.0  0.71114  0.14987  0.07488  1.0000
  Fe  Fe54      1.0  0.84000  0.29163  0.29806  1.0000
  S   S105      1.0  0.80577  0.29195  0.33139  1.0000
  S   S106      1.0  0.83017  0.27775  0.24410  1.0000
  H   H592      1.0  0.95368  0.15948  0.29976  1.0000
  C   C744      1.0  0.74178  0.13304  0.41553  1.0000
  Fe  Fe55      1.0  0.82409  0.27327  0.36878  1.0000
  S   S107      1.0  0.78691  0.23101  0.39299  1.0000
  S   S108      1.0  0.85767  0.27162  0.33479  1.0000
  H   H593      1.0  0.52169  0.28451  0.08241  1.0000
  H   H594      1.0  0.50563  0.01069  0.00930  1.0000
  H   H595      1.0  0.58993  0.20754  0.13642  1.0000
  C   C745      1.0  0.62114  0.08840  0.48699  1.0000
  C   C746      1.0  0.74949  0.20052  0.44376  1.0000
  C   C747      1.0  0.77842  0.22344  0.43474  1.0000
  C   C748      1.0  0.79999  0.23836  0.45882  1.0000
  C   C749      1.0  0.61845  0.11077  0.47048  1.0000
  H   H596      1.0  0.71983  0.17478  0.48316  1.0000
  H   H597      1.0  0.73265  0.18904  0.42523  1.0000
  H   H598      1.0  0.82224  0.25616  0.45216  1.0000
  C   C750      1.0  0.94141  0.20523  0.34936  1.0000
  C   C751      1.0  0.74480  0.20526  0.18992  1.0000
  C   C752      1.0  0.76997  0.22711  0.17287  1.0000
  C   C753      1.0  0.79564  0.24912  0.18980  1.0000
  C   C754      1.0  0.79659  0.24996  0.22404  1.0000
  C   C755      1.0  0.77128  0.22842  0.24109  1.0000
  C   C756      1.0  0.74576  0.20623  0.22417  1.0000
  H   H599      1.0  0.76983  0.22679  0.14662  1.0000
  H   H600      1.0  0.81497  0.26552  0.17620  1.0000
  H   H601      1.0  0.77146  0.22857  0.26734  1.0000
  H   H602      1.0  0.72658  0.18956  0.23777  1.0000
  C   C757      1.0  0.56767  0.14612  0.10625  1.0000
  C   C758      1.0  0.57302  0.13925  0.13753  1.0000
  C   C759      1.0  0.55244  0.13403  0.16264  1.0000
  C   C760      1.0  0.52638  0.13551  0.15662  1.0000
  C   C761      1.0  0.52070  0.14175  0.12518  1.0000
  C   C762      1.0  0.54133  0.14709  0.10010  1.0000
  H   H603      1.0  0.59328  0.13851  0.14249  1.0000
  H   H604      1.0  0.55699  0.12928  0.18692  1.0000
  C   C763      1.0  0.92961  0.31395  0.27493  1.0000
  H   H605      1.0  0.53703  0.15232  0.07593  1.0000
  C   C764      1.0  0.63269  0.03364  0.02657  1.0000
  C   C765      1.0  0.50612  0.27010  0.19812  1.0000
  C   C766      1.0  0.70260  0.10867  0.37516  1.0000
  H   H606      1.0  0.81448  0.32577  0.24453  1.0000
  H   H607      1.0  0.51856  0.04715  0.24199  1.0000
  C   C767      1.0  0.77589  0.29504  0.42031  1.0000
  C   C768      1.0  0.87918  0.25471  0.40860  1.0000
  C   C769      1.0  0.85555  0.22487  0.40786  1.0000
  C   C770      1.0  0.85677  0.20421  0.38676  1.0000
  C   C771      1.0  0.88167  0.21334  0.36646  1.0000
  C   C772      1.0  0.90577  0.24318  0.36750  1.0000
  C   C773      1.0  0.90401  0.26391  0.38823  1.0000
  P   P25       1.0  0.93635  0.25609  0.33884  1.0000
  H   H608      1.0  0.56920  0.06233  0.13024  1.0000
  H   H609      1.0  0.70761  0.04279  0.46210  1.0000
  H   H610      1.0  0.60200  0.24284  0.02784  1.0000
  C   C774      1.0  0.92569  0.27122  0.30502  1.0000
  C   C775      1.0  0.94000  0.30242  0.29928  1.0000
  H   H611      1.0  0.55715  0.01911  0.00632  1.0000
  C   C776      1.0  0.90494  0.29442  0.25601  1.0000
  C   C777      1.0  0.89063  0.26332  0.26142  1.0000
  C   C778      1.0  0.90084  0.25173  0.28592  1.0000
  C   C779      1.0  0.63705  0.12549  0.44390  1.0000
  C   C780      1.0  0.66088  0.09511  0.45017  1.0000
  H   H612      1.0  0.83806  0.18131  0.38560  1.0000
  H   H613      1.0  0.88168  0.19729  0.34948  1.0000
  H   H614      1.0  0.92147  0.28737  0.38797  1.0000
  H   H615      1.0  0.77435  0.29387  0.39406  1.0000
  S   S109      1.0  0.71562  0.21133  0.00401  1.0000
  H   H616      1.0  0.50621  0.25229  0.39412  1.0000
  H   H617      1.0  0.58610  0.19583  0.19510  1.0000
  H   H618      1.0  0.95843  0.31808  0.31433  1.0000
  H   H619      1.0  0.87081  0.24837  0.24742  1.0000
  H   H620      1.0  0.88874  0.22768  0.29061  1.0000
  H   H621      1.0  0.76843  0.12488  0.02528  1.0000
  C   C781      1.0  0.52250  0.28922  0.42782  1.0000
  C   C782      1.0  0.52734  0.29783  0.46044  1.0000
  P   P26       1.0  0.68750  0.08401  0.43737  1.0000
  C   C783      1.0  0.54483  0.23094  0.19290  1.0000
  H   H622      1.0  0.62612  0.03081  0.44486  1.0000
  H   H623      1.0  0.79794  0.31549  0.18734  1.0000
  C   C784      1.0  0.58134  0.29642  0.02850  1.0000
  C   C785      1.0  0.52602  0.32341  0.00279  1.0000
  H   H624      1.0  0.93843  0.20817  0.37487  1.0000
  C   C786      1.0  0.62741  0.04169  0.99582  1.0000
  H   H625      1.0  0.94674  0.23710  0.27500  1.0000
  H   H626      1.0  0.60204  0.04616  0.10404  1.0000
  H   H627      1.0  0.56520  0.23395  0.11362  1.0000
  H   H628      1.0  0.68271  0.00223  0.36966  1.0000
  H   H629      1.0  0.87780  0.27099  0.42415  1.0000
  H   H630      1.0  0.53823  0.09147  0.06685  1.0000
  C   C787      1.0  0.94580  0.18155  0.33986  1.0000
  Fe  Fe56      1.0  0.89038  0.31922  0.35254  1.0000
  C   C788      1.0  0.94104  0.22510  0.32608  1.0000
  H   H631      1.0  0.58899  0.09820  0.06482  1.0000
  C   C789      1.0  0.94597  0.22150  0.29330  1.0000
  H   H632      1.0  0.57941  0.26461  0.06410  1.0000
  C   C790      1.0  0.56345  0.22935  0.13939  1.0000
  H   H633      1.0  0.76444  0.16926  0.34277  1.0000
  H   H634      1.0  0.70743  0.05380  0.39216  1.0000
  C   C791      1.0  0.55723  0.29749  0.13796  1.0000
  H   H635      1.0  0.75016  0.13536  0.44003  1.0000
  C   C792      1.0  0.55915  0.21610  0.20564  1.0000
  H   H636      1.0  0.94602  0.16625  0.35793  1.0000
  C   C793      1.0  0.52364  0.03051  0.02056  1.0000
  C   C794      1.0  0.72131  0.12968  0.35190  1.0000
  H   H637      1.0  0.52572  0.31323  0.14558  1.0000
  H   H638      1.0  0.53498  0.32112  0.46649  1.0000
  C   C795      1.0  0.95018  0.17777  0.30711  1.0000
  C   C796      1.0  0.51100  0.25901  0.41936  1.0000
  C   C797      1.0  0.75017  0.15237  0.36046  1.0000
  H   H639      1.0  0.83593  0.21797  0.42297  1.0000
  C   C798      1.0  0.97603  0.28418  0.39061  1.0000
  C   C799      1.0  0.54194  0.07563  0.05314  1.0000
  P   P27       1.0  0.52951  0.25799  0.14272  1.0000
  C   C800      1.0  0.57789  0.03117  0.10416  1.0000
  C   C801      1.0  0.56536  0.00315  0.08872  1.0000
  H   H640      1.0  0.55733  0.21067  0.23124  1.0000
  C   C802      1.0  0.75617  0.27283  0.47290  1.0000
  C   C803      1.0  0.55274  0.03499  0.01901  1.0000
  C   C804      1.0  0.57082  0.07975  0.05184  1.0000
  H   H641      1.0  0.63403  0.06492  0.99101  1.0000
  H   H642      1.0  0.89622  0.30334  0.23782  1.0000
  H   H643      1.0  0.59435  0.29003  0.12814  1.0000
  C   C805      1.0  0.64268  0.08111  0.47731  1.0000
  H   H644      1.0  0.67230  0.12945  0.41310  1.0000
  C   C806      1.0  0.57550  0.20784  0.18532  1.0000
  H   H645      1.0  0.78260  0.17183  0.39886  1.0000
  H   H646      1.0  0.76004  0.19150  0.00426  1.0000
  H   H647      1.0  0.71399  0.10592  0.03190  1.0000
  H   H648      1.0  0.95405  0.19506  0.25851  1.0000
  C   C807      1.0  0.54689  0.23776  0.15960  1.0000
  C   C808      1.0  0.58718  0.30646  0.13050  1.0000
  C   C809      1.0  0.54879  0.31957  0.14052  1.0000
  C   C810      1.0  0.50788  0.10622  0.01278  1.0000
  C   C811      1.0  0.55936  0.04030  0.11891  1.0000
  C   C812      1.0  0.67044  0.00881  0.38583  1.0000
  H   H649      1.0  0.63528  0.14313  0.43134  1.0000
  C   C813      1.0  0.75407  0.27152  0.43907  1.0000
  C   C814      1.0  0.51826  0.05147  0.03672  1.0000
  H   H650      1.0  0.99457  0.29923  0.31060  1.0000
  C   C815      1.0  0.51449  0.24246  0.10331  1.0000
  C   C816      1.0  0.80005  0.31975  0.43526  1.0000
  C   C817      1.0  0.71261  0.11034  0.40725  1.0000
  C   C818      1.0  0.74223  0.19222  0.47653  1.0000
  C   C819      1.0  0.50585  0.32479  0.02443  1.0000
  C   C820      1.0  0.50985  0.24605  0.47620  1.0000
  H   H651      1.0  0.60228  0.11697  0.47857  1.0000
  C   C821      1.0  0.52822  0.02142  0.11816  1.0000
  H   H652      1.0  0.51391  0.02885  0.12905  1.0000
  H   H653      1.0  0.59879  0.06325  0.03387  1.0000
  C   C822      1.0  0.68431  0.03803  0.39856  1.0000
  H   H654      1.0  0.71334  0.12872  0.32733  1.0000
  C   C823      1.0  0.76045  0.15382  0.39214  1.0000
  C   C824      1.0  0.50216  0.24852  0.04789  1.0000
  C   C825      1.0  0.70854  0.08468  0.47276  1.0000
  H   H655      1.0  0.52771  0.15126  0.99317  1.0000
  C   C826      1.0  0.49673  0.15763  0.27414  1.0000
  C   C827      1.0  0.65810  0.11761  0.43362  1.0000
  C   C828      1.0  0.51377  0.26084  0.07836  1.0000
  C   C829      1.0  0.52138  0.27638  0.48494  1.0000
  H   H656      1.0  0.51469  0.16619  0.25640  1.0000
  H   H657      1.0  0.52708  0.10410  0.00627  1.0000
  C   C830      1.0  0.95034  0.19779  0.28386  1.0000
  S   S110      1.0  0.85758  0.31872  0.38892  1.0000
  C   C831      1.0  0.59839  0.26079  0.01911  1.0000
  C   C832      1.0  0.63883  0.02540  0.42815  1.0000
  C   C833      1.0  0.66862  0.04660  0.41986  1.0000
  C   C834      1.0  0.80281  0.32097  0.46921  1.0000
  H   H658      1.0  0.50991  0.20125  0.29440  1.0000
  H   H659      1.0  0.52641  0.30579  0.40917  1.0000
  H   H660      1.0  0.52921  0.28457  0.20557  1.0000
  C   C835      1.0  0.75522  0.12457  0.00466  1.0000
  H   H661      1.0  0.95777  0.26980  0.40671  1.0000
  C   C836      1.0  0.50824  0.13300  0.00502  1.0000
  C   C837      1.0  0.49944  0.25426  0.16864  1.0000
  S   S111      1.0  0.50188  0.13034  0.18907  1.0000
  C   C838      1.0  0.57632  0.05981  0.03440  1.0000
  H   H662      1.0  0.68011  0.09148  0.36829  1.0000
  H   H663      1.0  0.94171  0.32701  0.42911  1.0000
  H   H664      1.0  0.50067  0.14292  0.12031  1.0000
  H   H665      1.0  0.53196  0.23657  0.20915  1.0000
  C   C839      1.0  0.97203  0.28273  0.35677  1.0000
  H   H666      1.0  0.73591  0.25197  0.42730  1.0000
  C   C840      1.0  0.58577  0.27312  0.03959  1.0000
  C   C841      1.0  0.72463  0.11424  0.00849  1.0000
  C   C842      1.0  0.71541  0.06177  0.47840  1.0000
  C   C843      1.0  0.62368  0.00308  0.03228  1.0000
  C   C844      1.0  0.50266  0.21152  0.09763  1.0000
  H   H667      1.0  0.50175  0.19660  0.11688  1.0000
  H   H668      1.0  0.57175  0.30568  0.04498  1.0000
  H   H669      1.0  0.50082  0.26244  0.02889  1.0000
  C   C845      1.0  0.50482  0.23747  0.44355  1.0000
  C   C846      1.0  0.58919  0.30737  0.99657  1.0000
  H   H670      1.0  0.73948  0.25426  0.48738  1.0000
  C   C847      1.0  0.78023  0.29759  0.48797  1.0000
  Fe  Fe57      1.0  0.66043  0.09744  0.57928  1.0000
  S   S112      1.0  0.66578  0.13468  0.54556  1.0000
  S   S113      1.0  0.62676  0.04799  0.56333  1.0000
  Fe  Fe58      1.0  0.69345  0.14477  0.63577  1.0000
  S   S114      1.0  0.69888  0.18297  0.60442  1.0000
  S   S115      1.0  0.70686  0.15622  0.68964  1.0000
  Fe  Fe59      1.0  0.65154  0.15203  0.58822  1.0000
  S   S116      1.0  0.61677  0.16665  0.58148  1.0000
  Fe  Fe60      1.0  0.71259  0.16184  0.56539  1.0000
  S   S117      1.0  0.75729  0.19451  0.54154  1.0000
  S   S118      1.0  0.64469  0.11451  0.62140  1.0000
  S   S119      1.0  0.70874  0.12396  0.59728  1.0000
  Fe  Fe61      1.0  0.84511  0.28628  0.80168  1.0000
  S   S120      1.0  0.81413  0.28707  0.83969  1.0000
  S   S121      1.0  0.83005  0.26125  0.75250  1.0000
  C   C848      1.0  0.64615  0.01626  0.52349  1.0000
  H   H671      1.0  0.51206  0.09758  0.54571  1.0000
  Fe  Fe62      1.0  0.84496  0.28298  0.87557  1.0000
  S   S122      1.0  0.83125  0.24934  0.91715  1.0000
  S   S123      1.0  0.87468  0.27967  0.83749  1.0000
  H   H672      1.0  0.57015  0.08596  0.64911  1.0000
  H   H673      1.0  0.55644  0.00143  0.60618  1.0000
  C   C849      1.0  0.78359  0.30244  0.75620  1.0000
  C   C850      1.0  0.57037  0.02088  0.69712  1.0000
  H   H674      1.0  0.59829  0.10407  0.55151  1.0000
  C   C851      1.0  0.79912  0.23892  0.94125  1.0000
  C   C852      1.0  0.78082  0.25140  0.93588  1.0000
  C   C853      1.0  0.75528  0.24252  0.95532  1.0000
  C   C854      1.0  0.70765  0.11455  0.98220  1.0000
  P   P28       1.0  0.52061  0.02908  0.62448  1.0000
  H   H675      1.0  0.78644  0.26801  0.91687  1.0000
  H   H676      1.0  0.74137  0.25247  0.95120  1.0000
  C   C855      1.0  0.74120  0.18572  0.70675  1.0000
  C   C856      1.0  0.76886  0.19696  0.69098  1.0000
  C   C857      1.0  0.79564  0.21900  0.70606  1.0000
  C   C858      1.0  0.79539  0.23115  0.73658  1.0000
  C   C859      1.0  0.76766  0.22016  0.75229  1.0000
  C   C860      1.0  0.74092  0.19733  0.73770  1.0000
  H   H677      1.0  0.76975  0.18808  0.66748  1.0000
  H   H678      1.0  0.81686  0.22653  0.69405  1.0000
  H   H679      1.0  0.76676  0.22939  0.77555  1.0000
  H   H680      1.0  0.71978  0.18887  0.75034  1.0000
  C   C861      1.0  0.58684  0.15575  0.60943  1.0000
  C   C862      1.0  0.56139  0.15731  0.60007  1.0000
  C   C863      1.0  0.53771  0.14988  0.62211  1.0000
  C   C864      1.0  0.53969  0.14162  0.65401  1.0000
  C   C865      1.0  0.56501  0.13982  0.66329  1.0000
  C   C866      1.0  0.58838  0.14665  0.64107  1.0000
  H   H681      1.0  0.55998  0.16429  0.57564  1.0000
  H   H682      1.0  0.51823  0.15112  0.61461  1.0000
  H   H683      1.0  0.56674  0.13343  0.68789  1.0000
  H   H684      1.0  0.60792  0.14554  0.64864  1.0000
  C   C867      1.0  0.62201  0.01831  0.53622  1.0000
  C   C868      1.0  0.70743  0.27343  0.63992  1.0000
  C   C869      1.0  0.51535  0.06707  0.57934  1.0000
  H   H685      1.0  0.84330  0.28565  0.56792  1.0000
  C   C870      1.0  0.60191  0.29485  0.97614  1.0000
  C   C871      1.0  0.53436  0.05799  0.59357  1.0000
  H   H686      1.0  0.67887  0.19457  0.67895  1.0000
  H   H687      1.0  0.73245  0.23313  0.68240  1.0000
  C   C872      1.0  0.76419  0.20615  0.50045  1.0000
  C   C873      1.0  0.51076  0.19246  0.79393  1.0000
  C   C874      1.0  0.74774  0.22106  0.98020  1.0000
  P   P29       1.0  0.52566  0.28722  0.52727  1.0000
  C   C875      1.0  0.78944  0.27786  0.64820  1.0000
  C   C876      1.0  0.83546  0.27596  0.65343  1.0000
  C   C877      1.0  0.76332  0.19442  0.86656  1.0000
  C   C878      1.0  0.75940  0.18383  0.83476  1.0000
  C   C879      1.0  0.73643  0.15463  0.82756  1.0000
  C   C880      1.0  0.71760  0.13583  0.85228  1.0000
  C   C881      1.0  0.72152  0.14623  0.88448  1.0000
  C   C882      1.0  0.74449  0.17579  0.89128  1.0000
  P   P30       1.0  0.69803  0.12204  0.91715  1.0000
  C   C883      1.0  0.67669  0.08304  0.90430  1.0000
  C   C884      1.0  0.72093  0.12433  0.95150  1.0000
  C   C885      1.0  0.71859  0.10864  0.49483  1.0000
  H   H688      1.0  0.77975  0.33186  0.79062  1.0000
  S   S124      1.0  0.51156  0.13411  0.68331  1.0000
  H   H689      1.0  0.61650  0.26225  0.97162  1.0000
  H   H690      1.0  0.60918  0.05614  0.72166  1.0000
  C   C886      1.0  0.68205  0.06099  0.91794  1.0000
  C   C887      1.0  0.66382  0.03060  0.90970  1.0000
  H   H691      1.0  0.78751  0.22261  0.60054  1.0000
  C   C888      1.0  0.63498  0.04374  0.87373  1.0000
  C   C889      1.0  0.65304  0.07414  0.88205  1.0000
  C   C890      1.0  0.67185  0.13354  0.93079  1.0000
  C   C891      1.0  0.64287  0.11182  0.94121  1.0000
  C   C892      1.0  0.62336  0.12067  0.95403  1.0000
  C   C893      1.0  0.56403  0.07066  0.58243  1.0000
  C   C894      1.0  0.66130  0.17301  0.94635  1.0000
  C   C895      1.0  0.68086  0.16423  0.93355  1.0000
  H   H692      1.0  0.78130  0.21701  0.87218  1.0000
  H   H693      1.0  0.77443  0.19818  0.81579  1.0000
  H   H694      1.0  0.73349  0.14653  0.80278  1.0000
  H   H695      1.0  0.70049  0.11318  0.84605  1.0000
  H   H696      1.0  0.74843  0.18427  0.91587  1.0000
  H   H697      1.0  0.53012  0.18539  0.75071  1.0000
  H   H698      1.0  0.61807  0.15827  0.96789  1.0000
  H   H699      1.0  0.61656  0.03693  0.85689  1.0000
  C   C896      1.0  0.77826  0.32501  0.62931  1.0000
  Fe  Fe63      1.0  0.90315  0.33037  0.84231  1.0000
  H   H700      1.0  0.69979  0.06693  0.93547  1.0000
  C   C897      1.0  0.68677  0.21662  0.66810  1.0000
  C   C898      1.0  0.52644  0.08981  0.55571  1.0000
  H   H701      1.0  0.54786  0.28019  0.94563  1.0000
  H   H702      1.0  0.64831  0.09074  0.87159  1.0000
  H   H703      1.0  0.63554  0.08803  0.94044  1.0000
  C   C899      1.0  0.71721  0.23848  0.66983  1.0000
  H   H704      1.0  0.76234  0.14089  0.92414  1.0000
  C   C900      1.0  0.59209  0.05088  0.70340  1.0000
  H   H705      1.0  0.51729  0.30914  0.98162  1.0000
  H   H706      1.0  0.57894  0.06345  0.59227  1.0000
  C   C901      1.0  0.79620  0.24134  0.61738  1.0000
  C   C902      1.0  0.76868  0.13443  0.97423  1.0000
  H   H707      1.0  0.56534  0.12152  0.52830  1.0000
  H   H708      1.0  0.50429  0.22885  0.49448  1.0000
  H   H709      1.0  0.66737  0.01354  0.92110  1.0000
  C   C903      1.0  0.79298  0.22943  0.49151  1.0000
  H   H710      1.0  0.83758  0.24157  0.62546  1.0000
  H   H711      1.0  0.85707  0.28382  0.66487  1.0000
  H   H712      1.0  0.50524  0.07432  0.64592  1.0000
  C   C904      1.0  0.53397  0.26233  0.55072  1.0000
  H   H713      1.0  0.75526  0.29490  0.58922  1.0000
  C   C905      1.0  0.79144  0.21720  0.96592  1.0000
  C   C906      1.0  0.54657  0.22381  0.58767  1.0000
  C   C907      1.0  0.56993  0.25186  0.57740  1.0000
  C   C908      1.0  0.56371  0.27107  0.55898  1.0000
  H   H714      1.0  0.66907  0.19679  0.94971  1.0000
  H   H715      1.0  0.52609  0.26928  0.89050  1.0000
  S   S125      1.0  0.87494  0.33309  0.88213  1.0000
  H   H716      1.0  0.66881  0.03352  0.52941  1.0000
  H   H717      1.0  0.57043  0.00284  0.71083  1.0000
  C   C909      1.0  0.72788  0.26682  0.65513  1.0000
  C   C910      1.0  0.78066  0.29353  0.72377  1.0000
  H   H718      1.0  0.55140  0.20910  0.60218  1.0000
  H   H719      1.0  0.59287  0.25863  0.58376  1.0000
  H   H720      1.0  0.58218  0.29264  0.55131  1.0000
  H   H721      1.0  0.75689  0.24541  0.61453  1.0000
  H   H722      1.0  0.52925  0.05346  0.73844  1.0000
  H   H723      1.0  0.81004  0.24033  0.50994  1.0000
  C   C911      1.0  0.53884  0.29238  0.89897  1.0000
  C   C912      1.0  0.81818  0.28906  0.66152  1.0000
  H   H724      1.0  0.71479  0.29551  0.62966  1.0000
  H   H725      1.0  0.80543  0.20734  0.97007  1.0000
  H   H726      1.0  0.64334  0.20558  0.64950  1.0000
  H   H727      1.0  0.70330  0.18163  0.92713  1.0000
  H   H728      1.0  0.66139  0.25605  0.62522  1.0000
  H   H729      1.0  0.60861  0.09753  0.69096  1.0000
  C   C913      1.0  0.64028  0.02196  0.88770  1.0000
  C   C914      1.0  0.55633  0.10309  0.54564  1.0000
  C   C915      1.0  0.51698  0.21476  0.57921  1.0000
  H   H730      1.0  0.50124  0.00838  0.77306  1.0000
  C   C916      1.0  0.67706  0.25130  0.63775  1.0000
  P   P31       1.0  0.76715  0.29482  0.65847  1.0000
  C   C917      1.0  0.55128  0.29874  0.93016  1.0000
  H   H731      1.0  0.79242  0.14250  0.97123  1.0000
  C   C918      1.0  0.59181  0.07422  0.68609  1.0000
  C   C919      1.0  0.63262  0.15129  0.95670  1.0000
  H   H732      1.0  0.60150  0.10384  0.96303  1.0000
  H   H733      1.0  0.61028  0.02653  0.94748  1.0000
  H   H734      1.0  0.86986  0.32104  0.71616  1.0000
  C   C920      1.0  0.75154  0.13387  0.94760  1.0000
  C   C921      1.0  0.82447  0.25211  0.63133  1.0000
  C   C922      1.0  0.66678  0.22285  0.65164  1.0000
  H   H735      1.0  0.53126  0.31066  0.85516  1.0000
  C   C923      1.0  0.57498  0.09331  0.55880  1.0000
  C   C924      1.0  0.57015  0.06760  0.66213  1.0000
  C   C925      1.0  0.54901  0.03753  0.65480  1.0000
  C   C926      1.0  0.77208  0.30743  0.70009  1.0000
  C   C927      1.0  0.61378  0.01974  0.97119  1.0000
  C   C928      1.0  0.77876  0.25420  0.62564  1.0000
  H   H736      1.0  0.79066  0.29177  0.77413  1.0000
  H   H737      1.0  0.78479  0.27553  0.71735  1.0000
  H   H738      1.0  0.75576  0.08835  0.54818  1.0000
  C   C929      1.0  0.51070  0.23384  0.56070  1.0000
  H   H739      1.0  0.50603  0.09395  0.89510  1.0000
  H   H740      1.0  0.68410  0.10678  0.98588  1.0000
  H   H741      1.0  0.60707  0.07704  0.50783  1.0000
  C   C930      1.0  0.77725  0.32484  0.76544  1.0000
  C   C931      1.0  0.56723  0.32870  0.94130  1.0000
  C   C932      1.0  0.54868  0.01421  0.67311  1.0000
  H   H742      1.0  0.61385  0.00756  0.62117  1.0000
  H   H743      1.0  0.60833  0.30305  0.95149  1.0000
  C   C933      1.0  0.51345  0.17488  0.76976  1.0000
  H   H744      1.0  0.52542  0.21673  0.79365  1.0000
  H   H745      1.0  0.74424  0.12920  0.53800  1.0000
  C   C934      1.0  0.54166  0.31573  0.87896  1.0000
  C   C935      1.0  0.76575  0.20818  0.98530  1.0000
  H   H746      1.0  0.82703  0.30756  0.67854  1.0000
  C   C936      1.0  0.76493  0.32936  0.70967  1.0000
  C   C937      1.0  0.76901  0.31817  0.59685  1.0000
  H   H747      1.0  0.78121  0.29815  0.51419  1.0000
  H   H748      1.0  0.50753  0.08565  0.72490  1.0000
  H   H749      1.0  0.58329  0.32374  0.49340  1.0000
  C   C938      1.0  0.55593  0.32570  0.53217  1.0000
  H   H750      1.0  0.83121  0.29826  0.51439  1.0000
  C   C939      1.0  0.50744  0.04781  0.74803  1.0000
  H   H751      1.0  0.71343  0.12645  0.49112  1.0000
  C   C940      1.0  0.73226  0.06302  0.50562  1.0000
  C   C941      1.0  0.73591  0.11014  0.52162  1.0000
  C   C942      1.0  0.84557  0.30763  0.56398  1.0000
  C   C943      1.0  0.74260  0.08725  0.52716  1.0000
  H   H752      1.0  0.49877  0.19291  0.58701  1.0000
  C   C944      1.0  0.83842  0.31475  0.53373  1.0000
  H   H753      1.0  0.73726  0.04516  0.51005  1.0000
  C   C945      1.0  0.85607  0.32897  0.58886  1.0000
  H   H754      1.0  0.64512  0.06446  0.49101  1.0000
  H   H755      1.0  0.86236  0.32380  0.61199  1.0000
  C   C946      1.0  0.60652  0.27171  0.98742  1.0000
  Fe  Fe64      1.0  0.70271  0.57176  0.48232  1.0000
  C   C947      1.0  0.55702  0.34013  0.00871  1.0000
  S   S126      1.0  0.74164  0.59315  0.44496  1.0000
  Fe  Fe65      1.0  0.65199  0.57694  0.00928  1.0000
  S   S127      1.0  0.65421  0.54778  0.04859  1.0000
  S   S128      1.0  0.62493  0.60162  0.01591  1.0000
  Fe  Fe66      1.0  0.70176  0.56471  0.03233  1.0000
  S   S129      1.0  0.74333  0.58576  0.06431  1.0000
  C   C948      1.0  0.74955  0.66478  0.23506  1.0000
  S   S130      1.0  0.59247  0.50309  0.45918  1.0000
  C   C949      1.0  0.97069  0.35622  0.39141  1.0000
  S   S131      1.0  0.66269  0.57815  0.47604  1.0000
  C   C950      1.0  0.77014  0.62670  0.18995  1.0000
  C   C951      1.0  0.60169  0.39988  0.38276  1.0000
  C   C952      1.0  0.74138  0.53409  0.27246  1.0000
  S   S132      1.0  0.83836  0.37825  0.36067  1.0000
  Fe  Fe67      1.0  0.82376  0.54854  0.28957  1.0000
  S   S133      1.0  0.79360  0.50776  0.25962  1.0000
  S   S134      1.0  0.79964  0.54430  0.33902  1.0000
  Fe  Fe68      1.0  0.87492  0.56867  0.23685  1.0000
  S   S135      1.0  0.84624  0.52886  0.20516  1.0000
  S   S136      1.0  0.92601  0.59687  0.22460  1.0000
  Fe  Fe69      1.0  0.80874  0.53783  0.21584  1.0000
  S   S137      1.0  0.76867  0.52113  0.18182  1.0000
  Fe  Fe70      1.0  0.83282  0.50157  0.25115  1.0000
  S   S138      1.0  0.82523  0.45421  0.24645  1.0000
  S   S139      1.0  0.83750  0.57984  0.24555  1.0000
  S   S140      1.0  0.86303  0.54042  0.28311  1.0000
  C   C953      1.0  0.96151  0.62709  0.13288  1.0000
  C   C954      1.0  0.94107  0.61531  0.15929  1.0000
  C   C955      1.0  0.95025  0.60997  0.18943  1.0000
  C   C956      1.0  0.81867  0.33592  0.19342  1.0000
  H   H756      1.0  0.91833  0.61083  0.15644  1.0000
  C   C957      1.0  0.83477  0.39935  0.32888  1.0000
  C   C958      1.0  0.82603  0.38715  0.29786  1.0000
  C   C959      1.0  0.82335  0.40435  0.27283  1.0000
  C   C960      1.0  0.82926  0.43381  0.27869  1.0000
  C   C961      1.0  0.83797  0.44606  0.30976  1.0000
  C   C962      1.0  0.84061  0.42880  0.33483  1.0000
  H   H757      1.0  0.82086  0.36426  0.29338  1.0000
  H   H758      1.0  0.81639  0.39468  0.24890  1.0000
  H   H759      1.0  0.84250  0.46873  0.31448  1.0000
  H   H760      1.0  0.84725  0.43829  0.35886  1.0000
  C   C963      1.0  0.93387  0.39163  0.18355  1.0000
  C   C964      1.0  0.82319  0.65625  0.15316  1.0000
  C   C965      1.0  0.84468  0.60437  0.47108  1.0000
  H   H761      1.0  0.77730  0.35396  0.48736  1.0000
  P   P32       1.0  0.73579  0.60757  0.21331  1.0000
  C   C966      1.0  0.75041  0.56703  0.09614  1.0000
  C   C967      1.0  0.72955  0.53739  0.10499  1.0000
  C   C968      1.0  0.73566  0.52368  0.13125  1.0000
  C   C969      1.0  0.76269  0.53936  0.14865  1.0000
  C   C970      1.0  0.78377  0.56879  0.13944  1.0000
  C   C971      1.0  0.77760  0.58256  0.11327  1.0000
  H   H762      1.0  0.70863  0.52518  0.09185  1.0000
  H   H763      1.0  0.71930  0.50084  0.13823  1.0000
  H   H764      1.0  0.80471  0.58093  0.15252  1.0000
  H   H765      1.0  0.79394  0.60537  0.10625  1.0000
  C   C972      1.0  0.75778  0.57899  0.41620  1.0000
  C   C973      1.0  0.77840  0.59891  0.39296  1.0000
  C   C974      1.0  0.79110  0.58877  0.36911  1.0000
  C   C975      1.0  0.78399  0.55854  0.36846  1.0000
  C   C976      1.0  0.76396  0.53882  0.39225  1.0000
  C   C977      1.0  0.75067  0.54878  0.41560  1.0000
  H   H766      1.0  0.78436  0.62238  0.39318  1.0000
  H   H767      1.0  0.80673  0.60448  0.35148  1.0000
  H   H768      1.0  0.75869  0.51562  0.39279  1.0000
  H   H769      1.0  0.73512  0.53311  0.43332  1.0000
  C   C978      1.0  0.60325  0.64383  0.10476  1.0000
  C   C979      1.0  0.62400  0.63360  0.10763  1.0000
  C   C980      1.0  0.63058  0.62030  0.08109  1.0000
  C   C981      1.0  0.61671  0.61720  0.05093  1.0000
  C   C982      1.0  0.59591  0.62736  0.04807  1.0000
  C   C983      1.0  0.58904  0.64030  0.07473  1.0000
  H   H770      1.0  0.61744  0.62380  0.47017  1.0000
  H   H771      1.0  0.64675  0.61288  0.08387  1.0000
  H   H772      1.0  0.58498  0.62524  0.02502  1.0000
  C   C984      1.0  0.99092  0.63105  0.28130  1.0000
  C   C985      1.0  0.53400  0.39991  0.45380  1.0000
  H   H773      1.0  0.98276  0.66562  0.26305  1.0000
  H   H774      1.0  0.93759  0.40879  0.35053  1.0000
  C   C986      1.0  0.57134  0.46330  0.45619  1.0000
  C   C987      1.0  0.54519  0.45000  0.43717  1.0000
  C   C988      1.0  0.52644  0.41842  0.43611  1.0000
  C   C989      1.0  0.93183  0.48144  0.22896  1.0000
  H   H775      1.0  0.69726  0.63369  0.31034  1.0000
  H   H776      1.0  0.53927  0.46425  0.42345  1.0000
  H   H777      1.0  0.56412  0.60848  0.46001  1.0000
  C   C990      1.0  0.79595  0.62613  0.19992  1.0000
  H   H778      1.0  0.74423  0.51749  0.28585  1.0000
  H   H779      1.0  0.76586  0.56912  0.30722  1.0000
  C   C991      1.0  0.93137  0.50846  0.22662  1.0000
  C   C992      1.0  0.50677  0.48534  0.47744  1.0000
  H   H780      1.0  0.98278  0.34138  0.46923  1.0000
  C   C993      1.0  0.81518  0.46072  0.02188  1.0000
  C   C994      1.0  0.83717  0.46964  0.04617  1.0000
  C   C995      1.0  0.85745  0.45887  0.04510  1.0000
  P   P33       1.0  0.83891  0.49354  0.07941  1.0000
  C   C996      1.0  0.82023  0.47068  0.11472  1.0000
  C   C997      1.0  0.87800  0.51886  0.08864  1.0000
  C   C998      1.0  0.88760  0.52668  0.12086  1.0000
  C   C999      1.0  0.91801  0.54595  0.12769  1.0000
  C   C1000     1.0  0.85074  0.60414  0.43802  1.0000
  H   H781      1.0  0.94004  0.33812  0.27157  1.0000
  C   C1001     1.0  0.89915  0.53110  0.06337  1.0000
  C   C1002     1.0  0.80649  0.48037  0.13739  1.0000
  C   C1003     1.0  0.79281  0.46313  0.16517  1.0000
  C   C1004     1.0  0.79304  0.43637  0.17079  1.0000
  C   C1005     1.0  0.80692  0.42672  0.14862  1.0000
  C   C1006     1.0  0.82045  0.44375  0.12066  1.0000
  C   C1007     1.0  0.82143  0.51528  0.06797  1.0000
  C   C1008     1.0  0.78997  0.50143  0.06719  1.0000
  C   C1009     1.0  0.77627  0.51792  0.05790  1.0000
  C   C1010     1.0  0.79380  0.54834  0.04942  1.0000
  C   C1011     1.0  0.82506  0.56246  0.05075  1.0000
  C   C1012     1.0  0.83888  0.54607  0.06007  1.0000
  H   H782      1.0  0.61641  0.38254  0.12601  1.0000
  C   C1013     1.0  0.68276  0.56810  0.13409  1.0000
  H   H783      1.0  0.96186  0.46775  0.18384  1.0000
  H   H784      1.0  0.85256  0.62579  0.48317  1.0000
  H   H785      1.0  0.87431  0.46500  0.06382  1.0000
  H   H786      1.0  0.87173  0.51821  0.14075  1.0000
  H   H787      1.0  0.82924  0.35132  0.14401  1.0000
  H   H788      1.0  0.54800  0.40960  0.02287  1.0000
  H   H789      1.0  0.89216  0.52577  0.03831  1.0000
  H   H790      1.0  0.80663  0.50145  0.13412  1.0000
  H   H791      1.0  0.78256  0.47089  0.18279  1.0000
  H   H792      1.0  0.78300  0.42347  0.19276  1.0000
  H   H793      1.0  0.80739  0.40616  0.15342  1.0000
  H   H794      1.0  0.83121  0.43589  0.10404  1.0000
  H   H795      1.0  0.77601  0.47794  0.07402  1.0000
  C   C1014     1.0  0.56744  0.64779  0.48307  1.0000
  H   H796      1.0  0.78312  0.56116  0.04246  1.0000
  H   H797      1.0  0.83850  0.58627  0.04498  1.0000
  H   H798      1.0  0.86310  0.55770  0.06136  1.0000
  H   H799      1.0  0.80540  0.52834  0.48446  1.0000
  C   C1015     1.0  0.99149  0.63354  0.13577  1.0000
  S   S141      1.0  0.51055  0.36026  0.45485  1.0000
  H   H800      1.0  0.95400  0.63131  0.10997  1.0000
  C   C1016     1.0  0.65813  0.57196  0.13939  1.0000
  C   C1017     1.0  0.84060  0.57675  0.42192  1.0000
  H   H801      1.0  0.98776  0.61212  0.21512  1.0000
  C   C1018     1.0  0.58037  0.44313  0.99026  1.0000
  H   H802      1.0  0.69143  0.58375  0.40186  1.0000
  C   C1019     1.0  0.95949  0.44609  0.17811  1.0000
  H   H803      1.0  0.59132  0.37121  0.04184  1.0000
  H   H804      1.0  0.95256  0.36920  0.15619  1.0000
  S   S142      1.0  0.70064  0.59630  0.99476  1.0000
  H   H805      1.0  0.84486  0.57653  0.39615  1.0000
  H   H806      1.0  0.55508  0.37848  0.39685  1.0000
  H   H807      1.0  0.52234  0.50934  0.47861  1.0000
  C   C1020     1.0  0.93895  0.40652  0.26805  1.0000
  C   C1021     1.0  0.94574  0.40385  0.30036  1.0000
  C   C1022     1.0  0.97764  0.41739  0.14890  1.0000
  H   H808      1.0  0.81619  0.52841  0.42604  1.0000
  H   H809      1.0  0.85562  0.39060  0.42971  1.0000
  C   C1023     1.0  0.65522  0.53839  0.39385  1.0000
  C   C1024     1.0  0.56086  0.41312  0.47165  1.0000
  H   H810      1.0  0.55561  0.37441  0.07892  1.0000
  C   C1025     1.0  0.55372  0.41623  0.99778  1.0000
  H   H811      1.0  0.88477  0.57398  0.00134  1.0000
  C   C1026     1.0  0.91533  0.36904  0.45330  1.0000
  C   C1027     1.0  0.55011  0.49520  0.99386  1.0000
  H   H812      1.0  0.54407  0.64073  0.47881  1.0000
  H   H813      1.0  0.54580  0.41508  0.36725  1.0000
  C   C1028     1.0  0.51648  0.34290  0.05205  1.0000
  C   C1029     1.0  0.60871  0.63811  0.47798  1.0000
  H   H814      1.0  0.62321  0.49300  0.38162  1.0000
  C   C1030     1.0  0.95453  0.39070  0.16229  1.0000
  H   H815      1.0  0.56710  0.39885  0.48491  1.0000
  C   C1031     1.0  0.86749  0.36610  0.46396  1.0000
  H   H816      1.0  0.94901  0.52888  0.23765  1.0000
  H   H817      1.0  0.99357  0.41656  0.13238  1.0000
  H   H818      1.0  0.86231  0.37070  0.25882  1.0000
  C   C1032     1.0  0.68352  0.56332  0.38774  1.0000
  H   H819      1.0  0.79907  0.46834  0.02209  1.0000
  H   H820      1.0  0.75157  0.64282  0.15294  1.0000
  C   C1033     1.0  0.59988  0.35884  0.12918  1.0000
  C   C1034     1.0  0.91939  0.41737  0.26079  1.0000
  C   C1035     1.0  0.90678  0.42547  0.28629  1.0000
  C   C1036     1.0  0.91353  0.42265  0.31853  1.0000
  C   C1037     1.0  0.93299  0.41184  0.32557  1.0000
  H   H821      1.0  0.50086  0.34396  0.06877  1.0000
  H   H822      1.0  0.94864  0.39964  0.24904  1.0000
  C   C1038     1.0  0.92948  0.55053  0.07030  1.0000
  C   C1039     1.0  0.91949  0.38680  0.42587  1.0000
  H   H823      1.0  0.90074  0.40793  0.39610  1.0000
  C   C1040     1.0  0.73302  0.63353  0.24067  1.0000
  C   C1041     1.0  0.90861  0.45477  0.21529  1.0000
  H   H824      1.0  0.86579  0.43526  0.19029  1.0000
  C   C1042     1.0  0.87315  0.38774  0.20955  1.0000
  C   C1043     1.0  0.90768  0.50903  0.21084  1.0000
  C   C1044     1.0  0.88451  0.48263  0.19722  1.0000
  C   C1045     1.0  0.88479  0.45554  0.19962  1.0000
  C   C1046     1.0  0.81821  0.54967  0.47190  1.0000
  H   H825      1.0  0.96736  0.61536  0.28616  1.0000
  H   H826      1.0  0.96244  0.57318  0.10786  1.0000
  H   H827      1.0  0.89114  0.43330  0.28134  1.0000
  H   H828      1.0  0.90294  0.42807  0.33804  1.0000
  H   H829      1.0  0.63148  0.34377  0.12052  1.0000
  H   H830      1.0  0.86296  0.62517  0.42471  1.0000
  H   H831      1.0  0.49868  0.48715  0.42636  1.0000
  H   H832      1.0  0.68452  0.55787  0.11185  1.0000
  H   H833      1.0  0.64061  0.56463  0.12120  1.0000
  C   C1047     1.0  0.57313  0.39673  0.38322  1.0000
  H   H834      1.0  0.60574  0.38397  0.39601  1.0000
  C   C1048     1.0  0.88938  0.35849  0.47213  1.0000
  H   H835      1.0  0.86540  0.48269  0.18632  1.0000
  H   H836      1.0  0.95007  0.48124  0.24183  1.0000
  H   H837      1.0  0.58683  0.45730  0.33690  1.0000
  C   C1049     1.0  0.57951  0.44472  0.47285  1.0000
  C   C1050     1.0  0.70491  0.44935  0.28485  1.0000
  C   C1051     1.0  0.72743  0.45697  0.30796  1.0000
  C   C1052     1.0  0.72657  0.47033  0.33713  1.0000
  C   C1053     1.0  0.70327  0.47621  0.34327  1.0000
  C   C1054     1.0  0.68081  0.46910  0.31991  1.0000
  C   C1055     1.0  0.68156  0.45518  0.29085  1.0000
  P   P34       1.0  0.65042  0.47629  0.32770  1.0000
  C   C1056     1.0  0.61999  0.44453  0.34860  1.0000
  C   C1057     1.0  0.66358  0.50997  0.35206  1.0000
  C   C1058     1.0  0.64520  0.51184  0.37610  1.0000
  C   C1059     1.0  0.57870  0.62950  0.47236  1.0000
  C   C1060     1.0  0.77121  0.64226  0.16136  1.0000
  C   C1061     1.0  0.70196  0.56163  0.36402  1.0000
  C   C1062     1.0  0.69225  0.53498  0.34660  1.0000
  C   C1063     1.0  0.59117  0.44117  0.34921  1.0000
  S   S143      1.0  0.68985  0.52674  0.99717  1.0000
  H   H838      1.0  0.87132  0.43118  0.01966  1.0000
  C   C1064     1.0  0.85526  0.36728  0.23375  1.0000
  C   C1065     1.0  0.62508  0.42370  0.36558  1.0000
  C   C1066     1.0  0.63822  0.48288  0.28882  1.0000
  C   C1067     1.0  0.65430  0.51118  0.27346  1.0000
  C   C1068     1.0  0.64563  0.51588  0.24281  1.0000
  C   C1069     1.0  0.62097  0.49237  0.22712  1.0000
  C   C1070     1.0  0.60507  0.46404  0.24198  1.0000
  C   C1071     1.0  0.61376  0.45921  0.27257  1.0000
  H   H839      1.0  0.70576  0.43914  0.26217  1.0000
  H   H840      1.0  0.74577  0.45284  0.30316  1.0000
  H   H841      1.0  0.74437  0.47651  0.35470  1.0000
  H   H842      1.0  0.70301  0.48654  0.36608  1.0000
  H   H843      1.0  0.66433  0.44897  0.27263  1.0000
  H   H844      1.0  0.93926  0.39417  0.41084  1.0000
  H   H845      1.0  0.99646  0.44456  0.99961  1.0000
  C   C1072     1.0  0.79761  0.65689  0.14303  1.0000
  H   H846      1.0  0.72411  0.58083  0.35971  1.0000
  H   H847      1.0  0.70715  0.53390  0.32892  1.0000
  H   H848      1.0  0.72501  0.57569  0.15221  1.0000
  H   H849      1.0  0.79582  0.61402  0.22151  1.0000
  Fe  Fe71      1.0  0.84226  0.33726  0.34828  1.0000
  Fe  Fe72      1.0  0.49865  0.66392  0.15137  1.0000
  H   H850      1.0  0.64710  0.42592  0.36593  1.0000
  H   H851      1.0  0.67382  0.52961  0.28472  1.0000
  H   H852      1.0  0.65820  0.53772  0.23107  1.0000
  H   H853      1.0  0.58608  0.44572  0.22968  1.0000
  H   H854      1.0  0.60158  0.43688  0.28324  1.0000
  S   S144      1.0  0.52991  0.66341  0.18894  1.0000
  C   C1073     1.0  0.93895  0.55784  0.10246  1.0000
  C   C1074     1.0  0.54730  0.35977  0.05799  1.0000
  H   H855      1.0  0.57298  0.64787  0.07195  1.0000
  P   P35       1.0  0.90930  0.41994  0.21936  1.0000
  C   C1075     1.0  0.82440  0.54956  0.43885  1.0000
  H   H856      1.0  0.96018  0.39473  0.30609  1.0000
  C   C1076     1.0  0.55214  0.52341  0.99281  1.0000
  S   S145      1.0  0.60477  0.46511  0.02166  1.0000
  C   C1077     1.0  0.87215  0.38449  0.43671  1.0000
  H   H857      1.0  0.84204  0.64000  0.18920  1.0000
  H   H858      1.0  0.94564  0.56015  0.05076  1.0000
  H   H859      1.0  0.63524  0.63615  0.13056  1.0000
  C   C1078     1.0  0.56752  0.35821  0.03661  1.0000
  S   S146      1.0  0.59654  0.66127  0.13915  1.0000
  C   C1079     1.0  0.85587  0.43971  0.02012  1.0000
  H   H860      1.0  0.64105  0.53953  0.41257  1.0000
  H   H861      1.0  0.56358  0.36706  0.13910  1.0000
  H   H862      1.0  0.63751  0.58925  0.17161  1.0000
  H   H863      1.0  0.81648  0.33771  0.42009  1.0000
  C   C1080     1.0  0.83400  0.43103  0.99604  1.0000
  C   C1081     1.0  0.56789  0.41736  0.36645  1.0000
  S   S147      1.0  0.87557  0.33897  0.31231  1.0000
  C   C1082     1.0  0.75366  0.56330  0.28456  1.0000
  C   C1083     1.0  0.82235  0.64091  0.18160  1.0000
  S   S148      1.0  0.94209  0.34645  0.36105  1.0000
  H   H864      1.0  0.52119  0.44724  0.99125  1.0000
  H   H865      1.0  0.61432  0.49606  0.20334  1.0000
  H   H866      1.0  0.71817  0.50440  0.23259  1.0000
  H   H867      1.0  0.67788  0.60724  0.21232  1.0000
  C   C1084     1.0  0.72653  0.52674  0.24263  1.0000
  H   H868      1.0  0.70084  0.59839  0.27250  1.0000
  H   H869      1.0  0.59990  0.45474  0.48709  1.0000
  Fe  Fe73      1.0  0.64191  0.51275  0.00963  1.0000
  C   C1085     1.0  0.75102  0.58519  0.26706  1.0000
  C   C1086     1.0  0.72411  0.54868  0.22477  1.0000
  C   C1087     1.0  0.71183  0.64236  0.28930  1.0000
  C   C1088     1.0  0.71399  0.62244  0.26786  1.0000
  H   H870      1.0  0.76158  0.60794  0.27653  1.0000
  H   H871      1.0  0.71375  0.54275  0.20108  1.0000
  C   C1089     1.0  0.98019  0.61625  0.19223  1.0000
  H   H872      1.0  0.75201  0.50736  0.05779  1.0000
  C   C1090     1.0  0.73604  0.57803  0.23707  1.0000
  H   H873      1.0  0.57026  0.49381  0.99724  1.0000
  C   C1091     1.0  0.52219  0.46884  0.99085  1.0000
  C   C1092     1.0  0.83639  0.35608  0.16908  1.0000
  H   H874      1.0  0.92534  0.55214  0.15258  1.0000
  C   C1093     1.0  0.82802  0.34168  0.22572  1.0000
  H   H875      1.0  0.91615  0.37070  0.19385  1.0000
  C   C1094     1.0  0.98798  0.35171  0.44541  1.0000
  C   C1095     1.0  0.89792  0.39458  0.41764  1.0000
  H   H876      1.0  0.50608  0.40845  0.42183  1.0000
  C   C1096     1.0  0.70576  0.57824  0.15703  1.0000
  C   C1097     1.0  0.93607  0.41933  0.19149  1.0000
  C   C1098     1.0  0.65642  0.58583  0.16782  1.0000
  C   C1099     1.0  0.98014  0.44507  0.15684  1.0000
  C   C1100     1.0  0.67945  0.59602  0.19088  1.0000
  C   C1101     1.0  0.57013  0.35012  0.13651  1.0000
  H   H877      1.0  0.90690  0.52979  0.20999  1.0000
  C   C1102     1.0  0.70440  0.59235  0.18554  1.0000
  C   C1103     1.0  0.81370  0.44155  0.99689  1.0000
  H   H878      1.0  0.87729  0.39714  0.15795  1.0000
  C   C1104     1.0  0.60837  0.33701  0.12608  1.0000
  C   C1105     1.0  0.86356  0.38192  0.17708  1.0000
  C   C1106     1.0  0.96453  0.34343  0.42257  1.0000
  H   H879      1.0  0.57381  0.54377  0.99563  1.0000
  H   H880      1.0  0.93221  0.36329  0.45984  1.0000
  C   C1107     1.0  0.82819  0.57711  0.48823  1.0000
  P   P36       1.0  0.83408  0.35306  0.48851  1.0000
  H   H881      1.0  0.83479  0.52963  0.98945  1.0000
  Fe  Fe74      1.0  0.68661  0.55732  0.96009  1.0000
  H   H882      1.0  0.88278  0.48468  0.75375  1.0000
  S   S149      1.0  0.70514  0.56350  0.90757  1.0000
  Fe  Fe75      1.0  0.66452  0.58804  0.52966  1.0000
  S   S150      1.0  0.63429  0.53940  0.54271  1.0000
  S   S151      1.0  0.65666  0.62654  0.54686  1.0000
  Fe  Fe76      1.0  0.67673  0.53687  0.54554  1.0000
  S   S152      1.0  0.68123  0.51039  0.58765  1.0000
  S   S153      1.0  0.67434  0.52214  0.49332  1.0000
  H   H883      1.0  0.57443  0.43994  0.90798  1.0000
  S   S154      1.0  0.70743  0.58629  0.53509  1.0000
  H   H884      1.0  0.53482  0.53619  0.91644  1.0000
  C   C1108     1.0  0.91244  0.46645  0.75161  1.0000
  C   C1109     1.0  0.58762  0.45164  0.95782  1.0000
  H   H885      1.0  0.91527  0.41184  0.95013  1.0000
  S   S155      1.0  0.83595  0.37463  0.84707  1.0000
  Fe  Fe77      1.0  0.81896  0.53752  0.78291  1.0000
  S   S156      1.0  0.79007  0.50502  0.74370  1.0000
  S   S157      1.0  0.80055  0.53682  0.83460  1.0000
  Fe  Fe78      1.0  0.87777  0.55992  0.74088  1.0000
  S   S158      1.0  0.85182  0.52904  0.70009  1.0000
  S   S159      1.0  0.92960  0.58521  0.73963  1.0000
  Fe  Fe79      1.0  0.81766  0.54327  0.70903  1.0000
  S   S160      1.0  0.80395  0.56213  0.66642  1.0000
  Fe  Fe80      1.0  0.82700  0.49380  0.73845  1.0000
  S   S161      1.0  0.82154  0.44743  0.72979  1.0000
  S   S162      1.0  0.84504  0.57665  0.74833  1.0000
  S   S163      1.0  0.85439  0.52372  0.77922  1.0000
  H   H886      1.0  0.69275  0.45002  0.97758  1.0000
  C   C1110     1.0  0.94840  0.61465  0.67948  1.0000
  C   C1111     1.0  0.95490  0.60171  0.70599  1.0000
  C   C1112     1.0  0.51789  0.53750  0.90203  1.0000
  H   H887      1.0  0.92693  0.61362  0.67834  1.0000
  C   C1113     1.0  0.83439  0.39579  0.81380  1.0000
  C   C1114     1.0  0.83724  0.38894  0.78162  1.0000
  C   C1115     1.0  0.83330  0.40492  0.75595  1.0000
  C   C1116     1.0  0.82761  0.42853  0.76233  1.0000
  C   C1117     1.0  0.82614  0.43621  0.79448  1.0000
  C   C1118     1.0  0.82910  0.41962  0.81998  1.0000
  H   H888      1.0  0.84141  0.37068  0.77651  1.0000
  H   H889      1.0  0.83436  0.39880  0.73110  1.0000
  H   H890      1.0  0.82164  0.45423  0.79971  1.0000
  H   H891      1.0  0.82656  0.42486  0.84461  1.0000
  C   C1119     1.0  0.62662  0.58072  0.88107  1.0000
  C   C1120     1.0  0.88560  0.34462  0.72115  1.0000
  H   H892      1.0  0.84264  0.63055  0.69042  1.0000
  C   C1121     1.0  0.85451  0.53265  0.97665  1.0000
  H   H893      1.0  0.64261  0.60996  0.80850  1.0000
  C   C1122     1.0  0.71532  0.52492  0.60973  1.0000
  C   C1123     1.0  0.71874  0.50659  0.63284  1.0000
  C   C1124     1.0  0.74564  0.51751  0.65063  1.0000
  C   C1125     1.0  0.76928  0.54694  0.64551  1.0000
  C   C1126     1.0  0.76575  0.56522  0.62251  1.0000
  C   C1127     1.0  0.73904  0.55430  0.60462  1.0000
  H   H894      1.0  0.70059  0.48378  0.63686  1.0000
  H   H895      1.0  0.74814  0.50318  0.66818  1.0000
  H   H896      1.0  0.78383  0.58802  0.61856  1.0000
  H   H897      1.0  0.73686  0.56861  0.58684  1.0000
  C   C1128     1.0  0.73203  0.55601  0.88815  1.0000
  C   C1129     1.0  0.74570  0.54177  0.90398  1.0000
  C   C1130     1.0  0.76641  0.53608  0.88723  1.0000
  C   C1131     1.0  0.77382  0.54435  0.85435  1.0000
  C   C1132     1.0  0.76019  0.55863  0.83861  1.0000
  C   C1133     1.0  0.73958  0.56439  0.85535  1.0000
  H   H898      1.0  0.74037  0.53518  0.92915  1.0000
  H   H899      1.0  0.77681  0.52518  0.89990  1.0000
  H   H900      1.0  0.76598  0.56575  0.81372  1.0000
  H   H901      1.0  0.72949  0.57557  0.84280  1.0000
  H   H902      1.0  0.72799  0.66074  0.72530  1.0000
  C   C1134     1.0  0.60523  0.61296  0.62886  1.0000
  C   C1135     1.0  0.62063  0.60819  0.60311  1.0000
  C   C1136     1.0  0.63581  0.63058  0.57951  1.0000
  C   C1137     1.0  0.73652  0.48551  0.55614  1.0000
  H   H903      1.0  0.69595  0.55482  0.68736  1.0000
  H   H904      1.0  0.59424  0.59573  0.64727  1.0000
  H   H905      1.0  0.62109  0.58735  0.60178  1.0000
  C   C1138     1.0  0.98879  0.45148  0.69837  1.0000
  Fe  Fe81      1.0  0.49830  0.66123  0.67188  1.0000
  C   C1139     1.0  0.54174  0.40660  0.94047  1.0000
  H   H906      1.0  0.64349  0.52882  0.87256  1.0000
  C   C1140     1.0  0.73188  0.57293  0.72298  1.0000
  H   H907      1.0  0.92835  0.45879  0.98036  1.0000
  H   H908      1.0  0.93246  0.40367  0.86313  1.0000
  C   C1141     1.0  0.53742  0.46951  0.84739  1.0000
  H   H909      1.0  0.95433  0.50340  0.89949  1.0000
  H   H910      1.0  0.69243  0.62051  0.59709  1.0000
  C   C1142     1.0  0.55812  0.57899  0.79105  1.0000
  H   H911      1.0  0.81208  0.52368  0.56558  1.0000
  H   H912      1.0  0.76648  0.58300  0.75873  1.0000
  C   C1143     1.0  0.61897  0.60112  0.80374  1.0000
  C   C1144     1.0  0.65866  0.53990  0.77990  1.0000
  C   C1145     1.0  0.67218  0.52737  0.79887  1.0000
  C   C1146     1.0  0.63458  0.54559  0.82799  1.0000
  C   C1147     1.0  0.63974  0.54879  0.79431  1.0000
  P   P37       1.0  0.60916  0.55544  0.84727  1.0000
  C   C1148     1.0  0.57819  0.51977  0.86064  1.0000
  C   C1149     1.0  0.60936  0.58858  0.90073  1.0000
  C   C1150     1.0  0.56001  0.49817  0.83752  1.0000
  C   C1151     1.0  0.85902  0.35727  0.58372  1.0000
  C   C1152     1.0  0.55448  0.34394  0.55666  1.0000
  S   S164      1.0  0.87645  0.33691  0.80263  1.0000
  C   C1153     1.0  0.57393  0.51200  0.89373  1.0000
  C   C1154     1.0  0.59727  0.57476  0.81946  1.0000
  C   C1155     1.0  0.56669  0.56423  0.81361  1.0000
  P   P38       1.0  0.81937  0.57758  0.53061  1.0000
  H   H913      1.0  0.66283  0.54265  0.75400  1.0000
  C   C1156     1.0  0.93411  0.38316  0.74106  1.0000
  H   H914      1.0  0.62906  0.55781  0.77897  1.0000
  H   H915      1.0  0.58592  0.58009  0.89533  1.0000
  C   C1157     1.0  0.75832  0.53454  0.53022  1.0000
  H   H916      1.0  0.56378  0.50326  0.81182  1.0000
  H   H917      1.0  0.62716  0.63590  0.76874  1.0000
  C   C1158     1.0  0.81252  0.42999  0.49699  1.0000
  H   H918      1.0  0.85421  0.35945  0.70991  1.0000
  H   H919      1.0  0.58861  0.52746  0.91208  1.0000
  H   H920      1.0  0.54938  0.54468  0.82624  1.0000
  H   H921      1.0  0.68702  0.52068  0.78786  1.0000
  C   C1159     1.0  0.74796  0.56552  0.74506  1.0000
  C   C1160     1.0  0.80561  0.37837  0.61531  1.0000
  H   H922      1.0  0.96259  0.55181  0.87643  1.0000
  H   H923      1.0  0.57193  0.52687  0.51354  1.0000
  C   C1161     1.0  0.56666  0.44095  0.55214  1.0000
  C   C1162     1.0  0.62214  0.60684  0.92802  1.0000
  H   H924      1.0  0.59676  0.39980  0.98261  1.0000
  C   C1163     1.0  0.92539  0.40501  0.73805  1.0000
  C   C1164     1.0  0.53554  0.52305  0.54336  1.0000
  P   P39       1.0  0.74155  0.61185  0.71799  1.0000
  C   C1165     1.0  0.54099  0.57083  0.56087  1.0000
  H   H925      1.0  0.49843  0.58485  0.80875  1.0000
  C   C1166     1.0  0.83007  0.64003  0.70143  1.0000
  H   H926      1.0  0.69395  0.40216  0.97609  1.0000
  H   H927      1.0  0.98202  0.49508  0.79335  1.0000
  C   C1167     1.0  0.58589  0.48150  0.59119  1.0000
  C   C1168     1.0  0.50024  0.46683  0.50499  1.0000
  C   C1169     1.0  0.71249  0.61956  0.80831  1.0000
  C   C1170     1.0  0.71346  0.65874  0.77454  1.0000
  C   C1171     1.0  0.56947  0.35193  0.92117  1.0000
  C   C1172     1.0  0.77730  0.34132  0.57404  1.0000
  H   H928      1.0  0.53265  0.58352  0.91523  1.0000
  H   H929      1.0  0.58085  0.61084  0.54436  1.0000
  H   H930      1.0  0.50458  0.38045  0.56150  1.0000
  C   C1173     1.0  0.94007  0.42081  0.81422  1.0000
  H   H931      1.0  0.71114  0.50162  0.53012  1.0000
  H   H932      1.0  0.92700  0.39847  0.80409  1.0000
  H   H933      1.0  0.83259  0.41579  0.97701  1.0000
  C   C1174     1.0  0.58728  0.45779  0.57636  1.0000
  H   H934      1.0  0.60487  0.45306  0.58312  1.0000
  C   C1175     1.0  0.72326  0.64873  0.74822  1.0000
  H   H935      1.0  0.98921  0.50318  0.94007  1.0000
  C   C1176     1.0  0.60456  0.36743  0.51573  1.0000
  H   H936      1.0  0.50271  0.61062  0.58202  1.0000
  C   C1177     1.0  0.79023  0.51957  0.55808  1.0000
  P   P40       1.0  0.51621  0.48229  0.54428  1.0000
  H   H937      1.0  0.68500  0.60950  0.70044  1.0000
  H   H938      1.0  0.64697  0.35328  0.97818  1.0000
  C   C1178     1.0  0.98332  0.60395  0.70713  1.0000
  C   C1179     1.0  0.90798  0.56175  0.96649  1.0000
  H   H939      1.0  0.70890  0.60856  0.83174  1.0000
  C   C1180     1.0  0.69804  0.61322  0.67857  1.0000
  S   S165      1.0  0.63742  0.54084  0.97056  1.0000
  C   C1181     1.0  0.78698  0.54157  0.54098  1.0000
  H   H940      1.0  0.88355  0.59961  0.51687  1.0000
  H   H941      1.0  0.95588  0.38911  0.75096  1.0000
  H   H942      1.0  0.60241  0.49504  0.60939  1.0000
  P   P41       1.0  0.58304  0.33714  0.98175  1.0000
  C   C1182     1.0  0.57896  0.57042  0.52672  1.0000
  H   H943      1.0  0.56805  0.42291  0.54022  1.0000
  H   H944      1.0  0.81994  0.40169  0.62249  1.0000
  H   H945      1.0  0.52378  0.45267  0.82952  1.0000
  H   H946      1.0  0.54858  0.47709  0.92884  1.0000
  C   C1183     1.0  0.91998  0.51046  0.72166  1.0000
  C   C1184     1.0  0.56847  0.43331  0.93307  1.0000
  H   H947      1.0  0.67698  0.51368  0.84699  1.0000
  H   H948      1.0  0.86745  0.57968  0.63532  1.0000
  C   C1185     1.0  0.94303  0.42373  0.84795  1.0000
  H   H949      1.0  0.86723  0.37379  0.60304  1.0000
  C   C1186     1.0  0.94650  0.51387  0.70860  1.0000
  C   C1187     1.0  0.98177  0.37215  0.87446  1.0000
  C   C1188     1.0  0.97476  0.35689  0.90427  1.0000
  C   C1189     1.0  0.79533  0.37143  0.58334  1.0000
  H   H950      1.0  0.88666  0.34445  0.49292  1.0000
  H   H951      1.0  0.76755  0.47562  0.58056  1.0000
  H   H952      1.0  0.78744  0.59946  0.49026  1.0000
  H   H953      1.0  0.80622  0.36114  0.66256  1.0000
  H   H954      1.0  0.82955  0.49291  0.94792  1.0000
  H   H955      1.0  0.60866  0.61208  0.94395  1.0000
  H   H956      1.0  0.96534  0.64126  0.63559  1.0000
  H   H957      1.0  0.64401  0.44854  0.98108  1.0000
  H   H958      1.0  0.57670  0.38757  0.57962  1.0000
  H   H959      1.0  0.51680  0.63644  0.78743  1.0000
  C   C1190     1.0  0.57992  0.60467  0.77474  1.0000
  C   C1191     1.0  0.84693  0.57936  0.58962  1.0000
  C   C1192     1.0  0.87095  0.58410  0.60943  1.0000
  H   H960      1.0  0.89915  0.44852  0.76876  1.0000
  H   H961      1.0  0.56391  0.50759  0.59280  1.0000
  H   H962      1.0  0.66443  0.61412  0.64813  1.0000
  H   H963      1.0  0.69315  0.61878  0.92162  1.0000
  H   H964      1.0  0.71224  0.48953  0.73407  1.0000
  C   C1193     1.0  0.89664  0.39635  0.72602  1.0000
  H   H965      1.0  0.91615  0.57553  0.82723  1.0000
  C   C1194     1.0  0.67265  0.40152  0.97773  1.0000
  C   C1195     1.0  0.72748  0.62381  0.75166  1.0000
  C   C1196     1.0  0.89931  0.59436  0.59588  1.0000
  H   H966      1.0  0.60823  0.47212  0.95175  1.0000
  H   H967      1.0  0.75508  0.55059  0.51625  1.0000
  H   H968      1.0  0.96901  0.44394  0.68335  1.0000
  H   H969      1.0  0.50415  0.52777  0.57454  1.0000
  H   H970      1.0  0.92577  0.60808  0.55216  1.0000
  H   H971      1.0  0.70109  0.65226  0.82519  1.0000
  S   S166      1.0  0.95493  0.36157  0.84210  1.0000
  H   H972      1.0  0.99127  0.35273  0.95114  1.0000
  H   H973      1.0  0.91257  0.52620  0.71517  1.0000
  C   C1197     1.0  0.65234  0.61779  0.93548  1.0000
  H   H974      1.0  0.68366  0.50222  0.69472  1.0000
  C   C1198     1.0  0.93872  0.46922  0.73802  1.0000
  C   C1199     1.0  0.52472  0.53925  0.56067  1.0000
  C   C1200     1.0  0.90310  0.48692  0.74331  1.0000
  C   C1201     1.0  0.79745  0.35525  0.63814  1.0000
  C   C1202     1.0  0.90368  0.60003  0.56254  1.0000
  S   S167      1.0  0.58632  0.64575  0.66574  1.0000
  H   H975      1.0  0.91789  0.59785  0.61123  1.0000
  H   H976      1.0  0.53458  0.57038  0.78594  1.0000
  H   H977      1.0  0.82506  0.57122  0.60051  1.0000
  H   H978      1.0  0.88920  0.41252  0.72323  1.0000
  C   C1203     1.0  0.97307  0.52457  0.90778  1.0000
  C   C1204     1.0  0.97030  0.63038  0.65521  1.0000
  C   C1205     1.0  0.67203  0.42847  0.97854  1.0000
  C   C1206     1.0  0.74058  0.53551  0.74935  1.0000
  H   H979      1.0  0.50846  0.45883  0.61149  1.0000
  C   C1207     1.0  0.60279  0.38552  0.53995  1.0000
  C   C1208     1.0  0.70187  0.61908  0.62010  1.0000
  H   H980      1.0  0.75315  0.53004  0.76647  1.0000
  C   C1209     1.0  0.58138  0.33755  0.51203  1.0000
  H   H981      1.0  0.86568  0.43211  0.88115  1.0000
  H   H982      1.0  0.74160  0.62276  0.59852  1.0000
  C   C1210     1.0  0.71737  0.51268  0.73131  1.0000
  C   C1211     1.0  0.90514  0.54108  0.94266  1.0000
  C   C1212     1.0  0.87689  0.51611  0.93550  1.0000
  C   C1213     1.0  0.85162  0.51188  0.95293  1.0000
  P   P42       1.0  0.87341  0.48958  0.90456  1.0000
  C   C1214     1.0  0.83446  0.46803  0.89240  1.0000
  C   C1215     1.0  0.89505  0.51022  0.86927  1.0000
  C   C1216     1.0  0.89820  0.53840  0.86136  1.0000
  C   C1217     1.0  0.91452  0.55424  0.83388  1.0000
  C   C1218     1.0  0.92783  0.54216  0.81408  1.0000
  C   C1219     1.0  0.92479  0.51421  0.82168  1.0000
  C   C1220     1.0  0.90826  0.49812  0.84893  1.0000
  C   C1221     1.0  0.81545  0.43918  0.90550  1.0000
  C   C1222     1.0  0.78540  0.42253  0.89585  1.0000
  C   C1223     1.0  0.77395  0.43474  0.87351  1.0000
  C   C1224     1.0  0.79248  0.46367  0.86100  1.0000
  C   C1225     1.0  0.82257  0.48031  0.87040  1.0000
  C   C1226     1.0  0.88650  0.46491  0.91964  1.0000
  C   C1227     1.0  0.90421  0.47213  0.94780  1.0000
  H   H983      1.0  0.58039  0.37504  0.92942  1.0000
  H   H984      1.0  0.71686  0.46441  0.56301  1.0000
  C   C1228     1.0  0.88964  0.41933  0.91386  1.0000
  C   C1229     1.0  0.87931  0.43830  0.90287  1.0000
  P   P43       1.0  0.95115  0.44338  0.75052  1.0000
  H   H985      1.0  0.92492  0.54472  0.92959  1.0000
  H   H986      1.0  0.92975  0.58125  0.97156  1.0000
  H   H987      1.0  0.88740  0.54785  0.87587  1.0000
  C   C1230     1.0  0.72968  0.62057  0.62095  1.0000
  H   H988      1.0  0.93993  0.55420  0.79239  1.0000
  H   H989      1.0  0.93475  0.50475  0.80599  1.0000
  H   H990      1.0  0.90566  0.47617  0.85352  1.0000
  H   H991      1.0  0.82385  0.42913  0.92252  1.0000
  H   H992      1.0  0.77113  0.39989  0.90515  1.0000
  H   H993      1.0  0.75079  0.42175  0.86566  1.0000
  H   H994      1.0  0.78363  0.47324  0.84370  1.0000
  H   H995      1.0  0.83630  0.50267  0.86024  1.0000
  H   H996      1.0  0.91002  0.49229  0.96148  1.0000
  Fe  Fe82      1.0  0.84714  0.33716  0.84232  1.0000
  C   C1231     1.0  0.50564  0.63018  0.56870  1.0000
  C   C1232     1.0  0.95596  0.49343  0.71678  1.0000
  C   C1233     1.0  0.64760  0.53217  0.84663  1.0000
  C   C1234     1.0  0.70838  0.54983  0.70509  1.0000
  C   C1235     1.0  0.53316  0.46209  0.88034  1.0000
  C   C1236     1.0  0.85098  0.58473  0.55603  1.0000
  C   C1237     1.0  0.66648  0.52335  0.83216  1.0000
  C   C1238     1.0  0.65712  0.59245  0.88834  1.0000
  H   H997      1.0  0.53021  0.43552  0.52243  1.0000
  C   C1239     1.0  0.76501  0.49191  0.56615  1.0000
  C   C1240     1.0  0.98690  0.45354  0.73218  1.0000
  C   C1241     1.0  0.54360  0.47209  0.55682  1.0000
  H   H998      1.0  0.76318  0.35583  0.74939  1.0000
  C   C1242     1.0  0.56799  0.58639  0.54377  1.0000
  H   H999      1.0  0.83003  0.62036  0.58445  1.0000
  C   C1243     1.0  0.80911  0.64549  0.57010  1.0000
  H   H1000     1.0  0.55792  0.36340  0.87514  1.0000
  H   H1001     1.0  0.88367  0.39872  0.90070  1.0000
  C   C1244     1.0  0.70121  0.51983  0.70928  1.0000
  C   C1245     1.0  0.66983  0.61074  0.91554  1.0000
  C   C1246     1.0  0.78202  0.63470  0.71656  1.0000
  C   C1247     1.0  0.57788  0.37368  0.56057  1.0000
  H   H1002     1.0  0.67118  0.58718  0.87362  1.0000
  H   H1003     1.0  0.76322  0.61946  0.65053  1.0000
  C   C1248     1.0  0.79374  0.61219  0.51267  1.0000
  H   H1004     1.0  0.72573  0.59059  0.78574  1.0000
  S   S168      1.0  0.51807  0.38558  0.90820  1.0000
  C   C1249     1.0  0.85182  0.36444  0.55352  1.0000
  C   C1250     1.0  0.88264  0.55763  0.98334  1.0000
  C   C1251     1.0  0.87963  0.59523  0.54262  1.0000
  C   C1252     1.0  0.63452  0.65736  0.58176  1.0000
  C   C1253     1.0  0.91470  0.45315  0.95867  1.0000
  Fe  Fe83      1.0  0.63468  0.52914  0.48973  1.0000
  C   C1254     1.0  0.61032  0.61587  0.78131  1.0000
  C   C1255     1.0  0.64583  0.37374  0.97891  1.0000
  H   H1005     1.0  0.57331  0.61593  0.75694  1.0000
  C   C1256     1.0  0.90739  0.42674  0.94171  1.0000
  C   C1257     1.0  0.60401  0.63981  0.63112  1.0000
  C   C1258     1.0  0.56418  0.48867  0.58149  1.0000
  C   C1259     1.0  0.54505  0.44817  0.54215  1.0000
  H   H1006     1.0  0.62392  0.37658  0.49981  1.0000
  H   H1007     1.0  0.96286  0.45417  0.88806  1.0000
  H   H1008     1.0  0.49791  0.49170  0.88510  1.0000
  C   C1260     1.0  0.78923  0.40020  0.49328  1.0000
  C   C1261     1.0  0.91436  0.35316  0.73243  1.0000
  C   C1262     1.0  0.79874  0.62324  0.70190  1.0000
  H   H1009     1.0  0.85485  0.38669  0.54998  1.0000
  H   H1010     1.0  0.80169  0.38938  0.56569  1.0000
  H   H1011     1.0  0.53308  0.58331  0.57488  1.0000
  C   C1263     1.0  0.95421  0.44642  0.79418  1.0000
  H   H1012     1.0  0.78746  0.60111  0.69098  1.0000
  H   H1013     1.0  0.51376  0.37743  0.97887  1.0000
  C   C1264     1.0  0.68607  0.61542  0.64890  1.0000
  C   C1265     1.0  0.84879  0.41312  0.49516  1.0000
  H   H1014     1.0  0.60035  0.58245  0.51425  1.0000
  C   C1266     1.0  0.84128  0.34317  0.52832  1.0000
  C   C1267     1.0  0.72213  0.60941  0.78201  1.0000
  C   C1268     1.0  0.80974  0.60669  0.53675  1.0000
  C   C1269     1.0  0.56287  0.53891  0.52655  1.0000
  C   C1270     1.0  0.79566  0.37682  0.49052  1.0000
  C   C1271     1.0  0.81760  0.62377  0.56543  1.0000
  C   C1272     1.0  0.97764  0.55178  0.89477  1.0000
  C   C1273     1.0  0.72637  0.61550  0.67975  1.0000
  C   C1274     1.0  0.87676  0.36621  0.71789  1.0000
  H   H1015     1.0  0.77289  0.63782  0.49859  1.0000
  C   C1275     1.0  0.78546  0.63403  0.51731  1.0000
  C   C1276     1.0  0.74191  0.61877  0.65061  1.0000
  H   H1016     1.0  0.66205  0.63135  0.95706  1.0000
  H   H1017     1.0  0.76976  0.33585  0.54915  1.0000
  H   H1018     1.0  0.54942  0.64207  0.55122  1.0000
  C   C1277     1.0  0.53208  0.64812  0.55120  1.0000
  C   C1278     1.0  0.55128  0.48335  0.90345  1.0000
  C   C1279     1.0  0.62748  0.66502  0.49420  1.0000
  H   H1019     1.0  0.97687  0.49702  0.70671  1.0000
  H   H1020     1.0  0.95978  0.53257  0.69223  1.0000
  C   C1280     1.0  0.73328  0.50659  0.53771  1.0000
  H   H1021     1.0  0.62079  0.40868  0.54279  1.0000
  H   H1022     1.0  0.51647  0.43955  0.88795  1.0000
  C   C1281     1.0  0.53437  0.39798  0.97293  1.0000
  C   C1282     1.0  0.97102  0.47502  0.80843  1.0000
  C   C1283     1.0  0.55676  0.34543  0.89016  1.0000
  C   C1284     1.0  0.61812  0.37275  0.98105  1.0000
  C   C1285     1.0  0.79718  0.66360  0.73045  1.0000
  C   C1286     1.0  0.64459  0.42766  0.98043  1.0000
  C   C1287     1.0  0.96018  0.45219  0.86195  1.0000
  S   S169      1.0  0.52628  0.65783  0.71135  1.0000
  C   C1288     1.0  0.70817  0.64421  0.80462  1.0000
  C   C1289     1.0  0.61859  0.66183  0.60707  1.0000
  C   C1290     1.0  0.97417  0.47787  0.84217  1.0000
  H   H1023     1.0  0.79654  0.43459  0.97836  1.0000
  C   C1291     1.0  0.79300  0.65059  0.54607  1.0000
  H   H1024     1.0  0.81501  0.65834  0.59242  1.0000
  C   C1292     1.0  0.51663  0.56411  0.90133  1.0000
  H   H1025     1.0  0.98884  0.59431  0.72753  1.0000
  H   H1026     1.0  0.95225  0.33834  0.90852  1.0000
  C   C1293     1.0  0.61779  0.39997  0.98147  1.0000
  H   H1027     1.0  0.53537  0.33522  0.57284  1.0000
  C   C1294     1.0  0.76792  0.33831  0.74217  1.0000
  H   H1028     1.0  0.98781  0.49994  0.85286  1.0000
  H   H1029     1.0  0.50041  0.65953  0.87408  1.0000
  H   H1030     1.0  0.92081  0.33621  0.73589  1.0000
  C   C1295     1.0  0.99291  0.52458  0.93104  1.0000
  C   C1296     1.0  0.49710  0.51244  0.88436  1.0000
  H   H1031     1.0  0.75696  0.33952  0.69214  1.0000
  H   H1032     1.0  0.86038  0.45955  0.50058  1.0000
  H   H1033     1.0  0.76618  0.39525  0.49214  1.0000
  H   H1034     1.0  0.80754  0.44812  0.49879  1.0000
  C   C1297     1.0  0.84228  0.43643  0.49796  1.0000
  C   C1298     1.0  0.82553  0.38313  0.49132  1.0000
  H   H1035     1.0  0.87201  0.41852  0.49581  1.0000
  C   C1299     1.0  0.52624  0.52531  0.98844  1.0000
  H   H1036     1.0  0.52793  0.54726  0.98783  1.0000
  C   C1300     1.0  0.49824  0.49898  0.98553  1.0000
  Fe  Fe84      1.0  0.56661  0.89384  0.44903  1.0000
  C   C1301     1.0  0.60960  0.98098  0.00779  1.0000
  S   S170      1.0  0.60666  0.93735  0.47075  1.0000
  Fe  Fe85      1.0  0.54297  0.84691  0.39154  1.0000
  H   H1037     1.0  0.61004  0.85007  0.30214  1.0000
  S   S171      1.0  0.55032  0.83556  0.33889  1.0000
  H   H1038     1.0  0.60511  0.78634  0.99717  1.0000
  Fe  Fe86      1.0  0.52469  0.82603  0.46194  1.0000
  H   H1039     1.0  0.70017  0.78774  0.24266  1.0000
  S   S172      1.0  0.54378  0.89113  0.40116  1.0000
  S   S173      1.0  0.56974  0.85197  0.43724  1.0000
  Fe  Fe87      1.0  0.54599  0.72556  0.12549  1.0000
  S   S174      1.0  0.58006  0.72848  0.16191  1.0000
  S   S175      1.0  0.56521  0.76410  0.08876  1.0000
  C   C1302     1.0  0.58927  0.80278  0.17203  1.0000
  Fe  Fe88      1.0  0.54230  0.71202  0.19864  1.0000
  S   S176      1.0  0.54445  0.72759  0.25221  1.0000
  S   S177      1.0  0.49707  0.81195  0.99917  1.0000
  C   C1303     1.0  0.72848  0.67345  0.28365  1.0000
  P   P44       1.0  0.51762  0.94629  0.07118  1.0000
  H   H1040     1.0  0.55381  0.77695  0.46659  1.0000
  C   C1304     1.0  0.54598  0.80393  0.31549  1.0000
  C   C1305     1.0  0.54552  0.80535  0.28127  1.0000
  C   C1306     1.0  0.54426  0.78208  0.26159  1.0000
  C   C1307     1.0  0.54416  0.75709  0.27572  1.0000
  C   C1308     1.0  0.54438  0.75555  0.30995  1.0000
  C   C1309     1.0  0.54498  0.77852  0.32964  1.0000
  H   H1041     1.0  0.54781  0.87569  0.02793  1.0000
  H   H1042     1.0  0.54366  0.78369  0.23547  1.0000
  H   H1043     1.0  0.54425  0.73646  0.32136  1.0000
  H   H1044     1.0  0.54551  0.77698  0.35575  1.0000
  Fe  Fe89      1.0  0.56441  0.67998  0.14843  1.0000
  C   C1310     1.0  0.54736  0.81065  0.02101  1.0000
  C   C1311     1.0  0.56188  0.79980  0.04130  1.0000
  C   C1312     1.0  0.54564  0.77696  0.06428  1.0000
  C   C1313     1.0  0.51472  0.76530  0.06723  1.0000
  C   C1314     1.0  0.55982  0.72417  0.42268  1.0000
  C   C1315     1.0  0.60872  0.70566  0.02786  1.0000
  H   H1045     1.0  0.58586  0.80915  0.03924  1.0000
  C   C1316     1.0  0.64085  0.98789  0.39433  1.0000
  C   C1317     1.0  0.50490  0.94944  0.03124  1.0000
  C   C1318     1.0  0.62782  0.82854  0.27172  1.0000
  C   C1319     1.0  0.63921  0.76123  0.22775  1.0000
  H   H1046     1.0  0.64860  0.71447  0.17628  1.0000
  H   H1047     1.0  0.54534  0.95725  0.00653  1.0000
  H   H1048     1.0  0.50469  0.94193  0.14106  1.0000
  C   C1320     1.0  0.61936  0.83523  0.30138  1.0000
  C   C1321     1.0  0.57788  0.72821  0.01836  1.0000
  H   H1049     1.0  0.76014  0.70874  0.25213  1.0000
  C   C1322     1.0  0.65104  0.75217  0.20230  1.0000
  C   C1323     1.0  0.63900  0.80857  0.27053  1.0000
  H   H1050     1.0  0.56989  0.95493  0.10993  1.0000
  C   C1324     1.0  0.63713  0.82912  0.14434  1.0000
  C   C1325     1.0  0.53545  0.90723  0.04651  1.0000
  H   H1051     1.0  0.63019  0.96502  0.38507  1.0000
  H   H1052     1.0  0.59197  0.72228  0.06572  1.0000
  H   H1053     1.0  0.62032  0.69859  0.04456  1.0000
  C   C1326     1.0  0.55307  0.89358  0.04528  1.0000
  C   C1327     1.0  0.63412  0.80878  0.19847  1.0000
  H   H1054     1.0  0.61453  0.82677  0.35278  1.0000
  C   C1328     1.0  0.65102  0.82405  0.17087  1.0000
  C   C1329     1.0  0.58325  0.92505  0.08963  1.0000
  C   C1330     1.0  0.56447  0.70871  0.44803  1.0000
  H   H1055     1.0  0.58950  0.78445  0.21890  1.0000
  H   H1056     1.0  0.60230  0.97978  0.42240  1.0000
  H   H1057     1.0  0.56569  0.73858  0.02802  1.0000
  C   C1331     1.0  0.74102  0.83030  0.23878  1.0000
  H   H1058     1.0  0.65005  0.84053  0.12287  1.0000
  H   H1059     1.0  0.63577  0.79265  0.35142  1.0000
  S   S178      1.0  0.52327  0.86752  0.47619  1.0000
  H   H1060     1.0  0.79804  0.66822  0.12060  1.0000
  H   H1061     1.0  0.75519  0.82064  0.24326  1.0000
  H   H1062     1.0  0.67468  0.83147  0.16940  1.0000
  C   C1332     1.0  0.64258  0.79631  0.29958  1.0000
  H   H1063     1.0  0.66792  0.76875  0.18621  1.0000
  C   C1333     1.0  0.51647  0.79914  0.02406  1.0000
  H   H1064     1.0  0.69051  0.86541  0.22448  1.0000
  H   H1065     1.0  0.77817  0.87581  0.23449  1.0000
  C   C1334     1.0  0.69133  0.82401  0.23197  1.0000
  H   H1066     1.0  0.58619  0.69162  0.25491  1.0000
  H   H1067     1.0  0.72681  0.68888  0.30031  1.0000
  C   C1335     1.0  0.70446  0.85535  0.22803  1.0000
  H   H1068     1.0  0.60311  0.95773  0.01267  1.0000
  C   C1336     1.0  0.60500  0.70850  0.24091  1.0000
  H   H1069     1.0  0.51649  0.89934  0.03025  1.0000
  H   H1070     1.0  0.62543  0.83891  0.24988  1.0000
  C   C1337     1.0  0.61714  0.69968  0.21584  1.0000
  C   C1338     1.0  0.64019  0.72150  0.19657  1.0000
  C   C1339     1.0  0.74727  0.68464  0.25653  1.0000
  H   H1071     1.0  0.56008  0.82798  0.00316  1.0000
  P   P45       1.0  0.65100  0.80065  0.23248  1.0000
  H   H1072     1.0  0.60165  0.93176  0.10652  1.0000
  H   H1073     1.0  0.65188  0.78149  0.29928  1.0000
  H   H1074     1.0  0.62773  0.99644  0.05584  1.0000
  H   H1075     1.0  0.76424  0.67391  0.21422  1.0000
  H   H1076     1.0  0.54634  0.82477  0.26982  1.0000
  C   C1340     1.0  0.60309  0.79770  0.19857  1.0000
  C   C1341     1.0  0.62198  0.82211  0.33003  1.0000
  C   C1342     1.0  0.70978  0.81166  0.23813  1.0000
  C   C1343     1.0  0.73568  0.87393  0.22872  1.0000
  H   H1077     1.0  0.74569  0.89809  0.22539  1.0000
  C   C1344     1.0  0.52311  0.95433  0.00395  1.0000
  H   H1078     1.0  0.51789  0.68739  0.00115  1.0000
  C   C1345     1.0  0.59279  0.71900  0.03979  1.0000
  H   H1079     1.0  0.60523  0.74532  0.26542  1.0000
  C   C1346     1.0  0.53420  0.98341  0.08920  1.0000
  C   C1347     1.0  0.55686  0.75792  0.46142  1.0000
  C   C1348     1.0  0.61596  0.73913  0.24685  1.0000
  H   H1080     1.0  0.59075  0.89204  0.06563  1.0000
  C   C1349     1.0  0.75397  0.86139  0.23392  1.0000
  S   S179      1.0  0.53237  0.67821  0.11057  1.0000
  S   S180      1.0  0.50903  0.71139  0.16256  1.0000
  C   C1350     1.0  0.50799  0.70107  0.99508  1.0000
  C   C1351     1.0  0.54194  0.93038  0.06887  1.0000
  H   H1081     1.0  0.55220  0.76063  0.40983  1.0000
  H   H1082     1.0  0.59541  0.82192  0.12413  1.0000
  C   C1352     1.0  0.57714  0.90268  0.06663  1.0000
  H   H1083     1.0  0.56754  0.68991  0.44215  1.0000
  H   H1084     1.0  0.50208  0.74783  0.08495  1.0000
  C   C1353     1.0  0.63373  0.80277  0.32917  1.0000
  C   C1354     1.0  0.60632  0.81866  0.14501  1.0000
  H   H1085     1.0  0.56518  0.79359  0.17198  1.0000
  C   C1355     1.0  0.56518  0.71769  0.48039  1.0000
  C   C1356     1.0  0.55597  0.74872  0.42939  1.0000
  C   C1357     1.0  0.56543  0.93852  0.09113  1.0000
  C   C1358     1.0  0.56141  0.74251  0.48682  1.0000
  H   H1086     1.0  0.55912  0.71710  0.39776  1.0000
  Fe  Fe90      1.0  0.50045  0.86266  0.42811  1.0000
  C   C1359     1.0  0.51566  0.99310  0.10333  1.0000
  H   H1087     1.0  0.60791  0.67593  0.21047  1.0000
  C   C1360     1.0  0.62505  0.99625  0.41532  1.0000
  C   C1361     1.0  0.60965  0.70143  0.99446  1.0000
  S   S181      1.0  0.49816  0.81891  0.41595  1.0000
  C   C1362     1.0  0.50027  0.77659  0.04739  1.0000
  H   H1088     1.0  0.58013  0.99718  0.07635  1.0000
  H   H1089     1.0  0.84351  0.66725  0.13870  1.0000
  Fe  Fe91      1.0  0.55940  0.91149  0.93626  1.0000
  S   S182      1.0  0.51394  0.88748  0.95950  1.0000
  S   S183      1.0  0.58934  0.96299  0.94388  1.0000
  Fe  Fe92      1.0  0.54141  0.85670  0.88872  1.0000
  H   H1090     1.0  0.53972  0.85629  0.73594  1.0000
  S   S184      1.0  0.55677  0.84182  0.84297  1.0000
  C   C1363     1.0  0.59479  0.71071  0.97291  1.0000
  Fe  Fe93      1.0  0.51762  0.84564  0.95762  1.0000
  C   C1364     1.0  0.61368  0.83954  0.94216  1.0000
  S   S185      1.0  0.54023  0.90019  0.88558  1.0000
  S   S186      1.0  0.56489  0.87009  0.93763  1.0000
  Fe  Fe94      1.0  0.54938  0.72295  0.65007  1.0000
  S   S187      1.0  0.58077  0.72278  0.68844  1.0000
  S   S188      1.0  0.56950  0.76447  0.61727  1.0000
  H   H1091     1.0  0.59280  0.83431  0.72373  1.0000
  Fe  Fe95      1.0  0.54084  0.70674  0.72211  1.0000
  S   S189      1.0  0.53800  0.72004  0.77522  1.0000
  C   C1365     1.0  0.61789  0.82684  0.97031  1.0000
  H   H1092     1.0  0.58916  0.72781  0.84575  1.0000
  C   C1366     1.0  0.59411  0.87275  0.70056  1.0000
  C   C1367     1.0  0.52623  0.69229  0.91086  1.0000
  C   C1368     1.0  0.54990  0.80727  0.82425  1.0000
  C   C1369     1.0  0.53638  0.77960  0.84073  1.0000
  C   C1370     1.0  0.53263  0.75324  0.82530  1.0000
  C   C1371     1.0  0.54198  0.75390  0.79295  1.0000
  C   C1372     1.0  0.55487  0.78145  0.77621  1.0000
  C   C1373     1.0  0.55909  0.80789  0.79187  1.0000
  H   H1093     1.0  0.52894  0.77856  0.86544  1.0000
  C   C1374     1.0  0.57329  0.93088  0.62730  1.0000
  H   H1094     1.0  0.56222  0.78252  0.75142  1.0000
  H   H1095     1.0  0.56964  0.82909  0.77883  1.0000
  C   C1375     1.0  0.52425  0.77964  0.52878  1.0000
  H   H1096     1.0  0.61866  0.68287  0.60873  1.0000
  H   H1097     1.0  0.51690  0.70238  0.52535  1.0000
  C   C1376     1.0  0.55175  0.76922  0.58281  1.0000
  C   C1377     1.0  0.56788  0.79492  0.56311  1.0000
  C   C1378     1.0  0.55416  0.80025  0.53632  1.0000
  H   H1098     1.0  0.54070  0.68266  0.83244  1.0000
  H   H1099     1.0  0.51997  0.94769  0.86616  1.0000
  H   H1100     1.0  0.59111  0.81084  0.56864  1.0000
  P   P46       1.0  0.57128  0.69813  0.51361  1.0000
  H   H1101     1.0  0.53302  0.82000  0.60444  1.0000
  C   C1379     1.0  0.50262  0.81167  0.72670  1.0000
  C   C1380     1.0  0.59191  0.92358  0.60926  1.0000
  C   C1381     1.0  0.63928  0.77573  0.55350  1.0000
  C   C1382     1.0  0.58407  0.82730  0.67249  1.0000
  H   H1102     1.0  0.62198  0.69096  0.98538  1.0000
  C   C1383     1.0  0.60488  0.98922  0.97683  1.0000
  C   C1384     1.0  0.49723  0.97313  0.87049  1.0000
  C   C1385     1.0  0.57655  0.73054  0.89501  1.0000
  C   C1386     1.0  0.55353  0.71838  0.91837  1.0000
  C   C1387     1.0  0.51202  0.83733  0.77827  1.0000
  C   C1388     1.0  0.57873  0.72417  0.98477  1.0000
  C   C1389     1.0  0.54357  0.86455  0.58783  1.0000
  H   H1103     1.0  0.50929  0.72869  0.59014  1.0000
  H   H1104     1.0  0.63139  0.70412  0.51744  1.0000
  C   C1390     1.0  0.52189  0.74856  0.57517  1.0000
  H   H1105     1.0  0.61619  0.73299  0.62218  1.0000
  P   P47       1.0  0.58137  0.88444  0.60406  1.0000
  C   C1391     1.0  0.53647  0.67425  0.53500  1.0000
  C   C1392     1.0  0.61640  0.68350  0.50472  1.0000
  C   C1393     1.0  0.59273  0.99538  0.52808  1.0000
  H   H1106     1.0  0.52238  0.73217  0.83859  1.0000
  H   H1107     1.0  0.57770  0.82685  0.62120  1.0000
  C   C1394     1.0  0.52704  0.96146  0.57934  1.0000
  C   C1395     1.0  0.58066  0.77677  0.95177  1.0000
  C   C1396     1.0  0.61921  0.75453  0.53137  1.0000
  C   C1397     1.0  0.53378  0.98726  0.59725  1.0000
  H   H1108     1.0  0.56037  0.77588  0.90543  1.0000
  H   H1109     1.0  0.52568  0.85683  0.79333  1.0000
  C   C1398     1.0  0.57647  0.78980  0.92365  1.0000
  C   C1399     1.0  0.51168  0.99517  0.60253  1.0000
  H   H1110     1.0  0.56674  0.82014  0.52140  1.0000
  C   C1400     1.0  0.57183  0.71762  0.86418  1.0000
  H   H1111     1.0  0.59792  0.75046  0.90034  1.0000
  H   H1112     1.0  0.56701  0.96660  0.64593  1.0000
  H   H1113     1.0  0.63325  0.94211  0.58138  1.0000
  H   H1114     1.0  0.59593  0.70737  0.94717  1.0000
  C   C1401     1.0  0.64320  0.87901  0.52662  1.0000
  P   P48       1.0  0.55923  0.73628  0.95754  1.0000
  H   H1115     1.0  0.52623  0.95705  0.95181  1.0000
  H   H1116     1.0  0.63364  0.87547  0.60834  1.0000
  H   H1117     1.0  0.55262  0.91317  0.63786  1.0000
  C   C1402     1.0  0.58621  0.67494  0.49937  1.0000
  C   C1403     1.0  0.62631  0.97704  0.60009  1.0000
  H   H1118     1.0  0.86936  0.68157  0.71530  1.0000
  H   H1119     1.0  0.58164  0.80500  0.67278  1.0000
  H   H1120     1.0  0.65771  0.87794  0.50832  1.0000
  S   S190      1.0  0.50603  0.78482  0.49505  1.0000
  H   H1121     1.0  0.50190  0.93050  0.81030  1.0000
  C   C1404     1.0  0.64099  0.99152  0.50363  1.0000
  C   C1405     1.0  0.61853  0.94693  0.59566  1.0000
  C   C1406     1.0  0.58142  0.83965  0.64322  1.0000
  H   H1122     1.0  0.84024  0.70268  0.74083  1.0000
  H   H1123     1.0  0.56481  0.95336  0.50243  1.0000
  C   C1407     1.0  0.62923  0.87747  0.58305  1.0000
  C   C1408     1.0  0.58134  0.96105  0.63192  1.0000
  C   C1409     1.0  0.60540  0.88184  0.57386  1.0000
  H   H1124     1.0  0.65332  0.78448  0.60354  1.0000
  C   C1410     1.0  0.49859  0.94401  0.56565  1.0000
  H   H1125     1.0  0.52042  0.76324  0.95181  1.0000
  H   H1126     1.0  0.62622  0.86378  0.93852  1.0000
  C   C1411     1.0  0.82860  0.68049  0.72987  1.0000
  H   H1127     1.0  0.59470  0.90768  0.67165  1.0000
  H   H1128     1.0  0.58360  0.88981  0.53297  1.0000
  C   C1412     1.0  0.59113  0.88504  0.67135  1.0000
  C   C1413     1.0  0.50826  0.75372  0.54818  1.0000
  C   C1414     1.0  0.52530  0.83315  0.59154  1.0000
  C   C1415     1.0  0.50583  0.95484  0.85414  1.0000
  C   C1416     1.0  0.52171  0.67924  0.88005  1.0000
  H   H1129     1.0  0.56194  0.74996  0.51153  1.0000
  C   C1417     1.0  0.51999  0.83699  0.74594  1.0000
  S   S191      1.0  0.53430  0.67569  0.63378  1.0000
  C   C1418     1.0  0.60154  0.79557  0.97510  1.0000
  H   H1130     1.0  0.65058  0.67126  0.49916  1.0000
  H   H1131     1.0  0.66598  0.87210  0.56668  1.0000
  H   H1132     1.0  0.58955  0.83086  0.89702  1.0000
  C   C1419     1.0  0.61722  0.73895  0.59676  1.0000
  C   C1420     1.0  0.52307  0.72640  0.97464  1.0000
  Fe  Fe96      1.0  0.56318  0.67414  0.67349  1.0000
  H   H1133     1.0  0.78631  0.66733  0.54967  1.0000
  H   H1134     1.0  0.50826  0.68226  0.92851  1.0000
  C   C1421     1.0  0.59299  0.82101  0.91881  1.0000
  C   C1422     1.0  0.50934  0.74340  0.96709  1.0000
  C   C1423     1.0  0.62002  0.88409  0.51736  1.0000
  C   C1424     1.0  0.64784  0.87577  0.55946  1.0000
  H   H1135     1.0  0.50892  0.81135  0.70167  1.0000
  H   H1136     1.0  0.65555  0.79823  0.54534  1.0000
  C   C1425     1.0  0.58440  0.86844  0.64234  1.0000
  C   C1426     1.0  0.58752  0.97060  0.50828  1.0000
  H   H1137     1.0  0.54423  0.95555  0.57516  1.0000
  H   H1138     1.0  0.59958  0.88575  0.72278  1.0000
  C   C1427     1.0  0.49678  0.81791  0.57742  1.0000
  C   C1428     1.0  0.51407  0.68217  0.53691  1.0000
  C   C1429     1.0  0.60118  0.88550  0.54082  1.0000
  C   C1430     1.0  0.53278  0.88030  0.56944  1.0000
  S   S192      1.0  0.51042  0.70892  0.68425  1.0000
  C   C1431     1.0  0.60776  0.98412  0.61815  1.0000
  H   H1139     1.0  0.58090  0.69554  0.58352  1.0000
  C   C1432     1.0  0.63817  0.76798  0.58623  1.0000
  C   C1433     1.0  0.54442  0.69206  0.85666  1.0000
  H   H1140     1.0  0.54678  0.90425  0.56475  1.0000
  C   C1434     1.0  0.59745  0.72557  0.54200  1.0000
  C   C1435     1.0  0.59695  0.71782  0.57477  1.0000
  C   C1436     1.0  0.59036  0.84380  0.70116  1.0000
  H   H1141     1.0  0.53176  0.99093  0.66873  1.0000
  H   H1142     1.0  0.62064  0.76087  0.50607  1.0000
  H   H1143     1.0  0.64637  0.67507  0.56407  1.0000
  H   H1144     1.0  0.64665  0.99502  0.58920  1.0000
  H   H1145     1.0  0.65994  0.99032  0.49419  1.0000
  C   C1437     1.0  0.50410  0.86501  0.55571  1.0000
  C   C1438     1.0  0.51240  0.95452  0.97280  1.0000
  C   C1439     1.0  0.61164  0.96830  0.49593  1.0000
  H   H1146     1.0  0.63370  0.84125  0.98858  1.0000
  H   H1147     1.0  0.61676  0.88726  0.49196  1.0000
  H   H1148     1.0  0.57389  0.99707  0.53684  1.0000
  H   H1149     1.0  0.50522  0.98047  0.89494  1.0000
  H   H1150     1.0  0.62578  0.99825  0.88209  1.0000
  H   H1151     1.0  0.78498  0.67312  0.74196  1.0000
  H   H1152     1.0  0.71043  0.67808  0.77174  1.0000
  C   C1440     1.0  0.84504  0.66867  0.71546  1.0000
