data_image0
_chemical_formula_structural       HCHCHSC2FeSFeS2FeSFeS3FeSCFeS2CSFeSCSC6H4C6H4PC6H2C2HFeCHC4HCH3CH3SCH3C4H2CH2C2SCH2CHC2HC2H3C2HCHC4HSCHCHC4H2CH2C2H2C2HPCH2C6FeC2H5C3H8CHC3H2CHCHCH3CSH3C2HC2HCHSHCH4CHCH2CH2C4H2C2HC3HC2HC2SCHFeHC3SC3HFeSFeS2FeSFeS3FeS2FeSCHSFeSCSC6H4C6H4CPHC3HCH2C2HC3HCSCHC4H3C3HCH2C6PC3HC3H3CHC6H4CHCH3CHC2H3C2H3C4HC2HCHCHC2H3CHC2H3C4HC2PC4H2C2H2CH4SHSCS2C5HPH2C15H3CH2CH2FeH5CH5C4SHCH2FeHC4H5C2PC5H3C3H2C2HC2H5C5HC2HCH2FeS2HS2FeHFeS3CSFeS2FeSFeS3FeSCFeS2FeSFeSC2H2C2H2C6H4CH8C6H4C6H5C2HC3PC6HC4HC3HCH7C2P2H3CH2CHCHC4HPC3HC4SC8H2C3H9C2SC2HC2HCHC2H3CFeHC3H2C3HC4H2CH2C6PC7H2C3H2C2HCH5C2H3CHCH2C3H3C2H4C3HCH2C3H2CHC3HCHC3H3CHCHCHC2HC2H2C3HC5H3C2H2CHC4FeS2HCSFeSFeS3CSFeS2FeSFeS3FeSCFeSHFeSCSH4SHCHC6H4CH4CHC8H4C6H4C2HC3HC3FeHCH12C2H3C6PC8HCHCH3CFeCH3CH2CH2CHCHCHCHSHCHCH2C2H3C2H2FeH2C2PC8H4C6HC4HC5HC3H3CHC8HC3HC2PH4CHCH5C2H2C3H2C2HCHFeH5CPHSFeSC2S2FeS2FeS2FeSFeS4C6H4C6H4CHC4H3C5HCH3CH3C2HCH2CHC5H4PHCH4C4HC2HCHC3FeCHCHCH2C4H2CH3C3H3C2HCH2C3H6C2HC3SPC18HCH6CH11CHCH2CHCH4CHC2H4C5HC3H2C2HCHCPC2SCH2C2HCHC7SC2HCH8C6PC15HC2HCH6CH6CHCHCHPC6HC4HC3SCHCHC4H2C4HC2H2C3HC4H3C2HPCHCH3C3SHCSH2C2HCHPH3SC2SH2C4H3FeSCS3FeS2FeS2FeSFeS4C6H4C6H4CHC3HC2HC8H4FeC4H2CH2C4H2CHCHCH2C2HCHCPCSCHCH2CHC2FeC3H8C2HCH2CHC2H2C4HC3H3SC4H3C2HCH3CHC5H2C4HSC3H2C4H2C2H3CHCH2CH2CHCH2CH2CHCHCH2CH2CPC3HC9HCH4C2H2CH2C2H2C8H2C7H2SCPHCHPC2SH2CPH2C2H3CH2CH3C3H3SH3C4HCHCPHCHC3H3C2HCHCHC2H2C3H2C3HC2HPHFeHC7HC2HC4H2C5FeS2FeHFeHS2HS2FeSH2FeSHSHSCHFeH2C7H4CFe2H2C3HSC2HCHCH3C2HC2HCHC5H2CHC2H4C2HCHCHCHCH3C2HC3H5C3HC2H2C2HCH2C2HPC3HCH2CH2C3H3C5PHC6H2C4HC2HCHC2HCSH2CHC2H4C3H2C2FeS2FeHFeHS2FeSCFeSCFeC2HSHC2HFeHCHC6H4PCH2PH2CH3C2HCH3S2H2SCHCH2C8H2CH3PH2FeHC2H5CH2C4HC2H2CHC3H3CHC3H2C4HC2SC2H3CHC2HC3HC4H2C4HPH2C3H2CHCH2C4H3CHC2SC5HCH3CHC4HC3HSH3C2SFeSCFeSFeSHSHSFeH2SH2C6H4C2HSHC6H2C3HCSCH2CHC2H3FeHFeH2C2H2C3HC2PCH3CH5C3FeHC2HFeCHCHSHC2H2C3H2CHCH2CH2C4H2C2HC3HC3PH2C5HFeSFeSCFeSHSCSCSC2HSC8H4C4HCH3C2HCFeH3CFeCH2CHCHC2HCHCHFeHC2H2CH2CSCHCHC5SHCH2C3PH2CHC2H3C2H5FeH2CH2CH2CH2SHFeS2FeS2FeSFeS3CSHSFeSHSH2CHSCHC5H3C4H2C3H2C3HC2H3C6H4C6H3C5HC2H2CH2C2H3C2HC3HC2H2C4HCHCH2CSCH2CHC3H2C7SHCH3CSHCH2PCFeC5PH2SHC7PCH7CHCH2C3H2C2H2PH2CH3CHCFeC4H2C2H3CHC9H3CHC3HCHCPCHC2H2C2H2C2H3C4HC2HCHC2PH4CH4C3HCH2CHC2H2CH2SHSHC2HC2HCHC2H3FeS2FeS2FeSFeS3CSHSFeSHSCHCS2CHC4H3CHC8H2C2H2CFeH2PC6H4C6H3CPC2H3PC6H2CH2C3H5C2HCHC3H4C3H4CHCH2C2H2C9H2CHCH6CH2C2HC3SHCHCH3C2HCSCH5CH4CH3C2HC2H2CHC2HCHC3PH2C2HPH2CHC6PC12HC2HCH13C2HC4HCPH2C3HSC8HCH3C2SCH3CHCHC2HC2HSCHC2HC2H3CHC4H5CH2C3HC3FeHC9HCH2CH2CHC4HC6HSFeS2FeSFeS3FeS2FeSFeSFeS3CFeS2FeHFeHS2HSFeH2CHC2H2C6H4CH4C8H4C6H8C6PC5HC2H2C8H6CH5CH7C3H2CHCH3CH2CH2CSC2HCHC4HC2PC5H2C6PH3C3PC9HC9H7CH6C3HCH3C3H2CHCHCHC2HC4HFeH2CH3C8H3CHC5HC3H3C6H2CHCH2C3HCH4CH3C4H2SC3FeCSFeS2FeHFeS3FeS2CSFeSFeS3HFeS2H2FeCS2HCHCHCHC10H4CH2C2HC7H4C6H4C4FeC2SC2H2CHC8HCH8C6PC2HCH2C12H2CH3CHC2H10C6PC2H4C8PHC2HFeCHCH2CH4CH2C3PC2H4C2H2C8HCH4C4H6C2PHCSHCH3C2HC3H3C2HCHC5H3C2HCSC3H6CFeHCH2CHC2HCH3C2HCH3C2SHCS3PHSFeS2FeSFeS3FeS2HCSFeSFeS3HSC3HC5H2C6H4C6H6CHCH3CHCH3C3PC3HC7HCHCHCHCPC5H2C3H5C6HCH3C2H2C5HC2H2CHCPCH4CH2C4HC3H4C4H11CHCHC2HC3H2FeCHSCHC2H3CHCH2C3PH2CHC2HCHCHCH2CH5CHC2H2PC8HC2HCFeC2HSC2H2CHCH2CHCHC2HFeC2H2C2H3CSC5HCHC3SCHCHC3SHCSFeS2FeSFeS3FeS2FeC2FeSFeS3H3C4HCH2CHC6H4C6H4CH2C2H3CHCH5CHC3HCH2CHC8H2C7PC2HC2HSC3H2CH9CH3C2HC2HCHC2H2C2H2C3H2C2HCH2PSC3HC2H2SHCH4C2HCHC3H6C7PCH4C6SC4H2C4FeCHCHC2H2C2H3CHC6H2C2H2SHC4H2C2HC2H2C3H2CFeHCPH2CHCSHCHCHCHC4PH2CH3C9HC
_chemical_formula_sum              "H1728 C2160 S288 Fe144 P72"
_cell_length_a       58.1447
_cell_length_b       57.9048
_cell_length_c       49.6868
_cell_angle_alpha    89.7273
_cell_angle_beta     90.1921
_cell_angle_gamma    119.84

_space_group_name_H-M_alt    "P 1"
_space_group_IT_number       1

loop_
  _space_group_symop_operation_xyz
  'x, y, z'

loop_
  _atom_site_type_symbol
  _atom_site_label
  _atom_site_symmetry_multiplicity
  _atom_site_fract_x
  _atom_site_fract_y
  _atom_site_fract_z
  _atom_site_occupancy
  H   H1        1.0  0.22336  0.25971  0.01791  1.0000
  C   C1        1.0  0.05842  0.47730  0.24275  1.0000
  H   H2        1.0  0.23493  0.34093  0.23708  1.0000
  C   C2        1.0  0.18635  0.19605  0.43982  1.0000
  H   H3        1.0  0.14832  0.00332  0.09246  1.0000
  S   S1        1.0  0.21346  0.17012  0.42585  1.0000
  C   C3        1.0  0.07217  0.26496  0.27662  1.0000
  C   C4        1.0  0.22544  0.39009  0.38673  1.0000
  Fe  Fe1       1.0  0.22585  0.42594  0.26797  1.0000
  S   S2        1.0  0.20999  0.38293  0.25652  1.0000
  Fe  Fe2       1.0  0.16927  0.41765  0.27564  1.0000
  S   S3        1.0  0.15083  0.37400  0.26515  1.0000
  S   S4        1.0  0.13710  0.42942  0.28307  1.0000
  Fe  Fe3       1.0  0.18219  0.37391  0.29177  1.0000
  S   S5        1.0  0.17484  0.33899  0.31957  1.0000
  Fe  Fe4       1.0  0.17973  0.38614  0.23047  1.0000
  S   S6        1.0  0.16273  0.36978  0.18753  1.0000
  S   S7        1.0  0.19921  0.41671  0.30434  1.0000
  S   S8        1.0  0.19694  0.42992  0.23990  1.0000
  Fe  Fe5       1.0  0.15527  0.26317  0.98812  1.0000
  S   S9        1.0  0.17488  0.30652  0.99933  1.0000
  C   C5        1.0  0.17819  0.20992  0.45708  1.0000
  Fe  Fe6       1.0  0.09975  0.25751  0.99668  1.0000
  S   S10       1.0  0.11680  0.30084  0.00818  1.0000
  S   S11       1.0  0.05522  0.22523  0.99749  1.0000
  C   C6        1.0  0.24573  0.32621  0.01254  1.0000
  S   S12       1.0  0.15680  0.32997  0.44714  1.0000
  Fe  Fe7       1.0  0.14620  0.29557  0.03394  1.0000
  S   S13       1.0  0.16569  0.31326  0.07571  1.0000
  C   C7        1.0  0.03613  0.42467  0.26070  1.0000
  S   S14       1.0  0.12796  0.25161  0.02409  1.0000
  C   C8        1.0  0.16401  0.35399  0.15661  1.0000
  C   C9        1.0  0.14477  0.34838  0.13640  1.0000
  C   C10       1.0  0.14485  0.33599  0.11178  1.0000
  C   C11       1.0  0.16428  0.32894  0.10667  1.0000
  C   C12       1.0  0.18357  0.33464  0.12683  1.0000
  C   C13       1.0  0.18345  0.34694  0.15149  1.0000
  H   H4        1.0  0.12956  0.35358  0.13986  1.0000
  H   H5        1.0  0.12980  0.33188  0.09676  1.0000
  H   H6        1.0  0.19873  0.32936  0.12341  1.0000
  H   H7        1.0  0.19841  0.35096  0.16657  1.0000
  C   C14       1.0  0.16795  0.33589  0.35476  1.0000
  C   C15       1.0  0.16600  0.31382  0.36889  1.0000
  C   C16       1.0  0.16152  0.31107  0.39697  1.0000
  C   C17       1.0  0.15912  0.33051  0.41132  1.0000
  C   C18       1.0  0.16024  0.35211  0.39703  1.0000
  C   C19       1.0  0.16439  0.35469  0.36893  1.0000
  H   H8        1.0  0.16819  0.29887  0.35810  1.0000
  H   H9        1.0  0.16054  0.29426  0.40759  1.0000
  H   H10       1.0  0.15831  0.36722  0.40786  1.0000
  H   H11       1.0  0.16555  0.37162  0.35838  1.0000
  P   P1        1.0  0.09839  0.47596  0.21276  1.0000
  C   C20       1.0  0.09823  0.46918  0.30512  1.0000
  C   C21       1.0  0.10455  0.45013  0.29517  1.0000
  C   C22       1.0  0.13054  0.45421  0.29671  1.0000
  C   C23       1.0  0.15009  0.47755  0.30888  1.0000
  C   C24       1.0  0.01426  0.25985  0.36633  1.0000
  C   C25       1.0  0.22793  0.12615  0.03803  1.0000
  H   H12       1.0  0.08917  0.43201  0.28622  1.0000
  H   H13       1.0  0.17083  0.16092  0.99071  1.0000
  C   C26       1.0  0.11488  0.37575  0.33035  1.0000
  C   C27       1.0  0.17444  0.09967  0.43164  1.0000
  H   H14       1.0  0.99729  0.33539  0.02756  1.0000
  Fe  Fe8       1.0  0.14466  0.30887  0.97304  1.0000
  C   C28       1.0  0.24511  0.36414  0.99251  1.0000
  H   H15       1.0  0.04999  0.46508  0.43238  1.0000
  C   C29       1.0  0.16997  0.07379  0.42880  1.0000
  C   C30       1.0  0.17581  0.19972  0.98166  1.0000
  C   C31       1.0  0.22755  0.30925  0.33599  1.0000
  C   C32       1.0  0.02267  0.22745  0.45754  1.0000
  H   H16       1.0  0.22989  0.31593  0.05285  1.0000
  C   C33       1.0  0.11506  0.41067  0.18166  1.0000
  H   H17       1.0  0.13433  0.38788  0.32149  1.0000
  H   H18       1.0  0.10904  0.40911  0.33732  1.0000
  H   H19       1.0  0.17016  0.48109  0.31036  1.0000
  C   C34       1.0  0.12165  0.42006  0.20799  1.0000
  H   H20       1.0  0.15492  0.49345  0.20639  1.0000
  H   H21       1.0  0.23540  0.32987  0.28483  1.0000
  H   H22       1.0  0.07823  0.46576  0.30343  1.0000
  S   S15       1.0  0.03438  0.49859  0.34270  1.0000
  C   C35       1.0  0.07489  0.26601  0.38407  1.0000
  H   H23       1.0  0.13303  0.28326  0.30274  1.0000
  H   H24       1.0  0.02859  0.47888  0.26701  1.0000
  H   H25       1.0  0.02714  0.30277  0.31384  1.0000
  C   C36       1.0  0.09735  0.44031  0.17398  1.0000
  C   C37       1.0  0.20445  0.18809  0.44852  1.0000
  C   C38       1.0  0.09775  0.26858  0.27840  1.0000
  C   C39       1.0  0.00481  0.26688  0.02645  1.0000
  H   H26       1.0  0.02366  0.25378  0.38140  1.0000
  H   H27       1.0  0.11580  0.33959  0.32559  1.0000
  C   C40       1.0  0.07563  0.37221  0.35094  1.0000
  H   H28       1.0  0.00875  0.43235  0.28277  1.0000
  H   H29       1.0  0.22361  0.24866  0.33531  1.0000
  C   C41       1.0  0.02460  0.21735  0.98100  1.0000
  C   C42       1.0  0.10062  0.38774  0.33935  1.0000
  S   S16       1.0  0.24021  0.12455  0.39640  1.0000
  C   C43       1.0  0.00228  0.19183  0.98460  1.0000
  H   H30       1.0  0.20436  0.19570  0.36358  1.0000
  H   H31       1.0  0.12164  0.44681  0.23765  1.0000
  C   C44       1.0  0.02926  0.28018  0.34764  1.0000
  H   H32       1.0  0.00037  0.23886  0.43112  1.0000
  C   C45       1.0  0.02545  0.44036  0.26907  1.0000
  C   C46       1.0  0.23964  0.19266  0.36015  1.0000
  H   H33       1.0  0.21539  0.30055  0.40917  1.0000
  C   C47       1.0  0.05812  0.43533  0.24356  1.0000
  C   C48       1.0  0.23435  0.13269  0.08610  1.0000
  H   H34       1.0  0.01147  0.21461  0.04758  1.0000
  H   H35       1.0  0.22083  0.11300  0.02077  1.0000
  H   H36       1.0  0.02775  0.40440  0.26797  1.0000
  C   C49       1.0  0.01599  0.28726  0.32850  1.0000
  C   C50       1.0  0.24529  0.16017  0.08245  1.0000
  H   H37       1.0  0.21575  0.39729  0.40016  1.0000
  C   C51       1.0  0.20002  0.00181  0.43750  1.0000
  H   H38       1.0  0.20841  0.18125  0.07213  1.0000
  C   C52       1.0  0.22927  0.35054  0.03807  1.0000
  C   C53       1.0  0.01689  0.25178  0.03231  1.0000
  C   C54       1.0  0.08517  0.30966  0.40000  1.0000
  C   C55       1.0  0.09214  0.30394  0.42504  1.0000
  H   H39       1.0  0.14561  0.39290  0.98453  1.0000
  S   S17       1.0  0.12709  0.25204  0.46564  1.0000
  C   C56       1.0  0.11297  0.27990  0.30148  1.0000
  H   H40       1.0  0.06628  0.42287  0.23784  1.0000
  C   C57       1.0  0.11781  0.49258  0.31722  1.0000
  H   H41       1.0  0.11502  0.29696  0.34020  1.0000
  C   C58       1.0  0.07626  0.29061  0.37940  1.0000
  C   C59       1.0  0.07885  0.33236  0.34386  1.0000
  C   C60       1.0  0.22537  0.20507  0.36796  1.0000
  C   C61       1.0  0.23247  0.27013  0.33534  1.0000
  H   H42       1.0  0.16417  0.21576  0.45009  1.0000
  H   H43       1.0  0.00410  0.17736  0.99692  1.0000
  C   C62       1.0  0.23765  0.22845  0.38317  1.0000
  H   H44       1.0  0.20815  0.00062  0.41835  1.0000
  H   H45       1.0  0.08799  0.44791  0.16052  1.0000
  C   C63       1.0  0.23200  0.27825  0.46526  1.0000
  C   C64       1.0  0.23914  0.15361  0.03428  1.0000
  H   H46       1.0  0.09776  0.41340  0.14427  1.0000
  H   H47       1.0  0.01627  0.28628  0.01714  1.0000
  C   C65       1.0  0.19611  0.22709  0.04269  1.0000
  C   C66       1.0  0.19190  0.20492  0.05781  1.0000
  H   H48       1.0  0.17341  0.12826  0.45809  1.0000
  P   P2        1.0  0.06515  0.29682  0.34767  1.0000
  C   C67       1.0  0.10271  0.28775  0.32270  1.0000
  H   H49       1.0  0.15651  0.03593  0.44809  1.0000
  H   H50       1.0  0.22551  0.36243  0.41569  1.0000
  C   C68       1.0  0.18160  0.00009  0.07821  1.0000
  C   C69       1.0  0.09031  0.27929  0.42964  1.0000
  C   C70       1.0  0.08180  0.26035  0.40920  1.0000
  C   C71       1.0  0.21628  0.28158  0.33655  1.0000
  C   C72       1.0  0.14371  0.49643  0.31919  1.0000
  C   C73       1.0  0.22867  0.03669  0.02530  1.0000
  Fe  Fe9       1.0  0.24063  0.15196  0.42909  1.0000
  C   C74       1.0  0.20597  0.02694  0.44749  1.0000
  C   C75       1.0  0.00210  0.22649  0.04377  1.0000
  H   H51       1.0  0.04387  0.49354  0.14799  1.0000
  H   H52       1.0  0.18022  0.23160  0.04000  1.0000
  H   H53       1.0  0.17277  0.19235  0.06708  1.0000
  H   H54       1.0  0.23069  0.06713  0.99869  1.0000
  H   H55       1.0  0.24038  0.16107  0.01401  1.0000
  C   C76       1.0  0.21215  0.19865  0.06053  1.0000
  C   C77       1.0  0.22578  0.11570  0.06388  1.0000
  C   C78       1.0  0.10422  0.45000  0.20036  1.0000
  H   H56       1.0  0.06669  0.49772  0.23598  1.0000
  H   H57       1.0  0.19606  0.01840  0.08782  1.0000
  H   H58       1.0  0.22002  0.35268  0.05613  1.0000
  H   H59       1.0  0.06043  0.25631  0.25865  1.0000
  H   H60       1.0  0.11959  0.39568  0.17450  1.0000
  H   H61       1.0  0.08030  0.24121  0.41302  1.0000
  H   H62       1.0  0.03762  0.25936  0.02748  1.0000
  H   H63       1.0  0.17841  0.19126  0.41962  1.0000
  C   C79       1.0  0.07721  0.28462  0.32091  1.0000
  H   H64       1.0  0.08681  0.32892  0.39696  1.0000
  C   C80       1.0  0.06482  0.34464  0.35336  1.0000
  C   C81       1.0  0.23429  0.42909  0.96979  1.0000
  C   C82       1.0  0.24091  0.23697  0.03311  1.0000
  H   H65       1.0  0.10234  0.13460  0.46184  1.0000
  H   H66       1.0  0.09940  0.31875  0.44086  1.0000
  C   C83       1.0  0.10282  0.42072  0.16468  1.0000
  H   H67       1.0  0.23258  0.12461  0.10618  1.0000
  C   C84       1.0  0.16971  0.10807  0.45632  1.0000
  H   H68       1.0  0.18186  0.11338  0.41476  1.0000
  C   C85       1.0  0.06966  0.46186  0.23464  1.0000
  H   H69       1.0  0.22584  0.42451  0.98984  1.0000
  H   H70       1.0  0.06794  0.25099  0.36849  1.0000
  H   H71       1.0  0.04222  0.27028  0.29575  1.0000
  C   C86       1.0  0.22058  0.24307  0.03031  1.0000
  S   S18       1.0  0.22704  0.05607  0.42814  1.0000
  H   H72       1.0  0.17423  0.06745  0.40987  1.0000
  H   H73       1.0  0.04568  0.33300  0.36290  1.0000
  H   H74       1.0  0.19489  0.26906  0.33749  1.0000
  C   C87       1.0  0.10413  0.34820  0.33257  1.0000
  C   C88       1.0  0.23679  0.21458  0.04808  1.0000
  H   H75       1.0  0.13116  0.41232  0.22124  1.0000
  C   C89       1.0  0.22533  0.29278  0.42168  1.0000
  C   C90       1.0  0.11623  0.43959  0.21727  1.0000
  H   H76       1.0  0.10591  0.26291  0.26179  1.0000
  C   C91       1.0  0.06191  0.27298  0.29776  1.0000
  H   H77       1.0  0.09544  0.27490  0.44912  1.0000
  S   S19       1.0  0.18485  0.25123  0.97085  1.0000
  H   H78       1.0  0.04102  0.24598  0.45503  1.0000
  C   C92       1.0  0.03662  0.46664  0.26012  1.0000
  H   H79       1.0  0.21220  0.02080  0.01450  1.0000
  H   H80       1.0  0.00874  0.43056  0.20399  1.0000
  H   H81       1.0  0.16038  0.19745  0.99531  1.0000
  H   H82       1.0  0.05030  0.47076  0.18677  1.0000
  C   C93       1.0  0.23952  0.03095  0.04792  1.0000
  H   H83       1.0  0.06476  0.38164  0.35814  1.0000
  C   C94       1.0  0.04836  0.47544  0.44973  1.0000
  H   H84       1.0  0.21731  0.09443  0.06665  1.0000
  H   H85       1.0  0.20482  0.29271  0.45781  1.0000
  C   C95       1.0  0.23490  0.32979  0.03621  1.0000
  H   H86       1.0  0.22574  0.23677  0.39019  1.0000
  H   H87       1.0  0.21460  0.31778  0.33603  1.0000
  C   C96       1.0  0.06753  0.48603  0.17639  1.0000
  C   C97       1.0  0.21938  0.28843  0.44909  1.0000
  C   C98       1.0  0.99946  0.22336  0.44406  1.0000
  C   C99       1.0  0.09328  0.49302  0.18483  1.0000
  H   H88       1.0  0.15949  0.44101  0.98199  1.0000
  H   H89       1.0  0.22653  0.41453  0.35350  1.0000
  C   C100      1.0  0.23141  0.39972  0.36036  1.0000
  C   C101      1.0  0.24345  0.36111  0.37813  1.0000
  H   H90       1.0  0.07655  0.18837  0.97918  1.0000
  C   C102      1.0  0.18188  0.17900  0.97908  1.0000
  C   C103      1.0  0.16019  0.05610  0.45047  1.0000
  C   C104      1.0  0.23898  0.06295  0.01641  1.0000
  H   H91       1.0  0.99846  0.44703  0.16189  1.0000
  C   C105      1.0  0.23436  0.36770  0.01623  1.0000
  C   C106      1.0  0.24390  0.28694  0.41050  1.0000
  H   H92       1.0  0.22976  0.17385  0.34954  1.0000
  C   C107      1.0  0.24328  0.38999  0.34275  1.0000
  C   C108      1.0  0.23898  0.00700  0.22961  1.0000
  S   S20       1.0  0.24334  0.12740  0.46313  1.0000
  C   C109      1.0  0.23102  0.37045  0.39548  1.0000
  H   H93       1.0  0.22909  0.38316  0.01745  1.0000
  Fe  Fe10      1.0  0.24619  0.10181  0.43052  1.0000
  H   H94       1.0  0.12116  0.19468  0.96911  1.0000
  C   C110      1.0  0.02303  0.41082  0.54239  1.0000
  C   C111      1.0  0.05852  0.45532  0.90080  1.0000
  C   C112      1.0  0.12402  0.39479  0.92127  1.0000
  S   S21       1.0  0.12616  0.26623  0.96029  1.0000
  C   C113      1.0  0.19011  0.22343  0.96710  1.0000
  C   C114      1.0  0.02831  0.47976  0.55483  1.0000
  C   C115      1.0  0.13957  0.41353  0.84676  1.0000
  H   H95       1.0  0.03132  0.44070  0.47498  1.0000
  Fe  Fe11      1.0  0.23407  0.41728  0.76623  1.0000
  S   S22       1.0  0.20571  0.37486  0.75402  1.0000
  Fe  Fe12      1.0  0.18888  0.43092  0.76759  1.0000
  S   S23       1.0  0.15784  0.38956  0.75488  1.0000
  S   S24       1.0  0.18433  0.46716  0.77820  1.0000
  Fe  Fe13      1.0  0.17817  0.37619  0.78513  1.0000
  S   S25       1.0  0.15603  0.34199  0.81504  1.0000
  Fe  Fe14      1.0  0.18787  0.39126  0.72450  1.0000
  S   S26       1.0  0.18419  0.38256  0.67840  1.0000
  S   S27       1.0  0.20753  0.41712  0.79905  1.0000
  S   S28       1.0  0.21780  0.43392  0.73540  1.0000
  Fe  Fe15      1.0  0.15117  0.25135  0.50103  1.0000
  S   S29       1.0  0.16913  0.29509  0.51036  1.0000
  S   S30       1.0  0.17805  0.23296  0.50636  1.0000
  Fe  Fe16      1.0  0.09461  0.24406  0.49563  1.0000
  S   S31       1.0  0.10920  0.28713  0.50537  1.0000
  C   C116      1.0  0.16018  0.49643  0.79114  1.0000
  H   H96       1.0  0.12291  0.36352  0.94587  1.0000
  S   S32       1.0  0.15951  0.34451  0.94406  1.0000
  Fe  Fe17      1.0  0.13455  0.28399  0.53827  1.0000
  S   S33       1.0  0.13534  0.29432  0.58368  1.0000
  C   C117      1.0  0.09688  0.02980  0.56165  1.0000
  S   S34       1.0  0.11771  0.24007  0.53030  1.0000
  C   C118      1.0  0.17012  0.35757  0.65248  1.0000
  C   C119      1.0  0.17714  0.36513  0.62536  1.0000
  C   C120      1.0  0.16687  0.34628  0.60418  1.0000
  C   C121      1.0  0.14931  0.31931  0.60963  1.0000
  C   C122      1.0  0.14233  0.31173  0.63676  1.0000
  C   C123      1.0  0.15266  0.33057  0.65797  1.0000
  H   H97       1.0  0.19057  0.38585  0.62064  1.0000
  H   H98       1.0  0.17229  0.35272  0.58359  1.0000
  H   H99       1.0  0.12870  0.29107  0.64144  1.0000
  H   H100      1.0  0.14696  0.32421  0.67856  1.0000
  C   C124      1.0  0.15775  0.34359  0.85086  1.0000
  C   C125      1.0  0.14529  0.31967  0.86557  1.0000
  C   C126      1.0  0.14563  0.31959  0.89394  1.0000
  C   C127      1.0  0.15852  0.34357  0.90814  1.0000
  C   C128      1.0  0.17088  0.36762  0.89346  1.0000
  C   C129      1.0  0.17060  0.36766  0.86499  1.0000
  H   H101      1.0  0.13511  0.30106  0.85484  1.0000
  H   H102      1.0  0.13549  0.30091  0.90476  1.0000
  H   H103      1.0  0.18082  0.38630  0.90415  1.0000
  H   H104      1.0  0.18028  0.38624  0.85399  1.0000
  C   C130      1.0  0.11346  0.47845  0.80218  1.0000
  P   P3        1.0  0.15527  0.10212  0.51056  1.0000
  H   H105      1.0  0.14495  0.18007  0.53098  1.0000
  C   C131      1.0  0.15647  0.47069  0.78723  1.0000
  C   C132      1.0  0.13103  0.44882  0.79082  1.0000
  C   C133      1.0  0.10974  0.45271  0.79823  1.0000
  H   H106      1.0  0.10519  0.35763  0.80911  1.0000
  C   C134      1.0  0.99698  0.22866  0.95292  1.0000
  H   H107      1.0  0.12773  0.42892  0.78778  1.0000
  H   H108      1.0  0.08548  0.29749  0.94716  1.0000
  C   C135      1.0  0.21534  0.35092  0.55747  1.0000
  C   C136      1.0  0.07237  0.45383  0.92313  1.0000
  H   H109      1.0  0.17250  0.30199  0.92549  1.0000
  C   C137      1.0  0.12255  0.15923  0.49596  1.0000
  C   C138      1.0  0.07741  0.43350  0.53258  1.0000
  C   C139      1.0  0.21276  0.31934  0.93886  1.0000
  H   H110      1.0  0.20208  0.34728  0.54062  1.0000
  C   C140      1.0  0.09285  0.39117  0.85800  1.0000
  S   S35       1.0  0.20916  0.15466  0.95996  1.0000
  C   C141      1.0  0.20625  0.20819  0.49204  1.0000
  H   H111      1.0  0.19724  0.30970  0.56787  1.0000
  C   C142      1.0  0.19410  0.28784  0.90222  1.0000
  C   C143      1.0  0.21314  0.13395  0.56873  1.0000
  C   C144      1.0  0.99769  0.18370  0.47734  1.0000
  C   C145      1.0  0.08843  0.04619  0.54966  1.0000
  H   H112      1.0  0.00765  0.21186  0.52728  1.0000
  H   H113      1.0  0.08313  0.01263  0.57340  1.0000
  H   H114      1.0  0.09904  0.08053  0.52505  1.0000
  C   C146      1.0  0.03041  0.19835  0.89331  1.0000
  C   C147      1.0  0.20213  0.18145  0.96173  1.0000
  C   C148      1.0  0.18030  0.47127  0.88840  1.0000
  H   H115      1.0  0.06811  0.04174  0.55217  1.0000
  C   C149      1.0  0.03568  0.39593  0.54667  1.0000
  H   H116      1.0  0.21592  0.34544  0.88432  1.0000
  H   H117      1.0  0.23360  0.00164  0.94916  1.0000
  C   C150      1.0  0.06862  0.19388  0.81418  1.0000
  C   C151      1.0  0.09287  0.21414  0.80436  1.0000
  C   C152      1.0  0.10894  0.23601  0.82057  1.0000
  C   C153      1.0  0.10075  0.23763  0.84657  1.0000
  C   C154      1.0  0.07621  0.21761  0.85644  1.0000
  C   C155      1.0  0.06031  0.19554  0.84014  1.0000
  P   P4        1.0  0.06580  0.22016  0.89000  1.0000
  C   C156      1.0  0.06484  0.44846  0.52828  1.0000
  C   C157      1.0  0.08317  0.21131  0.91467  1.0000
  C   C158      1.0  0.07178  0.20154  0.94003  1.0000
  H   H118      1.0  0.12952  0.02260  0.56743  1.0000
  C   C159      1.0  0.09852  0.44195  0.89407  1.0000
  C   C160      1.0  0.12198  0.20868  0.92873  1.0000
  C   C161      1.0  0.10844  0.21482  0.90917  1.0000
  H   H119      1.0  0.22056  0.27703  0.88314  1.0000
  H   H120      1.0  0.20527  0.33702  0.64453  1.0000
  H   H121      1.0  0.21455  0.13234  0.59035  1.0000
  C   C162      1.0  0.02397  0.25931  0.58801  1.0000
  H   H122      1.0  0.21772  0.43386  0.85955  1.0000
  C   C163      1.0  0.07287  0.25390  0.89581  1.0000
  C   C164      1.0  0.07440  0.27040  0.87422  1.0000
  C   C165      1.0  0.08032  0.29661  0.87891  1.0000
  C   C166      1.0  0.08441  0.30642  0.90517  1.0000
  C   C167      1.0  0.08220  0.28992  0.92678  1.0000
  C   C168      1.0  0.07616  0.26368  0.92213  1.0000
  H   H123      1.0  0.05622  0.17686  0.80165  1.0000
  H   H124      1.0  0.09923  0.21288  0.78421  1.0000
  H   H125      1.0  0.12773  0.25177  0.81299  1.0000
  H   H126      1.0  0.11351  0.25455  0.85902  1.0000
  C   C169      1.0  0.22929  0.33416  0.59541  1.0000
  H   H127      1.0  0.05263  0.19920  0.94511  1.0000
  C   C170      1.0  0.18793  0.21591  0.48341  1.0000
  H   H128      1.0  0.07261  0.39567  0.54506  1.0000
  H   H129      1.0  0.14170  0.21194  0.92470  1.0000
  H   H130      1.0  0.11799  0.22257  0.89006  1.0000
  C   C171      1.0  0.22633  0.36097  0.84410  1.0000
  H   H131      1.0  0.02877  0.27264  0.60496  1.0000
  C   C172      1.0  0.13925  0.16319  0.51782  1.0000
  C   C173      1.0  0.01190  0.22498  0.54430  1.0000
  H   H132      1.0  0.08897  0.43989  0.85165  1.0000
  H   H133      1.0  0.14838  0.05030  0.49163  1.0000
  H   H134      1.0  0.02440  0.37552  0.55370  1.0000
  C   C174      1.0  0.23999  0.38820  0.88424  1.0000
  C   C175      1.0  0.23952  0.38385  0.82822  1.0000
  H   H135      1.0  0.07405  0.25105  0.93916  1.0000
  H   H136      1.0  0.00198  0.40152  0.54614  1.0000
  H   H137      1.0  0.06795  0.45834  0.94295  1.0000
  C   C176      1.0  0.13240  0.07405  0.53085  1.0000
  C   C177      1.0  0.04441  0.25967  0.57293  1.0000
  C   C178      1.0  0.02206  0.20750  0.47410  1.0000
  C   C179      1.0  0.99744  0.24174  0.58128  1.0000
  H   H138      1.0  0.04146  0.17964  0.84730  1.0000
  C   C180      1.0  0.06284  0.40725  0.54179  1.0000
  C   C181      1.0  0.10879  0.37291  0.82376  1.0000
  H   H139      1.0  0.07644  0.46879  0.52112  1.0000
  C   C182      1.0  0.19541  0.02801  0.47245  1.0000
  H   H140      1.0  0.01975  0.47758  0.65682  1.0000
  C   C183      1.0  0.21273  0.32957  0.57304  1.0000
  H   H141      1.0  0.11543  0.17308  0.49225  1.0000
  C   C184      1.0  0.21631  0.33219  0.65890  1.0000
  C   C185      1.0  0.14252  0.12453  0.50477  1.0000
  H   H142      1.0  0.05383  0.45135  0.85781  1.0000
  H   H143      1.0  0.06093  0.47636  0.57183  1.0000
  H   H144      1.0  0.07118  0.26319  0.85373  1.0000
  C   C186      1.0  0.03834  0.24255  0.55105  1.0000
  H   H145      1.0  0.09021  0.43558  0.80084  1.0000
  C   C187      1.0  0.22671  0.36315  0.87209  1.0000
  C   C188      1.0  0.21845  0.28897  0.89861  1.0000
  H   H146      1.0  0.06794  0.35526  0.83578  1.0000
  H   H147      1.0  0.08239  0.30952  0.86212  1.0000
  H   H148      1.0  0.21394  0.21273  0.51234  1.0000
  C   C189      1.0  0.15300  0.48620  0.86581  1.0000
  C   C190      1.0  0.18683  0.12077  0.52763  1.0000
  C   C191      1.0  0.20952  0.13845  0.51308  1.0000
  C   C192      1.0  0.12888  0.38446  0.94470  1.0000
  H   H149      1.0  0.99843  0.45548  0.69913  1.0000
  C   C193      1.0  0.23393  0.15327  0.52611  1.0000
  C   C194      1.0  0.18871  0.11906  0.55571  1.0000
  P   P5        1.0  0.02173  0.45694  0.52731  1.0000
  C   C195      1.0  0.03755  0.43726  0.53320  1.0000
  C   C196      1.0  0.06430  0.44978  0.87519  1.0000
  C   C197      1.0  0.03512  0.47502  0.49622  1.0000
  C   C198      1.0  0.14471  0.43855  0.94161  1.0000
  H   H150      1.0  0.15068  0.39470  0.81616  1.0000
  H   H151      1.0  0.18255  0.45618  0.89910  1.0000
  C   C199      1.0  0.12503  0.12016  0.48331  1.0000
  C   C200      1.0  0.21019  0.22578  0.94955  1.0000
  H   H152      1.0  0.22901  0.25865  0.62512  1.0000
  H   H153      1.0  0.16240  0.14967  0.53914  1.0000
  C   C201      1.0  0.22558  0.46944  0.83848  1.0000
  H   H154      1.0  0.16092  0.06149  0.54047  1.0000
  H   H155      1.0  0.01628  0.39039  0.76682  1.0000
  H   H156      1.0  0.06501  0.27318  0.57814  1.0000
  H   H157      1.0  0.05416  0.24282  0.53929  1.0000
  S   S36       1.0  0.08576  0.48181  0.81229  1.0000
  H   H158      1.0  0.17136  0.10649  0.56769  1.0000
  S   S37       1.0  0.03052  0.49105  0.83655  1.0000
  C   C202      1.0  0.21618  0.20502  0.94686  1.0000
  S   S38       1.0  0.05078  0.21113  0.49146  1.0000
  S   S39       1.0  0.23111  0.11414  0.90775  1.0000
  C   C203      1.0  0.23263  0.45412  0.85470  1.0000
  C   C204      1.0  0.02012  0.17142  0.90023  1.0000
  C   C205      1.0  0.15563  0.06446  0.47526  1.0000
  C   C206      1.0  0.03773  0.46173  0.47385  1.0000
  C   C207      1.0  0.21262  0.02326  0.95419  1.0000
  H   H159      1.0  0.20999  0.33101  0.95404  1.0000
  P   P6        1.0  0.22584  0.30694  0.61631  1.0000
  H   H160      1.0  0.99683  0.48767  0.54375  1.0000
  H   H161      1.0  0.20839  0.14095  0.49165  1.0000
  C   C208      1.0  0.10608  0.06822  0.53428  1.0000
  C   C209      1.0  0.08790  0.37160  0.83881  1.0000
  C   C210      1.0  0.23269  0.33500  0.70433  1.0000
  C   C211      1.0  0.24467  0.49510  0.83071  1.0000
  C   C212      1.0  0.19136  0.30308  0.92230  1.0000
  C   C213      1.0  0.19393  0.27788  0.60996  1.0000
  C   C214      1.0  0.19041  0.26215  0.58717  1.0000
  C   C215      1.0  0.16552  0.24039  0.58129  1.0000
  C   C216      1.0  0.14395  0.23416  0.59806  1.0000
  C   C217      1.0  0.14732  0.24957  0.62086  1.0000
  C   C218      1.0  0.17219  0.27138  0.62681  1.0000
  C   C219      1.0  0.15506  0.46666  0.88075  1.0000
  C   C220      1.0  0.22812  0.31724  0.65100  1.0000
  C   C221      1.0  0.12303  0.03545  0.55833  1.0000
  C   C222      1.0  0.13455  0.39387  0.82773  1.0000
  H   H162      1.0  0.20666  0.26713  0.57343  1.0000
  H   H163      1.0  0.03320  0.16338  0.90348  1.0000
  H   H164      1.0  0.20929  0.35240  0.69142  1.0000
  C   C223      1.0  0.01288  0.20806  0.88887  1.0000
  H   H165      1.0  0.11439  0.38146  0.90459  1.0000
  H   H166      1.0  0.00215  0.45494  0.61322  1.0000
  C   C224      1.0  0.11042  0.19894  0.95385  1.0000
  H   H167      1.0  0.17728  0.27505  0.88967  1.0000
  H   H168      1.0  0.03814  0.25570  0.96279  1.0000
  Fe  Fe18      1.0  0.14274  0.29506  0.47676  1.0000
  H   H169      1.0  0.16276  0.22881  0.56327  1.0000
  H   H170      1.0  0.12448  0.21785  0.59298  1.0000
  H   H171      1.0  0.13041  0.24526  0.63334  1.0000
  H   H172      1.0  0.17402  0.28347  0.64408  1.0000
  H   H173      1.0  0.03468  0.43449  0.78894  1.0000
  C   C225      1.0  0.08532  0.19533  0.95948  1.0000
  H   H174      1.0  0.07658  0.38948  0.87002  1.0000
  H   H175      1.0  0.23148  0.20715  0.93309  1.0000
  H   H176      1.0  0.15976  0.42937  0.84960  1.0000
  H   H177      1.0  0.08969  0.32691  0.90875  1.0000
  H   H178      1.0  0.24074  0.02240  0.48175  1.0000
  C   C226      1.0  0.14075  0.05751  0.54305  1.0000
  C   C227      1.0  0.09226  0.44714  0.91984  1.0000
  C   C228      1.0  0.08422  0.44319  0.87180  1.0000
  C   C229      1.0  0.21857  0.34097  0.68545  1.0000
  S   S40       1.0  0.24028  0.05391  0.94307  1.0000
  H   H179      1.0  0.22879  0.18894  0.48158  1.0000
  C   C230      1.0  0.22016  0.43211  0.94859  1.0000
  H   H180      1.0  0.22107  0.24372  0.93770  1.0000
  H   H181      1.0  0.21529  0.34162  0.83465  1.0000
  Fe  Fe19      1.0  0.23932  0.14503  0.94000  1.0000
  H   H182      1.0  0.09846  0.44225  0.52870  1.0000
  C   C231      1.0  0.01843  0.42790  0.77468  1.0000
  C   C232      1.0  0.11873  0.41240  0.86199  1.0000
  C   C233      1.0  0.14923  0.14596  0.52225  1.0000
  C   C234      1.0  0.20298  0.49534  0.88188  1.0000
  H   H183      1.0  0.23440  0.34192  0.72488  1.0000
  H   H184      1.0  0.15097  0.45958  0.94070  1.0000
  H   H185      1.0  0.02013  0.22867  0.88354  1.0000
  H   H186      1.0  0.10285  0.44650  0.93744  1.0000
  H   H187      1.0  0.17042  0.00542  0.50583  1.0000
  C   C235      1.0  0.04844  0.48519  0.57368  1.0000
  C   C236      1.0  0.00302  0.45749  0.65642  1.0000
  P   P7        1.0  0.12574  0.43555  0.88923  1.0000
  C   C237      1.0  0.16056  0.09067  0.47849  1.0000
  C   C238      1.0  0.13179  0.42194  0.91956  1.0000
  C   C239      1.0  0.23576  0.15095  0.55392  1.0000
  C   C240      1.0  0.11532  0.13763  0.47879  1.0000
  C   C241      1.0  0.00806  0.44446  0.76857  1.0000
  H   H188      1.0  0.19994  0.04709  0.48063  1.0000
  H   H189      1.0  0.20541  0.46122  0.83118  1.0000
  H   H190      1.0  0.13397  0.48304  0.85893  1.0000
  C   C242      1.0  0.17872  0.00430  0.48676  1.0000
  C   C243      1.0  0.00807  0.40312  0.76215  1.0000
  C   C244      1.0  0.14171  0.40108  0.96653  1.0000
  H   H191      1.0  0.01614  0.46378  0.77815  1.0000
  H   H192      1.0  0.23584  0.39348  0.55235  1.0000
  C   C245      1.0  0.01248  0.49160  0.55803  1.0000
  C   C246      1.0  0.14959  0.42813  0.96501  1.0000
  H   H193      1.0  0.23943  0.38924  0.90593  1.0000
  C   C247      1.0  0.21459  0.19452  0.47469  1.0000
  C   C248      1.0  0.21521  0.00033  0.95547  1.0000
  H   H194      1.0  0.22724  0.27482  0.48649  1.0000
  H   H195      1.0  0.20065  0.42954  0.95215  1.0000
  H   H196      1.0  0.04358  0.46119  0.90325  1.0000
  H   H197      1.0  0.23912  0.38221  0.80648  1.0000
  H   H198      1.0  0.21921  0.43939  0.90656  1.0000
  C   C249      1.0  0.23691  0.31969  0.93620  1.0000
  C   C250      1.0  0.23429  0.37698  0.56417  1.0000
  C   C251      1.0  0.23084  0.43775  0.92264  1.0000
  C   C252      1.0  0.18864  0.02118  0.96232  1.0000
  C   C253      1.0  0.02163  0.23579  0.96520  1.0000
  H   H199      1.0  0.18624  0.03854  0.96150  1.0000
  C   C254      1.0  0.23982  0.30487  0.91548  1.0000
  C   C255      1.0  0.24215  0.31113  0.67015  1.0000
  H   H200      1.0  0.11913  0.10346  0.46986  1.0000
  C   C256      1.0  0.24443  0.32003  0.69671  1.0000
  H   H201      1.0  0.99680  0.16809  0.49009  1.0000
  H   H202      1.0  0.24358  0.28190  0.96836  1.0000
  Fe  Fe20      1.0  0.14209  0.86275  0.03040  1.0000
  S   S41       1.0  0.11214  0.87663  0.02531  1.0000
  S   S42       1.0  0.16702  0.86367  0.06777  1.0000
  H   H203      1.0  0.12318  0.83582  0.10735  1.0000
  S   S43       1.0  0.11790  0.87447  0.46225  1.0000
  S   S44       1.0  0.16454  0.84300  0.44760  1.0000
  Fe  Fe21      1.0  0.13628  0.90060  0.98938  1.0000
  H   H204      1.0  0.04967  0.90718  0.00708  1.0000
  Fe  Fe22      1.0  0.09055  0.84297  0.99546  1.0000
  S   S45       1.0  0.04556  0.81269  0.99805  1.0000
  S   S46       1.0  0.16739  0.88899  0.99609  1.0000
  S   S47       1.0  0.11917  0.82767  0.00282  1.0000
  C   C257      1.0  0.15460  0.99163  0.08090  1.0000
  S   S48       1.0  0.20368  0.84751  0.25835  1.0000
  Fe  Fe23      1.0  0.18299  0.77318  0.26815  1.0000
  S   S49       1.0  0.15353  0.78687  0.26008  1.0000
  S   S50       1.0  0.17438  0.72996  0.27360  1.0000
  Fe  Fe24      1.0  0.18206  0.81444  0.22824  1.0000
  S   S51       1.0  0.16239  0.81909  0.18893  1.0000
  Fe  Fe25      1.0  0.17717  0.81916  0.29029  1.0000
  S   S52       1.0  0.15657  0.83364  0.31933  1.0000
  S   S53       1.0  0.21059  0.79890  0.23471  1.0000
  S   S54       1.0  0.20497  0.80398  0.30050  1.0000
  Fe  Fe26      1.0  0.02475  0.51821  0.30816  1.0000
  S   S55       1.0  0.06684  0.54465  0.29516  1.0000
  C   C258      1.0  0.18358  0.97812  0.45197  1.0000
  Fe  Fe27      1.0  0.03691  0.53173  0.36919  1.0000
  S   S56       1.0  0.08031  0.55921  0.35924  1.0000
  S   S57       1.0  0.02415  0.53273  0.41371  1.0000
  Fe  Fe28      1.0  0.06732  0.57485  0.32413  1.0000
  S   S58       1.0  0.07749  0.61806  0.31443  1.0000
  Fe  Fe29      1.0  0.07691  0.52692  0.33091  1.0000
  S   S59       1.0  0.02419  0.54900  0.33529  1.0000
  C   C259      1.0  0.23650  0.98587  0.13909  1.0000
  C   C260      1.0  0.05108  0.61180  0.41267  1.0000
  H   H205      1.0  0.06142  0.60594  0.37269  1.0000
  H   H206      1.0  0.12599  0.84325  0.27576  1.0000
  C   C261      1.0  0.01151  0.57054  0.27235  1.0000
  C   C262      1.0  0.01907  0.86603  0.00531  1.0000
  H   H207      1.0  0.12911  0.72309  0.20290  1.0000
  H   H208      1.0  0.04347  0.62369  0.45104  1.0000
  C   C263      1.0  0.14699  0.69905  0.28493  1.0000
  C   C264      1.0  0.12181  0.69572  0.28992  1.0000
  C   C265      1.0  0.10087  0.67076  0.29862  1.0000
  C   C266      1.0  0.10477  0.64886  0.30288  1.0000
  C   C267      1.0  0.12991  0.65218  0.29785  1.0000
  C   C268      1.0  0.15074  0.67701  0.28878  1.0000
  H   H209      1.0  0.11843  0.71230  0.28685  1.0000
  H   H210      1.0  0.08144  0.66834  0.30202  1.0000
  H   H211      1.0  0.13334  0.63564  0.30098  1.0000
  H   H212      1.0  0.17005  0.67923  0.28496  1.0000
  C   C269      1.0  0.02850  0.89334  0.00749  1.0000
  H   H213      1.0  0.08361  0.69941  0.18388  1.0000
  H   H214      1.0  0.17031  0.91054  0.09833  1.0000
  H   H215      1.0  0.21273  0.89734  0.30041  1.0000
  H   H216      1.0  0.24192  0.93098  0.98688  1.0000
  H   H217      1.0  0.08247  0.52817  0.12304  1.0000
  H   H218      1.0  0.16356  0.72357  0.98106  1.0000
  H   H219      1.0  0.03292  0.85870  0.00328  1.0000
  H   H220      1.0  0.06057  0.53689  0.46828  1.0000
  C   C270      1.0  0.16151  0.84003  0.41195  1.0000
  C   C271      1.0  0.17301  0.82704  0.39823  1.0000
  C   C272      1.0  0.17176  0.82491  0.36992  1.0000
  C   C273      1.0  0.15878  0.83559  0.35501  1.0000
  C   C274      1.0  0.14697  0.84822  0.36874  1.0000
  C   C275      1.0  0.14847  0.85061  0.39701  1.0000
  H   H221      1.0  0.18312  0.81872  0.40953  1.0000
  H   H222      1.0  0.18092  0.81512  0.35965  1.0000
  H   H223      1.0  0.13682  0.85646  0.35740  1.0000
  H   H224      1.0  0.13963  0.86076  0.40720  1.0000
  C   C276      1.0  0.16462  0.84976  0.10097  1.0000
  C   C277      1.0  0.18764  0.85196  0.11305  1.0000
  C   C278      1.0  0.18723  0.84226  0.13941  1.0000
  C   C279      1.0  0.16386  0.83060  0.15470  1.0000
  C   C280      1.0  0.14081  0.82837  0.14262  1.0000
  C   C281      1.0  0.14111  0.83769  0.11604  1.0000
  H   H225      1.0  0.20598  0.86111  0.10180  1.0000
  H   H226      1.0  0.20508  0.84377  0.14785  1.0000
  H   H227      1.0  0.12251  0.81937  0.15394  1.0000
  H   H228      1.0  0.21301  0.94178  0.06231  1.0000
  H   H229      1.0  0.15697  0.91244  0.18299  1.0000
  C   C282      1.0  0.04716  0.59681  0.13290  1.0000
  C   C283      1.0  0.22681  0.88946  0.36519  1.0000
  H   H230      1.0  0.14153  0.90857  0.13595  1.0000
  C   C284      1.0  0.02349  0.57283  0.18183  1.0000
  C   C285      1.0  0.04806  0.59653  0.18190  1.0000
  C   C286      1.0  0.06002  0.60818  0.15718  1.0000
  P   P8        1.0  0.06587  0.61016  0.21302  1.0000
  C   C287      1.0  0.04287  0.60266  0.24049  1.0000
  C   C288      1.0  0.08575  0.59490  0.22045  1.0000
  C   C289      1.0  0.09720  0.59803  0.24603  1.0000
  C   C290      1.0  0.08980  0.57967  0.20106  1.0000
  C   C291      1.0  0.03836  0.62233  0.25163  1.0000
  C   C292      1.0  0.02051  0.61603  0.27294  1.0000
  H   H231      1.0  0.03342  0.56162  0.24378  1.0000
  C   C293      1.0  0.01109  0.83193  0.46710  1.0000
  C   C294      1.0  0.02962  0.57685  0.25137  1.0000
  C   C295      1.0  0.08627  0.64595  0.20963  1.0000
  C   C296      1.0  0.07611  0.66052  0.19646  1.0000
  H   H232      1.0  0.22497  0.97981  0.15748  1.0000
  C   C297      1.0  0.11716  0.70160  0.20463  1.0000
  C   C298      1.0  0.12741  0.68728  0.21769  1.0000
  C   C299      1.0  0.11206  0.65961  0.22035  1.0000
  H   H233      1.0  0.05644  0.60586  0.11390  1.0000
  C   C300      1.0  0.15926  0.87197  0.21784  1.0000
  H   H234      1.0  0.21689  0.88506  0.46797  1.0000
  H   H235      1.0  0.01400  0.56275  0.20031  1.0000
  H   H236      1.0  0.07945  0.62584  0.15660  1.0000
  H   H237      1.0  0.09379  0.60913  0.26145  1.0000
  H   H238      1.0  0.08085  0.57643  0.18131  1.0000
  H   H239      1.0  0.04894  0.64265  0.24446  1.0000
  H   H240      1.0  0.12101  0.69276  0.44668  1.0000
  C   C301      1.0  0.17372  0.53687  0.25840  1.0000
  C   C302      1.0  0.22404  0.79735  0.37130  1.0000
  P   P9        1.0  0.22490  0.99686  0.05954  1.0000
  P   P10       1.0  0.20603  0.91901  0.20672  1.0000
  H   H241      1.0  0.12921  0.93578  0.04247  1.0000
  H   H242      1.0  0.01284  0.81859  0.40171  1.0000
  H   H243      1.0  0.12049  0.64924  0.23094  1.0000
  C   C303      1.0  0.01490  0.78577  0.38307  1.0000
  H   H244      1.0  0.01763  0.63140  0.28193  1.0000
  H   H245      1.0  0.21959  0.86487  0.42553  1.0000
  C   C304      1.0  0.03629  0.76484  0.43105  1.0000
  H   H246      1.0  0.19561  0.91945  0.26439  1.0000
  C   C305      1.0  0.06002  0.71267  0.33531  1.0000
  H   H247      1.0  0.07406  0.88326  0.43500  1.0000
  C   C306      1.0  0.16761  0.99651  0.97146  1.0000
  C   C307      1.0  0.20269  0.91673  0.12422  1.0000
  C   C308      1.0  0.12297  0.74907  0.42294  1.0000
  C   C309      1.0  0.11651  0.72224  0.42382  1.0000
  H   H248      1.0  0.05838  0.71096  0.31359  1.0000
  P   P11       1.0  0.10274  0.70162  0.39446  1.0000
  C   C310      1.0  0.08285  0.66651  0.40197  1.0000
  C   C311      1.0  0.08055  0.70985  0.37694  1.0000
  C   C312      1.0  0.07803  0.70739  0.34885  1.0000
  H   H249      1.0  0.03905  0.59063  0.41681  1.0000
  C   C313      1.0  0.24338  0.98656  0.01143  1.0000
  C   C314      1.0  0.04627  0.72219  0.37780  1.0000
  C   C315      1.0  0.06433  0.71701  0.39138  1.0000
  C   C316      1.0  0.07935  0.64763  0.38236  1.0000
  S   S60       1.0  0.14267  0.94287  0.98389  1.0000
  C   C317      1.0  0.13114  0.70865  0.37418  1.0000
  C   C318      1.0  0.14273  0.69241  0.37583  1.0000
  C   C319      1.0  0.16508  0.69833  0.36041  1.0000
  C   C320      1.0  0.17628  0.72074  0.34369  1.0000
  C   C321      1.0  0.16519  0.73728  0.34246  1.0000
  C   C322      1.0  0.14288  0.73147  0.35782  1.0000
  C   C323      1.0  0.00687  0.53116  0.46644  1.0000
  C   C324      1.0  0.12427  0.71288  0.44624  1.0000
  H   H250      1.0  0.11863  0.75727  0.40526  1.0000
  H   H251      1.0  0.08986  0.70123  0.33743  1.0000
  C   C325      1.0  0.11509  0.51232  0.17020  1.0000
  C   C326      1.0  0.10555  0.56831  0.20710  1.0000
  C   C327      1.0  0.20229  0.96172  0.22728  1.0000
  H   H252      1.0  0.06550  0.71841  0.41313  1.0000
  H   H253      1.0  0.08862  0.65382  0.36275  1.0000
  H   H254      1.0  0.18145  0.94768  0.23048  1.0000
  H   H255      1.0  0.13449  0.67509  0.38885  1.0000
  H   H256      1.0  0.17347  0.68531  0.36104  1.0000
  H   H257      1.0  0.19310  0.72493  0.33104  1.0000
  H   H258      1.0  0.17347  0.75418  0.32893  1.0000
  H   H259      1.0  0.13472  0.74467  0.35668  1.0000
  H   H260      1.0  0.21788  0.78508  0.35342  1.0000
  C   C328      1.0  0.13679  0.72966  0.46815  1.0000
  C   C329      1.0  0.00246  0.51686  0.44219  1.0000
  S   S61       1.0  0.11152  0.51808  0.32943  1.0000
  C   C330      1.0  0.16119  0.91174  0.14015  1.0000
  C   C331      1.0  0.21431  0.89422  0.34350  1.0000
  H   H261      1.0  0.01795  0.92392  0.01151  1.0000
  C   C332      1.0  0.01061  0.90272  0.00999  1.0000
  C   C333      1.0  0.04414  0.72007  0.34977  1.0000
  H   H262      1.0  0.19484  0.52525  0.23119  1.0000
  C   C334      1.0  0.08799  0.78878  0.45127  1.0000
  H   H263      1.0  0.04091  0.53275  0.96974  1.0000
  C   C335      1.0  0.01078  0.56153  0.15752  1.0000
  C   C336      1.0  0.23933  0.94384  0.00084  1.0000
  H   H264      1.0  0.01061  0.51585  0.00926  1.0000
  H   H265      1.0  0.10857  0.55658  0.19213  1.0000
  H   H266      1.0  0.20922  0.87542  0.18211  1.0000
  C   C337      1.0  0.06376  0.49880  0.15427  1.0000
  Fe  Fe30      1.0  0.23061  0.83042  0.26695  1.0000
  H   H267      1.0  0.07063  0.67190  0.44151  1.0000
  C   C338      1.0  0.09151  0.68822  0.19398  1.0000
  C   C339      1.0  0.21857  0.78547  0.39675  1.0000
  C   C340      1.0  0.06376  0.62041  0.38782  1.0000
  H   H268      1.0  0.03029  0.72426  0.33920  1.0000
  H   H269      1.0  0.12529  0.83391  0.22688  1.0000
  C   C341      1.0  0.14239  0.75610  0.46744  1.0000
  C   C342      1.0  0.08555  0.51835  0.14017  1.0000
  C   C343      1.0  0.11122  0.52500  0.14802  1.0000
  H   H270      1.0  0.21902  0.88832  0.38515  1.0000
  C   C344      1.0  0.11335  0.58709  0.25181  1.0000
  C   C345      1.0  0.13572  0.76582  0.44473  1.0000
  C   C346      1.0  0.23562  0.89351  0.45729  1.0000
  C   C347      1.0  0.11753  0.57224  0.23236  1.0000
  H   H271      1.0  0.22030  0.91320  0.03105  1.0000
  H   H272      1.0  0.12812  0.53995  0.13688  1.0000
  C   C348      1.0  0.19490  0.91652  0.17229  1.0000
  H   H273      1.0  0.01263  0.56439  0.11432  1.0000
  H   H274      1.0  0.03545  0.51962  0.24013  1.0000
  C   C349      1.0  0.09634  0.78229  0.33810  1.0000
  C   C350      1.0  0.08614  0.78197  0.31255  1.0000
  C   C351      1.0  0.06464  0.78627  0.30970  1.0000
  C   C352      1.0  0.05347  0.79106  0.33240  1.0000
  C   C353      1.0  0.06355  0.79130  0.35822  1.0000
  C   C354      1.0  0.08533  0.78718  0.36082  1.0000
  P   P12       1.0  0.05037  0.79986  0.38706  1.0000
  C   C355      1.0  0.05675  0.78681  0.41753  1.0000
  C   C356      1.0  0.06676  0.83567  0.39014  1.0000
  C   C357      1.0  0.06424  0.84706  0.41401  1.0000
  C   C358      1.0  0.07628  0.87470  0.41650  1.0000
  C   C359      1.0  0.09177  0.89124  0.39555  1.0000
  C   C360      1.0  0.09487  0.88010  0.37190  1.0000
  C   C361      1.0  0.08232  0.85242  0.36910  1.0000
  H   H275      1.0  0.12234  0.58989  0.27157  1.0000
  H   H276      1.0  0.05619  0.65049  0.18829  1.0000
  C   C362      1.0  0.00701  0.59012  0.28324  1.0000
  C   C363      1.0  0.22717  0.93383  0.02570  1.0000
  C   C364      1.0  0.08251  0.79899  0.42818  1.0000
  H   H277      1.0  0.20222  0.92283  0.44325  1.0000
  H   H278      1.0  0.17897  0.95904  0.44376  1.0000
  C   C365      1.0  0.17013  0.97354  0.97255  1.0000
  C   C366      1.0  0.06931  0.65775  0.42657  1.0000
  H   H279      1.0  0.16350  0.76635  0.98392  1.0000
  C   C367      1.0  0.14380  0.95347  0.05293  1.0000
  H   H280      1.0  0.11345  0.77963  0.34019  1.0000
  H   H281      1.0  0.09535  0.77899  0.29497  1.0000
  H   H282      1.0  0.05701  0.78643  0.28982  1.0000
  H   H283      1.0  0.03731  0.79513  0.32974  1.0000
  H   H284      1.0  0.09425  0.78808  0.38014  1.0000
  C   C368      1.0  0.14044  0.85827  0.26237  1.0000
  C   C369      1.0  0.01567  0.80366  0.97964  1.0000
  H   H285      1.0  0.10156  0.91268  0.39781  1.0000
  H   H286      1.0  0.10708  0.89294  0.35575  1.0000
  H   H287      1.0  0.08508  0.84431  0.35062  1.0000
  C   C370      1.0  0.17567  0.52255  0.23687  1.0000
  H   H288      1.0  0.14728  0.69772  0.22604  1.0000
  C   C371      1.0  0.02253  0.57348  0.13309  1.0000
  H   H289      1.0  0.15912  0.86705  0.19682  1.0000
  H   H290      1.0  0.09841  0.81652  0.41871  1.0000
  C   C372      1.0  0.04178  0.75494  0.45448  1.0000
  C   C373      1.0  0.05369  0.63046  0.43196  1.0000
  C   C374      1.0  0.12774  0.49986  0.23087  1.0000
  H   H291      1.0  0.19130  0.55062  0.26952  1.0000
  H   H292      1.0  0.03392  0.72783  0.38904  1.0000
  H   H293      1.0  0.19927  0.99487  0.24270  1.0000
  C   C375      1.0  0.01714  0.50983  0.22881  1.0000
  C   C376      1.0  0.22991  0.90789  0.20989  1.0000
  H   H294      1.0  0.05290  0.83455  0.43073  1.0000
  H   H295      1.0  0.24174  0.83383  0.34886  1.0000
  H   H296      1.0  0.13003  0.56380  0.23690  1.0000
  H   H297      1.0  0.20782  0.76396  0.39859  1.0000
  C   C377      1.0  0.13997  0.85305  0.23491  1.0000
  C   C378      1.0  0.22296  0.95007  0.04336  1.0000
  C   C379      1.0  0.06765  0.76684  0.46452  1.0000
  H   H298      1.0  0.24101  0.85912  0.18621  1.0000
  C   C380      1.0  0.24419  0.87645  0.19748  1.0000
  H   H299      1.0  0.14913  0.99518  0.97753  1.0000
  H   H300      1.0  0.21501  0.91717  0.10769  1.0000
  C   C381      1.0  0.21912  0.95327  0.21640  1.0000
  C   C382      1.0  0.14897  0.53299  0.26604  1.0000
  C   C383      1.0  0.17747  0.91304  0.11891  1.0000
  H   H301      1.0  0.19717  0.89651  0.34698  1.0000
  H   H302      1.0  0.14738  0.54366  0.28317  1.0000
  C   C384      1.0  0.16027  0.88243  0.27281  1.0000
  H   H303      1.0  0.03673  0.51952  0.19020  1.0000
  C   C385      1.0  0.16993  0.91371  0.16675  1.0000
  C   C386      1.0  0.17974  0.90134  0.25580  1.0000
  C   C387      1.0  0.17920  0.89632  0.22812  1.0000
  H   H304      1.0  0.16105  0.88591  0.29430  1.0000
  C   C388      1.0  0.13571  0.96829  0.06828  1.0000
  H   H305      1.0  0.13511  0.51758  0.17581  1.0000
  C   C389      1.0  0.21154  0.91880  0.15078  1.0000
  C   C390      1.0  0.22303  0.89467  0.31725  1.0000
  C   C391      1.0  0.21886  0.94265  0.44665  1.0000
  H   H306      1.0  0.23114  0.92165  0.15442  1.0000
  H   H307      1.0  0.01602  0.75566  0.42407  1.0000
  H   H308      1.0  0.22338  0.79218  0.43951  1.0000
  C   C392      1.0  0.23080  0.97649  0.03627  1.0000
  H   H309      1.0  0.14082  0.78652  0.44387  1.0000
  C   C393      1.0  0.01782  0.50971  0.20042  1.0000
  H   H310      1.0  0.15910  0.51438  0.32846  1.0000
  C   C394      1.0  0.12604  0.51441  0.25256  1.0000
  H   H311      1.0  0.00150  0.55057  0.28058  1.0000
  C   C395      1.0  0.21226  0.98847  0.23404  1.0000
  C   C396      1.0  0.23951  0.99505  0.09105  1.0000
  H   H312      1.0  0.10796  0.79841  0.45928  1.0000
  C   C397      1.0  0.22729  0.80137  0.41976  1.0000
  C   C398      1.0  0.18988  0.98512  0.06306  1.0000
  H   H313      1.0  0.11480  0.96187  0.06996  1.0000
  H   H314      1.0  0.20399  0.98167  0.11516  1.0000
  C   C399      1.0  0.22629  0.88580  0.19507  1.0000
  C   C400      1.0  0.23761  0.82508  0.36880  1.0000
  C   C401      1.0  0.22469  0.98714  0.11497  1.0000
  H   H315      1.0  0.17635  0.95044  0.03730  1.0000
  C   C402      1.0  0.17076  0.96188  0.05014  1.0000
  C   C403      1.0  0.24447  0.89071  0.31264  1.0000
  C   C404      1.0  0.05670  0.50254  0.44784  1.0000
  C   C405      1.0  0.24575  0.84123  0.39182  1.0000
  C   C406      1.0  0.23719  0.88212  0.43310  1.0000
  H   H316      1.0  0.02585  0.73853  0.46529  1.0000
  H   H317      1.0  0.06443  0.51312  0.42899  1.0000
  H   H318      1.0  0.22678  0.95170  0.40448  1.0000
  C   C407      1.0  0.23269  0.95890  0.42483  1.0000
  C   C408      1.0  0.24118  0.82914  0.41733  1.0000
  H   H319      1.0  0.02302  0.55148  0.46742  1.0000
  H   H320      1.0  0.10721  0.51129  0.25973  1.0000
  C   C409      1.0  0.99971  0.76047  0.37145  1.0000
  H   H321      1.0  0.00908  0.74942  0.36466  1.0000
  C   C410      1.0  0.00202  0.79936  0.39216  1.0000
  C   C411      1.0  0.15286  0.50431  0.22301  1.0000
  C   C412      1.0  0.00304  0.50847  0.98935  1.0000
  C   C413      1.0  0.24578  0.97210  0.21144  1.0000
  Fe  Fe31      1.0  0.13576  0.86373  0.53691  1.0000
  S   S62       1.0  0.10798  0.87939  0.52655  1.0000
  S   S63       1.0  0.14603  0.86338  0.58238  1.0000
  H   H322      1.0  0.15391  0.87371  0.63959  1.0000
  C   C414      1.0  0.04357  0.50229  0.49415  1.0000
  S   S64       1.0  0.16376  0.83987  0.94022  1.0000
  Fe  Fe32      1.0  0.13818  0.90519  0.49505  1.0000
  S   S65       1.0  0.15072  0.94988  0.49540  1.0000
  Fe  Fe33      1.0  0.08962  0.84771  0.49441  1.0000
  S   S66       1.0  0.04590  0.81516  0.48662  1.0000
  S   S67       1.0  0.16643  0.89072  0.50655  1.0000
  S   S68       1.0  0.11546  0.83039  0.50692  1.0000
  C   C415      1.0  0.21021  0.97689  0.53777  1.0000
  S   S69       1.0  0.20913  0.84371  0.75488  1.0000
  Fe  Fe34      1.0  0.18876  0.76961  0.76743  1.0000
  S   S70       1.0  0.15942  0.78226  0.75455  1.0000
  S   S71       1.0  0.18121  0.72657  0.77186  1.0000
  Fe  Fe35      1.0  0.19048  0.81025  0.72484  1.0000
  S   S72       1.0  0.18194  0.81197  0.67906  1.0000
  Fe  Fe36      1.0  0.18016  0.81514  0.78530  1.0000
  S   S73       1.0  0.15825  0.83014  0.81199  1.0000
  S   S74       1.0  0.21918  0.79597  0.73636  1.0000
  S   S75       1.0  0.20740  0.80071  0.80022  1.0000
  Fe  Fe37      1.0  0.02338  0.51558  0.80580  1.0000
  S   S76       1.0  0.06470  0.53576  0.78945  1.0000
  C   C416      1.0  0.15867  0.76882  0.94124  1.0000
  Fe  Fe38      1.0  0.04192  0.52457  0.86604  1.0000
  S   S77       1.0  0.08502  0.54552  0.85268  1.0000
  H   H323      1.0  0.21829  0.53317  0.86161  1.0000
  Fe  Fe39      1.0  0.07381  0.56698  0.82138  1.0000
  S   S78       1.0  0.08941  0.61183  0.81340  1.0000
  C   C417      1.0  0.01139  0.56680  0.76280  1.0000
  S   S79       1.0  0.03149  0.54752  0.83621  1.0000
  H   H324      1.0  0.10351  0.80036  0.94441  1.0000
  H   H325      1.0  0.08601  0.62920  0.91788  1.0000
  H   H326      1.0  0.15371  0.76643  0.89854  1.0000
  H   H327      1.0  0.10374  0.61245  0.75450  1.0000
  S   S80       1.0  0.03423  0.52209  0.91248  1.0000
  H   H328      1.0  0.12635  0.58814  0.76913  1.0000
  C   C418      1.0  0.20422  0.93015  0.56112  1.0000
  H   H329      1.0  0.09808  0.53902  0.69868  1.0000
  C   C419      1.0  0.15565  0.69515  0.78453  1.0000
  C   C420      1.0  0.13112  0.69114  0.79347  1.0000
  C   C421      1.0  0.11124  0.66563  0.80224  1.0000
  C   C422      1.0  0.11559  0.64375  0.80255  1.0000
  C   C423      1.0  0.14035  0.64791  0.79415  1.0000
  C   C424      1.0  0.16010  0.67334  0.78511  1.0000
  H   H330      1.0  0.12726  0.70756  0.79305  1.0000
  H   H331      1.0  0.09223  0.66276  0.80862  1.0000
  H   H332      1.0  0.14425  0.63151  0.79442  1.0000
  H   H333      1.0  0.17897  0.67610  0.77834  1.0000
  C   C425      1.0  0.00892  0.77673  0.89699  1.0000
  H   H334      1.0  0.21602  0.87607  0.84954  1.0000
  H   H335      1.0  0.01951  0.60305  0.69473  1.0000
  H   H336      1.0  0.05622  0.64624  0.72746  1.0000
  H   H337      1.0  0.16614  0.76548  0.85088  1.0000
  C   C426      1.0  0.23869  0.74878  0.85172  1.0000
  H   H338      1.0  0.10079  0.64175  0.66222  1.0000
  C   C427      1.0  0.02027  0.51806  0.96675  1.0000
  C   C428      1.0  0.06555  0.60428  0.67183  1.0000
  C   C429      1.0  0.16180  0.83740  0.90455  1.0000
  C   C430      1.0  0.17426  0.82519  0.89128  1.0000
  C   C431      1.0  0.17345  0.82292  0.86302  1.0000
  C   C432      1.0  0.16021  0.83296  0.84764  1.0000
  C   C433      1.0  0.14810  0.84558  0.86087  1.0000
  C   C434      1.0  0.14885  0.84776  0.88919  1.0000
  H   H339      1.0  0.18473  0.81757  0.90294  1.0000
  H   H340      1.0  0.18319  0.81359  0.85310  1.0000
  H   H341      1.0  0.13829  0.85393  0.84913  1.0000
  H   H342      1.0  0.13966  0.85763  0.89918  1.0000
  C   C435      1.0  0.15600  0.84863  0.60889  1.0000
  C   C436      1.0  0.16180  0.82817  0.60432  1.0000
  C   C437      1.0  0.16965  0.81738  0.62589  1.0000
  C   C438      1.0  0.17185  0.82665  0.65256  1.0000
  C   C439      1.0  0.16606  0.84712  0.65712  1.0000
  C   C440      1.0  0.15829  0.85796  0.63554  1.0000
  H   H343      1.0  0.16025  0.82061  0.58415  1.0000
  H   H344      1.0  0.17401  0.80162  0.62186  1.0000
  H   H345      1.0  0.16755  0.85462  0.67731  1.0000
  H   H346      1.0  0.22299  0.79524  0.85805  1.0000
  C   C441      1.0  0.13056  0.63899  0.86880  1.0000
  C   C442      1.0  0.10977  0.62548  0.88700  1.0000
  H   H347      1.0  0.04153  0.51306  0.51082  1.0000
  C   C443      1.0  0.22985  0.96990  0.53383  1.0000
  C   C444      1.0  0.13716  0.68138  0.88508  1.0000
  C   C445      1.0  0.14404  0.66681  0.86759  1.0000
  H   H348      1.0  0.21156  0.99430  0.52807  1.0000
  C   C446      1.0  0.13411  0.72548  0.85879  1.0000
  C   C447      1.0  0.09325  0.71317  0.83438  1.0000
  C   C448      1.0  0.10764  0.70676  0.85260  1.0000
  Fe  Fe40      1.0  0.07283  0.51282  0.82151  1.0000
  H   H349      1.0  0.05260  0.57928  0.76007  1.0000
  C   C449      1.0  0.01646  0.50828  0.57992  1.0000
  H   H350      1.0  0.02942  0.56599  0.67372  1.0000
  H   H351      1.0  0.13548  0.62780  0.85481  1.0000
  H   H352      1.0  0.09883  0.60387  0.88726  1.0000
  H   H353      1.0  0.17394  0.52493  0.84729  1.0000
  H   H354      1.0  0.22328  0.74964  0.81244  1.0000
  H   H355      1.0  0.15927  0.67676  0.85246  1.0000
  H   H356      1.0  0.07304  0.69845  0.82934  1.0000
  H   H357      1.0  0.09812  0.68699  0.86129  1.0000
  H   H358      1.0  0.17756  0.73216  0.82823  1.0000
  H   H359      1.0  0.20135  0.91160  0.56965  1.0000
  H   H360      1.0  0.20580  0.88230  0.80282  1.0000
  H   H361      1.0  0.16711  0.92432  0.57643  1.0000
  C   C450      1.0  0.08912  0.76442  0.88667  1.0000
  C   C451      1.0  0.01745  0.59278  0.71360  1.0000
  H   H362      1.0  0.14066  0.77626  0.81857  1.0000
  H   H363      1.0  0.02006  0.82881  0.88884  1.0000
  H   H364      1.0  0.15426  0.69274  0.71972  1.0000
  C   C452      1.0  0.09331  0.82369  0.79478  1.0000
  C   C453      1.0  0.07864  0.83123  0.77833  1.0000
  C   C454      1.0  0.05673  0.83194  0.78881  1.0000
  C   C455      1.0  0.04938  0.82488  0.81568  1.0000
  C   C456      1.0  0.06357  0.81653  0.83216  1.0000
  C   C457      1.0  0.08602  0.81660  0.82165  1.0000
  P   P13       1.0  0.05425  0.80875  0.86712  1.0000
  C   C458      1.0  0.07256  0.79556  0.88453  1.0000
  C   C459      1.0  0.06113  0.83989  0.88211  1.0000
  C   C460      1.0  0.04060  0.84409  0.89100  1.0000
  C   C461      1.0  0.04653  0.86826  0.90301  1.0000
  C   C462      1.0  0.07291  0.88841  0.90599  1.0000
  C   C463      1.0  0.09337  0.88463  0.89644  1.0000
  C   C464      1.0  0.08749  0.86055  0.88434  1.0000
  C   C465      1.0  0.07545  0.77507  0.87293  1.0000
  H   H365      1.0  0.03245  0.82755  0.54200  1.0000
  C   C466      1.0  0.17265  0.97915  0.47668  1.0000
  H   H366      1.0  0.11383  0.90028  0.89870  1.0000
  C   C467      1.0  0.08231  0.80420  0.91065  1.0000
  H   H367      1.0  0.17221  0.96559  0.55539  1.0000
  H   H368      1.0  0.10956  0.67838  0.91598  1.0000
  H   H369      1.0  0.15905  0.70216  0.93705  1.0000
  C   C468      1.0  0.13887  0.50033  0.79848  1.0000
  Fe  Fe41      1.0  0.14407  0.85837  0.47583  1.0000
  C   C469      1.0  0.15573  0.75665  0.91624  1.0000
  H   H370      1.0  0.11066  0.82370  0.78679  1.0000
  H   H371      1.0  0.08451  0.83686  0.75757  1.0000
  H   H372      1.0  0.04562  0.83823  0.77617  1.0000
  C   C470      1.0  0.16140  0.75688  0.96458  1.0000
  H   H373      1.0  0.09832  0.81171  0.83404  1.0000
  H   H374      1.0  0.14213  0.52024  0.80139  1.0000
  C   C471      1.0  0.23259  0.74231  0.87887  1.0000
  H   H375      1.0  0.14252  0.72230  0.48554  1.0000
  H   H376      1.0  0.10349  0.85789  0.87692  1.0000
  C   C472      1.0  0.22615  0.95205  0.47294  1.0000
  H   H377      1.0  0.06720  0.76737  0.85326  1.0000
  C   C473      1.0  0.09571  0.79332  0.92441  1.0000
  H   H378      1.0  0.10974  0.76534  0.92311  1.0000
  C   C474      1.0  0.03958  0.57937  0.63300  1.0000
  H   H379      1.0  0.03265  0.82601  0.82368  1.0000
  C   C475      1.0  0.01478  0.81060  0.47439  1.0000
  H   H380      1.0  0.15230  0.76923  0.48428  1.0000
  S   S81       1.0  0.11292  0.86769  0.95937  1.0000
  H   H381      1.0  0.09176  0.74900  0.87747  1.0000
  C   C476      1.0  0.20659  0.73244  0.88798  1.0000
  H   H382      1.0  0.09355  0.63726  0.61327  1.0000
  C   C477      1.0  0.21872  0.74509  0.83363  1.0000
  H   H383      1.0  0.07570  0.56342  0.68351  1.0000
  H   H384      1.0  0.12803  0.64497  0.70843  1.0000
  C   C478      1.0  0.08359  0.62423  0.65442  1.0000
  C   C479      1.0  0.14577  0.75072  0.84659  1.0000
  H   H385      1.0  0.13196  0.71735  0.73420  1.0000
  H   H386      1.0  0.19643  0.95824  0.96540  1.0000
  H   H387      1.0  0.23913  0.50647  0.81743  1.0000
  C   C480      1.0  0.01142  0.81376  0.54461  1.0000
  C   C481      1.0  0.00388  0.77021  0.84872  1.0000
  H   H388      1.0  0.12347  0.55121  0.74147  1.0000
  H   H389      1.0  0.23189  0.81623  0.94178  1.0000
  Fe  Fe42      1.0  0.23584  0.82777  0.76843  1.0000
  H   H390      1.0  0.03269  0.83607  0.95139  1.0000
  H   H391      1.0  0.03894  0.52586  0.61600  1.0000
  C   C482      1.0  0.03917  0.59191  0.72503  1.0000
  C   C483      1.0  0.16139  0.73279  0.96293  1.0000
  P   P14       1.0  0.07077  0.60723  0.70789  1.0000
  C   C484      1.0  0.01115  0.50903  0.94037  1.0000
  C   C485      1.0  0.09007  0.64198  0.71695  1.0000
  C   C486      1.0  0.07754  0.65608  0.72544  1.0000
  C   C487      1.0  0.09259  0.68321  0.73152  1.0000
  C   C488      1.0  0.12018  0.69642  0.72911  1.0000
  C   C489      1.0  0.13279  0.68249  0.72086  1.0000
  C   C490      1.0  0.11785  0.65539  0.71479  1.0000
  C   C491      1.0  0.21868  0.91023  0.92453  1.0000
  H   H392      1.0  0.07755  0.90697  0.91569  1.0000
  H   H393      1.0  0.07183  0.75961  0.48300  1.0000
  H   H394      1.0  0.08295  0.69402  0.73830  1.0000
  H   H395      1.0  0.03040  0.52334  0.73949  1.0000
  C   C492      1.0  0.08833  0.59007  0.71772  1.0000
  C   C493      1.0  0.08686  0.56923  0.70208  1.0000
  C   C494      1.0  0.09959  0.55535  0.71058  1.0000
  C   C495      1.0  0.11396  0.56224  0.73465  1.0000
  C   C496      1.0  0.11567  0.58308  0.75020  1.0000
  C   C497      1.0  0.10285  0.59686  0.74183  1.0000
  H   H396      1.0  0.03067  0.87123  0.91033  1.0000
  C   C498      1.0  0.10515  0.73825  0.82216  1.0000
  C   C499      1.0  0.05757  0.59933  0.61584  1.0000
  C   C500      1.0  0.00153  0.78649  0.54120  1.0000
  C   C501      1.0  0.01173  0.51647  0.70035  1.0000
  H   H397      1.0  0.09422  0.74316  0.80771  1.0000
  C   C502      1.0  0.03630  0.51336  0.59875  1.0000
  C   C503      1.0  0.03613  0.57953  0.75018  1.0000
  C   C504      1.0  0.07957  0.62175  0.62656  1.0000
  C   C505      1.0  0.13137  0.75696  0.82829  1.0000
  C   C506      1.0  0.18483  0.93732  0.56501  1.0000
  H   H398      1.0  0.21826  0.87462  0.91275  1.0000
  C   C507      1.0  0.01182  0.51430  0.72864  1.0000
  C   C508      1.0  0.15556  0.73236  0.91436  1.0000
  C   C509      1.0  0.15862  0.72063  0.93794  1.0000
  H   H399      1.0  0.20018  0.89950  0.93554  1.0000
  H   H400      1.0  0.24367  0.84261  0.84537  1.0000
  H   H401      1.0  0.21492  0.93918  0.48944  1.0000
  C   C510      1.0  0.19275  0.73528  0.84270  1.0000
  H   H402      1.0  0.05446  0.59742  0.59426  1.0000
  C   C511      1.0  0.04357  0.58176  0.66084  1.0000
  C   C512      1.0  0.23211  0.88638  0.83534  1.0000
  C   C513      1.0  0.09928  0.77360  0.91237  1.0000
  C   C514      1.0  0.01983  0.78359  0.87104  1.0000
  C   C515      1.0  0.01470  0.81856  0.95781  1.0000
  C   C516      1.0  0.05240  0.50197  0.59553  1.0000
  C   C517      1.0  0.17574  0.51012  0.85909  1.0000
  C   C518      1.0  0.22626  0.89010  0.80893  1.0000
  H   H403      1.0  0.00375  0.51686  0.58258  1.0000
  C   C519      1.0  0.23453  0.82207  0.92077  1.0000
  C   C520      1.0  0.19418  0.97566  0.96461  1.0000
  C   C521      1.0  0.20071  0.51472  0.86713  1.0000
  H   H404      1.0  0.07943  0.81913  0.92066  1.0000
  C   C522      1.0  0.11602  0.66765  0.90314  1.0000
  C   C523      1.0  0.18655  0.72940  0.87003  1.0000
  P   P15       1.0  0.15305  0.71715  0.88193  1.0000
  H   H405      1.0  0.15877  0.78757  0.94258  1.0000
  H   H406      1.0  0.01500  0.77939  0.53588  1.0000
  H   H407      1.0  0.17973  0.51352  0.78840  1.0000
  H   H408      1.0  0.22277  0.94873  0.93171  1.0000
  C   C524      1.0  0.10252  0.63980  0.90419  1.0000
  H   H409      1.0  0.03032  0.52698  0.68973  1.0000
  C   C525      1.0  0.22590  0.80270  0.90071  1.0000
  H   H410      1.0  0.00902  0.55661  0.78182  1.0000
  H   H411      1.0  0.02097  0.78636  0.91457  1.0000
  H   H412      1.0  0.01191  0.77422  0.82857  1.0000
  H   H413      1.0  0.06777  0.50590  0.61017  1.0000
  H   H414      1.0  0.20227  0.72728  0.90900  1.0000
  C   C526      1.0  0.18782  0.96066  0.55333  1.0000
  C   C527      1.0  0.22934  0.81024  0.87361  1.0000
  H   H415      1.0  0.24202  0.90538  0.76960  1.0000
  H   H416      1.0  0.21657  0.78189  0.90622  1.0000
  C   C528      1.0  0.22923  0.89611  0.91172  1.0000
  C   C529      1.0  0.22651  0.94618  0.54537  1.0000
  C   C530      1.0  0.05452  0.51598  0.47008  1.0000
  H   H417      1.0  0.24064  0.93957  0.54165  1.0000
  H   H418      1.0  0.02247  0.56195  0.62478  1.0000
  C   C531      1.0  0.24096  0.83716  0.86650  1.0000
  C   C532      1.0  0.23140  0.93794  0.92235  1.0000
  H   H419      1.0  0.00192  0.84443  0.55305  1.0000
  C   C533      1.0  0.24643  0.84900  0.91375  1.0000
  H   H420      1.0  0.22240  0.49878  0.88775  1.0000
  Fe  Fe43      1.0  0.14273  0.85457  0.96849  1.0000
  H   H421      1.0  0.02747  0.85207  0.46878  1.0000
  H   H422      1.0  0.35971  0.36106  0.35766  1.0000
  H   H423      1.0  0.29674  0.42121  0.25164  1.0000
  H   H424      1.0  0.31834  0.45402  0.34773  1.0000
  H   H425      1.0  0.29842  0.41023  0.29928  1.0000
  C   C534      1.0  0.39359  0.46668  0.15223  1.0000
  P   P16       1.0  0.28034  0.26891  0.41168  1.0000
  H   H426      1.0  0.44302  0.09187  0.21899  1.0000
  S   S82       1.0  0.48380  0.45342  0.09154  1.0000
  Fe  Fe44      1.0  0.28477  0.15008  0.39499  1.0000
  S   S83       1.0  0.31460  0.17019  0.35989  1.0000
  C   C535      1.0  0.31048  0.32347  0.40192  1.0000
  C   C536      1.0  0.41232  0.10256  0.01012  1.0000
  S   S84       1.0  0.29098  0.12633  0.42759  1.0000
  S   S85       1.0  0.28449  0.17872  0.42532  1.0000
  Fe  Fe45      1.0  0.40774  0.18021  0.16148  1.0000
  S   S86       1.0  0.36316  0.15976  0.16490  1.0000
  S   S87       1.0  0.42139  0.14880  0.15866  1.0000
  Fe  Fe46      1.0  0.41161  0.23531  0.16466  1.0000
  S   S88       1.0  0.36729  0.21752  0.16801  1.0000
  S   S89       1.0  0.43740  0.28075  0.17094  1.0000
  Fe  Fe47      1.0  0.36799  0.18839  0.19794  1.0000
  S   S90       1.0  0.33668  0.17103  0.23233  1.0000
  Fe  Fe48      1.0  0.36519  0.18989  0.13509  1.0000
  S   S91       1.0  0.33142  0.17466  0.10435  1.0000
  S   S92       1.0  0.41265  0.20737  0.19655  1.0000
  S   S93       1.0  0.40947  0.20925  0.12959  1.0000
  S   S94       1.0  0.27101  0.45574  0.26477  1.0000
  C   C537      1.0  0.32035  0.16924  0.32443  1.0000
  C   C538      1.0  0.34586  0.18641  0.31393  1.0000
  C   C539      1.0  0.35137  0.18692  0.28609  1.0000
  C   C540      1.0  0.33139  0.17040  0.26808  1.0000
  C   C541      1.0  0.30589  0.15318  0.27860  1.0000
  C   C542      1.0  0.30039  0.15257  0.30645  1.0000
  H   H427      1.0  0.36158  0.19932  0.32750  1.0000
  H   H428      1.0  0.37109  0.20004  0.27853  1.0000
  H   H429      1.0  0.29019  0.14025  0.26502  1.0000
  H   H430      1.0  0.28067  0.13925  0.31397  1.0000
  C   C543      1.0  0.33161  0.17494  0.01169  1.0000
  C   C544      1.0  0.35572  0.18766  0.02589  1.0000
  C   C545      1.0  0.35619  0.18729  0.05428  1.0000
  C   C546      1.0  0.33243  0.17443  0.06870  1.0000
  C   C547      1.0  0.30835  0.16158  0.05446  1.0000
  C   C548      1.0  0.30791  0.16191  0.02616  1.0000
  H   H431      1.0  0.37409  0.19799  0.01486  1.0000
  H   H432      1.0  0.37487  0.19709  0.06500  1.0000
  H   H433      1.0  0.28987  0.15154  0.06542  1.0000
  H   H434      1.0  0.28923  0.15254  0.01555  1.0000
  C   C549      1.0  0.47421  0.35902  0.12069  1.0000
  H   H435      1.0  0.25276  0.17445  0.26518  1.0000
  C   C550      1.0  0.46514  0.33535  0.16362  1.0000
  C   C551      1.0  0.45138  0.31040  0.15075  1.0000
  C   C552      1.0  0.44900  0.30996  0.12266  1.0000
  C   C553      1.0  0.46046  0.33407  0.10781  1.0000
  H   H436      1.0  0.28048  0.44892  0.19024  1.0000
  H   H437      1.0  0.30053  0.19877  0.08445  1.0000
  H   H438      1.0  0.43854  0.29108  0.11235  1.0000
  C   C554      1.0  0.30496  0.28841  0.96985  1.0000
  C   C555      1.0  0.34590  0.47919  0.31731  1.0000
  C   C556      1.0  0.31859  0.05661  0.98433  1.0000
  C   C557      1.0  0.29728  0.45531  0.31229  1.0000
  C   C558      1.0  0.29934  0.46507  0.28605  1.0000
  H   H439      1.0  0.49180  0.11970  0.06395  1.0000
  C   C559      1.0  0.32490  0.48258  0.27596  1.0000
  H   H440      1.0  0.24830  0.34642  0.38543  1.0000
  H   H441      1.0  0.27792  0.44264  0.32080  1.0000
  H   H442      1.0  0.45606  0.17115  0.21071  1.0000
  C   C560      1.0  0.26058  0.05203  0.06181  1.0000
  H   H443      1.0  0.31400  0.03613  0.98243  1.0000
  H   H444      1.0  0.27639  0.01329  0.21467  1.0000
  H   H445      1.0  0.29678  0.41790  0.17872  1.0000
  C   C561      1.0  0.28477  0.39478  0.28587  1.0000
  C   C562      1.0  0.31806  0.23130  0.11213  1.0000
  H   H446      1.0  0.40228  0.09573  0.02928  1.0000
  C   C563      1.0  0.42332  0.45114  0.13787  1.0000
  H   H447      1.0  0.43733  0.49156  0.97042  1.0000
  H   H448      1.0  0.44661  0.44681  0.16912  1.0000
  C   C564      1.0  0.28591  0.24881  0.08801  1.0000
  H   H449      1.0  0.26995  0.42897  0.98141  1.0000
  C   C565      1.0  0.46403  0.11182  0.14040  1.0000
  C   C566      1.0  0.44405  0.11734  0.14898  1.0000
  C   C567      1.0  0.44733  0.14312  0.14684  1.0000
  C   C568      1.0  0.47096  0.16331  0.13572  1.0000
  C   C569      1.0  0.29783  0.26145  0.43735  1.0000
  H   H450      1.0  0.46720  0.33604  0.18529  1.0000
  H   H451      1.0  0.42597  0.10150  0.15759  1.0000
  H   H452      1.0  0.47399  0.18326  0.13396  1.0000
  H   H453      1.0  0.30043  0.29094  0.02551  1.0000
  P   P17       1.0  0.26297  0.20647  0.05139  1.0000
  H   H454      1.0  0.42758  0.46049  0.20529  1.0000
  C   C570      1.0  0.39204  0.45270  0.29124  1.0000
  H   H455      1.0  0.24862  0.20470  0.99457  1.0000
  H   H456      1.0  0.31190  0.49442  0.20591  1.0000
  H   H457      1.0  0.47392  0.05083  0.01706  1.0000
  H   H458      1.0  0.34422  0.43189  0.18434  1.0000
  C   C571      1.0  0.26651  0.38148  0.24109  1.0000
  C   C572      1.0  0.43114  0.45151  0.16453  1.0000
  C   C573      1.0  0.35038  0.10315  0.99327  1.0000
  C   C574      1.0  0.40798  0.14608  0.08156  1.0000
  H   H459      1.0  0.45176  0.05115  0.24734  1.0000
  C   C575      1.0  0.33023  0.34614  0.38896  1.0000
  C   C576      1.0  0.31065  0.43788  0.18541  1.0000
  H   H460      1.0  0.39294  0.04037  0.02894  1.0000
  C   C577      1.0  0.30413  0.29793  0.39310  1.0000
  H   H461      1.0  0.26522  0.25478  0.97163  1.0000
  C   C578      1.0  0.31919  0.25468  0.12103  1.0000
  C   C579      1.0  0.27775  0.99952  0.11561  1.0000
  C   C580      1.0  0.34795  0.48966  0.29141  1.0000
  Fe  Fe49      1.0  0.28749  0.15326  0.45788  1.0000
  C   C581      1.0  0.40697  0.11880  0.99315  1.0000
  H   H462      1.0  0.29829  0.00430  0.11589  1.0000
  C   C582      1.0  0.26449  0.23983  0.39033  1.0000
  H   H463      1.0  0.46306  0.03771  0.15088  1.0000
  C   C583      1.0  0.47809  0.09925  0.05837  1.0000
  H   H464      1.0  0.29898  0.23482  0.38866  1.0000
  H   H465      1.0  0.46105  0.09192  0.14228  1.0000
  C   C584      1.0  0.27865  0.22719  0.38233  1.0000
  C   C585      1.0  0.35551  0.47175  0.19751  1.0000
  C   C586      1.0  0.33816  0.27272  0.46226  1.0000
  C   C587      1.0  0.28422  0.21730  0.97196  1.0000
  H   H466      1.0  0.33437  0.29945  0.43508  1.0000
  H   H467      1.0  0.37118  0.26347  0.40661  1.0000
  C   C588      1.0  0.44668  0.13041  0.21526  1.0000
  H   H468      1.0  0.26898  0.04849  0.07970  1.0000
  H   H469      1.0  0.29655  0.24052  0.31820  1.0000
  H   H470      1.0  0.27720  0.19375  0.36175  1.0000
  C   C589      1.0  0.47730  0.06544  0.18381  1.0000
  C   C590      1.0  0.43655  0.05829  0.06528  1.0000
  C   C591      1.0  0.46387  0.15790  0.21455  1.0000
  H   H471      1.0  0.30063  0.32596  0.41923  1.0000
  H   H472      1.0  0.28948  0.09472  0.97747  1.0000
  H   H473      1.0  0.30444  0.38827  0.98334  1.0000
  C   C592      1.0  0.49109  0.16817  0.21808  1.0000
  C   C593      1.0  0.29889  0.06321  0.97938  1.0000
  H   H474      1.0  0.33045  0.22433  0.12144  1.0000
  C   C594      1.0  0.30319  0.26348  0.10890  1.0000
  H   H475      1.0  0.42354  0.35982  0.17650  1.0000
  H   H476      1.0  0.44879  0.09454  0.08748  1.0000
  C   C595      1.0  0.44337  0.40946  0.01774  1.0000
  C   C596      1.0  0.32380  0.22860  0.99763  1.0000
  C   C597      1.0  0.44420  0.10378  0.97799  1.0000
  H   H477      1.0  0.31365  0.27622  0.36386  1.0000
  H   H478      1.0  0.43047  0.39556  0.14426  1.0000
  H   H479      1.0  0.26511  0.22163  0.44454  1.0000
  H   H480      1.0  0.30408  0.28164  0.11579  1.0000
  H   H481      1.0  0.35865  0.28674  0.46708  1.0000
  H   H482      1.0  0.34445  0.23373  0.99826  1.0000
  C   C598      1.0  0.45380  0.08500  0.07167  1.0000
  C   C599      1.0  0.36757  0.44470  0.27902  1.0000
  H   H483      1.0  0.24850  0.29067  0.38933  1.0000
  C   C600      1.0  0.29392  0.19980  0.25539  1.0000
  C   C601      1.0  0.31784  0.22217  0.26268  1.0000
  C   C602      1.0  0.31912  0.23728  0.28529  1.0000
  S   S95       1.0  0.37438  0.48591  0.33716  1.0000
  P   P18       1.0  0.34999  0.26645  0.29479  1.0000
  C   C603      1.0  0.37665  0.26722  0.27549  1.0000
  C   C604      1.0  0.34904  0.29671  0.28765  1.0000
  C   C605      1.0  0.37285  0.32093  0.28436  1.0000
  C   C606      1.0  0.37246  0.34449  0.27912  1.0000
  C   C607      1.0  0.46054  0.04085  0.17187  1.0000
  C   C608      1.0  0.42034  0.45956  0.18509  1.0000
  C   C609      1.0  0.36648  0.45207  0.25242  1.0000
  C   C610      1.0  0.38107  0.27677  0.24887  1.0000
  C   C611      1.0  0.40082  0.27628  0.23334  1.0000
  C   C612      1.0  0.41620  0.26614  0.24415  1.0000
  C   C613      1.0  0.41189  0.25654  0.27059  1.0000
  C   C614      1.0  0.39216  0.25701  0.28624  1.0000
  C   C615      1.0  0.35668  0.26542  0.33027  1.0000
  C   C616      1.0  0.34341  0.24152  0.34492  1.0000
  C   C617      1.0  0.34859  0.24094  0.37236  1.0000
  C   C618      1.0  0.36712  0.26413  0.38540  1.0000
  C   C619      1.0  0.38088  0.28788  0.37088  1.0000
  C   C620      1.0  0.37589  0.28849  0.34338  1.0000
  H   H484      1.0  0.27249  0.27741  0.33324  1.0000
  C   C621      1.0  0.41211  0.18409  0.99753  1.0000
  H   H485      1.0  0.29341  0.18784  0.23839  1.0000
  H   H486      1.0  0.33526  0.22690  0.25089  1.0000
  H   H487      1.0  0.27779  0.01387  0.45865  1.0000
  H   H488      1.0  0.39181  0.32162  0.28558  1.0000
  H   H489      1.0  0.39094  0.36302  0.27634  1.0000
  H   H490      1.0  0.41834  0.04726  0.07658  1.0000
  C   C622      1.0  0.41539  0.46776  0.27684  1.0000
  H   H491      1.0  0.32689  0.49089  0.25608  1.0000
  H   H492      1.0  0.36889  0.28404  0.23987  1.0000
  H   H493      1.0  0.33529  0.36579  0.39609  1.0000
  H   H494      1.0  0.43118  0.26538  0.23180  1.0000
  H   H495      1.0  0.42348  0.24816  0.27872  1.0000
  H   H496      1.0  0.38863  0.24875  0.30639  1.0000
  H   H497      1.0  0.32940  0.22309  0.33524  1.0000
  H   H498      1.0  0.33847  0.22230  0.38343  1.0000
  H   H499      1.0  0.28706  0.09458  0.06354  1.0000
  H   H500      1.0  0.39575  0.30574  0.38086  1.0000
  H   H501      1.0  0.38724  0.30694  0.33246  1.0000
  C   C623      1.0  0.34386  0.34351  0.36718  1.0000
  H   H502      1.0  0.42577  0.14636  0.04380  1.0000
  C   C624      1.0  0.45464  0.04851  0.22632  1.0000
  H   H503      1.0  0.34307  0.12467  0.04164  1.0000
  H   H504      1.0  0.39311  0.44842  0.31225  1.0000
  C   C625      1.0  0.40134  0.46712  0.17915  1.0000
  H   H505      1.0  0.34790  0.31640  0.34099  1.0000
  C   C626      1.0  0.28417  0.40099  0.25875  1.0000
  H   H506      1.0  0.42609  0.15250  0.09300  1.0000
  H   H507      1.0  0.42350  0.00748  0.22638  1.0000
  H   H508      1.0  0.42096  0.18435  0.01680  1.0000
  H   H509      1.0  0.47548  0.41026  0.04032  1.0000
  C   C627      1.0  0.44131  0.01992  0.18722  1.0000
  H   H510      1.0  0.34952  0.43414  0.29068  1.0000
  C   C628      1.0  0.25520  0.32577  0.33451  1.0000
  C   C629      1.0  0.33735  0.31826  0.35796  1.0000
  H   H511      1.0  0.42564  0.12258  0.21195  1.0000
  H   H512      1.0  0.34422  0.13144  0.09059  1.0000
  H   H513      1.0  0.25897  0.26326  0.46693  1.0000
  H   H514      1.0  0.30576  0.31980  0.27824  1.0000
  C   C630      1.0  0.32484  0.29654  0.28548  1.0000
  C   C631      1.0  0.29936  0.22925  0.46776  1.0000
  C   C632      1.0  0.29601  0.22949  0.30046  1.0000
  C   C633      1.0  0.26976  0.21206  0.99578  1.0000
  C   C634      1.0  0.30938  0.22339  0.02151  1.0000
  H   H515      1.0  0.36012  0.23788  0.06603  1.0000
  C   C635      1.0  0.27083  0.07831  0.05284  1.0000
  C   C636      1.0  0.24929  0.35578  0.25060  1.0000
  C   C637      1.0  0.34425  0.07647  0.99129  1.0000
  H   H516      1.0  0.24802  0.37698  0.97542  1.0000
  H   H517      1.0  0.46493  0.99963  0.03887  1.0000
  C   C638      1.0  0.26005  0.08373  0.03015  1.0000
  C   C639      1.0  0.48769  0.13204  0.12931  1.0000
  H   H518      1.0  0.26805  0.10405  0.02314  1.0000
  C   C640      1.0  0.49055  0.99910  0.25090  1.0000
  H   H519      1.0  0.24672  0.02773  0.23494  1.0000
  C   C641      1.0  0.28227  0.21533  0.02080  1.0000
  P   P19       1.0  0.26889  0.36129  0.33073  1.0000
  C   C642      1.0  0.38714  0.00166  0.04024  1.0000
  C   C643      1.0  0.31773  0.29550  0.37095  1.0000
  S   S96       1.0  0.33191  0.17608  0.97600  1.0000
  C   C644      1.0  0.26002  0.28639  0.33406  1.0000
  H   H520      1.0  0.45622  0.42777  0.00688  1.0000
  H   H521      1.0  0.39992  0.24387  0.04186  1.0000
  C   C645      1.0  0.28457  0.22520  0.07902  1.0000
  C   C646      1.0  0.44316  0.04594  0.04484  1.0000
  H   H522      1.0  0.42921  0.00057  0.17812  1.0000
  C   C647      1.0  0.40760  0.14235  0.05373  1.0000
  H   H523      1.0  0.25440  0.20101  0.30485  1.0000
  C   C648      1.0  0.30333  0.38022  0.34087  1.0000
  C   C649      1.0  0.32298  0.38003  0.32466  1.0000
  C   C650      1.0  0.34983  0.39667  0.33062  1.0000
  C   C651      1.0  0.35731  0.41388  0.35263  1.0000
  C   C652      1.0  0.33795  0.41442  0.36868  1.0000
  C   C653      1.0  0.31109  0.39767  0.36294  1.0000
  C   C654      1.0  0.32034  0.46202  0.32762  1.0000
  S   S97       1.0  0.48850  0.38874  0.10059  1.0000
  C   C655      1.0  0.28540  0.23622  0.44961  1.0000
  C   C656      1.0  0.42016  0.20823  0.98415  1.0000
  H   H524      1.0  0.29271  0.32631  0.33266  1.0000
  C   C657      1.0  0.46776  0.06028  0.03189  1.0000
  H   H525      1.0  0.31748  0.36770  0.30687  1.0000
  H   H526      1.0  0.36492  0.39682  0.31777  1.0000
  H   H527      1.0  0.37809  0.42750  0.35686  1.0000
  H   H528      1.0  0.34386  0.42868  0.38499  1.0000
  H   H529      1.0  0.29670  0.39939  0.37521  1.0000
  H   H530      1.0  0.40769  0.40358  0.99851  1.0000
  H   H531      1.0  0.31931  0.22471  0.04029  1.0000
  H   H532      1.0  0.40400  0.28332  0.21269  1.0000
  C   C658      1.0  0.42018  0.37495  0.13787  1.0000
  C   C659      1.0  0.41620  0.35483  0.15606  1.0000
  C   C660      1.0  0.40371  0.32836  0.14760  1.0000
  C   C661      1.0  0.39556  0.32199  0.12084  1.0000
  C   C662      1.0  0.39991  0.34213  0.10225  1.0000
  C   C663      1.0  0.41182  0.36864  0.11116  1.0000
  P   P20       1.0  0.38930  0.33403  0.06757  1.0000
  C   C664      1.0  0.39223  0.30546  0.05795  1.0000
  C   C665      1.0  0.35517  0.32615  0.06470  1.0000
  C   C666      1.0  0.34468  0.33718  0.08267  1.0000
  C   C667      1.0  0.31839  0.33145  0.08004  1.0000
  C   C668      1.0  0.30242  0.31475  0.05946  1.0000
  C   C669      1.0  0.31276  0.30381  0.04146  1.0000
  C   C670      1.0  0.33905  0.30954  0.04394  1.0000
  C   C671      1.0  0.37230  0.27969  0.06525  1.0000
  C   C672      1.0  0.37513  0.25760  0.05956  1.0000
  C   C673      1.0  0.39763  0.26097  0.04607  1.0000
  C   C674      1.0  0.41738  0.28644  0.03840  1.0000
  C   C675      1.0  0.41478  0.30861  0.04435  1.0000
  C   C676      1.0  0.41030  0.36267  0.04678  1.0000
  C   C677      1.0  0.43782  0.37633  0.05090  1.0000
  C   C678      1.0  0.45426  0.39962  0.03656  1.0000
  H   H533      1.0  0.43548  0.08332  0.01591  1.0000
  C   C679      1.0  0.41600  0.39581  0.01313  1.0000
  C   C680      1.0  0.39946  0.37250  0.02760  1.0000
  H   H534      1.0  0.24926  0.30963  0.01136  1.0000
  C   C681      1.0  0.41443  0.47571  0.25053  1.0000
  H   H535      1.0  0.40144  0.31285  0.16149  1.0000
  H   H536      1.0  0.38670  0.30143  0.11474  1.0000
  H   H537      1.0  0.41533  0.38463  0.09742  1.0000
  H   H538      1.0  0.35681  0.35034  0.09861  1.0000
  H   H539      1.0  0.31042  0.34008  0.09392  1.0000
  H   H540      1.0  0.28205  0.31035  0.05741  1.0000
  C   C682      1.0  0.43108  0.02104  0.98239  1.0000
  H   H541      1.0  0.34683  0.30112  0.02960  1.0000
  H   H542      1.0  0.35487  0.27670  0.07596  1.0000
  H   H543      1.0  0.38542  0.14485  0.11633  1.0000
  H   H544      1.0  0.43501  0.28908  0.02826  1.0000
  H   H545      1.0  0.43064  0.32809  0.03863  1.0000
  H   H546      1.0  0.44653  0.36912  0.06558  1.0000
  C   C683      1.0  0.33755  0.44597  0.18840  1.0000
  H   H547      1.0  0.39891  0.45893  0.11095  1.0000
  C   C684      1.0  0.40446  0.45860  0.13173  1.0000
  H   H548      1.0  0.37833  0.36252  0.02397  1.0000
  C   C685      1.0  0.43097  0.09527  0.00257  1.0000
  H   H549      1.0  0.43236  0.04003  0.98617  1.0000
  P   P21       1.0  0.38330  0.12882  0.00303  1.0000
  C   C686      1.0  0.38404  0.13385  0.03901  1.0000
  C   C687      1.0  0.25097  0.34342  0.99049  1.0000
  C   C688      1.0  0.26746  0.36906  0.29567  1.0000
  C   C689      1.0  0.37873  0.02005  0.03434  1.0000
  C   C690      1.0  0.35176  0.01223  0.03516  1.0000
  C   C691      1.0  0.32452  0.32016  0.28024  1.0000
  H   H550      1.0  0.33250  0.26592  0.13730  1.0000
  C   C692      1.0  0.36120  0.13008  0.05248  1.0000
  C   C693      1.0  0.36174  0.13397  0.08028  1.0000
  C   C694      1.0  0.38504  0.14179  0.09481  1.0000
  C   C695      1.0  0.27109  0.19218  0.27059  1.0000
  H   H551      1.0  0.45889  0.09834  0.97239  1.0000
  C   C696      1.0  0.27210  0.20709  0.29304  1.0000
  C   C697      1.0  0.47637  0.35945  0.14878  1.0000
  C   C698      1.0  0.24994  0.37107  0.35172  1.0000
  S   S98       1.0  0.49235  0.04994  0.09890  1.0000
  C   C699      1.0  0.43825  0.02378  0.21440  1.0000
  H   H552      1.0  0.34808  0.36233  0.27247  1.0000
  C   C700      1.0  0.27140  0.31414  0.33371  1.0000
  H   H553      1.0  0.27365  0.25596  0.07901  1.0000
  C   C701      1.0  0.30093  0.21670  0.09119  1.0000
  C   C702      1.0  0.26601  0.00085  0.09148  1.0000
  C   C703      1.0  0.34831  0.34411  0.27701  1.0000
  C   C704      1.0  0.45667  0.11309  0.21901  1.0000
  H   H554      1.0  0.30613  0.27829  0.28745  1.0000
  H   H555      1.0  0.33423  0.12968  0.99097  1.0000
  C   C705      1.0  0.24834  0.17093  0.05643  1.0000
  C   C706      1.0  0.26633  0.20382  0.36717  1.0000
  C   C707      1.0  0.33023  0.10943  0.98893  1.0000
  C   C708      1.0  0.48516  0.08681  0.03866  1.0000
  H   H556      1.0  0.45600  0.48378  0.42990  1.0000
  C   C709      1.0  0.49092  0.15779  0.12709  1.0000
  C   C710      1.0  0.32425  0.27983  0.44410  1.0000
  H   H557      1.0  0.37973  0.47333  0.14696  1.0000
  H   H558      1.0  0.43490  0.22676  0.99317  1.0000
  C   C711      1.0  0.31120  0.22539  0.97285  1.0000
  C   C712      1.0  0.39001  0.46776  0.23792  1.0000
  C   C713      1.0  0.47480  0.06932  0.21127  1.0000
  H   H559      1.0  0.25144  0.17289  0.09998  1.0000
  C   C714      1.0  0.47122  0.49448  0.44479  1.0000
  C   C715      1.0  0.31924  0.48113  0.20045  1.0000
  C   C716      1.0  0.30146  0.45538  0.19169  1.0000
  C   C717      1.0  0.24955  0.34962  0.27783  1.0000
  H   H560      1.0  0.34729  0.44655  0.24398  1.0000
  H   H561      1.0  0.25964  0.24943  0.02326  1.0000
  H   H562      1.0  0.27910  0.04798  0.97357  1.0000
  C   C718      1.0  0.49456  0.49190  0.98753  1.0000
  C   C719      1.0  0.39272  0.16001  0.98616  1.0000
  H   H563      1.0  0.45874  0.33338  0.08613  1.0000
  P   P22       1.0  0.42168  0.01117  0.03747  1.0000
  C   C720      1.0  0.25009  0.27178  0.45404  1.0000
  H   H564      1.0  0.34542  0.02658  0.03088  1.0000
  C   C721      1.0  0.25631  0.27622  0.42654  1.0000
  H   H565      1.0  0.31446  0.27641  0.97112  1.0000
  H   H566      1.0  0.45940  0.48343  0.00947  1.0000
  H   H567      1.0  0.43255  0.44590  0.12192  1.0000
  C   C722      1.0  0.46932  0.48918  0.99021  1.0000
  C   C723      1.0  0.42620  0.00302  0.00356  1.0000
  C   C724      1.0  0.49577  0.01372  0.44754  1.0000
  S   S99       1.0  0.49198  0.99955  0.28674  1.0000
  H   H568      1.0  0.43281  0.48877  0.24036  1.0000
  C   C725      1.0  0.48859  0.00092  0.19379  1.0000
  S   S100      1.0  0.48673  0.00083  0.15798  1.0000
  H   H569      1.0  0.35920  0.07094  0.99490  1.0000
  H   H570      1.0  0.49229  0.08123  0.17156  1.0000
  C   C726      1.0  0.34618  0.48934  0.20336  1.0000
  C   C727      1.0  0.30473  0.08960  0.98164  1.0000
  H   H571      1.0  0.27763  0.00660  0.07315  1.0000
  C   C728      1.0  0.48403  0.12323  0.22226  1.0000
  H   H572      1.0  0.48694  0.37834  0.15905  1.0000
  P   P23       1.0  0.38941  0.48065  0.20485  1.0000
  H   H573      1.0  0.24956  0.00678  0.00534  1.0000
  H   H574      1.0  0.43433  0.47422  0.28647  1.0000
  H   H575      1.0  0.26543  0.38656  0.22029  1.0000
  S   S101      1.0  0.25487  0.12578  0.96907  1.0000
  C   C729      1.0  0.25571  0.99884  0.21821  1.0000
  C   C730      1.0  0.27732  0.27624  0.97028  1.0000
  S   S102      1.0  0.44714  0.49852  0.34201  1.0000
  H   H576      1.0  0.24722  0.39730  0.32224  1.0000
  H   H577      1.0  0.26113  0.36442  0.61927  1.0000
  C   C731      1.0  0.34450  0.46440  0.86394  1.0000
  C   C732      1.0  0.30137  0.23250  0.53642  1.0000
  C   C733      1.0  0.26959  0.43668  0.93897  1.0000
  C   C734      1.0  0.44662  0.12839  0.56353  1.0000
  H   H578      1.0  0.27465  0.35913  0.90356  1.0000
  H   H579      1.0  0.37966  0.26542  0.51745  1.0000
  H   H580      1.0  0.30793  0.15282  0.70419  1.0000
  Fe  Fe50      1.0  0.27291  0.14221  0.89255  1.0000
  S   S103      1.0  0.27931  0.14858  0.84628  1.0000
  C   C735      1.0  0.39126  0.33371  0.52822  1.0000
  S   S104      1.0  0.31882  0.17758  0.48954  1.0000
  S   S105      1.0  0.29077  0.12372  0.91930  1.0000
  S   S106      1.0  0.27956  0.17395  0.92305  1.0000
  Fe  Fe51      1.0  0.41230  0.19699  0.66135  1.0000
  S   S107      1.0  0.37092  0.16689  0.67396  1.0000
  S   S108      1.0  0.44749  0.18992  0.65496  1.0000
  Fe  Fe52      1.0  0.40038  0.24358  0.66232  1.0000
  S   S109      1.0  0.35807  0.21598  0.67548  1.0000
  S   S110      1.0  0.41075  0.28745  0.65825  1.0000
  Fe  Fe53      1.0  0.37382  0.19722  0.70454  1.0000
  S   S111      1.0  0.36639  0.19040  0.75065  1.0000
  Fe  Fe54      1.0  0.35808  0.18795  0.64414  1.0000
  S   S112      1.0  0.32190  0.16459  0.61698  1.0000
  S   S113      1.0  0.41629  0.22651  0.69324  1.0000
  S   S114      1.0  0.39926  0.21623  0.62948  1.0000
  S   S115      1.0  0.27725  0.42670  0.77068  1.0000
  C   C736      1.0  0.30414  0.16114  0.82021  1.0000
  C   C737      1.0  0.29612  0.15974  0.79314  1.0000
  C   C738      1.0  0.31469  0.16880  0.77174  1.0000
  C   C739      1.0  0.34179  0.17925  0.77693  1.0000
  C   C740      1.0  0.34984  0.18070  0.80401  1.0000
  C   C741      1.0  0.33128  0.17193  0.82545  1.0000
  H   H581      1.0  0.27528  0.15156  0.78867  1.0000
  H   H582      1.0  0.30797  0.16765  0.75126  1.0000
  H   H583      1.0  0.37065  0.18871  0.80846  1.0000
  H   H584      1.0  0.33797  0.17327  0.84600  1.0000
  C   C742      1.0  0.31932  0.17248  0.52476  1.0000
  C   C743      1.0  0.34250  0.18930  0.53920  1.0000
  C   C744      1.0  0.34378  0.18698  0.56733  1.0000
  C   C745      1.0  0.32172  0.16766  0.58140  1.0000
  C   C746      1.0  0.29858  0.15055  0.56691  1.0000
  C   C747      1.0  0.29736  0.15291  0.53871  1.0000
  H   H585      1.0  0.35958  0.20428  0.52851  1.0000
  H   H586      1.0  0.36174  0.20028  0.57812  1.0000
  H   H587      1.0  0.28144  0.13547  0.57760  1.0000
  H   H588      1.0  0.27939  0.13977  0.52786  1.0000
  C   C748      1.0  0.47957  0.34755  0.70030  1.0000
  H   H589      1.0  0.34220  0.28812  0.67393  1.0000
  C   C749      1.0  0.43438  0.34081  0.64508  1.0000
  C   C750      1.0  0.43619  0.31748  0.64330  1.0000
  C   C751      1.0  0.45794  0.31883  0.62984  1.0000
  H   H590      1.0  0.37561  0.33247  0.60132  1.0000
  C   C752      1.0  0.32034  0.31609  0.96765  1.0000
  C   C753      1.0  0.29184  0.28628  0.60095  1.0000
  H   H591      1.0  0.45974  0.30118  0.62826  1.0000
  C   C754      1.0  0.34858  0.11283  0.49842  1.0000
  C   C755      1.0  0.30284  0.41644  0.65347  1.0000
  C   C756      1.0  0.37803  0.44590  0.72333  1.0000
  C   C757      1.0  0.30558  0.47623  0.79588  1.0000
  C   C758      1.0  0.30595  0.45420  0.78492  1.0000
  C   C759      1.0  0.32995  0.45377  0.78510  1.0000
  C   C760      1.0  0.35337  0.47512  0.79580  1.0000
  C   C761      1.0  0.41842  0.47467  0.64095  1.0000
  H   H592      1.0  0.28730  0.47688  0.79592  1.0000
  H   H593      1.0  0.33047  0.43680  0.77689  1.0000
  H   H594      1.0  0.37167  0.47452  0.79556  1.0000
  H   H595      1.0  0.25525  0.31529  0.71144  1.0000
  Fe  Fe55      1.0  0.24955  0.09716  0.93593  1.0000
  C   C762      1.0  0.25149  0.29879  0.60929  1.0000
  C   C763      1.0  0.40655  0.25181  0.52890  1.0000
  C   C764      1.0  0.38920  0.47771  0.67383  1.0000
  C   C765      1.0  0.30944  0.03844  0.75403  1.0000
  H   H596      1.0  0.36488  0.12440  0.83002  1.0000
  H   H597      1.0  0.32873  0.13670  0.73673  1.0000
  C   C766      1.0  0.32421  0.41531  0.95065  1.0000
  H   H598      1.0  0.45230  0.38284  0.63542  1.0000
  H   H599      1.0  0.42758  0.46403  0.63236  1.0000
  C   C767      1.0  0.28448  0.04086  0.53389  1.0000
  C   C768      1.0  0.47562  0.16513  0.64004  1.0000
  C   C769      1.0  0.45043  0.16153  0.64639  1.0000
  C   C770      1.0  0.42871  0.13565  0.64640  1.0000
  H   H600      1.0  0.27421  0.21424  0.95278  1.0000
  H   H601      1.0  0.28827  0.43735  0.93550  1.0000
  C   C771      1.0  0.43502  0.01490  0.95621  1.0000
  H   H602      1.0  0.40928  0.13245  0.65155  1.0000
  C   C772      1.0  0.32745  0.28793  0.54146  1.0000
  H   H603      1.0  0.25374  0.06983  0.48400  1.0000
  C   C773      1.0  0.31919  0.48022  0.90117  1.0000
  H   H604      1.0  0.33075  0.48604  0.70522  1.0000
  H   H605      1.0  0.36741  0.14220  0.95132  1.0000
  C   C774      1.0  0.25891  0.46450  0.86356  1.0000
  C   C775      1.0  0.38560  0.10293  0.59266  1.0000
  H   H606      1.0  0.43649  0.00691  0.73356  1.0000
  C   C776      1.0  0.38761  0.12644  0.58214  1.0000
  H   H607      1.0  0.43368  0.24053  0.54585  1.0000
  C   C777      1.0  0.38890  0.09826  0.72717  1.0000
  P   P24       1.0  0.37274  0.29103  0.56477  1.0000
  C   C778      1.0  0.28821  0.37463  0.91700  1.0000
  S   S116      1.0  0.43273  0.49699  0.83681  1.0000
  C   C779      1.0  0.45682  0.49383  0.96792  1.0000
  H   H608      1.0  0.32051  0.11735  0.84251  1.0000
  C   C780      1.0  0.25508  0.03488  0.49667  1.0000
  H   H609      1.0  0.29945  0.41037  0.63260  1.0000
  H   H610      1.0  0.33341  0.09332  0.49175  1.0000
  C   C781      1.0  0.36486  0.29083  0.59986  1.0000
  H   H611      1.0  0.36744  0.07187  0.62243  1.0000
  C   C782      1.0  0.32874  0.43298  0.66275  1.0000
  C   C783      1.0  0.38639  0.14053  0.52702  1.0000
  Fe  Fe56      1.0  0.29439  0.15321  0.95080  1.0000
  C   C784      1.0  0.40535  0.45579  0.72669  1.0000
  C   C785      1.0  0.42189  0.24991  0.54955  1.0000
  C   C786      1.0  0.38205  0.16043  0.96086  1.0000
  H   H612      1.0  0.41539  0.09387  0.64064  1.0000
  H   H613      1.0  0.39735  0.09480  0.58466  1.0000
  H   H614      1.0  0.28988  0.20951  0.47669  1.0000
  H   H615      1.0  0.45100  0.18350  0.52083  1.0000
  H   H616      1.0  0.25146  0.16642  0.51456  1.0000
  H   H617      1.0  0.44901  0.13774  0.58298  1.0000
  H   H618      1.0  0.40648  0.24390  0.50916  1.0000
  H   H619      1.0  0.34501  0.43934  0.64874  1.0000
  C   C787      1.0  0.45931  0.10466  0.53239  1.0000
  C   C788      1.0  0.33207  0.04585  0.71131  1.0000
  H   H620      1.0  0.36186  0.33068  0.64842  1.0000
  C   C789      1.0  0.45151  0.19244  0.54009  1.0000
  H   H621      1.0  0.38066  0.07725  0.73109  1.0000
  H   H622      1.0  0.43979  0.02922  0.94008  1.0000
  C   C790      1.0  0.47136  0.48177  0.46928  1.0000
  H   H623      1.0  0.33608  0.24722  0.65187  1.0000
  C   C791      1.0  0.28576  0.41623  0.69783  1.0000
  C   C792      1.0  0.39001  0.18461  0.94763  1.0000
  H   H624      1.0  0.26121  0.39565  0.66379  1.0000
  H   H625      1.0  0.30867  0.40171  0.88437  1.0000
  C   C793      1.0  0.41559  0.11316  0.71961  1.0000
  C   C794      1.0  0.34465  0.26576  0.64071  1.0000
  C   C795      1.0  0.41762  0.34107  0.56849  1.0000
  C   C796      1.0  0.32581  0.24730  0.47378  1.0000
  H   H626      1.0  0.29324  0.03323  0.54803  1.0000
  C   C797      1.0  0.39663  0.42013  0.75786  1.0000
  C   C798      1.0  0.36938  0.40998  0.75455  1.0000
  C   C799      1.0  0.36008  0.42278  0.73737  1.0000
  H   H627      1.0  0.32746  0.01075  0.69150  1.0000
  H   H628      1.0  0.47778  0.31169  0.68572  1.0000
  H   H629      1.0  0.25140  0.29959  0.66476  1.0000
  S   S117      1.0  0.46004  0.08891  0.62474  1.0000
  C   C800      1.0  0.25573  0.44020  0.91759  1.0000
  C   C801      1.0  0.47132  0.21870  0.54502  1.0000
  C   C802      1.0  0.32386  0.11194  0.82263  1.0000
  C   C803      1.0  0.42597  0.11620  0.51953  1.0000
  H   H630      1.0  0.41264  0.11625  0.50436  1.0000
  H   H631      1.0  0.45291  0.37958  0.57169  1.0000
  H   H632      1.0  0.42731  0.10351  0.71696  1.0000
  C   C804      1.0  0.28697  0.37051  0.94495  1.0000
  C   C805      1.0  0.40916  0.35963  0.51954  1.0000
  H   H633      1.0  0.42161  0.33397  0.58718  1.0000
  C   C806      1.0  0.36732  0.31378  0.61213  1.0000
  H   H634      1.0  0.40386  0.41045  0.77143  1.0000
  H   H635      1.0  0.35543  0.39236  0.76559  1.0000
  H   H636      1.0  0.33893  0.41469  0.73548  1.0000
  C   C807      1.0  0.34762  0.49727  0.71825  1.0000
  H   H637      1.0  0.48589  0.22990  0.52965  1.0000
  C   C808      1.0  0.29593  0.31145  0.59390  1.0000
  C   C809      1.0  0.47271  0.23031  0.57000  1.0000
  C   C810      1.0  0.45056  0.30348  0.71837  1.0000
  C   C811      1.0  0.31160  0.43276  0.70714  1.0000
  C   C812      1.0  0.32564  0.41907  0.92279  1.0000
  H   H638      1.0  0.26448  0.24778  0.61746  1.0000
  H   H639      1.0  0.44083  0.34939  0.75070  1.0000
  C   C813      1.0  0.33331  0.44148  0.68967  1.0000
  C   C814      1.0  0.39096  0.27379  0.55935  1.0000
  C   C815      1.0  0.34073  0.27409  0.54852  1.0000
  C   C816      1.0  0.32731  0.24622  0.54631  1.0000
  H   H640      1.0  0.29150  0.08781  0.76346  1.0000
  S   S118      1.0  0.48157  0.45351  0.59414  1.0000
  C   C817      1.0  0.45404  0.36517  0.63384  1.0000
  C   C818      1.0  0.35313  0.26672  0.61423  1.0000
  C   C819      1.0  0.39120  0.26381  0.53373  1.0000
  H   H641      1.0  0.45566  0.22449  0.60956  1.0000
  H   H642      1.0  0.26213  0.42652  0.82754  1.0000
  C   C820      1.0  0.42223  0.26039  0.57492  1.0000
  C   C821      1.0  0.40680  0.27226  0.57985  1.0000
  C   C822      1.0  0.31995  0.12531  0.71866  1.0000
  C   C823      1.0  0.25908  0.43153  0.96501  1.0000
  H   H643      1.0  0.42109  0.17822  0.60137  1.0000
  H   H644      1.0  0.44293  0.28218  0.71785  1.0000
  C   C824      1.0  0.36658  0.11525  0.51849  1.0000
  C   C825      1.0  0.42816  0.12781  0.54487  1.0000
  H   H645      1.0  0.43966  0.09547  0.49394  1.0000
  H   H646      1.0  0.33663  0.23491  0.55277  1.0000
  H   H647      1.0  0.28882  0.08618  0.65297  1.0000
  C   C826      1.0  0.43547  0.36689  0.55973  1.0000
  H   H648      1.0  0.38097  0.18482  0.92858  1.0000
  C   C827      1.0  0.29148  0.06773  0.53543  1.0000
  H   H649      1.0  0.34098  0.43761  0.91423  1.0000
  H   H650      1.0  0.38106  0.49540  0.88076  1.0000
  C   C828      1.0  0.43102  0.00316  0.71258  1.0000
  H   H651      1.0  0.43458  0.25947  0.59081  1.0000
  H   H652      1.0  0.40757  0.28052  0.59955  1.0000
  C   C829      1.0  0.46773  0.42287  0.68206  1.0000
  H   H653      1.0  0.26912  0.41004  0.71146  1.0000
  C   C830      1.0  0.45738  0.11740  0.63361  1.0000
  H   H654      1.0  0.26522  0.40202  0.59177  1.0000
  H   H655      1.0  0.25470  0.16237  0.56402  1.0000
  C   C831      1.0  0.46199  0.11672  0.55737  1.0000
  H   H656      1.0  0.40164  0.18304  0.52269  1.0000
  H   H657      1.0  0.28826  0.12792  0.66203  1.0000
  C   C832      1.0  0.36843  0.08965  0.61409  1.0000
  H   H658      1.0  0.30575  0.43655  0.84961  1.0000
  C   C833      1.0  0.43861  0.11948  0.96075  1.0000
  H   H659      1.0  0.45802  0.44542  0.65438  1.0000
  C   C834      1.0  0.35919  0.31280  0.63877  1.0000
  H   H660      1.0  0.47592  0.11691  0.57208  1.0000
  H   H661      1.0  0.36999  0.17837  0.48723  1.0000
  C   C835      1.0  0.30751  0.39884  0.90600  1.0000
  H   H662      1.0  0.34455  0.05908  0.69549  1.0000
  H   H663      1.0  0.25841  0.30511  0.91271  1.0000
  C   C836      1.0  0.27794  0.49057  0.85600  1.0000
  P   P25       1.0  0.33820  0.09159  0.73680  1.0000
  C   C837      1.0  0.37338  0.11060  0.72952  1.0000
  C   C838      1.0  0.32103  0.10205  0.71351  1.0000
  C   C839      1.0  0.30934  0.08775  0.68982  1.0000
  H   H664      1.0  0.30743  0.28144  0.59798  1.0000
  C   C840      1.0  0.38560  0.13829  0.72617  1.0000
  C   C841      1.0  0.41228  0.15314  0.71877  1.0000
  C   C842      1.0  0.42718  0.14053  0.71512  1.0000
  C   C843      1.0  0.33271  0.09949  0.77051  1.0000
  C   C844      1.0  0.30764  0.09547  0.77785  1.0000
  C   C845      1.0  0.35305  0.49718  0.80674  1.0000
  C   C846      1.0  0.29975  0.01106  0.75158  1.0000
  C   C847      1.0  0.34884  0.11595  0.81553  1.0000
  C   C848      1.0  0.35328  0.10970  0.78959  1.0000
  H   H665      1.0  0.32043  0.35288  0.96286  1.0000
  C   C849      1.0  0.26230  0.06177  0.49805  1.0000
  H   H666      1.0  0.37454  0.14854  0.72909  1.0000
  H   H667      1.0  0.42135  0.17443  0.71547  1.0000
  H   H668      1.0  0.44768  0.15205  0.70868  1.0000
  H   H669      1.0  0.46514  0.43154  0.74015  1.0000
  C   C850      1.0  0.43284  0.17762  0.56009  1.0000
  C   C851      1.0  0.25084  0.38175  0.58639  1.0000
  H   H670      1.0  0.35067  0.24866  0.60509  1.0000
  H   H671      1.0  0.37283  0.11320  0.78443  1.0000
  C   C852      1.0  0.28134  0.40812  0.67098  1.0000
  H   H672      1.0  0.37220  0.15365  0.58466  1.0000
  H   H673      1.0  0.29134  0.21099  0.53464  1.0000
  C   C853      1.0  0.31679  0.45179  0.86438  1.0000
  C   C854      1.0  0.32583  0.05613  0.73397  1.0000
  H   H674      1.0  0.33665  0.24137  0.48729  1.0000
  H   H675      1.0  0.30974  0.48706  0.91529  1.0000
  C   C855      1.0  0.35955  0.48512  0.88177  1.0000
  C   C856      1.0  0.26635  0.02424  0.51430  1.0000
  C   C857      1.0  0.44143  0.10455  0.51342  1.0000
  C   C858      1.0  0.43444  0.18938  0.58516  1.0000
  C   C859      1.0  0.35314  0.09967  0.62513  1.0000
  C   C860      1.0  0.35457  0.12268  0.61441  1.0000
  C   C861      1.0  0.37153  0.13592  0.59283  1.0000
  C   C862      1.0  0.30387  0.45932  0.88330  1.0000
  H   H676      1.0  0.34029  0.08974  0.64207  1.0000
  H   H677      1.0  0.34263  0.13035  0.62296  1.0000
  C   C863      1.0  0.46933  0.35856  0.71861  1.0000
  C   C864      1.0  0.41363  0.38539  0.68111  1.0000
  C   C865      1.0  0.42340  0.40860  0.66567  1.0000
  C   C866      1.0  0.45039  0.42737  0.66627  1.0000
  C   C867      1.0  0.38739  0.16332  0.51578  1.0000
  C   C868      1.0  0.45823  0.39927  0.69708  1.0000
  C   C869      1.0  0.43095  0.38076  0.69684  1.0000
  H   H678      1.0  0.30550  0.08053  0.55053  1.0000
  H   H679      1.0  0.30943  0.06962  0.68527  1.0000
  S   S119      1.0  0.48984  0.47768  0.51993  1.0000
  C   C870      1.0  0.24754  0.27350  0.61618  1.0000
  P   P26       1.0  0.40876  0.14319  0.55368  1.0000
  H   H680      1.0  0.31461  0.43916  0.72791  1.0000
  C   C871      1.0  0.43225  0.11379  0.64024  1.0000
  H   H681      1.0  0.32213  0.22823  0.95433  1.0000
  P   P27       1.0  0.26807  0.44403  0.88351  1.0000
  C   C872      1.0  0.44948  0.34158  0.73673  1.0000
  C   C873      1.0  0.30800  0.13445  0.70029  1.0000
  S   S120      1.0  0.47857  0.03817  0.60098  1.0000
  H   H682      1.0  0.41763  0.33999  0.65531  1.0000
  H   H683      1.0  0.41479  0.22721  0.94914  1.0000
  C   C874      1.0  0.34798  0.28883  0.65310  1.0000
  P   P28       1.0  0.36660  0.46354  0.70186  1.0000
  H   H684      1.0  0.39270  0.37085  0.68077  1.0000
  H   H685      1.0  0.41014  0.41204  0.65312  1.0000
  C   C875      1.0  0.29695  0.12043  0.67655  1.0000
  C   C876      1.0  0.47763  0.34321  0.61865  1.0000
  H   H686      1.0  0.42300  0.36256  0.70847  1.0000
  H   H687      1.0  0.44836  0.03640  0.65277  1.0000
  H   H688      1.0  0.40625  0.36686  0.50040  1.0000
  C   C877      1.0  0.41459  0.44304  0.74390  1.0000
  H   H689      1.0  0.46331  0.44562  0.78647  1.0000
  H   H690      1.0  0.27945  0.33733  0.59252  1.0000
  C   C878      1.0  0.40015  0.46341  0.66195  1.0000
  H   H691      1.0  0.29135  0.28490  0.52586  1.0000
  H   H692      1.0  0.47121  0.09552  0.52776  1.0000
  H   H693      1.0  0.45910  0.04359  0.70126  1.0000
  C   C879      1.0  0.25287  0.41138  0.86834  1.0000
  C   C880      1.0  0.39499  0.32452  0.55316  1.0000
  C   C881      1.0  0.30154  0.27417  0.53134  1.0000
  H   H694      1.0  0.35445  0.45872  0.84920  1.0000
  H   H695      1.0  0.44885  0.12610  0.94165  1.0000
  H   H696      1.0  0.44513  0.39633  0.52864  1.0000
  S   S121      1.0  0.49028  0.00462  0.78794  1.0000
  H   H697      1.0  0.43573  0.45127  0.74671  1.0000
  H   H698      1.0  0.36506  0.09744  0.52742  1.0000
  H   H699      1.0  0.26840  0.23579  0.52105  1.0000
  C   C882      1.0  0.43115  0.37627  0.53537  1.0000
  C   C883      1.0  0.43807  0.02006  0.66688  1.0000
  C   C884      1.0  0.47910  0.14329  0.63359  1.0000
  C   C885      1.0  0.27583  0.31772  0.59801  1.0000
  H   H700      1.0  0.42459  0.30107  0.75028  1.0000
  C   C886      1.0  0.32242  0.01848  0.70896  1.0000
  H   H701      1.0  0.30407  0.04561  0.77165  1.0000
  C   C887      1.0  0.47593  0.36659  0.62060  1.0000
  P   P29       1.0  0.26391  0.33853  0.95929  1.0000
  H   H702      1.0  0.33683  0.30924  0.54439  1.0000
  C   C888      1.0  0.44400  0.02416  0.69428  1.0000
  H   H703      1.0  0.37490  0.32089  0.51526  1.0000
  C   C889      1.0  0.45422  0.21569  0.58997  1.0000
  C   C890      1.0  0.44017  0.31417  0.73659  1.0000
  C   C891      1.0  0.36935  0.16079  0.49574  1.0000
  H   H704      1.0  0.41609  0.13911  0.95451  1.0000
  H   H705      1.0  0.41961  0.47359  0.71622  1.0000
  H   H706      1.0  0.47704  0.42798  0.82489  1.0000
  C   C892      1.0  0.47068  0.42310  0.75672  1.0000
  C   C893      1.0  0.26762  0.26729  0.61197  1.0000
  H   H707      1.0  0.49432  0.35973  0.68558  1.0000
  C   C894      1.0  0.34993  0.13560  0.48710  1.0000
  H   H708      1.0  0.31474  0.32618  0.58540  1.0000
  C   C895      1.0  0.25259  0.40896  0.84024  1.0000
  H   H709      1.0  0.28613  0.09908  0.51841  1.0000
  C   C896      1.0  0.28850  0.24646  0.52882  1.0000
  C   C897      1.0  0.34689  0.49300  0.90040  1.0000
  H   H710      1.0  0.39497  0.44377  0.66925  1.0000
  H   H711      1.0  0.45613  0.46137  0.47280  1.0000
  C   C898      1.0  0.29745  0.09699  0.67141  1.0000
  C   C899      1.0  0.47027  0.32015  0.70031  1.0000
  C   C900      1.0  0.28050  0.07821  0.51742  1.0000
  H   H712      1.0  0.34178  0.32551  0.96718  1.0000
  H   H713      1.0  0.48830  0.25049  0.57408  1.0000
  C   C901      1.0  0.36788  0.49082  0.72068  1.0000
  C   C902      1.0  0.30332  0.10178  0.80378  1.0000
  C   C903      1.0  0.24843  0.36043  0.60190  1.0000
  H   H714      1.0  0.49262  0.18502  0.64006  1.0000
  C   C904      1.0  0.49193  0.00364  0.75216  1.0000
  C   C905      1.0  0.46974  0.43125  0.78294  1.0000
  H   H715      1.0  0.49443  0.34399  0.60848  1.0000
  P   P30       1.0  0.48040  0.39385  0.71835  1.0000
  H   H716      1.0  0.28421  0.09948  0.80919  1.0000
  Fe  Fe57      1.0  0.49401  0.08075  0.61430  1.0000
  H   H717      1.0  0.48853  0.43779  0.68232  1.0000
  C   C906      1.0  0.47909  0.40455  0.75210  1.0000
  C   C907      1.0  0.49530  0.00398  0.69504  1.0000
  C   C908      1.0  0.30810  0.33158  0.96529  1.0000
  C   C909      1.0  0.32901  0.49758  0.80669  1.0000
  C   C910      1.0  0.49090  0.49512  0.48924  1.0000
  C   C911      1.0  0.40896  0.20850  0.95931  1.0000
  C   C912      1.0  0.30493  0.39113  0.96174  1.0000
  H   H718      1.0  0.33840  0.43102  0.96358  1.0000
  C   C913      1.0  0.49641  0.02213  0.49639  1.0000
  C   C914      1.0  0.47751  0.42130  0.80465  1.0000
  H   H719      1.0  0.33573  0.13383  0.47187  1.0000
  C   C915      1.0  0.30627  0.00108  0.72909  1.0000
  C   C916      1.0  0.48700  0.39470  0.77401  1.0000
  C   C917      1.0  0.28030  0.31942  0.96531  1.0000
  C   C918      1.0  0.48617  0.40303  0.80019  1.0000
  H   H720      1.0  0.49237  0.39545  0.81703  1.0000
  H   H721      1.0  0.49399  0.38071  0.77081  1.0000
  C   C919      1.0  0.42004  0.12692  0.96823  1.0000
  C   C920      1.0  0.26506  0.29167  0.96829  1.0000
  C   C921      1.0  0.24759  0.97025  0.99380  1.0000
  C   C922      1.0  0.41159  0.53036  0.22956  1.0000
  C   C923      1.0  0.49300  0.50563  0.18499  1.0000
  Fe  Fe58      1.0  0.42478  0.91291  0.33492  1.0000
  S   S122      1.0  0.43897  0.95600  0.34474  1.0000
  S   S123      1.0  0.38153  0.87861  0.33016  1.0000
  Fe  Fe59      1.0  0.47279  0.96436  0.31633  1.0000
  H   H722      1.0  0.41982  0.96379  0.01374  1.0000
  Fe  Fe60      1.0  0.46421  0.95259  0.37786  1.0000
  H   H723      1.0  0.47400  0.79502  0.23055  1.0000
  S   S124      1.0  0.45730  0.92152  0.30479  1.0000
  S   S125      1.0  0.44805  0.90883  0.36941  1.0000
  H   H724      1.0  0.47882  0.53360  0.18637  1.0000
  S   S126      1.0  0.44231  0.53713  0.29569  1.0000
  S   S127      1.0  0.49342  0.50527  0.14920  1.0000
  Fe  Fe61      1.0  0.47096  0.53491  0.36765  1.0000
  S   S128      1.0  0.44218  0.54995  0.36030  1.0000
  H   H725      1.0  0.38901  0.83144  0.31862  1.0000
  H   H726      1.0  0.45693  0.59323  0.21007  1.0000
  Fe  Fe62      1.0  0.46686  0.57158  0.32375  1.0000
  S   S129      1.0  0.47408  0.61345  0.31274  1.0000
  H   H727      1.0  0.25098  0.89063  0.29225  1.0000
  S   S130      1.0  0.27534  0.86132  0.27097  1.0000
  H   H728      1.0  0.35112  0.86673  0.24442  1.0000
  S   S131      1.0  0.48914  0.50559  0.27784  1.0000
  C   C924      1.0  0.33297  0.98586  0.04124  1.0000
  H   H729      1.0  0.35938  0.50909  0.21103  1.0000
  Fe  Fe63      1.0  0.48144  0.92035  0.33987  1.0000
  H   H730      1.0  0.37408  0.96028  0.04893  1.0000
  H   H731      1.0  0.30274  0.92351  0.41963  1.0000
  C   C925      1.0  0.44328  0.55817  0.18555  1.0000
  C   C926      1.0  0.35209  0.87454  0.31404  1.0000
  C   C927      1.0  0.35164  0.89485  0.29904  1.0000
  C   C928      1.0  0.32799  0.89041  0.28626  1.0000
  C   C929      1.0  0.30431  0.86573  0.28838  1.0000
  C   C930      1.0  0.30466  0.84554  0.30370  1.0000
  C   C931      1.0  0.32837  0.84992  0.31630  1.0000
  H   H732      1.0  0.36956  0.91394  0.29714  1.0000
  H   H733      1.0  0.32807  0.90625  0.27457  1.0000
  H   H734      1.0  0.28675  0.82645  0.30560  1.0000
  H   H735      1.0  0.32836  0.83404  0.32785  1.0000
  C   C932      1.0  0.44904  0.97188  0.10115  1.0000
  Fe  Fe64      1.0  0.41958  0.51467  0.33265  1.0000
  Fe  Fe65      1.0  0.47121  0.52338  0.30655  1.0000
  H   H736      1.0  0.49125  0.87843  0.28908  1.0000
  H   H737      1.0  0.46733  0.66877  0.17305  1.0000
  C   C933      1.0  0.48339  0.52198  0.22654  1.0000
  C   C934      1.0  0.47098  0.97743  0.23662  1.0000
  C   C935      1.0  0.31338  0.91395  0.36864  1.0000
  H   H738      1.0  0.45633  0.96016  0.24750  1.0000
  S   S132      1.0  0.46524  0.96309  0.42350  1.0000
  C   C936      1.0  0.47013  0.97828  0.20824  1.0000
  C   C937      1.0  0.26129  0.89265  0.41907  1.0000
  H   H739      1.0  0.35734  0.72362  0.23350  1.0000
  C   C938      1.0  0.25073  0.91944  0.22864  1.0000
  H   H740      1.0  0.44382  0.90992  0.24354  1.0000
  C   C939      1.0  0.46560  0.84757  0.21482  1.0000
  H   H741      1.0  0.39543  0.89168  0.26579  1.0000
  H   H742      1.0  0.27928  0.88133  0.21733  1.0000
  H   H743      1.0  0.34641  0.72863  0.31833  1.0000
  C   C940      1.0  0.43135  0.99459  0.06205  1.0000
  C   C941      1.0  0.29779  0.88868  0.38034  1.0000
  H   H744      1.0  0.49427  0.66588  0.38145  1.0000
  C   C942      1.0  0.42722  0.97511  0.10644  1.0000
  C   C943      1.0  0.36185  0.73534  0.25170  1.0000
  H   H745      1.0  0.45613  0.96343  0.11635  1.0000
  C   C944      1.0  0.46552  0.80799  0.23077  1.0000
  H   H746      1.0  0.40209  0.98975  0.09181  1.0000
  C   C945      1.0  0.47748  0.98656  0.45106  1.0000
  C   C946      1.0  0.35156  0.90771  0.36913  1.0000
  C   C947      1.0  0.45515  0.83575  0.34026  1.0000
  C   C948      1.0  0.28379  0.91496  0.42969  1.0000
  C   C949      1.0  0.37948  0.76279  0.25081  1.0000
  H   H747      1.0  0.46077  0.70680  0.26847  1.0000
  H   H748      1.0  0.45494  0.96138  0.19742  1.0000
  C   C950      1.0  0.34999  0.72302  0.27603  1.0000
  H   H749      1.0  0.37228  0.91490  0.36456  1.0000
  C   C951      1.0  0.41063  0.51641  0.20612  1.0000
  C   C952      1.0  0.45375  0.99206  0.05730  1.0000
  H   H750      1.0  0.25670  0.97791  0.97438  1.0000
  H   H751      1.0  0.39962  0.51991  0.24691  1.0000
  H   H752      1.0  0.44319  0.66008  0.25375  1.0000
  H   H753      1.0  0.31206  0.97973  0.04173  1.0000
  C   C953      1.0  0.35569  0.73816  0.29947  1.0000
  C   C954      1.0  0.44911  0.90516  0.20145  1.0000
  H   H754      1.0  0.46823  0.64898  0.22136  1.0000
  C   C955      1.0  0.47565  0.83013  0.21369  1.0000
  H   H755      1.0  0.28459  0.91866  0.24570  1.0000
  C   C956      1.0  0.48691  0.67221  0.10818  1.0000
  H   H756      1.0  0.47906  0.95414  0.98088  1.0000
  C   C957      1.0  0.45792  0.91322  0.22775  1.0000
  H   H757      1.0  0.45607  0.82093  0.30121  1.0000
  C   C958      1.0  0.46744  0.90987  0.18104  1.0000
  H   H758      1.0  0.37730  0.77695  0.31705  1.0000
  H   H759      1.0  0.40740  0.84818  0.36346  1.0000
  H   H760      1.0  0.33631  0.70176  0.27671  1.0000
  C   C959      1.0  0.28215  0.92633  0.45388  1.0000
  C   C960      1.0  0.48503  0.92625  0.23367  1.0000
  H   H761      1.0  0.35645  0.79554  0.24576  1.0000
  C   C961      1.0  0.49631  0.99282  0.99986  1.0000
  C   C962      1.0  0.34016  0.92339  0.36306  1.0000
  C   C963      1.0  0.42398  0.97824  0.99790  1.0000
  H   H762      1.0  0.45582  0.56891  0.16862  1.0000
  H   H763      1.0  0.49132  0.93250  0.25416  1.0000
  H   H764      1.0  0.35212  0.94277  0.35385  1.0000
  H   H765      1.0  0.42812  0.89547  0.19689  1.0000
  H   H766      1.0  0.47390  0.83754  0.34631  1.0000
  C   C964      1.0  0.38544  0.77811  0.27433  1.0000
  C   C965      1.0  0.46244  0.98056  0.07667  1.0000
  C   C966      1.0  0.46179  0.67572  0.24570  1.0000
  H   H767      1.0  0.38835  0.77210  0.23176  1.0000
  C   C967      1.0  0.26869  0.91008  0.23102  1.0000
  C   C968      1.0  0.42667  0.53055  0.18411  1.0000
  H   H768      1.0  0.42036  0.86888  0.27746  1.0000
  H   H769      1.0  0.42677  0.52038  0.16595  1.0000
  C   C969      1.0  0.44400  0.57187  0.20891  1.0000
  C   C970      1.0  0.42824  0.55795  0.23094  1.0000
  H   H770      1.0  0.47382  0.86499  0.20193  1.0000
  C   C971      1.0  0.26562  0.88885  0.21515  1.0000
  H   H771      1.0  0.47656  0.53408  0.23640  1.0000
  H   H772      1.0  0.30484  0.92638  0.36391  1.0000
  C   C972      1.0  0.47168  0.70202  0.25402  1.0000
  C   C973      1.0  0.34114  0.96725  0.04631  1.0000
  H   H773      1.0  0.33190  0.81877  0.23431  1.0000
  P   P31       1.0  0.26343  0.87709  0.38830  1.0000
  C   C974      1.0  0.33615  0.88246  0.38049  1.0000
  C   C975      1.0  0.30935  0.87294  0.38617  1.0000
  C   C976      1.0  0.37330  0.76561  0.29867  1.0000
  H   H774      1.0  0.47867  0.66463  0.30395  1.0000
  C   C977      1.0  0.48456  0.52157  0.19818  1.0000
  H   H775      1.0  0.41760  0.96930  0.12589  1.0000
  H   H776      1.0  0.27296  0.88189  0.32997  1.0000
  C   C978      1.0  0.44518  0.84273  0.23279  1.0000
  H   H777      1.0  0.34503  0.87017  0.38445  1.0000
  H   H778      1.0  0.29780  0.85333  0.39498  1.0000
  C   C979      1.0  0.49065  0.50638  0.24205  1.0000
  C   C980      1.0  0.25698  0.88586  0.33422  1.0000
  C   C981      1.0  0.48736  0.97527  0.97751  1.0000
  H   H779      1.0  0.42910  0.56851  0.24925  1.0000
  H   H780      1.0  0.45016  0.85173  0.37740  1.0000
  H   H781      1.0  0.45016  0.66377  0.12685  1.0000
  C   C982      1.0  0.44173  0.84369  0.35785  1.0000
  C   C983      1.0  0.41779  0.84184  0.34995  1.0000
  C   C984      1.0  0.40755  0.83257  0.32430  1.0000
  C   C985      1.0  0.42141  0.82542  0.30613  1.0000
  C   C986      1.0  0.44502  0.82654  0.31452  1.0000
  P   P32       1.0  0.40800  0.81357  0.27295  1.0000
  H   H782      1.0  0.43780  0.78608  0.26215  1.0000
  C   C987      1.0  0.39055  0.83058  0.26211  1.0000
  C   C988      1.0  0.36553  0.81662  0.24975  1.0000
  C   C989      1.0  0.35152  0.82973  0.24313  1.0000
  C   C990      1.0  0.36239  0.85681  0.24867  1.0000
  C   C991      1.0  0.38741  0.87090  0.26059  1.0000
  C   C992      1.0  0.40142  0.85786  0.26733  1.0000
  H   H783      1.0  0.46068  0.90384  0.16058  1.0000
  H   H784      1.0  0.43781  0.85653  0.23336  1.0000
  C   C993      1.0  0.43465  0.82035  0.24981  1.0000
  C   C994      1.0  0.44512  0.80311  0.24877  1.0000
  C   C995      1.0  0.47616  0.66949  0.22747  1.0000
  C   C996      1.0  0.41845  0.98660  0.08703  1.0000
  H   H785      1.0  0.32655  0.94670  0.05060  1.0000
  C   C997      1.0  0.36810  0.97505  0.04555  1.0000
  C   C998      1.0  0.47053  0.66870  0.13016  1.0000
  H   H786      1.0  0.49503  0.98498  0.01992  1.0000
  C   C999      1.0  0.25388  0.98455  0.42930  1.0000
  H   H787      1.0  0.25890  0.96616  0.20229  1.0000
  C   C1000     1.0  0.49071  0.52095  0.43963  1.0000
  C   C1001     1.0  0.48040  0.67160  0.15640  1.0000
  H   H788      1.0  0.47928  0.67004  0.08785  1.0000
  C   C1002     1.0  0.26134  0.99393  0.45559  1.0000
  S   S133      1.0  0.49183  0.53836  0.40888  1.0000
  H   H789      1.0  0.36734  0.50302  0.28323  1.0000
  H   H790      1.0  0.48005  0.97911  0.07298  1.0000
  C   C1003     1.0  0.42778  0.97212  0.97168  1.0000
  H   H791      1.0  0.25287  0.93523  0.24178  1.0000
  C   C1004     1.0  0.24829  0.88525  0.36074  1.0000
  C   C1005     1.0  0.49596  0.72210  0.24413  1.0000
  H   H792      1.0  0.29963  0.94335  0.46200  1.0000
  H   H793      1.0  0.27223  0.99123  0.15807  1.0000
  H   H794      1.0  0.24822  0.84104  0.43540  1.0000
  H   H795      1.0  0.49171  0.83407  0.20004  1.0000
  C   C1006     1.0  0.26303  0.99214  0.13942  1.0000
  C   C1007     1.0  0.25810  0.91557  0.46772  1.0000
  C   C1008     1.0  0.49456  0.92277  0.18692  1.0000
  H   H796      1.0  0.26433  0.99733  0.41237  1.0000
  H   H797      1.0  0.41502  0.99170  0.63633  1.0000
  C   C1009     1.0  0.24668  0.90328  0.79027  1.0000
  C   C1010     1.0  0.41458  0.51436  0.64289  1.0000
  Fe  Fe66      1.0  0.43308  0.91494  0.83337  1.0000
  S   S134      1.0  0.44474  0.95630  0.84745  1.0000
  S   S135      1.0  0.39053  0.88054  0.82477  1.0000
  Fe  Fe67      1.0  0.47786  0.96941  0.81681  1.0000
  H   H798      1.0  0.48103  0.67274  0.80841  1.0000
  Fe  Fe68      1.0  0.47261  0.95274  0.87715  1.0000
  H   H799      1.0  0.28286  0.94819  0.88212  1.0000
  S   S136      1.0  0.46496  0.92847  0.80151  1.0000
  S   S137      1.0  0.45892  0.91009  0.86477  1.0000
  Fe  Fe69      1.0  0.46843  0.52070  0.81005  1.0000
  S   S138      1.0  0.45725  0.55138  0.79811  1.0000
  C   C1011     1.0  0.41881  0.89783  0.74970  1.0000
  Fe  Fe70      1.0  0.45822  0.52308  0.87105  1.0000
  S   S139      1.0  0.44657  0.55426  0.86251  1.0000
  C   C1012     1.0  0.34649  0.94102  0.70469  1.0000
  Fe  Fe71      1.0  0.42318  0.52928  0.82712  1.0000
  C   C1013     1.0  0.47116  0.51180  0.70217  1.0000
  C   C1014     1.0  0.43161  0.89610  0.72669  1.0000
  H   H800      1.0  0.35601  0.89366  0.73562  1.0000
  S   S140      1.0  0.27908  0.86098  0.77673  1.0000
  H   H801      1.0  0.43343  0.70453  0.77333  1.0000
  C   C1015     1.0  0.39627  0.50315  0.66390  1.0000
  C   C1016     1.0  0.24914  0.85670  0.88658  1.0000
  H   H802      1.0  0.28872  0.92241  0.78338  1.0000
  Fe  Fe72      1.0  0.48142  0.57414  0.83410  1.0000
  H   H803      1.0  0.49601  0.71311  0.72166  1.0000
  C   C1017     1.0  0.25472  0.95157  0.90734  1.0000
  H   H804      1.0  0.41678  0.88582  0.76733  1.0000
  C   C1018     1.0  0.35971  0.87579  0.81149  1.0000
  C   C1019     1.0  0.35585  0.89698  0.80396  1.0000
  C   C1020     1.0  0.33108  0.89199  0.79359  1.0000
  C   C1021     1.0  0.30965  0.86582  0.79070  1.0000
  C   C1022     1.0  0.31337  0.84468  0.79862  1.0000
  C   C1023     1.0  0.33818  0.84966  0.80887  1.0000
  H   H805      1.0  0.37191  0.91721  0.80625  1.0000
  H   H806      1.0  0.32847  0.90852  0.78767  1.0000
  H   H807      1.0  0.29722  0.82445  0.79660  1.0000
  H   H808      1.0  0.34073  0.83306  0.81474  1.0000
  P   P33       1.0  0.26527  0.89158  0.87785  1.0000
  C   C1024     1.0  0.39536  0.96293  0.76060  1.0000
  H   H809      1.0  0.43959  0.88274  0.72636  1.0000
  H   H810      1.0  0.30854  0.86649  0.72547  1.0000
  P   P34       1.0  0.25755  0.98958  0.51174  1.0000
  H   H811      1.0  0.27839  0.98505  0.56417  1.0000
  H   H812      1.0  0.33871  0.98431  0.49415  1.0000
  C   C1025     1.0  0.39110  0.52787  0.75153  1.0000
  H   H813      1.0  0.35256  0.94524  0.92266  1.0000
  H   H814      1.0  0.44112  0.67558  0.70024  1.0000
  H   H815      1.0  0.47817  0.96168  0.74921  1.0000
  C   C1026     1.0  0.38984  0.50658  0.73716  1.0000
  C   C1027     1.0  0.39748  0.98330  0.81229  1.0000
  H   H816      1.0  0.35626  0.97097  0.80634  1.0000
  C   C1028     1.0  0.48072  0.88363  0.75898  1.0000
  H   H817      1.0  0.29870  0.97985  0.72724  1.0000
  H   H818      1.0  0.26414  0.97299  0.90504  1.0000
  H   H819      1.0  0.43749  0.98603  0.93083  1.0000
  S   S141      1.0  0.48495  0.50197  0.65243  1.0000
  S   S142      1.0  0.49459  0.54450  0.84489  1.0000
  H   H820      1.0  0.35948  0.63888  0.75573  1.0000
  H   H821      1.0  0.35428  0.95360  0.76081  1.0000
  S   S143      1.0  0.47617  0.96103  0.92351  1.0000
  C   C1029     1.0  0.31940  0.92536  0.69904  1.0000
  H   H822      1.0  0.28710  0.99755  0.76713  1.0000
  C   C1030     1.0  0.26533  0.93748  0.89451  1.0000
  H   H823      1.0  0.40754  0.53924  0.76506  1.0000
  H   H824      1.0  0.49278  0.62861  0.69734  1.0000
  C   C1031     1.0  0.30319  0.98625  0.50172  1.0000
  C   C1032     1.0  0.34877  0.51832  0.73302  1.0000
  C   C1033     1.0  0.30014  0.90338  0.88320  1.0000
  C   C1034     1.0  0.31461  0.92237  0.90305  1.0000
  C   C1035     1.0  0.34141  0.93056  0.90738  1.0000
  C   C1036     1.0  0.35379  0.91953  0.89228  1.0000
  C   C1037     1.0  0.33936  0.90018  0.87297  1.0000
  C   C1038     1.0  0.31265  0.89207  0.86844  1.0000
  H   H825      1.0  0.39163  0.95436  0.66842  1.0000
  H   H826      1.0  0.41846  0.61334  0.75885  1.0000
  C   C1039     1.0  0.42467  0.66296  0.74025  1.0000
  H   H827      1.0  0.29949  0.91709  0.83001  1.0000
  H   H828      1.0  0.28470  0.88631  0.70244  1.0000
  H   H829      1.0  0.33257  0.52247  0.73191  1.0000
  P   P35       1.0  0.45576  0.67085  0.75603  1.0000
  H   H830      1.0  0.46311  0.93984  0.53884  1.0000
  H   H831      1.0  0.31732  0.98121  0.57727  1.0000
  Fe  Fe73      1.0  0.49150  0.92654  0.83363  1.0000
  H   H832      1.0  0.30880  0.93407  0.68933  1.0000
  C   C1040     1.0  0.36028  0.92971  0.71726  1.0000
  C   C1041     1.0  0.24743  0.97779  0.47767  1.0000
  H   H833      1.0  0.40199  0.64959  0.77720  1.0000
  H   H834      1.0  0.47490  0.57223  0.65803  1.0000
  H   H835      1.0  0.30527  0.93060  0.91551  1.0000
  H   H836      1.0  0.38785  0.51447  0.67243  1.0000
  H   H837      1.0  0.34888  0.89129  0.86164  1.0000
  C   C1042     1.0  0.45972  0.63339  0.82470  1.0000
  H   H838      1.0  0.30176  0.87694  0.85339  1.0000
  H   H839      1.0  0.39852  0.66486  0.67924  1.0000
  C   C1043     1.0  0.48219  0.84880  0.73377  1.0000
  C   C1044     1.0  0.44994  0.64587  0.78121  1.0000
  C   C1045     1.0  0.46601  0.74043  0.78859  1.0000
  C   C1046     1.0  0.25292  0.90965  0.89698  1.0000
  H   H840      1.0  0.28573  0.52550  0.83321  1.0000
  C   C1047     1.0  0.37627  0.65104  0.71611  1.0000
  C   C1048     1.0  0.37045  0.53354  0.74973  1.0000
  H   H841      1.0  0.42028  0.53410  0.63545  1.0000
  H   H842      1.0  0.48189  0.96217  0.69936  1.0000
  C   C1049     1.0  0.25847  0.89580  0.84330  1.0000
  H   H843      1.0  0.47357  0.82796  0.72861  1.0000
  C   C1050     1.0  0.30580  0.89845  0.70631  1.0000
  C   C1051     1.0  0.37733  0.64676  0.74367  1.0000
  C   C1052     1.0  0.40143  0.65275  0.75574  1.0000
  H   H844      1.0  0.35758  0.64645  0.70678  1.0000
  H   H845      1.0  0.37089  0.54922  0.76191  1.0000
  H   H846      1.0  0.44120  0.56319  0.69330  1.0000
  C   C1053     1.0  0.48500  0.50143  0.68820  1.0000
  H   H847      1.0  0.47098  0.88964  0.77355  1.0000
  C   C1054     1.0  0.46846  0.97756  0.47748  1.0000
  C   C1055     1.0  0.31929  0.88719  0.71916  1.0000
  C   C1056     1.0  0.43005  0.61925  0.77720  1.0000
  H   H848      1.0  0.35655  0.96201  0.69967  1.0000
  H   H849      1.0  0.43562  0.59225  0.83607  1.0000
  C   C1057     1.0  0.34634  0.90274  0.72480  1.0000
  C   C1058     1.0  0.48908  0.98469  0.95089  1.0000
  C   C1059     1.0  0.46921  0.57467  0.72594  1.0000
  C   C1060     1.0  0.29125  0.98468  0.54864  1.0000
  H   H850      1.0  0.43638  0.97437  0.76754  1.0000
  C   C1061     1.0  0.48698  0.98039  0.70988  1.0000
  C   C1062     1.0  0.47723  0.64711  0.72347  1.0000
  S   S144      1.0  0.38206  0.52478  0.82042  1.0000
  C   C1063     1.0  0.46501  0.65269  0.80498  1.0000
  C   C1064     1.0  0.42334  0.92854  0.70430  1.0000
  H   H851      1.0  0.46031  0.52036  0.74101  1.0000
  H   H852      1.0  0.45456  0.57067  0.74137  1.0000
  H   H853      1.0  0.29847  0.49913  0.86198  1.0000
  C   C1065     1.0  0.27081  0.50572  0.83957  1.0000
  H   H854      1.0  0.42547  0.94028  0.68653  1.0000
  C   C1066     1.0  0.43353  0.99051  0.95090  1.0000
  C   C1067     1.0  0.43398  0.91154  0.70406  1.0000
  H   H855      1.0  0.40946  0.57952  0.79408  1.0000
  C   C1068     1.0  0.47815  0.67094  0.73082  1.0000
  C   C1069     1.0  0.39933  0.66139  0.70059  1.0000
  C   C1070     1.0  0.42347  0.66739  0.71259  1.0000
  H   H856      1.0  0.44051  0.50906  0.61574  1.0000
  C   C1071     1.0  0.43964  0.60713  0.82075  1.0000
  C   C1072     1.0  0.42490  0.60001  0.79697  1.0000
  C   C1073     1.0  0.40842  0.91500  0.75009  1.0000
  C   C1074     1.0  0.41918  0.99487  0.65768  1.0000
  H   H857      1.0  0.47160  0.63865  0.84290  1.0000
  H   H858      1.0  0.46424  0.62865  0.73377  1.0000
  C   C1075     1.0  0.27897  0.90947  0.82457  1.0000
  C   C1076     1.0  0.37278  0.96211  0.77178  1.0000
  C   C1077     1.0  0.41033  0.93030  0.72730  1.0000
  C   C1078     1.0  0.32534  0.98428  0.50934  1.0000
  H   H859      1.0  0.45397  0.74947  0.79281  1.0000
  P   P36       1.0  0.39454  0.95047  0.72714  1.0000
  H   H860      1.0  0.39850  0.91590  0.76809  1.0000
  H   H861      1.0  0.32853  0.51454  0.81504  1.0000
  C   C1079     1.0  0.41884  0.97378  0.77568  1.0000
  C   C1080     1.0  0.46171  0.57057  0.69887  1.0000
  C   C1081     1.0  0.47118  0.51249  0.73055  1.0000
  H   H862      1.0  0.34760  0.98091  0.54239  1.0000
  H   H863      1.0  0.44410  0.91039  0.68629  1.0000
  C   C1082     1.0  0.45446  0.71489  0.77750  1.0000
  H   H864      1.0  0.40587  0.50233  0.73934  1.0000
  C   C1083     1.0  0.37381  0.97204  0.79765  1.0000
  H   H865      1.0  0.46026  0.51926  0.69092  1.0000
  H   H866      1.0  0.35869  0.50940  0.91387  1.0000
  C   C1084     1.0  0.49552  0.58336  0.73327  1.0000
  C   C1085     1.0  0.46949  0.85678  0.75224  1.0000
  C   C1086     1.0  0.47010  0.70327  0.77168  1.0000
  C   C1087     1.0  0.27301  0.91302  0.79810  1.0000
  H   H867      1.0  0.37450  0.92569  0.89569  1.0000
  H   H868      1.0  0.45109  0.84216  0.76157  1.0000
  H   H869      1.0  0.39842  0.99114  0.83226  1.0000
  C   C1088     1.0  0.49337  0.64696  0.70274  1.0000
  H   H870      1.0  0.48903  0.86207  0.80997  1.0000
  C   C1089     1.0  0.28588  0.98635  0.52132  1.0000
  C   C1090     1.0  0.47762  0.99514  0.49982  1.0000
  S   S145      1.0  0.48368  0.50074  0.78107  1.0000
  C   C1091     1.0  0.48068  0.57572  0.67903  1.0000
  C   C1092     1.0  0.49457  0.50442  0.93987  1.0000
  C   C1093     1.0  0.46929  0.50161  0.94252  1.0000
  C   C1094     1.0  0.42003  0.98441  0.80116  1.0000
  C   C1095     1.0  0.48470  0.50233  0.74533  1.0000
  H   H871      1.0  0.45412  0.95678  0.48069  1.0000
  C   C1096     1.0  0.48152  0.95372  0.54868  1.0000
  H   H872      1.0  0.25332  0.86382  0.92952  1.0000
  H   H873      1.0  0.46262  0.95434  0.58571  1.0000
  H   H874      1.0  0.29980  0.98782  0.48056  1.0000
  C   C1097     1.0  0.41169  0.97782  0.70361  1.0000
  H   H875      1.0  0.24804  0.74484  0.89282  1.0000
  C   C1098     1.0  0.48497  0.98009  0.73820  1.0000
  C   C1099     1.0  0.49320  0.75455  0.79392  1.0000
  C   C1100     1.0  0.40601  0.97382  0.67594  1.0000
  C   C1101     1.0  0.49518  0.69450  0.71680  1.0000
  H   H876      1.0  0.43857  0.99351  0.81223  1.0000
  C   C1102     1.0  0.33041  0.98242  0.53653  1.0000
  C   C1103     1.0  0.48123  0.96189  0.57501  1.0000
  C   C1104     1.0  0.31337  0.98262  0.55617  1.0000
  H   H877      1.0  0.47003  0.98785  0.51973  1.0000
  S   S146      1.0  0.45203  0.50687  0.91501  1.0000
  H   H878      1.0  0.25880  0.75641  0.84457  1.0000
  H   H879      1.0  0.25686  0.92425  0.48655  1.0000
  H   H880      1.0  0.42722  0.95347  0.96751  1.0000
  C   C1105     1.0  0.42578  0.50019  0.63156  1.0000
  C   C1106     1.0  0.50690  0.02032  0.99623  1.0000
  S   S147      1.0  0.53939  0.07778  0.14576  1.0000
  Fe  Fe74      1.0  0.52387  0.05268  0.07014  1.0000
  S   S148      1.0  0.55262  0.09535  0.08223  1.0000
  C   C1107     1.0  0.73623  0.17149  0.06286  1.0000
  Fe  Fe75      1.0  0.56813  0.07905  0.11453  1.0000
  S   S149      1.0  0.61133  0.08882  0.12274  1.0000
  Fe  Fe76      1.0  0.52181  0.09137  0.11273  1.0000
  S   S150      1.0  0.54098  0.03657  0.10093  1.0000
  H   H881      1.0  0.67461  0.44221  0.07019  1.0000
  S   S151      1.0  0.53299  0.46503  0.13441  1.0000
  H   H882      1.0  0.52229  0.15924  0.22490  1.0000
  S   S152      1.0  0.53861  0.45750  0.06971  1.0000
  Fe  Fe77      1.0  0.51485  0.47775  0.06034  1.0000
  H   H883      1.0  0.62788  0.40800  0.06293  1.0000
  H   H884      1.0  0.54519  0.44432  0.24125  1.0000
  S   S153      1.0  0.72414  0.18370  0.16426  1.0000
  H   H885      1.0  0.52479  0.03829  0.24715  1.0000
  H   H886      1.0  0.59713  0.14157  0.17476  1.0000
  C   C1108     1.0  0.64251  0.11565  0.13418  1.0000
  C   C1109     1.0  0.64597  0.14046  0.14169  1.0000
  C   C1110     1.0  0.67097  0.16085  0.15082  1.0000
  C   C1111     1.0  0.69308  0.15703  0.15230  1.0000
  C   C1112     1.0  0.68972  0.13232  0.14447  1.0000
  C   C1113     1.0  0.66463  0.11182  0.13565  1.0000
  H   H887      1.0  0.62939  0.14396  0.14045  1.0000
  H   H888      1.0  0.67322  0.17983  0.15670  1.0000
  H   H889      1.0  0.70644  0.12900  0.14528  1.0000
  H   H890      1.0  0.66228  0.09280  0.12984  1.0000
  C   C1114     1.0  0.50071  0.07397  0.27201  1.0000
  C   C1115     1.0  0.72496  0.11991  0.08569  1.0000
  H   H891      1.0  0.50450  0.09745  0.02919  1.0000
  S   S154      1.0  0.51377  0.12650  0.11779  1.0000
  H   H892      1.0  0.67919  0.09029  0.02686  1.0000
  C   C1116     1.0  0.58298  0.02961  0.17664  1.0000
  C   C1117     1.0  0.66621  0.47433  0.07630  1.0000
  C   C1118     1.0  0.50817  0.02261  0.20807  1.0000
  C   C1119     1.0  0.50114  0.15094  0.22215  1.0000
  C   C1120     1.0  0.74298  0.14095  0.22865  1.0000
  C   C1121     1.0  0.50866  0.02976  0.96961  1.0000
  H   H893      1.0  0.58732  0.11367  0.21572  1.0000
  H   H894      1.0  0.67329  0.49014  0.17831  1.0000
  C   C1122     1.0  0.73346  0.12962  0.02711  1.0000
  C   C1123     1.0  0.56680  0.48416  0.25709  1.0000
  C   C1124     1.0  0.50042  0.49020  0.20049  1.0000
  H   H895      1.0  0.73727  0.08444  0.14600  1.0000
  C   C1125     1.0  0.67130  0.13392  0.06628  1.0000
  S   S155      1.0  0.51137  0.48583  0.01490  1.0000
  C   C1126     1.0  0.73382  0.09430  0.12926  1.0000
  H   H896      1.0  0.56002  0.04050  0.44317  1.0000
  H   H897      1.0  0.68182  0.15089  0.07933  1.0000
  C   C1127     1.0  0.53473  0.12990  0.18735  1.0000
  H   H898      1.0  0.54513  0.01970  0.15955  1.0000
  C   C1128     1.0  0.64378  0.12251  0.06412  1.0000
  C   C1129     1.0  0.52919  0.11461  0.21098  1.0000
  H   H899      1.0  0.52263  0.04010  0.19731  1.0000
  H   H900      1.0  0.50910  0.17368  0.11866  1.0000
  H   H901      1.0  0.56785  0.47767  0.27731  1.0000
  Fe  Fe78      1.0  0.50870  0.43465  0.10236  1.0000
  H   H902      1.0  0.50318  0.13401  0.27438  1.0000
  Fe  Fe79      1.0  0.56112  0.48931  0.10083  1.0000
  H   H903      1.0  0.49876  0.05873  0.25821  1.0000
  H   H904      1.0  0.63358  0.13070  0.07541  1.0000
  C   C1130     1.0  0.59661  0.02145  0.19392  1.0000
  C   C1131     1.0  0.54826  0.10860  0.22098  1.0000
  H   H905      1.0  0.72759  0.00226  0.28028  1.0000
  H   H906      1.0  0.59338  0.04880  0.16657  1.0000
  C   C1132     1.0  0.55579  0.01314  0.17253  1.0000
  C   C1133     1.0  0.64212  0.08850  0.03482  1.0000
  C   C1134     1.0  0.61953  0.46132  0.07359  1.0000
  H   H907      1.0  0.54291  0.45919  0.19495  1.0000
  C   C1135     1.0  0.63300  0.42840  0.06690  1.0000
  C   C1136     1.0  0.72624  0.09181  0.20390  1.0000
  P   P37       1.0  0.71981  0.13599  0.05696  1.0000
  C   C1137     1.0  0.57832  0.13427  0.18498  1.0000
  H   H908      1.0  0.63067  0.07062  0.02305  1.0000
  H   H909      1.0  0.50776  0.08716  0.33910  1.0000
  H   H910      1.0  0.61762  0.03444  0.19733  1.0000
  C   C1138     1.0  0.70902  0.08252  0.11675  1.0000
  H   H911      1.0  0.73251  0.01026  0.38505  1.0000
  H   H912      1.0  0.68526  0.08562  0.08550  1.0000
  H   H913      1.0  0.56313  0.15127  0.15610  1.0000
  H   H914      1.0  0.54425  0.09606  0.23852  1.0000
  H   H915      1.0  0.71078  0.13960  0.99951  1.0000
  C   C1139     1.0  0.72580  0.03639  0.22495  1.0000
  C   C1140     1.0  0.66966  0.09985  0.03691  1.0000
  C   C1141     1.0  0.64598  0.48084  0.07767  1.0000
  Fe  Fe80      1.0  0.51163  0.03666  0.13049  1.0000
  H   H916      1.0  0.71985  0.07324  0.19349  1.0000
  C   C1142     1.0  0.62918  0.09980  0.04847  1.0000
  C   C1143     1.0  0.73051  0.47416  0.08060  1.0000
  H   H917      1.0  0.60776  0.09065  0.04745  1.0000
  Fe  Fe81      1.0  0.50972  0.48499  0.12176  1.0000
  C   C1144     1.0  0.57276  0.11853  0.20808  1.0000
  H   H918      1.0  0.71641  0.04484  0.23714  1.0000
  C   C1145     1.0  0.73633  0.12905  0.97830  1.0000
  H   H919      1.0  0.69464  0.09680  0.18714  1.0000
  S   S156      1.0  0.51785  0.04367  0.02393  1.0000
  H   H920      1.0  0.51995  0.13376  0.17840  1.0000
  C   C1146     1.0  0.61302  0.43511  0.06821  1.0000
  C   C1147     1.0  0.55403  0.46537  0.23681  1.0000
  H   H921      1.0  0.50290  0.02125  0.42753  1.0000
  H   H922      1.0  0.70967  0.14042  0.20885  1.0000
  C   C1148     1.0  0.50927  0.02156  0.23640  1.0000
  C   C1149     1.0  0.72033  0.12972  0.21243  1.0000
  C   C1150     1.0  0.50580  0.08991  0.31779  1.0000
  H   H923      1.0  0.72339  0.16732  0.10429  1.0000
  H   H924      1.0  0.69315  0.06355  0.12388  1.0000
  C   C1151     1.0  0.68456  0.12290  0.05240  1.0000
  H   H925      1.0  0.66486  0.48669  0.12966  1.0000
  C   C1152     1.0  0.70461  0.09517  0.09492  1.0000
  H   H926      1.0  0.50674  0.47771  0.19060  1.0000
  H   H927      1.0  0.50439  0.18949  0.21727  1.0000
  C   C1153     1.0  0.73407  0.18101  0.08809  1.0000
  H   H928      1.0  0.72299  0.46657  0.10055  1.0000
  H   H929      1.0  0.50775  0.12776  0.32275  1.0000
  C   C1154     1.0  0.55270  0.47375  0.21073  1.0000
  C   C1155     1.0  0.71193  0.10515  0.20011  1.0000
  C   C1156     1.0  0.55926  0.13986  0.17457  1.0000
  C   C1157     1.0  0.50043  0.09671  0.26251  1.0000
  H   H930      1.0  0.59244  0.42000  0.06527  1.0000
  H   H931      1.0  0.60403  0.46654  0.07485  1.0000
  C   C1158     1.0  0.72533  0.13320  0.00151  1.0000
  C   C1159     1.0  0.65951  0.44790  0.07098  1.0000
  H   H932      1.0  0.50523  0.47869  0.24060  1.0000
  C   C1160     1.0  0.50330  0.07055  0.29949  1.0000
  C   C1161     1.0  0.50312  0.11618  0.28103  1.0000
  C   C1162     1.0  0.71208  0.00908  0.21950  1.0000
  H   H933      1.0  0.74303  0.21533  0.11206  1.0000
  C   C1163     1.0  0.55604  0.02204  0.45278  1.0000
  C   C1164     1.0  0.50576  0.11273  0.30856  1.0000
  C   C1165     1.0  0.74529  0.20832  0.09256  1.0000
  P   P38       1.0  0.49704  0.10089  0.22684  1.0000
  H   H934      1.0  0.73469  0.05268  0.39673  1.0000
  H   H935      1.0  0.50327  0.05276  0.30656  1.0000
  C   C1166     1.0  0.49941  0.49071  0.22883  1.0000
  C   C1167     1.0  0.74575  0.00452  0.28888  1.0000
  C   C1168     1.0  0.72244  0.49017  0.06678  1.0000
  C   C1169     1.0  0.68493  0.49405  0.13669  1.0000
  C   C1170     1.0  0.68960  0.49589  0.16444  1.0000
  H   H936      1.0  0.51950  0.05201  0.46674  1.0000
  Fe  Fe82      1.0  0.50786  0.03827  0.63092  1.0000
  S   S157      1.0  0.52165  0.07962  0.64557  1.0000
  Fe  Fe83      1.0  0.51150  0.05401  0.57025  1.0000
  S   S158      1.0  0.52554  0.09683  0.58200  1.0000
  C   C1171     1.0  0.51871  0.41218  0.67794  1.0000
  Fe  Fe84      1.0  0.55239  0.09246  0.61247  1.0000
  S   S159      1.0  0.59601  0.12583  0.61791  1.0000
  H   H937      1.0  0.63329  0.05687  0.68620  1.0000
  S   S160      1.0  0.53990  0.05081  0.59936  1.0000
  C   C1172     1.0  0.57208  0.03075  0.79070  1.0000
  S   S161      1.0  0.53333  0.47249  0.63460  1.0000
  C   C1173     1.0  0.61723  0.07913  0.56502  1.0000
  S   S162      1.0  0.53884  0.46577  0.56931  1.0000
  C   C1174     1.0  0.61466  0.04812  0.67542  1.0000
  C   C1175     1.0  0.64448  0.11313  0.71113  1.0000
  H   H938      1.0  0.53238  0.42917  0.74404  1.0000
  S   S163      1.0  0.70982  0.14125  0.65293  1.0000
  C   C1176     1.0  0.61255  0.03515  0.65108  1.0000
  C   C1177     1.0  0.73019  0.08021  0.60580  1.0000
  C   C1178     1.0  0.62738  0.12942  0.62780  1.0000
  C   C1179     1.0  0.64940  0.15522  0.63071  1.0000
  C   C1180     1.0  0.67463  0.15929  0.63839  1.0000
  C   C1181     1.0  0.67837  0.13754  0.64318  1.0000
  C   C1182     1.0  0.65635  0.11170  0.64027  1.0000
  C   C1183     1.0  0.63108  0.10763  0.63271  1.0000
  H   H939      1.0  0.64691  0.17228  0.62704  1.0000
  H   H940      1.0  0.69117  0.17928  0.64058  1.0000
  H   H941      1.0  0.65889  0.09469  0.64394  1.0000
  H   H942      1.0  0.61449  0.08766  0.63057  1.0000
  C   C1184     1.0  0.55967  0.01585  0.73683  1.0000
  C   C1185     1.0  0.57513  0.04802  0.54476  1.0000
  C   C1186     1.0  0.74445  0.10708  0.61287  1.0000
  C   C1187     1.0  0.58326  0.02902  0.54229  1.0000
  H   H943      1.0  0.55383  0.00974  0.71627  1.0000
  C   C1188     1.0  0.57946  0.04195  0.74306  1.0000
  H   H944      1.0  0.70665  0.13228  0.73398  1.0000
  H   H945      1.0  0.55552  0.04343  0.53826  1.0000
  H   H946      1.0  0.72885  0.21591  0.60220  1.0000
  C   C1189     1.0  0.49900  0.49180  0.70298  1.0000
  C   C1190     1.0  0.51392  0.41257  0.70554  1.0000
  H   H947      1.0  0.54574  0.12993  0.70693  1.0000
  C   C1191     1.0  0.56306  0.08674  0.73445  1.0000
  Fe  Fe85      1.0  0.55863  0.49847  0.60040  1.0000
  H   H948      1.0  0.61444  0.00882  0.77890  1.0000
  H   H949      1.0  0.57381  0.12898  0.67000  1.0000
  H   H950      1.0  0.58551  0.45354  0.67677  1.0000
  C   C1192     1.0  0.56563  0.44204  0.68487  1.0000
  Fe  Fe86      1.0  0.50968  0.48028  0.56165  1.0000
  C   C1193     1.0  0.63030  0.08821  0.72391  1.0000
  H   H951      1.0  0.62076  0.49436  0.62239  1.0000
  H   H952      1.0  0.71912  0.03622  0.52965  1.0000
  C   C1194     1.0  0.67184  0.12894  0.71494  1.0000
  H   H953      1.0  0.61722  0.01263  0.72902  1.0000
  C   C1195     1.0  0.59208  0.07299  0.55595  1.0000
  H   H954      1.0  0.53858  0.10261  0.74806  1.0000
  C   C1196     1.0  0.56105  0.02163  0.48028  1.0000
  C   C1197     1.0  0.58531  0.04934  0.77022  1.0000
  H   H955      1.0  0.51034  0.48443  0.69256  1.0000
  C   C1198     1.0  0.55503  0.11777  0.70888  1.0000
  H   H956      1.0  0.61574  0.02137  0.54948  1.0000
  C   C1199     1.0  0.57899  0.08607  0.71358  1.0000
  H   H957      1.0  0.57625  0.03660  0.81162  1.0000
  Fe  Fe87      1.0  0.50509  0.48688  0.62342  1.0000
  H   H958      1.0  0.64520  0.06535  0.56956  1.0000
  C   C1200     1.0  0.56723  0.02550  0.64637  1.0000
  C   C1201     1.0  0.57082  0.11721  0.68807  1.0000
  H   H959      1.0  0.50928  0.48425  0.74259  1.0000
  H   H960      1.0  0.73036  0.13225  0.95860  1.0000
  C   C1202     1.0  0.50518  0.03122  0.46995  1.0000
  H   H961      1.0  0.58722  0.01394  0.61761  1.0000
  H   H962      1.0  0.59965  0.06964  0.77556  1.0000
  C   C1203     1.0  0.49861  0.49201  0.73137  1.0000
  S   S164      1.0  0.50181  0.39687  0.60638  1.0000
  C   C1204     1.0  0.55286  0.00471  0.78426  1.0000
  H   H963      1.0  0.50896  0.04592  0.69796  1.0000
  C   C1205     1.0  0.50055  0.02729  0.73733  1.0000
  H   H964      1.0  0.55257  0.04037  0.67747  1.0000
  C   C1206     1.0  0.60877  0.03548  0.55114  1.0000
  C   C1207     1.0  0.53536  0.42811  0.72273  1.0000
  C   C1208     1.0  0.62561  0.06042  0.56257  1.0000
  C   C1209     1.0  0.67150  0.09529  0.74418  1.0000
  C   C1210     1.0  0.54444  0.42658  0.66770  1.0000
  S   S165      1.0  0.50958  0.04527  0.52414  1.0000
  H   H965      1.0  0.63014  0.09842  0.57401  1.0000
  C   C1211     1.0  0.73902  0.07056  0.58477  1.0000
  H   H966      1.0  0.50158  0.02006  0.92707  1.0000
  H   H967      1.0  0.63399  0.05987  0.74967  1.0000
  C   C1212     1.0  0.59309  0.05018  0.68522  1.0000
  C   C1213     1.0  0.50003  0.01224  0.94720  1.0000
  C   C1214     1.0  0.56942  0.03893  0.67038  1.0000
  P   P39       1.0  0.59540  0.06660  0.71677  1.0000
  H   H968      1.0  0.58553  0.08749  0.55799  1.0000
  H   H969      1.0  0.54781  0.42602  0.64630  1.0000
  C   C1215     1.0  0.72969  0.02573  0.53454  1.0000
  H   H970      1.0  0.73762  0.11459  0.62916  1.0000
  C   C1216     1.0  0.55104  0.10242  0.73201  1.0000
  C   C1217     1.0  0.56109  0.44281  0.71237  1.0000
  H   H971      1.0  0.62946  0.03420  0.64336  1.0000
  H   H972      1.0  0.74361  0.19413  0.56911  1.0000
  H   H973      1.0  0.51685  0.05088  0.96624  1.0000
  C   C1218     1.0  0.64413  0.07931  0.74029  1.0000
  C   C1219     1.0  0.58233  0.10108  0.69017  1.0000
  H   H974      1.0  0.54874  0.01657  0.63534  1.0000
  H   H975      1.0  0.68273  0.14787  0.70449  1.0000
  H   H976      1.0  0.71233  0.06689  0.61677  1.0000
  H   H977      1.0  0.50248  0.40079  0.66426  1.0000
  H   H978      1.0  0.50583  0.04557  0.74786  1.0000
  Fe  Fe88      1.0  0.51145  0.44063  0.60308  1.0000
  H   H979      1.0  0.68213  0.08838  0.75676  1.0000
  H   H980      1.0  0.56905  0.04005  0.49136  1.0000
  C   C1220     1.0  0.58882  0.02380  0.63656  1.0000
  H   H981      1.0  0.57753  0.45493  0.72563  1.0000
  H   H982      1.0  0.59392  0.10047  0.67350  1.0000
  C   C1221     1.0  0.68535  0.12007  0.73145  1.0000
  H   H983      1.0  0.63481  0.12029  0.69760  1.0000
  H   H984      1.0  0.55956  0.07505  0.75257  1.0000
  C   C1222     1.0  0.50231  0.02752  0.70898  1.0000
  H   H985      1.0  0.72773  0.04964  0.58003  1.0000
  H   H986      1.0  0.54704  0.00458  0.58348  1.0000
  S   S166      1.0  0.49677  0.00295  0.65927  1.0000
  H   H987      1.0  0.49858  0.14653  0.62856  1.0000
  Fe  Fe89      1.0  0.62507  0.82588  0.28914  1.0000
  S   S167      1.0  0.58305  0.79890  0.30274  1.0000
  S   S168      1.0  0.66117  0.84807  0.31688  1.0000
  Fe  Fe90      1.0  0.61114  0.81576  0.22811  1.0000
  S   S169      1.0  0.56802  0.78769  0.23844  1.0000
  S   S170      1.0  0.62210  0.82589  0.18276  1.0000
  Fe  Fe91      1.0  0.57185  0.81824  0.26931  1.0000
  S   S171      1.0  0.53913  0.83003  0.26915  1.0000
  Fe  Fe92      1.0  0.58217  0.77050  0.27117  1.0000
  S   S172      1.0  0.57220  0.72714  0.27925  1.0000
  S   S173      1.0  0.61411  0.84698  0.25744  1.0000
  S   S174      1.0  0.62509  0.79681  0.25908  1.0000
  C   C1223     1.0  0.72619  0.55501  0.08119  1.0000
  S   S175      1.0  0.71005  0.82604  0.00802  1.0000
  H   H988      1.0  0.52431  0.64002  0.16420  1.0000
  S   S176      1.0  0.70105  0.87735  0.00809  1.0000
  Fe  Fe93      1.0  0.71365  0.85663  0.03848  1.0000
  S   S177      1.0  0.70186  0.84412  0.08341  1.0000
  H   H989      1.0  0.62325  0.84137  0.12709  1.0000
  S   S178      1.0  0.66231  0.83385  0.44452  1.0000
  H   H990      1.0  0.66672  0.88799  0.97431  1.0000
  H   H991      1.0  0.52935  0.95620  0.43897  1.0000
  C   C1224     1.0  0.69265  0.60853  0.36465  1.0000
  H   H992      1.0  0.53096  0.63234  0.30435  1.0000
  S   S179      1.0  0.71002  0.56422  0.17439  1.0000
  C   C1225     1.0  0.63505  0.52844  0.12012  1.0000
  H   H993      1.0  0.61114  0.72888  0.23057  1.0000
  C   C1226     1.0  0.65670  0.53180  0.16322  1.0000
  C   C1227     1.0  0.68162  0.55065  0.15277  1.0000
  C   C1228     1.0  0.68305  0.55839  0.12586  1.0000
  C   C1229     1.0  0.66001  0.54728  0.10965  1.0000
  C   C1230     1.0  0.52758  0.64891  0.30134  1.0000
  H   H994      1.0  0.70189  0.57315  0.11768  1.0000
  H   H995      1.0  0.66151  0.55337  0.08881  1.0000
  H   H996      1.0  0.66937  0.78907  0.31940  1.0000
  C   C1231     1.0  0.56613  0.55621  0.17138  1.0000
  C   C1232     1.0  0.54483  0.69609  0.28986  1.0000
  C   C1233     1.0  0.54669  0.57036  0.27034  1.0000
  C   C1234     1.0  0.63891  0.77201  0.38046  1.0000
  H   H997      1.0  0.67784  0.55723  0.22435  1.0000
  H   H998      1.0  0.58826  0.52569  0.26717  1.0000
  C   C1235     1.0  0.51948  0.69249  0.29399  1.0000
  C   C1236     1.0  0.49824  0.66717  0.30118  1.0000
  C   C1237     1.0  0.50686  0.67823  0.16083  1.0000
  H   H999      1.0  0.58202  0.69572  0.42964  1.0000
  H   H1000     1.0  0.51619  0.70917  0.29145  1.0000
  C   C1238     1.0  0.53243  0.85161  0.28938  1.0000
  C   C1239     1.0  0.54510  0.86202  0.31399  1.0000
  C   C1240     1.0  0.53801  0.87784  0.32975  1.0000
  H   H1001     1.0  0.64361  0.77744  0.40132  1.0000
  C   C1241     1.0  0.59013  0.56027  0.18241  1.0000
  C   C1242     1.0  0.59317  0.71415  0.44059  1.0000
  H   H1002     1.0  0.56002  0.85751  0.32114  1.0000
  H   H1003     1.0  0.67944  0.51473  0.03580  1.0000
  H   H1004     1.0  0.56250  0.50679  0.18454  1.0000
  C   C1243     1.0  0.66093  0.84465  0.35249  1.0000
  C   C1244     1.0  0.63746  0.82961  0.36691  1.0000
  C   C1245     1.0  0.63820  0.82705  0.39511  1.0000
  C   C1246     1.0  0.66242  0.83922  0.40922  1.0000
  C   C1247     1.0  0.68591  0.85459  0.39483  1.0000
  C   C1248     1.0  0.68508  0.85742  0.36667  1.0000
  H   H1005     1.0  0.61875  0.81996  0.35632  1.0000
  H   H1006     1.0  0.61986  0.81548  0.40598  1.0000
  H   H1007     1.0  0.70468  0.86426  0.40538  1.0000
  H   H1008     1.0  0.70325  0.86960  0.35573  1.0000
  C   C1249     1.0  0.64466  0.83083  0.15548  1.0000
  C   C1250     1.0  0.66669  0.82725  0.15842  1.0000
  C   C1251     1.0  0.68374  0.83136  0.13628  1.0000
  C   C1252     1.0  0.67930  0.83920  0.11069  1.0000
  C   C1253     1.0  0.65722  0.84271  0.10776  1.0000
  C   C1254     1.0  0.64013  0.83852  0.12987  1.0000
  H   H1009     1.0  0.67068  0.82137  0.17778  1.0000
  H   H1010     1.0  0.70063  0.82853  0.13903  1.0000
  H   H1011     1.0  0.65330  0.84867  0.08841  1.0000
  C   C1255     1.0  0.59764  0.72897  0.21555  1.0000
  C   C1256     1.0  0.61286  0.75418  0.37215  1.0000
  C   C1257     1.0  0.65384  0.77886  0.33416  1.0000
  C   C1258     1.0  0.62811  0.76082  0.32575  1.0000
  C   C1259     1.0  0.60769  0.74852  0.34460  1.0000
  H   H1012     1.0  0.72962  0.99378  0.32875  1.0000
  C   C1260     1.0  0.55810  0.79001  0.37431  1.0000
  C   C1261     1.0  0.56938  0.77358  0.37359  1.0000
  H   H1013     1.0  0.62381  0.75686  0.30449  1.0000
  H   H1014     1.0  0.58773  0.73519  0.33749  1.0000
  C   C1262     1.0  0.70750  0.77480  0.39752  1.0000
  H   H1015     1.0  0.63044  0.56988  0.17302  1.0000
  H   H1016     1.0  0.57693  0.77098  0.35469  1.0000
  C   C1263     1.0  0.58785  0.75187  0.18044  1.0000
  C   C1264     1.0  0.60569  0.75116  0.19883  1.0000
  H   H1017     1.0  0.59402  0.76937  0.16790  1.0000
  H   H1018     1.0  0.62553  0.76816  0.20050  1.0000
  H   H1019     1.0  0.50861  0.63535  0.36339  1.0000
  C   C1265     1.0  0.73199  0.49902  0.04065  1.0000
  C   C1266     1.0  0.57978  0.91605  0.18441  1.0000
  H   H1020     1.0  0.56828  0.67668  0.29080  1.0000
  C   C1267     1.0  0.57606  0.57064  0.23550  1.0000
  C   C1268     1.0  0.56193  0.73049  0.17883  1.0000
  C   C1269     1.0  0.70544  0.92527  0.37116  1.0000
  H   H1021     1.0  0.70569  0.76689  0.97547  1.0000
  C   C1270     1.0  0.57175  0.70742  0.21388  1.0000
  C   C1271     1.0  0.65925  0.78430  0.36152  1.0000
  H   H1022     1.0  0.54111  0.78337  0.44045  1.0000
  H   H1023     1.0  0.56456  0.93936  0.31346  1.0000
  C   C1272     1.0  0.53873  0.97452  0.45045  1.0000
  C   C1273     1.0  0.54461  0.99847  0.43794  1.0000
  C   C1274     1.0  0.54807  0.79366  0.39842  1.0000
  C   C1275     1.0  0.50902  0.61636  0.23839  1.0000
  H   H1024     1.0  0.70096  0.60076  0.24743  1.0000
  C   C1276     1.0  0.61233  0.76191  0.44447  1.0000
  H   H1025     1.0  0.57981  0.95298  0.18178  1.0000
  C   C1277     1.0  0.66507  0.63531  0.35211  1.0000
  H   H1026     1.0  0.58360  0.56727  0.10527  1.0000
  H   H1027     1.0  0.69171  0.90932  0.35811  1.0000
  C   C1278     1.0  0.72405  0.99775  0.20424  1.0000
  S   S180      1.0  0.50945  0.90280  0.34264  1.0000
  C   C1279     1.0  0.55031  0.66382  0.36706  1.0000
  H   H1028     1.0  0.55139  0.53694  0.26145  1.0000
  H   H1029     1.0  0.65433  0.64557  0.34694  1.0000
  C   C1280     1.0  0.50357  0.93144  0.21320  1.0000
  H   H1030     1.0  0.52103  0.97653  0.18238  1.0000
  C   C1281     1.0  0.66635  0.60537  0.24866  1.0000
  C   C1282     1.0  0.63956  0.59426  0.24168  1.0000
  C   C1283     1.0  0.54219  0.98842  0.18547  1.0000
  H   H1031     1.0  0.52546  0.55471  0.45608  1.0000
  H   H1032     1.0  0.53331  0.98673  0.25328  1.0000
  C   C1284     1.0  0.56927  0.68961  0.37479  1.0000
  C   C1285     1.0  0.51525  0.67254  0.37985  1.0000
  C   C1286     1.0  0.71958  0.58096  0.04685  1.0000
  C   C1287     1.0  0.56383  0.50089  0.20493  1.0000
  C   C1288     1.0  0.57115  0.60954  0.24259  1.0000
  C   C1289     1.0  0.58220  0.59662  0.22838  1.0000
  C   C1290     1.0  0.51025  0.53429  0.45958  1.0000
  S   S181      1.0  0.60687  0.51470  0.09821  1.0000
  H   H1033     1.0  0.54764  0.88531  0.34895  1.0000
  C   C1291     1.0  0.72940  0.67190  0.05943  1.0000
  H   H1034     1.0  0.55726  0.80003  0.35615  1.0000
  H   H1035     1.0  0.67655  0.62450  0.25863  1.0000
  H   H1036     1.0  0.62946  0.60509  0.24654  1.0000
  C   C1292     1.0  0.51253  0.64130  0.23120  1.0000
  S   S182      1.0  0.53887  0.51063  0.08981  1.0000
  H   H1037     1.0  0.54891  0.55019  0.18405  1.0000
  C   C1293     1.0  0.52006  0.63376  0.18498  1.0000
  H   H1038     1.0  0.57608  0.62964  0.23715  1.0000
  H   H1039     1.0  0.59583  0.60700  0.21203  1.0000
  P   P40       1.0  0.74250  0.65284  0.35640  1.0000
  C   C1294     1.0  0.65113  0.60836  0.35920  1.0000
  Fe  Fe94      1.0  0.70066  0.84892  0.97695  1.0000
  C   C1295     1.0  0.56840  0.89079  0.19625  1.0000
  C   C1296     1.0  0.54761  0.88283  0.21455  1.0000
  C   C1297     1.0  0.53828  0.90016  0.22117  1.0000
  C   C1298     1.0  0.55022  0.92593  0.21013  1.0000
  C   C1299     1.0  0.51135  0.60027  0.21899  1.0000
  P   P41       1.0  0.53868  0.94837  0.22029  1.0000
  H   H1040     1.0  0.51108  0.65364  0.24663  1.0000
  H   H1041     1.0  0.70931  0.74433  0.08725  1.0000
  S   S183      1.0  0.49701  0.55895  0.33252  1.0000
  H   H1042     1.0  0.72557  0.51076  0.02927  1.0000
  C   C1300     1.0  0.74379  0.63420  0.40801  1.0000
  C   C1301     1.0  0.50629  0.87404  0.29615  1.0000
  C   C1302     1.0  0.72991  0.64024  0.09115  1.0000
  C   C1303     1.0  0.56388  0.55899  0.14369  1.0000
  C   C1304     1.0  0.54499  0.95660  0.25557  1.0000
  C   C1305     1.0  0.55424  0.94361  0.27276  1.0000
  C   C1306     1.0  0.55829  0.95004  0.30009  1.0000
  P   P42       1.0  0.51969  0.68125  0.19464  1.0000
  C   C1307     1.0  0.55766  0.55736  0.25619  1.0000
  H   H1043     1.0  0.61463  0.50631  0.15551  1.0000
  H   H1044     1.0  0.54043  0.99773  0.30151  1.0000
  H   H1045     1.0  0.57576  0.87737  0.19136  1.0000
  H   H1046     1.0  0.53906  0.86336  0.22397  1.0000
  H   H1047     1.0  0.52224  0.89377  0.23553  1.0000
  H   H1048     1.0  0.71336  0.97658  0.19990  1.0000
  H   H1049     1.0  0.71857  0.67705  0.04509  1.0000
  C   C1308     1.0  0.54049  0.97646  0.26610  1.0000
  H   H1050     1.0  0.73708  0.84613  0.27060  1.0000
  C   C1309     1.0  0.54874  0.67414  0.29374  1.0000
  H   H1051     1.0  0.50304  0.84997  0.26185  1.0000
  H   H1052     1.0  0.55816  0.92836  0.26551  1.0000
  C   C1310     1.0  0.70679  0.63576  0.35822  1.0000
  C   C1311     1.0  0.58307  0.99673  0.20693  1.0000
  C   C1312     1.0  0.51049  0.71589  0.22611  1.0000
  H   H1053     1.0  0.59576  0.92206  0.17004  1.0000
  H   H1054     1.0  0.53962  0.99860  0.41691  1.0000
  C   C1313     1.0  0.51317  0.67854  0.11241  1.0000
  C   C1314     1.0  0.69417  0.53272  0.04568  1.0000
  H   H1055     1.0  0.70561  0.83755  0.30792  1.0000
  H   H1056     1.0  0.55643  0.65044  0.35881  1.0000
  P   P43       1.0  0.70028  0.49947  0.08259  1.0000
  H   H1057     1.0  0.62103  0.87931  0.98187  1.0000
  H   H1058     1.0  0.74227  0.67336  0.30260  1.0000
  C   C1315     1.0  0.54902  0.78063  0.42178  1.0000
  H   H1059     1.0  0.52590  0.68127  0.09537  1.0000
  H   H1060     1.0  0.68594  0.90450  0.40765  1.0000
  H   H1061     1.0  0.69746  0.80895  0.44725  1.0000
  C   C1316     1.0  0.71537  0.50614  0.17430  1.0000
  H   H1062     1.0  0.71610  0.67127  0.45534  1.0000
  C   C1317     1.0  0.55581  0.97982  0.20250  1.0000
  Fe  Fe95      1.0  0.74430  0.90315  0.99665  1.0000
  C   C1318     1.0  0.52333  0.65528  0.36963  1.0000
  C   C1319     1.0  0.59811  0.73851  0.42937  1.0000
  C   C1320     1.0  0.70684  0.53132  0.06925  1.0000
  C   C1321     1.0  0.55365  0.59650  0.26380  1.0000
  H   H1063     1.0  0.72919  0.94952  0.33850  1.0000
  H   H1064     1.0  0.63041  0.53712  0.21255  1.0000
  C   C1322     1.0  0.53413  0.69830  0.38776  1.0000
  C   C1323     1.0  0.56131  0.70709  0.38512  1.0000
  H   H1065     1.0  0.50878  0.58101  0.22463  1.0000
  H   H1066     1.0  0.62598  0.57443  0.12441  1.0000
  H   H1067     1.0  0.67783  0.76348  0.42850  1.0000
  C   C1324     1.0  0.51747  0.64998  0.20431  1.0000
  H   H1068     1.0  0.62962  0.59778  0.35967  1.0000
  C   C1325     1.0  0.62629  0.56952  0.22859  1.0000
  C   C1326     1.0  0.63355  0.52085  0.14713  1.0000
  C   C1327     1.0  0.51709  0.60905  0.19235  1.0000
  C   C1328     1.0  0.52309  0.68143  0.13860  1.0000
  C   C1329     1.0  0.73652  0.51440  0.15642  1.0000
  C   C1330     1.0  0.71620  0.64738  0.07285  1.0000
  C   C1331     1.0  0.57073  0.93360  0.19128  1.0000
  C   C1332     1.0  0.61183  0.56714  0.16533  1.0000
  C   C1333     1.0  0.66702  0.56738  0.22957  1.0000
  H   H1069     1.0  0.54818  0.73196  0.16515  1.0000
  H   H1070     1.0  0.50389  0.74247  0.25087  1.0000
  H   H1071     1.0  0.71903  0.50830  0.19578  1.0000
  C   C1334     1.0  0.64022  0.55611  0.22279  1.0000
  H   H1072     1.0  0.59011  0.69594  0.37266  1.0000
  C   C1335     1.0  0.60948  0.56991  0.13765  1.0000
  C   C1336     1.0  0.57099  0.76091  0.39708  1.0000
  C   C1337     1.0  0.60234  0.71331  0.46647  1.0000
  H   H1073     1.0  0.65407  0.57394  0.37041  1.0000
  C   C1338     1.0  0.70685  0.80514  0.43038  1.0000
  H   H1074     1.0  0.61617  0.78091  0.43640  1.0000
  C   C1339     1.0  0.70212  0.92255  0.39907  1.0000
  P   P44       1.0  0.58592  0.73997  0.39619  1.0000
  C   C1340     1.0  0.51844  0.88385  0.32108  1.0000
  H   H1075     1.0  0.56052  0.75404  0.43938  1.0000
  C   C1341     1.0  0.55373  0.70797  0.19540  1.0000
  C   C1342     1.0  0.73705  0.73398  0.07002  1.0000
  H   H1076     1.0  0.67896  0.79886  0.36808  1.0000
  H   H1077     1.0  0.54348  0.68622  0.14149  1.0000
  C   C1343     1.0  0.72655  0.94832  0.36010  1.0000
  C   C1344     1.0  0.56025  0.76416  0.42112  1.0000
  H   H1078     1.0  0.56560  0.69093  0.22778  1.0000
  H   H1079     1.0  0.54514  0.60647  0.27495  1.0000
  C   C1345     1.0  0.57819  0.51133  0.25131  1.0000
  C   C1346     1.0  0.58554  0.56582  0.12683  1.0000
  H   H1080     1.0  0.74602  0.62231  0.44870  1.0000
  H   H1081     1.0  0.54507  0.55507  0.13520  1.0000
  H   H1082     1.0  0.73036  0.68485  0.39275  1.0000
  C   C1347     1.0  0.54458  0.98282  0.29344  1.0000
  C   C1348     1.0  0.68011  0.59200  0.24248  1.0000
  C   C1349     1.0  0.73350  0.84177  0.33889  1.0000
  C   C1350     1.0  0.74162  0.82155  0.39658  1.0000
  H   H1083     1.0  0.71754  0.94062  0.43762  1.0000
  C   C1351     1.0  0.50204  0.64515  0.30478  1.0000
  C   C1352     1.0  0.72983  0.82603  0.41904  1.0000
  H   H1084     1.0  0.69011  0.55839  0.01682  1.0000
  C   C1353     1.0  0.69576  0.77952  0.41974  1.0000
  H   H1085     1.0  0.50860  0.92647  0.17089  1.0000
  C   C1354     1.0  0.57642  0.51990  0.22530  1.0000
  C   C1355     1.0  0.70035  0.55746  0.03470  1.0000
  P   P45       1.0  0.59208  0.55512  0.21800  1.0000
  H   H1086     1.0  0.69531  0.63390  0.06913  1.0000
  H   H1087     1.0  0.52945  0.73175  0.21922  1.0000
  H   H1088     1.0  0.71967  0.62135  0.10174  1.0000
  H   H1089     1.0  0.53257  0.55997  0.28634  1.0000
  C   C1356     1.0  0.50077  0.68950  0.21767  1.0000
  H   H1090     1.0  0.70324  0.66965  0.34526  1.0000
  H   H1091     1.0  0.55570  0.97380  0.33182  1.0000
  H   H1092     1.0  0.72426  0.63172  0.41093  1.0000
  H   H1093     1.0  0.73870  0.79201  0.36814  1.0000
  C   C1357     1.0  0.51303  0.85783  0.28069  1.0000
  C   C1358     1.0  0.73256  0.57971  0.07003  1.0000
  C   C1359     1.0  0.72728  0.75123  0.07555  1.0000
  H   H1094     1.0  0.71949  0.83791  0.35492  1.0000
  C   C1360     1.0  0.73020  0.79577  0.38581  1.0000
  H   H1095     1.0  0.70305  0.59775  0.36892  1.0000
  H   H1096     1.0  0.69870  0.75501  0.38902  1.0000
  C   C1361     1.0  0.69280  0.64895  0.35140  1.0000
  H   H1097     1.0  0.53952  0.80655  0.39892  1.0000
  C   C1362     1.0  0.66492  0.59495  0.36534  1.0000
  C   C1363     1.0  0.55329  0.96947  0.31047  1.0000
  H   H1098     1.0  0.52738  0.71125  0.39575  1.0000
  H   H1099     1.0  0.73294  0.79076  0.07005  1.0000
  C   C1364     1.0  0.73198  0.51262  0.12869  1.0000
  H   H1100     1.0  0.65051  0.50092  0.08222  1.0000
  H   H1101     1.0  0.73614  0.55450  0.09935  1.0000
  S   S184      1.0  0.73832  0.88647  0.46039  1.0000
  H   H1102     1.0  0.72647  0.71395  0.07792  1.0000
  S   S185      1.0  0.49885  0.96389  0.35003  1.0000
  H   H1103     1.0  0.51906  0.59657  0.17738  1.0000
  C   C1365     1.0  0.71986  0.94294  0.41595  1.0000
  C   C1366     1.0  0.74332  0.84639  0.29125  1.0000
  H   H1104     1.0  0.65538  0.52525  0.18382  1.0000
  C   C1367     1.0  0.74413  0.96914  0.37693  1.0000
  C   C1368     1.0  0.70608  0.50223  0.11855  1.0000
  H   H1105     1.0  0.73808  0.84566  0.42766  1.0000
  C   C1369     1.0  0.72554  0.84142  0.31226  1.0000
  H   H1106     1.0  0.72437  0.60014  0.03841  1.0000
  C   C1370     1.0  0.74061  0.77743  0.06598  1.0000
  C   C1371     1.0  0.74078  0.96617  0.40496  1.0000
  H   H1107     1.0  0.50426  0.60945  0.25904  1.0000
  H   H1108     1.0  0.59379  0.99081  0.22057  1.0000
  H   H1109     1.0  0.69213  0.99666  0.22710  1.0000
  Fe  Fe96      1.0  0.63115  0.81959  0.78968  1.0000
  S   S186      1.0  0.58853  0.79214  0.80105  1.0000
  S   S187      1.0  0.66616  0.83991  0.81906  1.0000
  Fe  Fe97      1.0  0.61915  0.81866  0.72852  1.0000
  S   S188      1.0  0.57543  0.79151  0.73660  1.0000
  S   S189      1.0  0.63439  0.83766  0.68603  1.0000
  Fe  Fe98      1.0  0.57947  0.81711  0.77247  1.0000
  S   S190      1.0  0.54467  0.82458  0.78089  1.0000
  Fe  Fe99      1.0  0.58708  0.76829  0.76476  1.0000
  S   S191      1.0  0.56368  0.72261  0.75980  1.0000
  S   S192      1.0  0.62226  0.84583  0.76283  1.0000
  S   S193      1.0  0.63075  0.79415  0.75491  1.0000
  C   C1372     1.0  0.57781  0.94161  0.56164  1.0000
  S   S194      1.0  0.71034  0.83462  0.50124  1.0000
  H   H1110     1.0  0.59073  0.82608  0.91723  1.0000
  S   S195      1.0  0.69554  0.88192  0.50672  1.0000
  Fe  Fe100     1.0  0.71167  0.86215  0.53430  1.0000
  S   S196      1.0  0.69762  0.84221  0.57661  1.0000
  H   H1111     1.0  0.64630  0.86885  0.63708  1.0000
  S   S197      1.0  0.66601  0.82785  0.94726  1.0000
  C   C1373     1.0  0.63325  0.92564  0.82253  1.0000
  H   H1112     1.0  0.73244  0.55825  0.58864  1.0000
  C   C1374     1.0  0.73489  0.64666  0.50840  1.0000
  S   S198      1.0  0.53099  0.51450  0.59062  1.0000
  S   S199      1.0  0.71554  0.54916  0.64626  1.0000
  C   C1375     1.0  0.63359  0.53590  0.61713  1.0000
  H   H1113     1.0  0.68353  0.78782  0.55101  1.0000
  C   C1376     1.0  0.66231  0.51898  0.63294  1.0000
  C   C1377     1.0  0.68424  0.54495  0.63513  1.0000
  C   C1378     1.0  0.68057  0.56643  0.62841  1.0000
  C   C1379     1.0  0.65548  0.56190  0.61950  1.0000
  H   H1114     1.0  0.52835  0.55003  0.69155  1.0000
  H   H1115     1.0  0.69701  0.58652  0.63019  1.0000
  H   H1116     1.0  0.65297  0.57870  0.61459  1.0000
  C   C1380     1.0  0.58136  0.83743  0.87872  1.0000
  H   H1117     1.0  0.52911  0.66696  0.74932  1.0000
  C   C1381     1.0  0.54856  0.69433  0.78186  1.0000
  C   C1382     1.0  0.53228  0.66886  0.77080  1.0000
  C   C1383     1.0  0.70183  0.78926  0.94283  1.0000
  C   C1384     1.0  0.52434  0.64781  0.81508  1.0000
  C   C1385     1.0  0.54040  0.67332  0.82617  1.0000
  C   C1386     1.0  0.55225  0.69641  0.80978  1.0000
  C   C1387     1.0  0.50491  0.98024  0.58738  1.0000
  C   C1388     1.0  0.63073  0.87861  0.84056  1.0000
  H   H1118     1.0  0.56585  0.77808  0.90826  1.0000
  H   H1119     1.0  0.56446  0.71574  0.81877  1.0000
  C   C1389     1.0  0.54000  0.85043  0.79476  1.0000
  C   C1390     1.0  0.56116  0.87518  0.80242  1.0000
  H   H1120     1.0  0.59170  0.87294  0.94320  1.0000
  H   H1121     1.0  0.54163  0.76117  0.86509  1.0000
  C   C1391     1.0  0.51038  0.52159  0.48408  1.0000
  Fe  Fe101     1.0  0.69717  0.85660  0.47328  1.0000
  H   H1122     1.0  0.58127  0.87903  0.80028  1.0000
  H   H1123     1.0  0.57487  0.93697  0.92241  1.0000
  P   P46       1.0  0.54895  0.91868  0.71414  1.0000
  C   C1392     1.0  0.66519  0.83712  0.85484  1.0000
  C   C1393     1.0  0.64201  0.81983  0.86882  1.0000
  C   C1394     1.0  0.64257  0.81740  0.89708  1.0000
  C   C1395     1.0  0.66618  0.83235  0.91176  1.0000
  C   C1396     1.0  0.68917  0.85017  0.89784  1.0000
  C   C1397     1.0  0.68861  0.85257  0.86962  1.0000
  H   H1124     1.0  0.62374  0.80803  0.85785  1.0000
  H   H1125     1.0  0.62464  0.80366  0.90765  1.0000
  H   H1126     1.0  0.70743  0.86185  0.90883  1.0000
  H   H1127     1.0  0.70650  0.86637  0.85917  1.0000
  C   C1398     1.0  0.65205  0.83843  0.65577  1.0000
  C   C1399     1.0  0.66336  0.82218  0.65204  1.0000
  C   C1400     1.0  0.67707  0.82368  0.62788  1.0000
  C   C1401     1.0  0.67987  0.84138  0.60682  1.0000
  C   C1402     1.0  0.66853  0.85761  0.61053  1.0000
  C   C1403     1.0  0.65483  0.85613  0.63470  1.0000
  H   H1128     1.0  0.66158  0.80846  0.66780  1.0000
  H   H1129     1.0  0.68565  0.81098  0.62552  1.0000
  H   H1130     1.0  0.67034  0.87136  0.59478  1.0000
  C   C1404     1.0  0.56878  0.88505  0.72728  1.0000
  P   P47       1.0  0.72159  0.62548  0.53769  1.0000
  C   C1405     1.0  0.61796  0.88962  0.85525  1.0000
  C   C1406     1.0  0.61654  0.73675  0.48129  1.0000
  H   H1131     1.0  0.54232  0.99037  0.80008  1.0000
  H   H1132     1.0  0.71012  0.69120  0.59017  1.0000
  H   H1133     1.0  0.74056  0.76064  0.67257  1.0000
  P   P48       1.0  0.71302  0.78517  0.86224  1.0000
  C   C1407     1.0  0.68112  0.77426  0.84648  1.0000
  C   C1408     1.0  0.65879  0.76923  0.86176  1.0000
  C   C1409     1.0  0.63430  0.76068  0.84916  1.0000
  C   C1410     1.0  0.63191  0.75724  0.82128  1.0000
  C   C1411     1.0  0.65400  0.76224  0.80594  1.0000
  C   C1412     1.0  0.67849  0.77069  0.81844  1.0000
  H   H1134     1.0  0.50217  0.77452  0.80204  1.0000
  H   H1135     1.0  0.62855  0.57720  0.56958  1.0000
  C   C1413     1.0  0.71451  0.75873  0.90911  1.0000
  H   H1136     1.0  0.53142  0.97720  0.75255  1.0000
  H   H1137     1.0  0.71253  0.70748  0.82071  1.0000
  C   C1414     1.0  0.64957  0.56865  0.50864  1.0000
  C   C1415     1.0  0.52006  0.64582  0.78722  1.0000
  C   C1416     1.0  0.60259  0.95746  0.52012  1.0000
  H   H1138     1.0  0.66008  0.77211  0.88330  1.0000
  H   H1139     1.0  0.61724  0.75717  0.86103  1.0000
  H   H1140     1.0  0.61301  0.75097  0.81150  1.0000
  H   H1141     1.0  0.65217  0.75991  0.78428  1.0000
  H   H1142     1.0  0.69548  0.77482  0.80616  1.0000
  C   C1417     1.0  0.69649  0.78148  0.54204  1.0000
  C   C1418     1.0  0.73513  0.60368  0.54288  1.0000
  H   H1143     1.0  0.59072  0.92899  0.67481  1.0000
  C   C1419     1.0  0.72830  0.64765  0.56574  1.0000
  H   H1144     1.0  0.55528  0.87846  0.74420  1.0000
  C   C1420     1.0  0.70846  0.76320  0.50443  1.0000
  C   C1421     1.0  0.63722  0.51446  0.62408  1.0000
  C   C1422     1.0  0.56620  0.79190  0.89326  1.0000
  H   H1145     1.0  0.61139  0.55038  0.52828  1.0000
  H   H1146     1.0  0.52521  0.90741  0.61757  1.0000
  H   H1147     1.0  0.65466  0.88436  0.88916  1.0000
  H   H1148     1.0  0.54891  0.53413  0.65865  1.0000
  C   C1423     1.0  0.63226  0.56522  0.52970  1.0000
  C   C1424     1.0  0.71551  0.66277  0.56723  1.0000
  C   C1425     1.0  0.66343  0.88716  0.93118  1.0000
  H   H1149     1.0  0.55345  0.95833  0.57218  1.0000
  H   H1150     1.0  0.62974  0.86024  0.84704  1.0000
  H   H1151     1.0  0.54403  0.85537  0.86770  1.0000
  H   H1152     1.0  0.72999  0.98704  0.83166  1.0000
  C   C1426     1.0  0.58406  0.96752  0.77864  1.0000
  H   H1153     1.0  0.52145  0.58864  0.67056  1.0000
  C   C1427     1.0  0.64486  0.89121  0.81724  1.0000
  H   H1154     1.0  0.50486  0.95826  0.51387  1.0000
  H   H1155     1.0  0.69606  0.98711  0.52602  1.0000
  C   C1428     1.0  0.68181  0.95054  0.93778  1.0000
  C   C1429     1.0  0.60339  0.99389  0.73845  1.0000
  H   H1156     1.0  0.65610  0.92372  0.78948  1.0000
  H   H1157     1.0  0.65484  0.88266  0.80620  1.0000
  C   C1430     1.0  0.62834  0.88092  0.96152  1.0000
  C   C1431     1.0  0.69683  0.95610  0.89152  1.0000
  C   C1432     1.0  0.56770  0.94551  0.76273  1.0000
  C   C1433     1.0  0.70474  0.60837  0.87486  1.0000
  C   C1434     1.0  0.68476  0.61062  0.86119  1.0000
  C   C1435     1.0  0.65805  0.59183  0.86538  1.0000
  C   C1436     1.0  0.65112  0.57040  0.88287  1.0000
  C   C1437     1.0  0.67091  0.56755  0.89591  1.0000
  C   C1438     1.0  0.69764  0.58631  0.89176  1.0000
  H   H1158     1.0  0.67381  0.76765  0.50548  1.0000
  H   H1159     1.0  0.56880  0.84120  0.83868  1.0000
  C   C1439     1.0  0.59550  0.94115  0.54295  1.0000
  H   H1160     1.0  0.53451  0.95906  0.70034  1.0000
  C   C1440     1.0  0.73390  0.82072  0.85771  1.0000
  H   H1161     1.0  0.60964  0.92223  0.85681  1.0000
  H   H1162     1.0  0.62341  0.60620  0.66855  1.0000
  H   H1163     1.0  0.57236  0.92897  0.57933  1.0000
  H   H1164     1.0  0.68986  0.62690  0.84723  1.0000
  H   H1165     1.0  0.64270  0.59378  0.85494  1.0000
  H   H1166     1.0  0.63041  0.55582  0.88610  1.0000
  C   C1441     1.0  0.56706  0.95825  0.55745  1.0000
  H   H1167     1.0  0.52997  0.75403  0.79230  1.0000
  H   H1168     1.0  0.71687  0.73966  0.94562  1.0000
  C   C1442     1.0  0.54415  0.97409  0.47783  1.0000
  C   C1443     1.0  0.71656  0.99798  0.53244  1.0000
  H   H1169     1.0  0.68989  0.58929  0.49475  1.0000
  C   C1444     1.0  0.51151  0.69431  0.69633  1.0000
  C   C1445     1.0  0.64581  0.91448  0.80801  1.0000
  C   C1446     1.0  0.55629  0.89514  0.81255  1.0000
  S   S200      1.0  0.52564  0.91760  0.82630  1.0000
  H   H1170     1.0  0.59817  0.69441  0.47514  1.0000
  C   C1447     1.0  0.56863  0.94762  0.73461  1.0000
  H   H1171     1.0  0.70227  0.92441  0.77319  1.0000
  C   C1448     1.0  0.73010  0.98422  0.53796  1.0000
  H   H1172     1.0  0.59777  0.98681  0.49817  1.0000
  H   H1173     1.0  0.50976  0.70892  0.77332  1.0000
  H   H1174     1.0  0.71244  0.82398  0.82336  1.0000
  C   C1449     1.0  0.52934  0.98290  0.54675  1.0000
  C   C1450     1.0  0.62165  0.76107  0.47021  1.0000
  H   H1175     1.0  0.49742  0.82693  0.79195  1.0000
  C   C1451     1.0  0.53636  0.91280  0.65947  1.0000
  S   S201      1.0  0.51047  0.61941  0.83702  1.0000
  C   C1452     1.0  0.66895  0.59898  0.55548  1.0000
  H   H1176     1.0  0.70813  0.65620  0.89068  1.0000
  H   H1177     1.0  0.70462  0.75509  0.48427  1.0000
  H   H1178     1.0  0.73241  0.91272  0.89671  1.0000
  H   H1179     1.0  0.50750  0.62653  0.77834  1.0000
  H   H1180     1.0  0.70925  0.95123  0.96764  1.0000
  C   C1453     1.0  0.50694  0.49946  0.96209  1.0000
  H   H1181     1.0  0.52639  0.50164  0.95956  1.0000
  H   H1182     1.0  0.69153  0.73117  0.84123  1.0000
  H   H1183     1.0  0.58263  0.96570  0.80040  1.0000
  H   H1184     1.0  0.63263  0.77939  0.48155  1.0000
  C   C1454     1.0  0.58488  0.90822  0.90719  1.0000
  H   H1185     1.0  0.51573  0.86106  0.70792  1.0000
  H   H1186     1.0  0.55438  0.92683  0.77243  1.0000
  H   H1187     1.0  0.51515  0.87454  0.87421  1.0000
  C   C1455     1.0  0.71933  0.78585  0.55575  1.0000
  C   C1456     1.0  0.58037  0.81930  0.89825  1.0000
  H   H1188     1.0  0.74211  0.69564  0.62590  1.0000
  C   C1457     1.0  0.55505  0.99761  0.49311  1.0000
  C   C1458     1.0  0.51399  0.84596  0.79773  1.0000
  H   H1189     1.0  0.53918  0.95526  0.48720  1.0000
  H   H1190     1.0  0.70908  0.73217  0.63724  1.0000
  C   C1459     1.0  0.55335  0.80028  0.84957  1.0000
  H   H1191     1.0  0.74362  0.95843  0.93478  1.0000
  C   C1460     1.0  0.50626  0.86764  0.72230  1.0000
  C   C1461     1.0  0.73831  0.68241  0.60904  1.0000
  H   H1192     1.0  0.60461  0.91848  0.91575  1.0000
  C   C1462     1.0  0.60194  0.99173  0.76652  1.0000
  H   H1193     1.0  0.69305  0.95750  0.87042  1.0000
  C   C1463     1.0  0.65408  0.88572  0.95731  1.0000
  C   C1464     1.0  0.53959  0.92763  0.68287  1.0000
  C   C1465     1.0  0.50914  0.86592  0.80788  1.0000
  P   P49       1.0  0.59910  0.87287  0.88497  1.0000
  H   H1194     1.0  0.58333  0.85841  0.73717  1.0000
  H   H1195     1.0  0.66549  0.55064  0.90909  1.0000
  C   C1466     1.0  0.60501  0.90220  0.68477  1.0000
  C   C1467     1.0  0.72035  0.67991  0.58893  1.0000
  H   H1196     1.0  0.61546  0.87349  0.69942  1.0000
  P   P50       1.0  0.73909  0.63258  0.86864  1.0000
  H   H1197     1.0  0.66672  0.94735  0.95240  1.0000
  H   H1198     1.0  0.72020  0.96276  0.53562  1.0000
  C   C1468     1.0  0.72845  0.76819  0.84651  1.0000
  H   H1199     1.0  0.69699  0.64023  0.49366  1.0000
  C   C1469     1.0  0.60327  0.67491  0.74516  1.0000
  C   C1470     1.0  0.59509  0.69041  0.73091  1.0000
  C   C1471     1.0  0.57339  0.67829  0.71350  1.0000
  C   C1472     1.0  0.55948  0.65057  0.71068  1.0000
  C   C1473     1.0  0.56707  0.63479  0.72556  1.0000
  C   C1474     1.0  0.58951  0.64723  0.74229  1.0000
  P   P51       1.0  0.54860  0.59890  0.72295  1.0000
  C   C1475     1.0  0.56391  0.58769  0.69854  1.0000
  C   C1476     1.0  0.54845  0.58478  0.75552  1.0000
  C   C1477     1.0  0.54794  0.59775  0.77918  1.0000
  C   C1478     1.0  0.54850  0.58724  0.80437  1.0000
  C   C1479     1.0  0.54932  0.56357  0.80619  1.0000
  C   C1480     1.0  0.54926  0.55026  0.78281  1.0000
  C   C1481     1.0  0.54877  0.56074  0.75756  1.0000
  C   C1482     1.0  0.59088  0.60341  0.69197  1.0000
  C   C1483     1.0  0.60258  0.59416  0.67352  1.0000
  C   C1484     1.0  0.58747  0.56923  0.66150  1.0000
  C   C1485     1.0  0.56067  0.55349  0.66797  1.0000
  C   C1486     1.0  0.54900  0.56261  0.68650  1.0000
  H   H1200     1.0  0.51502  0.94422  0.61657  1.0000
  C   C1487     1.0  0.73434  0.75528  0.60440  1.0000
  C   C1488     1.0  0.56819  0.91891  0.91085  1.0000
  H   H1201     1.0  0.51965  0.96984  0.65808  1.0000
  C   C1489     1.0  0.71294  0.75454  0.93699  1.0000
  H   H1202     1.0  0.52310  0.67044  0.67322  1.0000
  H   H1203     1.0  0.62000  0.68436  0.75878  1.0000
  H   H1204     1.0  0.60522  0.71182  0.73369  1.0000
  H   H1205     1.0  0.56702  0.69051  0.70287  1.0000
  H   H1206     1.0  0.54262  0.64152  0.69727  1.0000
  H   H1207     1.0  0.59610  0.63551  0.75354  1.0000
  H   H1208     1.0  0.54691  0.61590  0.77829  1.0000
  H   H1209     1.0  0.54769  0.59718  0.82252  1.0000
  H   H1210     1.0  0.54916  0.55510  0.82573  1.0000
  H   H1211     1.0  0.54869  0.53130  0.78425  1.0000
  H   H1212     1.0  0.54821  0.54974  0.73981  1.0000
  H   H1213     1.0  0.60298  0.62268  0.70112  1.0000
  H   H1214     1.0  0.71594  0.58954  0.58157  1.0000
  C   C1490     1.0  0.72845  0.58805  0.56636  1.0000
  C   C1491     1.0  0.59194  0.97416  0.51590  1.0000
  H   H1215     1.0  0.54377  0.67522  0.84768  1.0000
  C   C1492     1.0  0.67659  0.58731  0.51093  1.0000
  C   C1493     1.0  0.72791  0.74918  0.63158  1.0000
  C   C1494     1.0  0.52891  0.99047  0.57347  1.0000
  C   C1495     1.0  0.54301  0.90666  0.89910  1.0000
  H   H1216     1.0  0.61629  0.95708  0.50562  1.0000
  C   C1496     1.0  0.53028  0.89085  0.81499  1.0000
  P   P52       1.0  0.56050  0.99637  0.52888  1.0000
  H   H1217     1.0  0.74197  0.87190  0.81713  1.0000
  H   H1218     1.0  0.63381  0.94359  0.81528  1.0000
  C   C1497     1.0  0.58493  0.87381  0.72355  1.0000
  C   C1498     1.0  0.61950  0.91338  0.84616  1.0000
  C   C1499     1.0  0.70365  0.79369  0.91509  1.0000
  H   H1219     1.0  0.73163  0.91466  0.84883  1.0000
  S   S202      1.0  0.60259  0.53163  0.60488  1.0000
  C   C1500     1.0  0.51465  0.58823  0.71351  1.0000
  C   C1501     1.0  0.58684  0.97191  0.72252  1.0000
  C   C1502     1.0  0.70982  0.77837  0.89797  1.0000
  C   C1503     1.0  0.61189  0.87752  0.93954  1.0000
  C   C1504     1.0  0.72662  0.96758  0.82585  1.0000
  C   C1505     1.0  0.71822  0.65050  0.49061  1.0000
  C   C1506     1.0  0.53328  0.94810  0.68226  1.0000
  C   C1507     1.0  0.64708  0.88383  0.90911  1.0000
  H   H1220     1.0  0.70020  0.80909  0.90701  1.0000
  C   C1508     1.0  0.68642  0.60289  0.53424  1.0000
  H   H1221     1.0  0.58846  0.97382  0.70082  1.0000
  H   H1222     1.0  0.68327  0.89043  0.92813  1.0000
  H   H1223     1.0  0.59653  0.56203  0.64724  1.0000
  C   C1509     1.0  0.52471  0.95419  0.65833  1.0000
  C   C1510     1.0  0.64196  0.58042  0.55304  1.0000
  S   S203      1.0  0.74301  0.87518  0.96428  1.0000
  C   C1511     1.0  0.57637  0.88495  0.89194  1.0000
  H   H1224     1.0  0.71948  0.70261  0.89833  1.0000
  H   H1225     1.0  0.57283  0.91424  0.81817  1.0000
  H   H1226     1.0  0.71130  0.96941  0.78682  1.0000
  C   C1512     1.0  0.57001  0.90438  0.70926  1.0000
  H   H1227     1.0  0.70159  0.66104  0.55174  1.0000
  C   C1513     1.0  0.74471  0.60266  0.82834  1.0000
  H   H1228     1.0  0.67608  0.60960  0.57426  1.0000
  C   C1514     1.0  0.53442  0.88358  0.88389  1.0000
  C   C1515     1.0  0.60298  0.88230  0.70226  1.0000
  H   H1229     1.0  0.71259  0.58325  0.90147  1.0000
  C   C1516     1.0  0.55099  0.87277  0.88025  1.0000
  C   C1517     1.0  0.62122  0.87923  0.91312  1.0000
  H   H1230     1.0  0.73958  0.62795  0.92720  1.0000
  S   S204      1.0  0.50637  0.96885  0.84738  1.0000
  C   C1518     1.0  0.56800  0.82766  0.85422  1.0000
  H   H1231     1.0  0.61926  0.90887  0.66847  1.0000
  C   C1519     1.0  0.67731  0.95208  0.91034  1.0000
  C   C1520     1.0  0.55260  0.78238  0.86897  1.0000
  H   H1232     1.0  0.52557  0.53232  0.49899  1.0000
  C   C1521     1.0  0.71585  0.95759  0.80047  1.0000
  C   C1522     1.0  0.71080  0.93230  0.79277  1.0000
  H   H1233     1.0  0.64203  0.55646  0.49077  1.0000
  H   H1234     1.0  0.50071  0.58585  0.75440  1.0000
  H   H1235     1.0  0.71974  0.74691  0.89650  1.0000
  C   C1523     1.0  0.71285  0.74153  0.83851  1.0000
  H   H1236     1.0  0.50455  0.51027  0.92065  1.0000
  C   C1524     1.0  0.72467  0.72800  0.82697  1.0000
  C   C1525     1.0  0.70568  0.95264  0.94639  1.0000
  C   C1526     1.0  0.58870  0.91337  0.68833  1.0000
  C   C1527     1.0  0.73678  0.77859  0.54403  1.0000
  H   H1237     1.0  0.62333  0.73603  0.50144  1.0000
  H   H1238     1.0  0.72036  0.74272  0.58918  1.0000
  H   H1239     1.0  0.65870  0.95016  0.90366  1.0000
  H   H1240     1.0  0.71172  0.89698  0.80482  1.0000
  H   H1241     1.0  0.53028  0.91527  0.90132  1.0000
  C   C1528     1.0  0.73126  0.76739  0.51817  1.0000
  H   H1242     1.0  0.54295  0.79304  0.83066  1.0000
  H   H1243     1.0  0.60370  0.92813  0.54612  1.0000
  C   C1529     1.0  0.69105  0.77017  0.51639  1.0000
  C   C1530     1.0  0.73298  0.95257  0.84355  1.0000
  C   C1531     1.0  0.50709  0.58479  0.68626  1.0000
  H   H1244     1.0  0.72358  0.79545  0.57526  1.0000
  C   C1532     1.0  0.71633  0.91692  0.81051  1.0000
  C   C1533     1.0  0.72921  0.83424  0.83675  1.0000
  C   C1534     1.0  0.57391  0.97451  0.53441  1.0000
  Fe  Fe102     1.0  0.73814  0.91113  0.49514  1.0000
  H   H1245     1.0  0.69673  0.80102  0.95576  1.0000
  C   C1535     1.0  0.72100  0.95854  0.90008  1.0000
  C   C1536     1.0  0.51817  0.89457  0.72972  1.0000
  C   C1537     1.0  0.70664  0.76984  0.95384  1.0000
  C   C1538     1.0  0.50883  0.74304  0.78846  1.0000
  C   C1539     1.0  0.73769  0.57016  0.57037  1.0000
  C   C1540     1.0  0.72514  0.95653  0.92763  1.0000
  C   C1541     1.0  0.74476  0.62635  0.83444  1.0000
  C   C1542     1.0  0.72751  0.92703  0.83570  1.0000
  C   C1543     1.0  0.50542  0.96430  0.53450  1.0000
  H   H1246     1.0  0.53997  0.89616  0.65981  1.0000
  C   C1544     1.0  0.51049  0.67053  0.68917  1.0000
  H   H1247     1.0  0.52506  0.71271  0.68611  1.0000
  H   H1248     1.0  0.74461  0.76222  0.50830  1.0000
  C   C1545     1.0  0.52207  0.93973  0.63496  1.0000
  H   H1249     1.0  0.51295  0.92330  0.75294  1.0000
  H   H1250     1.0  0.66476  0.50216  0.63807  1.0000
  C   C1546     1.0  0.52784  0.91901  0.63554  1.0000
  H   H1251     1.0  0.74211  0.58861  0.84413  1.0000
  C   C1547     1.0  0.74599  0.86163  0.83316  1.0000
  C   C1548     1.0  0.50477  0.90258  0.74751  1.0000
  C   C1549     1.0  0.72744  0.67202  0.88457  1.0000
  C   C1550     1.0  0.54673  0.99727  0.75737  1.0000
  H   H1252     1.0  0.50457  0.98679  0.60768  1.0000
  C   C1551     1.0  0.73387  0.69838  0.88921  1.0000
  C   C1552     1.0  0.49732  0.71747  0.77755  1.0000
  C   C1553     1.0  0.74614  0.66642  0.87299  1.0000
  C   C1554     1.0  0.74562  0.76524  0.65150  1.0000
  C   C1555     1.0  0.72898  0.66824  0.46893  1.0000
  C   C1556     1.0  0.93349  0.34666  0.09066  1.0000
  H   H1253     1.0  0.94081  0.22167  0.99211  1.0000
  S   S205      1.0  0.82467  0.16682  0.98060  1.0000
  Fe  Fe103     1.0  0.84929  0.14574  0.40093  1.0000
  S   S206      1.0  0.87820  0.13040  0.40481  1.0000
  S   S207      1.0  0.82460  0.14657  0.36418  1.0000
  Fe  Fe104     1.0  0.85512  0.10797  0.44198  1.0000
  S   S208      1.0  0.84758  0.06565  0.45122  1.0000
  Fe  Fe105     1.0  0.90183  0.16481  0.43328  1.0000
  S   S209      1.0  0.94650  0.19536  0.42938  1.0000
  S   S210      1.0  0.82486  0.12095  0.43647  1.0000
  S   S211      1.0  0.87406  0.18128  0.42725  1.0000
  Fe  Fe106     1.0  0.82426  0.24311  0.16381  1.0000
  S   S212      1.0  0.84225  0.21692  0.17038  1.0000
  S   S213      1.0  0.85713  0.28705  0.15913  1.0000
  Fe  Fe107     1.0  0.76795  0.19391  0.16672  1.0000
  S   S214      1.0  0.78331  0.16533  0.17348  1.0000
  Fe  Fe108     1.0  0.81220  0.19560  0.20318  1.0000
  S   S215      1.0  0.83089  0.18790  0.24143  1.0000
  Fe  Fe109     1.0  0.81245  0.18895  0.14054  1.0000
  S   S216      1.0  0.82673  0.16985  0.10936  1.0000
  S   S217      1.0  0.79551  0.22331  0.19823  1.0000
  S   S218      1.0  0.79588  0.21592  0.13221  1.0000
  C   C1557     1.0  0.76796  0.09187  0.27906  1.0000
  Fe  Fe110     1.0  0.90676  0.43917  0.10442  1.0000
  S   S219      1.0  0.94785  0.44953  0.09124  1.0000
  S   S220      1.0  0.87139  0.39722  0.11265  1.0000
  Fe  Fe111     1.0  0.96133  0.48377  0.12050  1.0000
  H   H1254     1.0  0.80986  0.09617  0.32923  1.0000
  Fe  Fe112     1.0  0.94516  0.47701  0.06013  1.0000
  H   H1255     1.0  0.77612  0.08482  0.16474  1.0000
  S   S221      1.0  0.92064  0.47199  0.13526  1.0000
  S   S222      1.0  0.90277  0.46447  0.07178  1.0000
  H   H1256     1.0  0.81283  0.02196  0.40634  1.0000
  S   S223      1.0  0.95314  0.47611  0.01411  1.0000
  Fe  Fe113     1.0  0.91933  0.49790  0.10201  1.0000
  H   H1257     1.0  0.81837  0.09483  0.38098  1.0000
  H   H1258     1.0  0.86247  0.32620  0.07098  1.0000
  C   C1558     1.0  0.94406  0.33935  0.13617  1.0000
  H   H1259     1.0  0.96412  0.19645  0.05800  1.0000
  C   C1559     1.0  0.80459  0.08781  0.26133  1.0000
  C   C1560     1.0  0.96997  0.48476  0.19882  1.0000
  H   H1260     1.0  0.83300  0.21974  0.45953  1.0000
  H   H1261     1.0  0.97739  0.47912  0.42332  1.0000
  C   C1561     1.0  0.86026  0.31727  0.14593  1.0000
  C   C1562     1.0  0.88531  0.34050  0.14656  1.0000
  C   C1563     1.0  0.88928  0.36489  0.13594  1.0000
  C   C1564     1.0  0.86790  0.36669  0.12535  1.0000
  C   C1565     1.0  0.84270  0.34355  0.12508  1.0000
  C   C1566     1.0  0.83890  0.31898  0.13512  1.0000
  H   H1262     1.0  0.90168  0.33969  0.15583  1.0000
  H   H1263     1.0  0.90880  0.38232  0.13616  1.0000
  H   H1264     1.0  0.82596  0.34462  0.11695  1.0000
  H   H1265     1.0  0.81943  0.30142  0.13463  1.0000
  C   C1567     1.0  0.88806  0.44876  0.19616  1.0000
  H   H1266     1.0  0.86264  0.42380  0.16433  1.0000
  H   H1267     1.0  0.82137  0.13502  0.23097  1.0000
  H   H1268     1.0  0.91527  0.30850  0.11097  1.0000
  H   H1269     1.0  0.77879  0.11199  0.00742  1.0000
  C   C1568     1.0  0.97757  0.18472  0.97243  1.0000
  C   C1569     1.0  0.99427  0.49713  0.18522  1.0000
  C   C1570     1.0  0.82737  0.15914  0.33031  1.0000
  C   C1571     1.0  0.80512  0.15871  0.31829  1.0000
  C   C1572     1.0  0.80582  0.16752  0.29145  1.0000
  C   C1573     1.0  0.82881  0.17680  0.27583  1.0000
  C   C1574     1.0  0.85107  0.17720  0.28782  1.0000
  C   C1575     1.0  0.85044  0.16859  0.31476  1.0000
  H   H1270     1.0  0.78713  0.15156  0.32990  1.0000
  H   H1271     1.0  0.78855  0.16726  0.28297  1.0000
  H   H1272     1.0  0.86903  0.18429  0.27618  1.0000
  H   H1273     1.0  0.86775  0.16904  0.32340  1.0000
  C   C1576     1.0  0.82566  0.16787  0.01641  1.0000
  C   C1577     1.0  0.83747  0.15604  0.03137  1.0000
  C   C1578     1.0  0.83745  0.15681  0.05972  1.0000
  C   C1579     1.0  0.82579  0.16953  0.07355  1.0000
  C   C1580     1.0  0.81411  0.18158  0.05863  1.0000
  C   C1581     1.0  0.81398  0.18064  0.03022  1.0000
  H   H1274     1.0  0.84639  0.14605  0.02108  1.0000
  H   H1275     1.0  0.84654  0.14742  0.07100  1.0000
  H   H1276     1.0  0.80499  0.19139  0.06892  1.0000
  H   H1277     1.0  0.80462  0.18969  0.01884  1.0000
  H   H1278     1.0  0.95169  0.47487  0.18748  1.0000
  H   H1279     1.0  0.94058  0.32595  0.15290  1.0000
  H   H1280     1.0  0.76581  0.15071  0.09170  1.0000
  H   H1281     1.0  0.97274  0.40076  0.23452  1.0000
  C   C1582     1.0  0.84691  0.37232  0.20226  1.0000
  C   C1583     1.0  0.84097  0.38714  0.22017  1.0000
  C   C1584     1.0  0.85766  0.39971  0.24209  1.0000
  C   C1585     1.0  0.88037  0.39755  0.24609  1.0000
  C   C1586     1.0  0.88630  0.38244  0.22831  1.0000
  C   C1587     1.0  0.86936  0.36986  0.20640  1.0000
  P   P53       1.0  0.91529  0.37898  0.23316  1.0000
  C   C1588     1.0  0.94146  0.40019  0.21015  1.0000
  C   C1589     1.0  0.92768  0.38846  0.26709  1.0000
  C   C1590     1.0  0.92128  0.36913  0.28726  1.0000
  C   C1591     1.0  0.96556  0.38391  0.11753  1.0000
  C   C1592     1.0  0.81439  0.11773  0.15505  1.0000
  H   H1282     1.0  0.83298  0.08984  0.29065  1.0000
  C   C1593     1.0  0.94391  0.41551  0.27354  1.0000
  C   C1594     1.0  0.96790  0.40766  0.21622  1.0000
  H   H1283     1.0  0.89885  0.27694  0.06535  1.0000
  H   H1284     1.0  0.95048  0.47427  0.23750  1.0000
  C   C1595     1.0  0.95638  0.42612  0.16887  1.0000
  C   C1596     1.0  0.93586  0.40956  0.18632  1.0000
  C   C1597     1.0  0.90569  0.34445  0.22769  1.0000
  C   C1598     1.0  0.92334  0.33750  0.21593  1.0000
  C   C1599     1.0  0.91555  0.31071  0.21162  1.0000
  C   C1600     1.0  0.89012  0.29073  0.21891  1.0000
  C   C1601     1.0  0.87251  0.29747  0.23070  1.0000
  C   C1602     1.0  0.88024  0.32418  0.23519  1.0000
  H   H1285     1.0  0.83411  0.36264  0.18511  1.0000
  H   H1286     1.0  0.82351  0.38900  0.21693  1.0000
  H   H1287     1.0  0.85310  0.41132  0.25588  1.0000
  H   H1288     1.0  0.89304  0.40757  0.26311  1.0000
  H   H1289     1.0  0.87341  0.35796  0.19256  1.0000
  H   H1290     1.0  0.90870  0.34817  0.28297  1.0000
  C   C1603     1.0  0.78154  0.08941  0.25693  1.0000
  H   H1291     1.0  0.77357  0.12786  0.12946  1.0000
  H   H1292     1.0  0.78401  0.05277  0.19341  1.0000
  H   H1293     1.0  0.94901  0.43088  0.25843  1.0000
  H   H1294     1.0  0.84242  0.01553  0.46736  1.0000
  H   H1295     1.0  0.81961  0.28638  0.07990  1.0000
  C   C1604     1.0  0.93114  0.37676  0.31340  1.0000
  H   H1296     1.0  0.84414  0.49342  0.22901  1.0000
  H   H1297     1.0  0.91579  0.40442  0.18113  1.0000
  H   H1298     1.0  0.94299  0.35261  0.20986  1.0000
  H   H1299     1.0  0.92903  0.30534  0.20233  1.0000
  H   H1300     1.0  0.88378  0.26999  0.21497  1.0000
  H   H1301     1.0  0.85263  0.28190  0.23582  1.0000
  H   H1302     1.0  0.86620  0.32893  0.24426  1.0000
  C   C1605     1.0  0.95370  0.42303  0.29968  1.0000
  C   C1606     1.0  0.97616  0.32713  0.02460  1.0000
  C   C1607     1.0  0.79972  0.07626  0.38219  1.0000
  H   H1303     1.0  0.95203  0.43374  0.15075  1.0000
  H   H1304     1.0  0.92614  0.36177  0.32890  1.0000
  C   C1608     1.0  0.91954  0.36674  0.01601  1.0000
  H   H1305     1.0  0.95602  0.16125  0.46659  1.0000
  C   C1609     1.0  0.92176  0.30622  0.01658  1.0000
  H   H1306     1.0  0.79095  0.04826  0.45834  1.0000
  H   H1307     1.0  0.95206  0.24412  0.34657  1.0000
  H   H1308     1.0  0.96078  0.16497  0.97536  1.0000
  C   C1610     1.0  0.79861  0.05240  0.37528  1.0000
  H   H1309     1.0  0.81650  0.05294  0.36829  1.0000
  H   H1310     1.0  0.77392  0.23129  0.03142  1.0000
  C   C1611     1.0  0.96181  0.33437  0.04182  1.0000
  H   H1311     1.0  0.76814  0.09684  0.32212  1.0000
  H   H1312     1.0  0.81515  0.08555  0.24458  1.0000
  C   C1612     1.0  0.93443  0.32378  0.03806  1.0000
  S   S224      1.0  0.99071  0.49556  0.27821  1.0000
  C   C1613     1.0  0.97791  0.25669  0.03207  1.0000
  C   C1614     1.0  0.90200  0.39574  0.04599  1.0000
  H   H1313     1.0  0.77284  0.47294  0.03422  1.0000
  C   C1615     1.0  0.94736  0.40368  0.31960  1.0000
  H   H1314     1.0  0.96864  0.26837  0.02714  1.0000
  C   C1616     1.0  0.75267  0.12171  0.02909  1.0000
  C   C1617     1.0  0.81945  0.03515  0.46200  1.0000
  C   C1618     1.0  0.75796  0.08040  0.46311  1.0000
  C   C1619     1.0  0.96174  0.36661  0.13893  1.0000
  H   H1315     1.0  0.92623  0.28536  0.98301  1.0000
  C   C1620     1.0  0.83963  0.14592  0.19218  1.0000
  C   C1621     1.0  0.81465  0.09004  0.28738  1.0000
  P   P54       1.0  0.76937  0.08759  0.22311  1.0000
  C   C1622     1.0  0.90962  0.40265  0.01922  1.0000
  C   C1623     1.0  0.91216  0.35983  0.04305  1.0000
  C   C1624     1.0  0.86962  0.44225  0.17537  1.0000
  C   C1625     1.0  0.79395  0.03182  0.46359  1.0000
  C   C1626     1.0  0.76346  0.11741  0.00584  1.0000
  H   H1316     1.0  0.85077  0.01641  0.41823  1.0000
  H   H1317     1.0  0.89528  0.40704  0.05763  1.0000
  C   C1627     1.0  0.96501  0.47900  0.46459  1.0000
  C   C1628     1.0  0.75739  0.12774  0.23235  1.0000
  C   C1629     1.0  0.83685  0.28436  0.07608  1.0000
  C   C1630     1.0  0.77789  0.00128  0.97933  1.0000
  C   C1631     1.0  0.83806  0.00518  0.40157  1.0000
  C   C1632     1.0  0.90349  0.37463  0.05794  1.0000
  P   P55       1.0  0.91579  0.33378  0.05938  1.0000
  H   H1318     1.0  0.92668  0.35609  0.00401  1.0000
  H   H1319     1.0  0.85678  0.16377  0.19966  1.0000
  H   H1320     1.0  0.95497  0.40961  0.33986  1.0000
  C   C1633     1.0  0.97512  0.19952  0.44727  1.0000
  C   C1634     1.0  0.88398  0.30470  0.06658  1.0000
  C   C1635     1.0  0.86133  0.46022  0.16781  1.0000
  P   P56       1.0  0.92786  0.21802  0.04976  1.0000
  C   C1636     1.0  0.91287  0.22311  0.02003  1.0000
  C   C1637     1.0  0.91254  0.18263  0.05594  1.0000
  C   C1638     1.0  0.90397  0.16468  0.03435  1.0000
  C   C1639     1.0  0.89243  0.13732  0.03916  1.0000
  C   C1640     1.0  0.88945  0.12768  0.06548  1.0000
  C   C1641     1.0  0.89836  0.14543  0.08706  1.0000
  C   C1642     1.0  0.91010  0.17282  0.08233  1.0000
  C   C1643     1.0  0.88980  0.22505  0.02202  1.0000
  C   C1644     1.0  0.87784  0.22817  0.99889  1.0000
  H   H1321     1.0  0.75983  0.11930  0.04841  1.0000
  C   C1645     1.0  0.79286  0.01109  0.31120  1.0000
  C   C1646     1.0  0.92363  0.22415  0.99447  1.0000
  C   C1647     1.0  0.92220  0.23395  0.07822  1.0000
  C   C1648     1.0  0.94203  0.25886  0.08761  1.0000
  C   C1649     1.0  0.93703  0.27093  0.10944  1.0000
  C   C1650     1.0  0.91221  0.25828  0.12200  1.0000
  C   C1651     1.0  0.89245  0.23358  0.11272  1.0000
  C   C1652     1.0  0.89740  0.22145  0.09104  1.0000
  C   C1653     1.0  0.75861  0.47754  0.04317  1.0000
  H   H1322     1.0  0.90619  0.17174  0.01378  1.0000
  H   H1323     1.0  0.88572  0.12351  0.02244  1.0000
  H   H1324     1.0  0.88031  0.10644  0.06907  1.0000
  H   H1325     1.0  0.89619  0.13796  0.10746  1.0000
  H   H1326     1.0  0.91725  0.18627  0.09930  1.0000
  H   H1327     1.0  0.88030  0.22318  0.04116  1.0000
  H   H1328     1.0  0.85940  0.22845  0.00045  1.0000
  C   C1654     1.0  0.76102  0.10582  0.46077  1.0000
  H   H1329     1.0  0.96137  0.26897  0.07831  1.0000
  H   H1330     1.0  0.95241  0.29008  0.11667  1.0000
  H   H1331     1.0  0.90812  0.26754  0.13885  1.0000
  H   H1332     1.0  0.87313  0.22374  0.12221  1.0000
  H   H1333     1.0  0.88175  0.20227  0.08422  1.0000
  H   H1334     1.0  0.85254  0.49377  0.11746  1.0000
  C   C1655     1.0  0.92972  0.32945  0.11227  1.0000
  C   C1656     1.0  0.86139  0.30703  0.07107  1.0000
  C   C1657     1.0  0.85706  0.25671  0.07274  1.0000
  H   H1335     1.0  0.89539  0.43536  0.20115  1.0000
  C   C1658     1.0  0.81666  0.00860  0.39448  1.0000
  H   H1336     1.0  0.91179  0.47733  0.22592  1.0000
  H   H1337     1.0  0.90911  0.41950  0.01023  1.0000
  H   H1338     1.0  0.97218  0.34834  0.05787  1.0000
  C   C1659     1.0  0.89755  0.47280  0.21000  1.0000
  C   C1660     1.0  0.88167  0.27933  0.06791  1.0000
  C   C1661     1.0  0.79399  0.10140  0.17276  1.0000
  H   H1339     1.0  0.85528  0.23719  0.07374  1.0000
  H   H1340     1.0  0.96618  0.44393  0.30453  1.0000
  C   C1662     1.0  0.83465  0.25922  0.07663  1.0000
  H   H1341     1.0  0.90074  0.29818  0.01298  1.0000
  C   C1663     1.0  0.98130  0.49056  0.44159  1.0000
  H   H1342     1.0  0.85257  0.15310  0.15089  1.0000
  C   C1664     1.0  0.96286  0.23127  0.04356  1.0000
  H   H1343     1.0  0.81564  0.24167  0.08039  1.0000
  C   C1665     1.0  0.75956  0.22645  0.07213  1.0000
  C   C1666     1.0  0.75420  0.11881  0.12006  1.0000
  H   H1344     1.0  0.80908  0.02294  0.27130  1.0000
  C   C1667     1.0  0.83719  0.13998  0.16477  1.0000
  C   C1668     1.0  0.81941  0.12950  0.20995  1.0000
  C   C1669     1.0  0.95173  0.37398  0.09340  1.0000
  C   C1670     1.0  0.76263  0.21724  0.04720  1.0000
  H   H1345     1.0  0.81225  0.11376  0.13360  1.0000
  Fe  Fe114     1.0  0.85151  0.15573  0.46271  1.0000
  H   H1346     1.0  0.76834  0.24762  0.07574  1.0000
  H   H1347     1.0  0.95518  0.38772  0.07699  1.0000
  C   C1671     1.0  0.91835  0.38814  0.00423  1.0000
  H   H1348     1.0  0.97513  0.23138  0.38047  1.0000
  H   H1349     1.0  0.89824  0.37016  0.07894  1.0000
  H   H1350     1.0  0.84785  0.45565  0.15098  1.0000
  C   C1672     1.0  0.80151  0.09335  0.30920  1.0000
  C   C1673     1.0  0.77801  0.09390  0.30510  1.0000
  C   C1674     1.0  0.98261  0.43360  0.17516  1.0000
  C   C1675     1.0  0.97356  0.25421  0.34683  1.0000
  C   C1676     1.0  0.75145  0.05267  0.21472  1.0000
  C   C1677     1.0  0.79655  0.10695  0.20044  1.0000
  C   C1678     1.0  0.96933  0.48447  0.22721  1.0000
  C   C1679     1.0  0.79164  0.01612  0.28381  1.0000
  H   H1351     1.0  0.77770  0.09517  0.39453  1.0000
  H   H1352     1.0  0.75913  0.11325  0.44132  1.0000
  H   H1353     1.0  0.75358  0.06797  0.44553  1.0000
  C   C1680     1.0  0.87115  0.48449  0.18127  1.0000
  H   H1354     1.0  0.97912  0.40509  0.11965  1.0000
  C   C1681     1.0  0.97519  0.21625  0.04948  1.0000
  C   C1682     1.0  0.98838  0.42441  0.19885  1.0000
  C   C1683     1.0  0.97441  0.17978  0.46416  1.0000
  C   C1684     1.0  0.97616  0.48938  0.98619  1.0000
  C   C1685     1.0  0.74975  0.13172  0.09855  1.0000
  H   H1355     1.0  0.77561  0.13731  0.24391  1.0000
  C   C1686     1.0  0.75259  0.05252  0.39111  1.0000
  C   C1687     1.0  0.82282  0.01325  0.46833  1.0000
  C   C1688     1.0  0.96334  0.30950  0.00341  1.0000
  H   H1356     1.0  0.76722  0.01679  0.25149  1.0000
  H   H1357     1.0  0.75354  0.18327  0.02301  1.0000
  H   H1358     1.0  0.81155  0.01470  0.31963  1.0000
  C   C1689     1.0  0.77672  0.07641  0.38987  1.0000
  C   C1690     1.0  0.75148  0.02849  0.38464  1.0000
  C   C1691     1.0  0.88861  0.22907  0.97358  1.0000
  C   C1692     1.0  0.93615  0.29900  0.99947  1.0000
  C   C1693     1.0  0.77457  0.02825  0.37687  1.0000
  C   C1694     1.0  0.76374  0.04096  0.20029  1.0000
  H   H1359     1.0  0.97446  0.30398  0.98997  1.0000
  H   H1360     1.0  0.92307  0.23593  0.45923  1.0000
  C   C1695     1.0  0.75096  0.18986  0.04250  1.0000
  H   H1361     1.0  0.97812  0.27982  0.31329  1.0000
  C   C1696     1.0  0.98826  0.27432  0.32812  1.0000
  H   H1362     1.0  0.92455  0.39382  0.98355  1.0000
  H   H1363     1.0  0.94863  0.45883  0.46347  1.0000
  C   C1697     1.0  0.76808  0.01276  0.27265  1.0000
  C   C1698     1.0  0.77032  0.00223  0.32753  1.0000
  C   C1699     1.0  0.75546  0.12125  0.98048  1.0000
  H   H1364     1.0  0.76099  0.99953  0.99017  1.0000
  C   C1700     1.0  0.98656  0.24701  0.36592  1.0000
  H   H1365     1.0  0.97223  0.37439  0.15773  1.0000
  H   H1366     1.0  0.79415  0.04340  0.97095  1.0000
  H   H1367     1.0  0.74994  0.16038  0.23757  1.0000
  H   H1368     1.0  0.75520  0.45613  0.07988  1.0000
  C   C1701     1.0  0.99285  0.49705  0.24241  1.0000
  H   H1369     1.0  0.75928  0.00476  0.18318  1.0000
  H   H1370     1.0  0.74994  0.09273  0.27627  1.0000
  H   H1371     1.0  0.97082  0.25179  0.46598  1.0000
  C   C1702     1.0  0.74897  0.10293  0.22028  1.0000
  C   C1703     1.0  0.91163  0.22732  0.97141  1.0000
  C   C1704     1.0  0.74991  0.01366  0.19475  1.0000
  C   C1705     1.0  0.88890  0.49075  0.20292  1.0000
  H   H1372     1.0  0.79630  0.22931  0.46639  1.0000
  H   H1373     1.0  0.86505  0.49844  0.17454  1.0000
  S   S225      1.0  0.99627  0.49643  0.14947  1.0000
  C   C1706     1.0  0.74867  0.46806  0.06890  1.0000
  C   C1707     1.0  0.75014  0.49285  0.02898  1.0000
  C   C1708     1.0  0.74690  0.99948  0.31627  1.0000
  Fe  Fe115     1.0  0.75272  0.17503  0.66173  1.0000
  C   C1709     1.0  0.78959  0.04478  0.89657  1.0000
  S   S226      1.0  0.83268  0.17190  0.49197  1.0000
  Fe  Fe116     1.0  0.85396  0.14367  0.89338  1.0000
  S   S227      1.0  0.88244  0.12924  0.90490  1.0000
  S   S228      1.0  0.84725  0.14520  0.84724  1.0000
  Fe  Fe117     1.0  0.85256  0.10387  0.93685  1.0000
  H   H1374     1.0  0.86018  0.11326  0.59004  1.0000
  Fe  Fe118     1.0  0.90029  0.16207  0.93581  1.0000
  S   S229      1.0  0.94424  0.19539  0.93977  1.0000
  S   S230      1.0  0.82337  0.11678  0.92393  1.0000
  S   S231      1.0  0.87355  0.17794  0.92236  1.0000
  Fe  Fe119     1.0  0.79819  0.23399  0.66457  1.0000
  S   S232      1.0  0.82820  0.22277  0.67835  1.0000
  S   S233      1.0  0.80612  0.27708  0.66020  1.0000
  C   C1710     1.0  0.76990  0.02589  0.54795  1.0000
  S   S234      1.0  0.78050  0.16029  0.67520  1.0000
  Fe  Fe120     1.0  0.79664  0.19287  0.70632  1.0000
  S   S235      1.0  0.80254  0.18936  0.75222  1.0000
  Fe  Fe121     1.0  0.81001  0.19085  0.64642  1.0000
  S   S236      1.0  0.83667  0.18145  0.62027  1.0000
  S   S237      1.0  0.76725  0.20609  0.69444  1.0000
  S   S238      1.0  0.78167  0.20359  0.63107  1.0000
  H   H1375     1.0  0.83855  0.00813  0.94070  1.0000
  Fe  Fe122     1.0  0.90886  0.43159  0.60766  1.0000
  S   S239      1.0  0.95108  0.45794  0.59407  1.0000
  S   S240      1.0  0.90053  0.38880  0.61615  1.0000
  H   H1376     1.0  0.79459  0.12831  0.56765  1.0000
  H   H1377     1.0  0.88423  0.11110  0.54979  1.0000
  Fe  Fe123     1.0  0.93648  0.47588  0.56278  1.0000
  C   C1711     1.0  0.82285  0.08713  0.52234  1.0000
  S   S241      1.0  0.91100  0.46107  0.63849  1.0000
  S   S242      1.0  0.89377  0.44772  0.57478  1.0000
  H   H1378     1.0  0.89023  0.20565  0.49273  1.0000
  C   C1712     1.0  0.99278  0.15473  0.90348  1.0000
  H   H1379     1.0  0.75895  0.26299  0.61500  1.0000
  C   C1713     1.0  0.79671  0.02628  0.96839  1.0000
  H   H1380     1.0  0.84414  0.34873  0.49230  1.0000
  C   C1714     1.0  0.83208  0.25800  0.52335  1.0000
  H   H1381     1.0  0.96621  0.36482  0.68859  1.0000
  C   C1715     1.0  0.97308  0.43034  0.49989  1.0000
  C   C1716     1.0  0.85301  0.25290  0.51901  1.0000
  C   C1717     1.0  0.97552  0.16468  0.89940  1.0000
  C   C1718     1.0  0.78321  0.01373  0.85126  1.0000
  C   C1719     1.0  0.83296  0.30812  0.64855  1.0000
  C   C1720     1.0  0.82923  0.33032  0.64632  1.0000
  C   C1721     1.0  0.84971  0.35525  0.63701  1.0000
  C   C1722     1.0  0.87439  0.35843  0.62988  1.0000
  C   C1723     1.0  0.87830  0.33636  0.63258  1.0000
  C   C1724     1.0  0.85772  0.31137  0.64165  1.0000
  H   H1382     1.0  0.81022  0.32815  0.65162  1.0000
  H   H1383     1.0  0.84625  0.37188  0.63504  1.0000
  H   H1384     1.0  0.89728  0.33852  0.62728  1.0000
  H   H1385     1.0  0.86099  0.29463  0.64337  1.0000
  C   C1725     1.0  0.78158  0.22926  0.56229  1.0000
  H   H1386     1.0  0.81246  0.09786  0.58753  1.0000
  H   H1387     1.0  0.87618  0.43331  0.73937  1.0000
  C   C1726     1.0  0.76495  0.25375  0.59971  1.0000
  C   C1727     1.0  0.96963  0.49318  0.48892  1.0000
  H   H1388     1.0  0.83342  0.30284  0.50220  1.0000
  C   C1728     1.0  0.77647  0.11473  0.57798  1.0000
  C   C1729     1.0  0.83412  0.15735  0.82130  1.0000
  C   C1730     1.0  0.83663  0.15203  0.79407  1.0000
  C   C1731     1.0  0.82731  0.16166  0.77279  1.0000
  C   C1732     1.0  0.81507  0.17674  0.77827  1.0000
  C   C1733     1.0  0.81262  0.18212  0.80548  1.0000
  C   C1734     1.0  0.82206  0.17262  0.82676  1.0000
  H   H1389     1.0  0.84595  0.14038  0.78939  1.0000
  H   H1390     1.0  0.82943  0.15721  0.75214  1.0000
  H   H1391     1.0  0.80316  0.19364  0.81018  1.0000
  H   H1392     1.0  0.82000  0.17711  0.84741  1.0000
  C   C1735     1.0  0.83392  0.17396  0.52765  1.0000
  C   C1736     1.0  0.84850  0.16555  0.54317  1.0000
  C   C1737     1.0  0.84937  0.16825  0.57143  1.0000
  C   C1738     1.0  0.83526  0.17884  0.58455  1.0000
  C   C1739     1.0  0.82020  0.18669  0.56901  1.0000
  C   C1740     1.0  0.81970  0.18442  0.54075  1.0000
  H   H1393     1.0  0.85891  0.15678  0.53342  1.0000
  H   H1394     1.0  0.86062  0.16157  0.58319  1.0000
  H   H1395     1.0  0.80879  0.19434  0.57874  1.0000
  H   H1396     1.0  0.80813  0.19071  0.52892  1.0000
  C   C1741     1.0  0.83260  0.43249  0.69449  1.0000
  C   C1742     1.0  0.95664  0.23939  0.48115  1.0000
  C   C1743     1.0  0.81223  0.23613  0.48099  1.0000
  C   C1744     1.0  0.94804  0.33765  0.79261  1.0000
  Fe  Fe124     1.0  0.95223  0.48797  0.62323  1.0000
  C   C1745     1.0  0.83824  0.31656  0.51871  1.0000
  C   C1746     1.0  0.82267  0.09740  0.56954  1.0000
  S   S243      1.0  0.86424  0.48759  0.61131  1.0000
  C   C1747     1.0  0.99071  0.44483  0.68049  1.0000
  C   C1748     1.0  0.84979  0.09512  0.52417  1.0000
  H   H1397     1.0  0.77707  0.47609  0.56269  1.0000
  H   H1398     1.0  0.79280  0.05666  0.91445  1.0000
  C   C1749     1.0  0.84973  0.46468  0.73069  1.0000
  H   H1399     1.0  0.99513  0.24313  0.94066  1.0000
  C   C1750     1.0  0.85154  0.35346  0.56025  1.0000
  C   C1751     1.0  0.96706  0.48024  0.95983  1.0000
  C   C1752     1.0  0.85518  0.27628  0.57719  1.0000
  C   C1753     1.0  0.88141  0.29755  0.57649  1.0000
  C   C1754     1.0  0.90048  0.29790  0.59400  1.0000
  C   C1755     1.0  0.89358  0.27693  0.61212  1.0000
  C   C1756     1.0  0.86760  0.25561  0.61275  1.0000
  C   C1757     1.0  0.84845  0.25531  0.59543  1.0000
  H   H1400     1.0  0.81802  0.49169  0.62308  1.0000
  C   C1758     1.0  0.84535  0.32734  0.56609  1.0000
  H   H1401     1.0  0.86879  0.25872  0.53357  1.0000
  H   H1402     1.0  0.88718  0.31381  0.56237  1.0000
  H   H1403     1.0  0.92058  0.31451  0.59353  1.0000
  H   H1404     1.0  0.90830  0.27716  0.62570  1.0000
  H   H1405     1.0  0.86219  0.23922  0.62664  1.0000
  H   H1406     1.0  0.82848  0.23861  0.59622  1.0000
  H   H1407     1.0  0.85677  0.36778  0.57638  1.0000
  H   H1408     1.0  0.84607  0.32185  0.58676  1.0000
  C   C1759     1.0  0.88848  0.24374  0.84710  1.0000
  C   C1760     1.0  0.89027  0.22076  0.84358  1.0000
  C   C1761     1.0  0.89062  0.21175  0.81766  1.0000
  C   C1762     1.0  0.88858  0.22527  0.79521  1.0000
  C   C1763     1.0  0.88694  0.24849  0.79852  1.0000
  C   C1764     1.0  0.88696  0.25765  0.82468  1.0000
  P   P57       1.0  0.88450  0.26647  0.76977  1.0000
  C   C1765     1.0  0.85088  0.25981  0.76521  1.0000
  C   C1766     1.0  0.90617  0.30161  0.77588  1.0000
  H   H1409     1.0  0.81995  0.42339  0.73575  1.0000
  C   C1767     1.0  0.93084  0.40296  0.52202  1.0000
  H   H1410     1.0  0.86006  0.09360  0.50667  1.0000
  H   H1411     1.0  0.93125  0.23025  0.57062  1.0000
  C   C1768     1.0  0.80907  0.08830  0.54500  1.0000
  C   C1769     1.0  0.83279  0.25082  0.78666  1.0000
  C   C1770     1.0  0.80706  0.24643  0.78288  1.0000
  C   C1771     1.0  0.79927  0.25110  0.75774  1.0000
  C   C1772     1.0  0.81720  0.26021  0.73635  1.0000
  C   C1773     1.0  0.84283  0.26437  0.74000  1.0000
  C   C1774     1.0  0.89443  0.25637  0.73959  1.0000
  C   C1775     1.0  0.87672  0.23207  0.72736  1.0000
  C   C1776     1.0  0.88405  0.22375  0.70417  1.0000
  C   C1777     1.0  0.90912  0.23965  0.69292  1.0000
  C   C1778     1.0  0.92694  0.26385  0.70498  1.0000
  C   C1779     1.0  0.91966  0.27224  0.72822  1.0000
  H   H1412     1.0  0.88789  0.25049  0.86724  1.0000
  H   H1413     1.0  0.89079  0.20951  0.86087  1.0000
  C   C1780     1.0  0.97717  0.41172  0.73679  1.0000
  H   H1414     1.0  0.88795  0.21719  0.77550  1.0000
  H   H1415     1.0  0.88538  0.27531  0.82775  1.0000
  H   H1416     1.0  0.87832  0.31379  0.76215  1.0000
  C   C1781     1.0  0.86548  0.47837  0.68511  1.0000
  H   H1417     1.0  0.78171  0.00194  0.83381  1.0000
  C   C1782     1.0  0.93944  0.35587  0.78732  1.0000
  C   C1783     1.0  0.96402  0.48860  0.72808  1.0000
  H   H1418     1.0  0.83810  0.24645  0.80611  1.0000
  H   H1419     1.0  0.79290  0.23862  0.79922  1.0000
  H   H1420     1.0  0.77915  0.24707  0.75463  1.0000
  H   H1421     1.0  0.81101  0.26348  0.71677  1.0000
  H   H1422     1.0  0.85623  0.27089  0.72305  1.0000
  H   H1423     1.0  0.85722  0.21940  0.73591  1.0000
  H   H1424     1.0  0.87015  0.20491  0.69495  1.0000
  H   H1425     1.0  0.91473  0.23308  0.67498  1.0000
  H   H1426     1.0  0.94650  0.27604  0.69643  1.0000
  H   H1427     1.0  0.93375  0.29103  0.73715  1.0000
  C   C1784     1.0  0.97472  0.20307  0.95635  1.0000
  C   C1785     1.0  0.77215  0.01732  0.89744  1.0000
  C   C1786     1.0  0.96394  0.49073  0.69980  1.0000
  C   C1787     1.0  0.96516  0.23102  0.50362  1.0000
  C   C1788     1.0  0.94673  0.21397  0.52275  1.0000
  C   C1789     1.0  0.83292  0.43869  0.72170  1.0000
  P   P58       1.0  0.95706  0.20108  0.55065  1.0000
  C   C1790     1.0  0.95383  0.16953  0.54091  1.0000
  C   C1791     1.0  0.83298  0.23092  0.47699  1.0000
  H   H1428     1.0  0.89111  0.29258  0.68436  1.0000
  H   H1429     1.0  0.94718  0.10190  0.51940  1.0000
  H   H1430     1.0  0.97667  0.48266  0.91728  1.0000
  H   H1431     1.0  0.98493  0.13416  0.90952  1.0000
  C   C1792     1.0  0.93218  0.12896  0.51436  1.0000
  C   C1793     1.0  0.93464  0.15332  0.52195  1.0000
  C   C1794     1.0  0.93590  0.19607  0.57929  1.0000
  C   C1795     1.0  0.92604  0.21348  0.58392  1.0000
  C   C1796     1.0  0.90876  0.20895  0.60537  1.0000
  C   C1797     1.0  0.90157  0.18731  0.62264  1.0000
  C   C1798     1.0  0.91168  0.17020  0.61850  1.0000
  C   C1799     1.0  0.92878  0.17452  0.59692  1.0000
  P   P59       1.0  0.77381  0.07595  0.54281  1.0000
  H   H1432     1.0  0.88577  0.43035  0.69128  1.0000
  C   C1800     1.0  0.89647  0.42648  0.70691  1.0000
  C   C1801     1.0  0.93145  0.31061  0.78702  1.0000
  H   H1433     1.0  0.81279  0.07962  0.50330  1.0000
  Fe  Fe125     1.0  0.89880  0.47935  0.60492  1.0000
  C   C1802     1.0  0.75641  0.21497  0.57394  1.0000
  H   H1434     1.0  0.79546  0.25340  0.50699  1.0000
  C   C1803     1.0  0.84446  0.34273  0.51292  1.0000
  H   H1435     1.0  0.89141  0.19356  0.81508  1.0000
  H   H1436     1.0  0.92181  0.15954  0.51262  1.0000
  C   C1804     1.0  0.80369  0.05680  0.87307  1.0000
  H   H1437     1.0  0.90019  0.22166  0.60816  1.0000
  H   H1438     1.0  0.88759  0.18344  0.63881  1.0000
  H   H1439     1.0  0.90592  0.15333  0.63183  1.0000
  H   H1440     1.0  0.93619  0.16089  0.59394  1.0000
  C   C1805     1.0  0.90464  0.42288  0.75412  1.0000
  H   H1441     1.0  0.84813  0.44774  0.65499  1.0000
  H   H1442     1.0  0.78791  0.21896  0.54873  1.0000
  C   C1806     1.0  0.91556  0.41960  0.69992  1.0000
  C   C1807     1.0  0.92950  0.41450  0.72005  1.0000
  C   C1808     1.0  0.92363  0.41585  0.74721  1.0000
  P   P60       1.0  0.95193  0.40272  0.71102  1.0000
  C   C1809     1.0  0.96834  0.41919  0.68012  1.0000
  C   C1810     1.0  0.89775  0.32009  0.77050  1.0000
  H   H1443     1.0  0.98198  0.24180  0.59325  1.0000
  H   H1444     1.0  0.94541  0.48137  0.68889  1.0000
  H   H1445     1.0  0.77675  0.12636  0.52530  1.0000
  H   H1446     1.0  0.93976  0.31722  0.67682  1.0000
  C   C1811     1.0  0.74807  0.22722  0.59262  1.0000
  C   C1812     1.0  0.91965  0.20506  0.51869  1.0000
  H   H1447     1.0  0.75982  0.05185  0.48908  1.0000
  H   H1448     1.0  0.93824  0.29665  0.79156  1.0000
  C   C1813     1.0  0.97060  0.41946  0.63128  1.0000
  C   C1814     1.0  0.95818  0.40679  0.65525  1.0000
  C   C1815     1.0  0.93294  0.36722  0.70477  1.0000
  C   C1816     1.0  0.90533  0.35311  0.70875  1.0000
  C   C1817     1.0  0.89041  0.32630  0.70149  1.0000
  C   C1818     1.0  0.90284  0.31326  0.69033  1.0000
  C   C1819     1.0  0.93023  0.32714  0.68611  1.0000
  C   C1820     1.0  0.94519  0.35405  0.69309  1.0000
  H   H1449     1.0  0.90051  0.42428  0.77511  1.0000
  C   C1821     1.0  0.84882  0.45234  0.67623  1.0000
  H   H1450     1.0  0.86901  0.31585  0.70376  1.0000
  H   H1451     1.0  0.91914  0.41797  0.67879  1.0000
  H   H1452     1.0  0.93368  0.41151  0.76312  1.0000
  H   H1453     1.0  0.90495  0.19114  0.53257  1.0000
  C   C1822     1.0  0.98556  0.19122  0.89179  1.0000
  C   C1823     1.0  0.79839  0.25627  0.56864  1.0000
  C   C1824     1.0  0.89101  0.42810  0.73398  1.0000
  C   C1825     1.0  0.91120  0.21326  0.49609  1.0000
  H   H1454     1.0  0.75275  0.00486  0.47318  1.0000
  H   H1455     1.0  0.96209  0.40993  0.61227  1.0000
  H   H1456     1.0  0.94018  0.38765  0.65413  1.0000
  H   H1457     1.0  0.89501  0.36277  0.71675  1.0000
  H   H1458     1.0  0.98087  0.42892  0.56774  1.0000
  H   H1459     1.0  0.80270  0.28853  0.59414  1.0000
  C   C1826     1.0  0.98758  0.43643  0.74978  1.0000
  C   C1827     1.0  0.77087  0.11294  0.50843  1.0000
  P   P61       1.0  0.83093  0.27492  0.55342  1.0000
  H   H1460     1.0  0.95437  0.15199  0.90253  1.0000
  C   C1828     1.0  0.84976  0.10590  0.57115  1.0000
  S   S244      1.0  0.84380  0.06030  0.94052  1.0000
  H   H1461     1.0  0.81948  0.41242  0.68743  1.0000
  C   C1829     1.0  0.81179  0.24969  0.50403  1.0000
  H   H1462     1.0  0.76217  0.00852  0.91620  1.0000
  H   H1463     1.0  0.97211  0.19892  0.88901  1.0000
  H   H1464     1.0  0.90576  0.48368  0.74493  1.0000
  C   C1830     1.0  0.98615  0.43584  0.52484  1.0000
  C   C1831     1.0  0.86638  0.48463  0.71250  1.0000
  H   H1465     1.0  0.86909  0.23477  0.49298  1.0000
  C   C1832     1.0  0.85105  0.36115  0.53370  1.0000
  C   C1833     1.0  0.78995  0.26824  0.58778  1.0000
  C   C1834     1.0  0.83848  0.30857  0.54544  1.0000
  H   H1466     1.0  0.98383  0.43920  0.48151  1.0000
  H   H1467     1.0  0.81187  0.05064  0.83241  1.0000
  H   H1468     1.0  0.85586  0.38143  0.52928  1.0000
  C   C1835     1.0  0.94553  0.41394  0.49854  1.0000
  C   C1836     1.0  0.98750  0.39500  0.74331  1.0000
  H   H1469     1.0  0.90947  0.39078  0.52101  1.0000
  C   C1837     1.0  0.76851  0.00158  0.87465  1.0000
  H   H1470     1.0  0.84948  0.46933  0.75174  1.0000
  C   C1838     1.0  0.86332  0.10476  0.54848  1.0000
  C   C1839     1.0  0.94883  0.12057  0.52566  1.0000
  C   C1840     1.0  0.96779  0.13642  0.54477  1.0000
  C   C1841     1.0  0.80052  0.04127  0.85043  1.0000
  C   C1842     1.0  0.98425  0.48997  0.93720  1.0000
  H   H1471     1.0  0.96746  0.34447  0.80136  1.0000
  H   H1472     1.0  0.75385  0.48741  0.59757  1.0000
  H   H1473     1.0  0.90757  0.36114  0.77226  1.0000
  C   C1843     1.0  0.91433  0.34708  0.77623  1.0000
  C   C1844     1.0  0.97021  0.16074  0.55249  1.0000
  H   H1474     1.0  0.91966  0.22738  0.95173  1.0000
  C   C1845     1.0  0.78431  0.49672  0.56795  1.0000
  S   S245      1.0  0.94829  0.47716  0.51757  1.0000
  C   C1846     1.0  0.94369  0.40825  0.54689  1.0000
  C   C1847     1.0  0.97122  0.42464  0.54830  1.0000
  C   C1848     1.0  0.76142  0.07126  0.48803  1.0000
  H   H1475     1.0  0.79063  0.03620  0.55357  1.0000
  H   H1476     1.0  0.87858  0.23019  0.95562  1.0000
  H   H1477     1.0  0.95218  0.37679  0.79196  1.0000
  H   H1478     1.0  0.93548  0.41036  0.47934  1.0000
  H   H1479     1.0  0.87712  0.49356  0.67038  1.0000
  H   H1480     1.0  0.93219  0.40013  0.56513  1.0000
  C   C1849     1.0  0.75649  0.03993  0.54229  1.0000
  Fe  Fe126     1.0  0.84516  0.15033  0.95381  1.0000
  H   H1481     1.0  0.91766  0.11685  0.49927  1.0000
  C   C1850     1.0  0.92968  0.23039  0.47729  1.0000
  H   H1482     1.0  0.94547  0.47746  0.73865  1.0000
  H   H1483     1.0  0.93156  0.48594  0.78539  1.0000
  C   C1851     1.0  0.77231  0.00709  0.47176  1.0000
  H   H1484     1.0  0.81747  0.07809  0.87261  1.0000
  C   C1852     1.0  0.81888  0.02910  0.95446  1.0000
  C   C1853     1.0  0.76218  0.08784  0.57046  1.0000
  H   H1485     1.0  0.97993  0.37580  0.73398  1.0000
  C   C1854     1.0  0.76754  0.08729  0.51105  1.0000
  H   H1486     1.0  0.94643  0.46556  0.95683  1.0000
  H   H1487     1.0  0.98600  0.23731  0.50542  1.0000
  H   H1488     1.0  0.98504  0.17274  0.56731  1.0000
  C   C1855     1.0  0.99305  0.44478  0.63184  1.0000
  C   C1856     1.0  0.76764  0.12429  0.59904  1.0000
  H   H1489     1.0  0.98017  0.44980  0.74508  1.0000
  C   C1857     1.0  0.99120  0.22432  0.55940  1.0000
  H   H1490     1.0  0.77886  0.14507  0.60478  1.0000
  H   H1491     1.0  0.76461  0.11875  0.96257  1.0000
  H   H1492     1.0  0.77098  0.14222  0.48148  1.0000
  C   C1858     1.0  0.76752  0.12208  0.48342  1.0000
  C   C1859     1.0  0.85340  0.23943  0.49590  1.0000
  S   S246      1.0  0.98677  0.49703  0.77842  1.0000
  H   H1493     1.0  0.98087  0.13002  0.55335  1.0000
  C   C1860     1.0  0.82159  0.00635  0.95144  1.0000
  S   S247      1.0  0.88065  0.14162  0.47050  1.0000
  S   S248      1.0  0.87255  0.13600  0.96855  1.0000
  S   S249      1.0  0.78314  0.83931  0.99626  1.0000
  P   P62       1.0  0.90154  0.52228  0.22016  1.0000
  H   H1494     1.0  0.90364  0.57289  0.20521  1.0000
  S   S250      1.0  0.78070  0.63119  0.17923  1.0000
  Fe  Fe127     1.0  0.80479  0.58104  0.15951  1.0000
  S   S251      1.0  0.83313  0.62373  0.17055  1.0000
  S   S252      1.0  0.81210  0.54678  0.14712  1.0000
  Fe  Fe128     1.0  0.80529  0.61919  0.20473  1.0000
  S   S253      1.0  0.81726  0.62877  0.24986  1.0000
  Fe  Fe129     1.0  0.80671  0.63300  0.14440  1.0000
  S   S254      1.0  0.82530  0.66858  0.11538  1.0000
  S   S255      1.0  0.77866  0.57553  0.19526  1.0000
  S   S256      1.0  0.77976  0.59062  0.13176  1.0000
  Fe  Fe130     1.0  0.85147  0.72533  0.39001  1.0000
  S   S257      1.0  0.86537  0.76790  0.40279  1.0000
  S   S258      1.0  0.84398  0.71537  0.34436  1.0000
  H   H1495     1.0  0.80171  0.87912  0.42566  1.0000
  C   C1861     1.0  0.88139  0.65239  0.11922  1.0000
  S   S259      1.0  0.82140  0.66766  0.98670  1.0000
  Fe  Fe131     1.0  0.83285  0.75133  0.43392  1.0000
  S   S260      1.0  0.79898  0.76066  0.44074  1.0000
  Fe  Fe132     1.0  0.89097  0.76240  0.43403  1.0000
  S   S261      1.0  0.93323  0.79688  0.44332  1.0000
  S   S262      1.0  0.81772  0.70923  0.41959  1.0000
  S   S263      1.0  0.87934  0.72122  0.41911  1.0000
  H   H1496     1.0  0.88368  0.77885  0.06915  1.0000
  S   S264      1.0  0.90958  0.53157  0.10932  1.0000
  C   C1862     1.0  0.76980  0.91864  0.39598  1.0000
  C   C1863     1.0  0.83979  0.54304  0.13765  1.0000
  C   C1864     1.0  0.83541  0.51749  0.13108  1.0000
  H   H1497     1.0  0.75913  0.74320  0.99869  1.0000
  C   C1865     1.0  0.88235  0.53498  0.12125  1.0000
  C   C1866     1.0  0.88678  0.56050  0.12806  1.0000
  C   C1867     1.0  0.86572  0.56452  0.13619  1.0000
  C   C1868     1.0  0.78322  0.56844  0.03931  1.0000
  C   C1869     1.0  0.84643  0.84460  0.38582  1.0000
  H   H1498     1.0  0.90666  0.57733  0.12681  1.0000
  H   H1499     1.0  0.86948  0.58424  0.14123  1.0000
  C   C1870     1.0  0.83635  0.69077  0.31853  1.0000
  C   C1871     1.0  0.83548  0.66647  0.32339  1.0000
  C   C1872     1.0  0.82974  0.64802  0.30221  1.0000
  C   C1873     1.0  0.82464  0.65330  0.27573  1.0000
  C   C1874     1.0  0.82526  0.67749  0.27094  1.0000
  C   C1875     1.0  0.83108  0.69598  0.29211  1.0000
  H   H1500     1.0  0.83952  0.66199  0.34340  1.0000
  H   H1501     1.0  0.82931  0.62946  0.30636  1.0000
  H   H1502     1.0  0.82134  0.68202  0.25089  1.0000
  H   H1503     1.0  0.83163  0.71459  0.28789  1.0000
  C   C1876     1.0  0.82388  0.66793  0.07959  1.0000
  C   C1877     1.0  0.80820  0.64442  0.06533  1.0000
  C   C1878     1.0  0.80728  0.64489  0.03698  1.0000
  C   C1879     1.0  0.82231  0.66871  0.02248  1.0000
  C   C1880     1.0  0.83809  0.69221  0.03669  1.0000
  C   C1881     1.0  0.83874  0.69182  0.06509  1.0000
  H   H1504     1.0  0.79682  0.62590  0.07615  1.0000
  H   H1505     1.0  0.79502  0.62661  0.02620  1.0000
  H   H1506     1.0  0.84988  0.71061  0.02583  1.0000
  H   H1507     1.0  0.85093  0.71013  0.07590  1.0000
  H   H1508     1.0  0.79299  0.76405  0.37585  1.0000
  H   H1509     1.0  0.86571  0.56678  0.07526  1.0000
  C   C1882     1.0  0.81815  0.81232  0.46056  1.0000
  H   H1510     1.0  0.79179  0.77682  0.03395  1.0000
  C   C1883     1.0  0.88357  0.59048  0.03944  1.0000
  H   H1511     1.0  0.88456  0.51339  0.31852  1.0000
  H   H1512     1.0  0.87292  0.66344  0.12836  1.0000
  H   H1513     1.0  0.86459  0.84375  0.38754  1.0000
  C   C1884     1.0  0.77237  0.69201  0.00181  1.0000
  H   H1514     1.0  0.88494  0.81112  0.98543  1.0000
  C   C1885     1.0  0.79612  0.78815  0.45296  1.0000
  H   H1515     1.0  0.95565  0.51469  0.29302  1.0000
  H   H1516     1.0  0.75714  0.61359  0.33754  1.0000
  H   H1517     1.0  0.95155  0.75973  0.46117  1.0000
  C   C1886     1.0  0.78991  0.81812  0.97560  1.0000
  C   C1887     1.0  0.76190  0.72689  0.99245  1.0000
  C   C1888     1.0  0.96794  0.77986  0.46278  1.0000
  P   P63       1.0  0.77241  0.99843  0.36337  1.0000
  C   C1889     1.0  0.89776  0.51463  0.30253  1.0000
  C   C1890     1.0  0.93787  0.51549  0.28817  1.0000
  C   C1891     1.0  0.89177  0.51716  0.27576  1.0000
  H   H1518     1.0  0.90122  0.60771  0.00079  1.0000
  C   C1892     1.0  0.95649  0.56680  0.16307  1.0000
  C   C1893     1.0  0.91197  0.75424  0.01722  1.0000
  C   C1894     1.0  0.92237  0.75305  0.04222  1.0000
  C   C1895     1.0  0.93860  0.77653  0.05627  1.0000
  C   C1896     1.0  0.94391  0.80112  0.04560  1.0000
  C   C1897     1.0  0.93285  0.80238  0.02083  1.0000
  C   C1898     1.0  0.91758  0.77882  0.00637  1.0000
  H   H1519     1.0  0.79118  0.69441  0.08580  1.0000
  C   C1899     1.0  0.92066  0.84655  0.02716  1.0000
  H   H1520     1.0  0.98787  0.60593  0.21705  1.0000
  C   C1900     1.0  0.78083  0.97862  0.97668  1.0000
  H   H1521     1.0  0.77807  0.68120  0.01565  1.0000
  C   C1901     1.0  0.80525  0.97651  0.35859  1.0000
  H   H1522     1.0  0.83878  0.60172  0.00125  1.0000
  C   C1902     1.0  0.80846  0.81084  0.98466  1.0000
  P   P64       1.0  0.93848  0.83405  0.00777  1.0000
  C   C1903     1.0  0.89082  0.64435  0.02661  1.0000
  C   C1904     1.0  0.91323  0.83857  0.05397  1.0000
  C   C1905     1.0  0.89789  0.87222  0.02908  1.0000
  C   C1906     1.0  0.91315  0.86379  0.01498  1.0000
  C   C1907     1.0  0.75948  0.84762  0.34486  1.0000
  H   H1523     1.0  0.83114  0.58711  0.08700  1.0000
  H   H1524     1.0  0.99360  0.58533  0.30009  1.0000
  C   C1908     1.0  0.92077  0.51374  0.30873  1.0000
  C   C1909     1.0  0.85395  0.76210  0.03814  1.0000
  C   C1910     1.0  0.83860  0.59747  0.04459  1.0000
  H   H1525     1.0  0.89993  0.73616  0.00594  1.0000
  H   H1526     1.0  0.91820  0.73397  0.05046  1.0000
  H   H1527     1.0  0.95674  0.81917  0.05659  1.0000
  H   H1528     1.0  0.83779  0.81472  0.45934  1.0000
  H   H1529     1.0  0.91888  0.82566  0.06412  1.0000
  C   C1911     1.0  0.87684  0.65584  0.01500  1.0000
  C   C1912     1.0  0.91142  0.63482  0.12111  1.0000
  C   C1913     1.0  0.97457  0.78801  0.38927  1.0000
  C   C1914     1.0  0.82647  0.97287  0.36597  1.0000
  C   C1915     1.0  0.90342  0.62420  0.09529  1.0000
  C   C1916     1.0  0.75216  0.65124  0.27500  1.0000
  H   H1530     1.0  0.82934  0.78935  0.97628  1.0000
  C   C1917     1.0  0.84988  0.51362  0.22313  1.0000
  H   H1531     1.0  0.76318  0.62658  0.25226  1.0000
  H   H1532     1.0  0.78271  0.56193  0.08212  1.0000
  H   H1533     1.0  0.78280  0.85549  0.28054  1.0000
  C   C1918     1.0  0.99180  0.84810  0.00553  1.0000
  C   C1919     1.0  0.91726  0.69042  0.99467  1.0000
  H   H1534     1.0  0.75293  0.73324  0.40161  1.0000
  H   H1535     1.0  0.92614  0.63209  0.13183  1.0000
  C   C1920     1.0  0.87638  0.56871  0.05677  1.0000
  C   C1921     1.0  0.88298  0.54924  0.05039  1.0000
  C   C1922     1.0  0.89668  0.55123  0.02667  1.0000
  C   C1923     1.0  0.90327  0.57243  0.00895  1.0000
  C   C1924     1.0  0.89650  0.59186  0.01513  1.0000
  H   H1536     1.0  0.91249  0.61373  0.08623  1.0000
  C   C1925     1.0  0.79492  0.57112  0.06455  1.0000
  C   C1926     1.0  0.82251  0.58557  0.06725  1.0000
  H   H1537     1.0  0.96976  0.89246  0.01209  1.0000
  H   H1538     1.0  0.85942  0.98454  0.39314  1.0000
  C   C1927     1.0  0.76020  0.74284  0.05463  1.0000
  H   H1539     1.0  0.93834  0.75416  0.37569  1.0000
  C   C1928     1.0  0.84424  0.76116  0.08555  1.0000
  P   P65       1.0  0.87426  0.61505  0.04770  1.0000
  C   C1929     1.0  0.90882  0.51881  0.25492  1.0000
  H   H1540     1.0  0.85585  0.64748  0.01847  1.0000
  H   H1541     1.0  0.75354  0.76710  0.44889  1.0000
  H   H1542     1.0  0.78052  0.80645  0.39791  1.0000
  H   H1543     1.0  0.74880  0.51953  0.11526  1.0000
  C   C1930     1.0  0.88386  0.62712  0.08156  1.0000
  H   H1544     1.0  0.86883  0.58500  0.20003  1.0000
  H   H1545     1.0  0.94723  0.77568  0.07536  1.0000
  C   C1931     1.0  0.97369  0.85733  0.00825  1.0000
  C   C1932     1.0  0.75577  0.62436  0.32034  1.0000
  C   C1933     1.0  0.97565  0.58837  0.17776  1.0000
  C   C1934     1.0  0.77378  0.76941  0.04565  1.0000
  H   H1546     1.0  0.92979  0.64902  0.03285  1.0000
  C   C1935     1.0  0.93204  0.51813  0.26139  1.0000
  C   C1936     1.0  0.89802  0.84711  0.06805  1.0000
  C   C1937     1.0  0.79928  0.84671  0.38190  1.0000
  H   H1547     1.0  0.86812  0.76807  0.02191  1.0000
  H   H1548     1.0  0.82068  0.74277  0.01165  1.0000
  H   H1549     1.0  0.99222  0.76937  0.00470  1.0000
  H   H1550     1.0  0.85868  0.64482  0.08296  1.0000
  C   C1938     1.0  0.79316  0.89027  0.41675  1.0000
  C   C1939     1.0  0.77648  0.88042  0.39416  1.0000
  C   C1940     1.0  0.99187  0.78106  0.98782  1.0000
  C   C1941     1.0  0.78184  0.63325  0.42671  1.0000
  H   H1551     1.0  0.83001  0.95869  0.35524  1.0000
  H   H1552     1.0  0.98493  0.82706  0.00332  1.0000
  H   H1553     1.0  0.89173  0.88508  0.01936  1.0000
  H   H1554     1.0  0.76772  0.65176  0.10956  1.0000
  H   H1555     1.0  0.82194  0.80479  0.40070  1.0000
  H   H1556     1.0  0.81097  0.92148  0.44624  1.0000
  H   H1557     1.0  0.94976  0.75579  0.98080  1.0000
  H   H1558     1.0  0.89209  0.84065  0.08863  1.0000
  H   H1559     1.0  0.79007  0.57725  0.99694  1.0000
  H   H1560     1.0  0.78591  0.55087  0.46651  1.0000
  H   H1561     1.0  0.98365  0.84399  0.45226  1.0000
  C   C1942     1.0  0.79261  0.73317  0.35159  1.0000
  H   H1562     1.0  0.91987  0.52977  0.16441  1.0000
  C   C1943     1.0  0.77980  0.70588  0.34627  1.0000
  H   H1563     1.0  0.91873  0.87045  0.99440  1.0000
  C   C1944     1.0  0.97295  0.58931  0.20561  1.0000
  C   C1945     1.0  0.79878  0.82357  0.39135  1.0000
  H   H1564     1.0  0.81796  0.81796  0.00398  1.0000
  C   C1946     1.0  0.80819  0.73957  0.05333  1.0000
  C   C1947     1.0  0.84297  0.98731  0.38738  1.0000
  C   C1948     1.0  0.76809  0.71244  0.01107  1.0000
  H   H1565     1.0  0.75774  0.50004  0.00896  1.0000
  H   H1566     1.0  0.90207  0.53625  0.02204  1.0000
  Fe  Fe133     1.0  0.75266  0.85400  0.99702  1.0000
  C   C1949     1.0  0.82685  0.74762  0.03241  1.0000
  H   H1567     1.0  0.79159  0.62980  0.44359  1.0000
  S   S265      1.0  0.96154  0.51192  0.08874  1.0000
  C   C1950     1.0  0.77017  0.68592  0.97444  1.0000
  H   H1568     1.0  0.79047  0.94692  0.42761  1.0000
  C   C1951     1.0  0.84716  0.86781  0.37671  1.0000
  C   C1952     1.0  0.85645  0.51347  0.12289  1.0000
  H   H1569     1.0  0.92733  0.70789  0.98193  1.0000
  H   H1570     1.0  0.82464  0.88713  0.36793  1.0000
  H   H1571     1.0  0.91358  0.57373  0.99038  1.0000
  C   C1953     1.0  0.88995  0.67857  0.99883  1.0000
  H   H1572     1.0  0.78856  0.69857  0.33183  1.0000
  C   C1954     1.0  0.83720  0.54651  0.21195  1.0000
  H   H1573     1.0  0.80965  0.50619  0.22351  1.0000
  H   H1574     1.0  0.76186  0.55773  0.03734  1.0000
  C   C1955     1.0  0.86370  0.56521  0.20689  1.0000
  C   C1956     1.0  0.93144  0.54723  0.20397  1.0000
  C   C1957     1.0  0.95078  0.56897  0.21867  1.0000
  P   P66       1.0  0.77308  0.72101  0.04631  1.0000
  H   H1575     1.0  0.95850  0.56592  0.14145  1.0000
  H   H1576     1.0  0.81571  0.64727  0.40053  1.0000
  C   C1958     1.0  0.93458  0.54622  0.17615  1.0000
  H   H1577     1.0  0.86595  0.88502  0.37132  1.0000
  C   C1959     1.0  0.79537  0.64295  0.40240  1.0000
  C   C1960     1.0  0.83029  0.52074  0.22008  1.0000
  H   H1578     1.0  0.81085  0.59698  0.44843  1.0000
  C   C1961     1.0  0.87661  0.53227  0.21801  1.0000
  H   H1579     1.0  0.87763  0.53261  0.06393  1.0000
  C   C1962     1.0  0.98609  0.82724  0.45778  1.0000
  H   H1580     1.0  0.81549  0.50066  0.13207  1.0000
  C   C1963     1.0  0.88337  0.55817  0.20985  1.0000
  H   H1581     1.0  0.94858  0.57047  0.24012  1.0000
  H   H1582     1.0  0.74740  0.59788  0.07957  1.0000
  C   C1964     1.0  0.82672  0.59365  0.01912  1.0000
  H   H1583     1.0  0.82196  0.55189  0.20898  1.0000
  H   H1584     1.0  0.77424  0.80687  0.04374  1.0000
  H   H1585     1.0  0.79721  0.85660  0.32737  1.0000
  H   H1586     1.0  0.87818  0.87018  0.06637  1.0000
  H   H1587     1.0  0.96477  0.79860  0.39637  1.0000
  C   C1965     1.0  0.79853  0.91437  0.42846  1.0000
  H   H1588     1.0  0.94569  0.51960  0.24576  1.0000
  C   C1966     1.0  0.82229  0.82254  0.39311  1.0000
  C   C1967     1.0  0.76909  0.85176  0.29690  1.0000
  H   H1589     1.0  0.91028  0.77937  0.98654  1.0000
  H   H1590     1.0  0.80298  0.74175  0.09617  1.0000
  P   P67       1.0  0.76934  0.84890  0.37966  1.0000
  C   C1968     1.0  0.95966  0.76291  0.37764  1.0000
  C   C1969     1.0  0.96427  0.80123  0.45554  1.0000
  C   C1970     1.0  0.78314  0.64827  0.38086  1.0000
  C   C1971     1.0  0.78263  0.74302  0.37120  1.0000
  C   C1972     1.0  0.78690  0.92861  0.41806  1.0000
  C   C1973     1.0  0.98328  0.88480  0.01036  1.0000
  C   C1974     1.0  0.77016  0.68195  0.08231  1.0000
  C   C1975     1.0  0.79911  0.57950  0.01657  1.0000
  H   H1591     1.0  0.90630  0.65682  0.15320  1.0000
  C   C1976     1.0  0.90029  0.64876  0.13313  1.0000
  C   C1977     1.0  0.89022  0.86380  0.05557  1.0000
  H   H1592     1.0  0.81088  0.74648  0.34116  1.0000
  C   C1978     1.0  0.87325  0.64169  0.09351  1.0000
  Fe  Fe134     1.0  0.84613  0.70778  0.44944  1.0000
  C   C1979     1.0  0.82372  0.86891  0.37481  1.0000
  C   C1980     1.0  0.80047  0.99475  0.37252  1.0000
  H   H1593     1.0  0.85094  0.76614  0.10618  1.0000
  S   S266      1.0  0.75711  0.88400  0.02882  1.0000
  C   C1981     1.0  0.91843  0.65693  0.02315  1.0000
  C   C1982     1.0  0.86267  0.76844  0.06471  1.0000
  H   H1594     1.0  0.95282  0.68925  0.00421  1.0000
  H   H1595     1.0  0.79434  0.65696  0.36257  1.0000
  C   C1983     1.0  0.97222  0.74914  0.36871  1.0000
  H   H1596     1.0  0.96057  0.72963  0.35975  1.0000
  C   C1984     1.0  0.81708  0.74714  0.07985  1.0000
  H   H1597     1.0  0.76017  0.92924  0.38844  1.0000
  H   H1598     1.0  0.75654  0.52254  0.16406  1.0000
  C   C1985     1.0  0.76461  0.89469  0.38403  1.0000
  H   H1599     1.0  0.75459  0.98160  0.41839  1.0000
  C   C1986     1.0  0.93155  0.67977  0.00708  1.0000
  H   H1600     1.0  0.79240  0.96494  0.34219  1.0000
  C   C1987     1.0  0.76392  0.78652  0.05116  1.0000
  C   C1988     1.0  0.77077  0.78563  0.45467  1.0000
  H   H1601     1.0  0.76484  0.69649  0.44842  1.0000
  Fe  Fe135     1.0  0.75536  0.58779  0.16814  1.0000
  C   C1989     1.0  0.77720  0.85242  0.32359  1.0000
  C   C1990     1.0  0.81507  0.79469  0.96891  1.0000
  H   H1602     1.0  0.87393  0.51796  0.27157  1.0000
  H   H1603     1.0  0.75119  0.66186  0.25742  1.0000
  C   C1991     1.0  0.75636  0.68971  0.06452  1.0000
  C   C1992     1.0  0.75691  0.65742  0.09569  1.0000
  H   H1604     1.0  0.87885  0.68696  0.98951  1.0000
  H   H1605     1.0  0.92540  0.51172  0.32947  1.0000
  H   H1606     1.0  0.75112  0.88738  0.36717  1.0000
  C   C1993     1.0  0.96762  0.77334  0.97439  1.0000
  S   S267      1.0  0.75619  0.94757  0.99112  1.0000
  C   C1994     1.0  0.74739  0.65785  0.30064  1.0000
  C   C1995     1.0  0.75876  0.63126  0.27204  1.0000
  C   C1996     1.0  0.75993  0.72557  0.38566  1.0000
  C   C1997     1.0  0.74719  0.69823  0.38053  1.0000
  C   C1998     1.0  0.75706  0.64340  0.38332  1.0000
  H   H1607     1.0  0.76620  0.60273  0.29221  1.0000
  C   C1999     1.0  0.75642  0.68250  0.46504  1.0000
  H   H1608     1.0  0.99179  0.54325  0.15761  1.0000
  C   C2000     1.0  0.75674  0.68826  0.36038  1.0000
  C   C2001     1.0  0.76048  0.61779  0.29466  1.0000
  C   C2002     1.0  0.74960  0.64475  0.32354  1.0000
  S   S268      1.0  0.85898  0.74844  0.46586  1.0000
  C   C2003     1.0  0.76746  0.80695  0.46362  1.0000
  H   H1609     1.0  0.99270  0.60417  0.16754  1.0000
  C   C2004     1.0  0.75611  0.62898  0.42955  1.0000
  H   H1610     1.0  0.74788  0.80467  0.46476  1.0000
  C   C2005     1.0  0.81739  0.59172  0.46673  1.0000
  C   C2006     1.0  0.92630  0.83022  0.97361  1.0000
  C   C2007     1.0  0.89887  0.81838  0.96885  1.0000
  S   S269      1.0  0.78679  0.85930  0.48136  1.0000
  H   H1611     1.0  0.76319  0.69615  0.93477  1.0000
  C   C2008     1.0  0.76397  0.70030  0.95606  1.0000
  S   S270      1.0  0.76990  0.62711  0.66152  1.0000
  Fe  Fe136     1.0  0.81577  0.59587  0.65451  1.0000
  S   S271      1.0  0.83122  0.63961  0.66274  1.0000
  S   S272      1.0  0.84911  0.58542  0.64903  1.0000
  Fe  Fe137     1.0  0.79825  0.62705  0.69310  1.0000
  S   S273      1.0  0.80334  0.65222  0.73164  1.0000
  Fe  Fe138     1.0  0.80227  0.63700  0.63119  1.0000
  S   S274      1.0  0.81454  0.67142  0.60150  1.0000
  S   S275      1.0  0.78420  0.58316  0.68681  1.0000
  S   S276      1.0  0.78877  0.59447  0.62104  1.0000
  Fe  Fe139     1.0  0.84932  0.70786  0.89339  1.0000
  S   S277      1.0  0.86911  0.75256  0.89710  1.0000
  S   S278      1.0  0.84292  0.68181  0.85539  1.0000
  Fe  Fe140     1.0  0.84145  0.70146  0.95576  1.0000
  C   C2009     1.0  0.90673  0.82449  0.92087  1.0000
  C   C2010     1.0  0.83505  0.51116  0.62653  1.0000
  Fe  Fe141     1.0  0.83704  0.74598  0.92697  1.0000
  S   S279      1.0  0.81198  0.76655  0.92195  1.0000
  Fe  Fe142     1.0  0.89152  0.74913  0.93302  1.0000
  S   S280      1.0  0.93663  0.77923  0.93438  1.0000
  S   S281      1.0  0.81617  0.70141  0.92126  1.0000
  S   S282      1.0  0.87351  0.70479  0.92777  1.0000
  H   H1612     1.0  0.94752  0.84253  0.90851  1.0000
  H   H1613     1.0  0.94571  0.52303  0.81755  1.0000
  H   H1614     1.0  0.91983  0.70457  0.56586  1.0000
  C   C2011     1.0  0.85274  0.55782  0.63862  1.0000
  C   C2012     1.0  0.87843  0.56152  0.63524  1.0000
  C   C2013     1.0  0.90343  0.54019  0.52468  1.0000
  C   C2014     1.0  0.86072  0.51491  0.62291  1.0000
  H   H1615     1.0  0.78342  0.79993  0.65970  1.0000
  C   C2015     1.0  0.83108  0.53233  0.63452  1.0000
  H   H1616     1.0  0.97041  0.55612  0.76011  1.0000
  H   H1617     1.0  0.81106  0.57009  0.58872  1.0000
  C   C2016     1.0  0.80912  0.95516  0.89949  1.0000
  H   H1618     1.0  0.81124  0.52885  0.63775  1.0000
  C   C2017     1.0  0.83186  0.67412  0.82090  1.0000
  C   C2018     1.0  0.82262  0.68851  0.80602  1.0000
  C   C2019     1.0  0.81439  0.68173  0.77886  1.0000
  C   C2020     1.0  0.81499  0.66033  0.76596  1.0000
  C   C2021     1.0  0.82409  0.64587  0.78091  1.0000
  C   C2022     1.0  0.83240  0.65270  0.80803  1.0000
  H   H1619     1.0  0.82202  0.70504  0.81533  1.0000
  H   H1620     1.0  0.80745  0.69317  0.76773  1.0000
  H   H1621     1.0  0.82469  0.62934  0.77160  1.0000
  H   H1622     1.0  0.83942  0.64130  0.81913  1.0000
  C   C2023     1.0  0.81930  0.67047  0.56643  1.0000
  C   C2024     1.0  0.83074  0.69442  0.55180  1.0000
  C   C2025     1.0  0.83587  0.69488  0.52409  1.0000
  C   C2026     1.0  0.82893  0.67121  0.51053  1.0000
  C   C2027     1.0  0.81732  0.64718  0.52511  1.0000
  C   C2028     1.0  0.81230  0.64676  0.55292  1.0000
  H   H1623     1.0  0.83589  0.71278  0.56206  1.0000
  H   H1624     1.0  0.84516  0.71355  0.51327  1.0000
  H   H1625     1.0  0.81182  0.62878  0.51479  1.0000
  H   H1626     1.0  0.80287  0.62812  0.56389  1.0000
  C   C2029     1.0  0.96659  0.78829  0.95268  1.0000
  H   H1627     1.0  0.79643  0.78896  0.51324  1.0000
  H   H1628     1.0  0.80770  0.91968  0.91508  1.0000
  C   C2030     1.0  0.79439  0.96659  0.88995  1.0000
  C   C2031     1.0  0.88245  0.54028  0.62753  1.0000
  H   H1629     1.0  0.86616  0.69725  0.62749  1.0000
  H   H1630     1.0  0.96470  0.74129  0.83504  1.0000
  H   H1631     1.0  0.76056  0.55360  0.55405  1.0000
  C   C2032     1.0  0.79972  0.73337  0.52806  1.0000
  H   H1632     1.0  0.77567  0.66005  0.51907  1.0000
  C   C2033     1.0  0.80362  0.78599  0.94348  1.0000
  H   H1633     1.0  0.84983  0.77764  0.55475  1.0000
  H   H1634     1.0  0.78316  0.70878  0.56322  1.0000
  H   H1635     1.0  0.88057  0.57943  0.49879  1.0000
  H   H1636     1.0  0.77598  0.78665  0.91483  1.0000
  H   H1637     1.0  0.78928  0.77691  0.83029  1.0000
  C   C2034     1.0  0.75106  0.63825  0.78701  1.0000
  H   H1638     1.0  0.91137  0.56303  0.48815  1.0000
  C   C2035     1.0  0.99298  0.78455  0.47207  1.0000
  C   C2036     1.0  0.99272  0.57994  0.72628  1.0000
  C   C2037     1.0  0.98222  0.75763  0.90047  1.0000
  H   H1639     1.0  0.79787  0.73000  0.86769  1.0000
  C   C2038     1.0  0.97710  0.75125  0.85230  1.0000
  H   H1640     1.0  0.96494  0.84777  0.95462  1.0000
  H   H1641     1.0  0.76521  0.73601  0.58166  1.0000
  C   C2039     1.0  0.92765  0.54195  0.79518  1.0000
  H   H1642     1.0  0.89506  0.70144  0.46981  1.0000
  C   C2040     1.0  0.76978  0.78738  0.64424  1.0000
  C   C2041     1.0  0.86742  0.78041  0.54444  1.0000
  C   C2042     1.0  0.75672  0.99815  0.54567  1.0000
  C   C2043     1.0  0.76742  0.87576  0.85053  1.0000
  C   C2044     1.0  0.75613  0.78074  0.84375  1.0000
  C   C2045     1.0  0.75986  0.72077  0.96504  1.0000
  C   C2046     1.0  0.96701  0.80545  0.55339  1.0000
  C   C2047     1.0  0.89888  0.79971  0.50792  1.0000
  H   H1643     1.0  0.81016  0.55159  0.73917  1.0000
  H   H1644     1.0  0.76447  0.73966  0.88721  1.0000
  C   C2048     1.0  0.77310  0.67912  0.48291  1.0000
  C   C2049     1.0  0.89539  0.62591  0.59929  1.0000
  C   C2050     1.0  0.88491  0.64294  0.60137  1.0000
  C   C2051     1.0  0.86282  0.63816  0.58604  1.0000
  C   C2052     1.0  0.85114  0.61630  0.56871  1.0000
  C   C2053     1.0  0.86153  0.59908  0.56646  1.0000
  C   C2054     1.0  0.88369  0.60397  0.58202  1.0000
  P   P68       1.0  0.84518  0.56996  0.54520  1.0000
  C   C2055     1.0  0.86811  0.55852  0.53696  1.0000
  C   C2056     1.0  0.81667  0.54370  0.56237  1.0000
  H   H1645     1.0  0.87707  0.70968  0.57981  1.0000
  C   C2057     1.0  0.88271  0.56634  0.51290  1.0000
  C   C2058     1.0  0.83464  0.53819  0.75880  1.0000
  H   H1646     1.0  0.86021  0.52392  0.77272  1.0000
  S   S283      1.0  0.74755  0.95447  0.48829  1.0000
  C   C2059     1.0  0.75146  0.61488  0.78118  1.0000
  C   C2060     1.0  0.83428  0.57842  0.51445  1.0000
  C   C2061     1.0  0.84849  0.60431  0.50377  1.0000
  H   H1647     1.0  0.77088  0.53449  0.61028  1.0000
  H   H1648     1.0  0.93452  0.55859  0.80891  1.0000
  C   C2062     1.0  0.81171  0.55916  0.50074  1.0000
  H   H1649     1.0  0.91193  0.62909  0.61190  1.0000
  H   H1650     1.0  0.89340  0.65936  0.61545  1.0000
  H   H1651     1.0  0.85432  0.65100  0.58818  1.0000
  H   H1652     1.0  0.83362  0.61242  0.55750  1.0000
  H   H1653     1.0  0.89160  0.59057  0.58150  1.0000
  H   H1654     1.0  0.78874  0.87339  0.88503  1.0000
  H   H1655     1.0  0.85926  0.85926  0.55976  1.0000
  H   H1656     1.0  0.76877  0.80098  0.85047  1.0000
  H   H1657     1.0  0.75405  0.65216  0.77090  1.0000
  C   C2063     1.0  0.99418  0.82324  0.55071  1.0000
  H   H1658     1.0  0.86606  0.61946  0.51381  1.0000
  H   H1659     1.0  0.76578  0.67004  0.62273  1.0000
  H   H1660     1.0  0.85068  0.63106  0.47222  1.0000
  C   C2064     1.0  0.87622  0.79620  0.52124  1.0000
  C   C2065     1.0  0.79630  0.92843  0.90731  1.0000
  H   H1661     1.0  0.84704  0.89330  0.54706  1.0000
  C   C2066     1.0  0.90402  0.51921  0.75447  1.0000
  C   C2067     1.0  0.76658  0.95138  0.88852  1.0000
  H   H1662     1.0  0.99545  0.76784  0.47764  1.0000
  C   C2068     1.0  0.80357  0.75600  0.51414  1.0000
  H   H1663     1.0  0.78022  0.89704  0.84790  1.0000
  C   C2069     1.0  0.88916  0.53257  0.54875  1.0000
  C   C2070     1.0  0.81879  0.82707  0.56097  1.0000
  H   H1664     1.0  0.90826  0.66469  0.53894  1.0000
  H   H1665     1.0  0.81447  0.76151  0.49537  1.0000
  C   C2071     1.0  0.80334  0.56581  0.47697  1.0000
  C   C2072     1.0  0.85343  0.53006  0.75526  1.0000
  H   H1666     1.0  0.76488  0.83393  0.54727  1.0000
  H   H1667     1.0  0.94883  0.78052  0.60397  1.0000
  C   C2073     1.0  0.80112  0.98838  0.47597  1.0000
  C   C2074     1.0  0.80684  0.51694  0.55525  1.0000
  C   C2075     1.0  0.77799  0.71381  0.87177  1.0000
  H   H1668     1.0  0.95396  0.81317  0.55822  1.0000
  H   H1669     1.0  0.80053  0.53898  0.50828  1.0000
  C   C2076     1.0  0.77627  0.79354  0.61706  1.0000
  C   C2077     1.0  0.91183  0.53844  0.69990  1.0000
  H   H1670     1.0  0.90535  0.57223  0.70136  1.0000
  C   C2078     1.0  0.80299  0.63001  0.90002  1.0000
  H   H1671     1.0  0.96717  0.74766  0.54066  1.0000
  H   H1672     1.0  0.86801  0.80626  0.93898  1.0000
  P   P69       1.0  0.76662  0.78511  0.56174  1.0000
  S   S284      1.0  0.83332  0.67073  0.47530  1.0000
  C   C2079     1.0  0.75682  0.62775  0.91935  1.0000
  C   C2080     1.0  0.78527  0.83900  0.55051  1.0000
  C   C2081     1.0  0.83315  0.54369  0.71067  1.0000
  H   H1673     1.0  0.87404  0.75597  0.57228  1.0000
  C   C2082     1.0  0.87164  0.54173  0.55488  1.0000
  C   C2083     1.0  0.75050  0.60047  0.52308  1.0000
  H   H1674     1.0  0.76730  0.98739  0.54913  1.0000
  H   H1675     1.0  0.86540  0.80556  0.51342  1.0000
  S   S285      1.0  0.94053  0.50829  0.59122  1.0000
  H   H1676     1.0  0.89625  0.72599  0.66343  1.0000
  C   C2084     1.0  0.80357  0.54981  0.58235  1.0000
  H   H1677     1.0  0.74876  0.57907  0.79721  1.0000
  H   H1678     1.0  0.90595  0.74119  0.49634  1.0000
  H   H1679     1.0  0.75947  0.82520  0.89153  1.0000
  H   H1680     1.0  0.89538  0.58103  0.63858  1.0000
  C   C2085     1.0  0.78079  0.52960  0.59471  1.0000
  C   C2086     1.0  0.80513  0.86551  0.54704  1.0000
  H   H1681     1.0  0.97379  0.75272  0.92050  1.0000
  C   C2087     1.0  0.91259  0.78725  0.51761  1.0000
  H   H1682     1.0  0.89637  0.66324  0.49061  1.0000
  C   C2088     1.0  0.79807  0.62808  0.92766  1.0000
  C   C2089     1.0  0.78498  0.79316  0.93444  1.0000
  C   C2090     1.0  0.90381  0.77123  0.54084  1.0000
  H   H1683     1.0  0.82145  0.63213  0.89252  1.0000
  H   H1684     1.0  0.79982  0.88028  0.54104  1.0000
  H   H1685     1.0  0.78964  0.63320  0.86076  1.0000
  H   H1686     1.0  0.98988  0.82276  0.92787  1.0000
  H   H1687     1.0  0.82506  0.54869  0.69336  1.0000
  H   H1688     1.0  0.90232  0.54362  0.62481  1.0000
  C   C2091     1.0  0.94381  0.83922  0.95167  1.0000
  C   C2092     1.0  0.92446  0.75503  0.63573  1.0000
  C   C2093     1.0  0.90124  0.73158  0.64249  1.0000
  C   C2094     1.0  0.88429  0.71534  0.62222  1.0000
  C   C2095     1.0  0.89053  0.72248  0.59520  1.0000
  C   C2096     1.0  0.91397  0.74587  0.58817  1.0000
  C   C2097     1.0  0.93078  0.76224  0.60869  1.0000
  P   P70       1.0  0.92168  0.75514  0.55313  1.0000
  C   C2098     1.0  0.91323  0.72580  0.53338  1.0000
  H   H1689     1.0  0.78661  0.68360  0.85874  1.0000
  H   H1690     1.0  0.89912  0.82177  0.90049  1.0000
  H   H1691     1.0  0.90928  0.55702  0.76814  1.0000
  H   H1692     1.0  0.83048  0.96724  0.90132  1.0000
  C   C2099     1.0  0.90653  0.72475  0.50606  1.0000
  C   C2100     1.0  0.90054  0.70224  0.49078  1.0000
  C   C2101     1.0  0.90111  0.68060  0.50259  1.0000
  C   C2102     1.0  0.90784  0.68147  0.52972  1.0000
  C   C2103     1.0  0.91413  0.70407  0.54502  1.0000
  C   C2104     1.0  0.95684  0.77800  0.54970  1.0000
  S   S286      1.0  0.75437  0.89292  0.52475  1.0000
  C   C2105     1.0  0.77804  0.80894  0.95041  1.0000
  C   C2106     1.0  0.88118  0.76802  0.55427  1.0000
  C   C2107     1.0  0.94757  0.54417  0.67038  1.0000
  C   C2108     1.0  0.83859  0.85359  0.55732  1.0000
  H   H1693     1.0  0.93755  0.76766  0.65148  1.0000
  H   H1694     1.0  0.76137  0.73030  0.81496  1.0000
  C   C2109     1.0  0.82466  0.54521  0.73652  1.0000
  C   C2110     1.0  0.91318  0.54088  0.77217  1.0000
  C   C2111     1.0  0.93401  0.83635  0.92541  1.0000
  C   C2112     1.0  0.88918  0.81560  0.94258  1.0000
  Fe  Fe143     1.0  0.75168  0.86603  0.49036  1.0000
  C   C2113     1.0  0.76872  0.91315  0.90566  1.0000
  H   H1695     1.0  0.85802  0.53417  0.68688  1.0000
  C   C2114     1.0  0.93678  0.57934  0.67421  1.0000
  H   H1696     1.0  0.96730  0.58107  0.64829  1.0000
  C   C2115     1.0  0.92773  0.52887  0.68900  1.0000
  C   C2116     1.0  0.76244  0.66170  0.50480  1.0000
  H   H1697     1.0  0.79499  0.81089  0.61194  1.0000
  H   H1698     1.0  0.75756  0.63999  0.58471  1.0000
  C   C2117     1.0  0.79196  0.81954  0.55744  1.0000
  C   C2118     1.0  0.95201  0.56933  0.66285  1.0000
  H   H1699     1.0  0.97588  0.58012  0.71717  1.0000
  H   H1700     1.0  0.94539  0.73074  0.88093  1.0000
  H   H1701     1.0  0.80758  0.72143  0.51999  1.0000
  C   C2119     1.0  0.85200  0.53569  0.70708  1.0000
  H   H1702     1.0  0.94024  0.59889  0.66845  1.0000
  C   C2120     1.0  0.99035  0.81099  0.94458  1.0000
  C   C2121     1.0  0.75918  0.71925  0.88295  1.0000
  C   C2122     1.0  0.77216  0.86248  0.87148  1.0000
  C   C2123     1.0  0.78476  0.63054  0.88199  1.0000
  C   C2124     1.0  0.77123  0.50306  0.58760  1.0000
  C   C2125     1.0  0.75385  0.92466  0.89689  1.0000
  H   H1703     1.0  0.92992  0.78997  0.50674  1.0000
  H   H1704     1.0  0.76387  0.81440  0.94306  1.0000
  C   C2126     1.0  0.77924  0.76447  0.54869  1.0000
  C   C2127     1.0  0.77154  0.68751  0.86679  1.0000
  H   H1705     1.0  0.81657  0.51163  0.53993  1.0000
  H   H1706     1.0  0.95951  0.53647  0.66180  1.0000
  S   S287      1.0  0.86048  0.74559  0.96304  1.0000
  H   H1707     1.0  0.81259  0.62847  0.94166  1.0000
  C   C2128     1.0  0.78586  0.72626  0.55237  1.0000
  C   C2129     1.0  0.91682  0.56403  0.69277  1.0000
  C   C2130     1.0  0.79339  0.77151  0.52437  1.0000
  C   C2131     1.0  0.97435  0.76863  0.54370  1.0000
  H   H1708     1.0  0.80416  0.97185  0.48076  1.0000
  H   H1709     1.0  0.82442  0.81244  0.56644  1.0000
  C   C2132     1.0  0.90026  0.55713  0.50680  1.0000
  C   C2133     1.0  0.98781  0.50506  0.68578  1.0000
  H   H1710     1.0  0.89153  0.51941  0.56268  1.0000
  C   C2134     1.0  0.86286  0.52956  0.72938  1.0000
  C   C2135     1.0  0.96623  0.74514  0.87815  1.0000
  H   H1711     1.0  0.92466  0.50948  0.69473  1.0000
  H   H1712     1.0  0.80485  0.98744  0.88439  1.0000
  C   C2136     1.0  0.77568  0.98514  0.47791  1.0000
  C   C2137     1.0  0.83175  0.87280  0.55028  1.0000
  C   C2138     1.0  0.83998  0.61092  0.48009  1.0000
  H   H1713     1.0  0.83206  0.85234  0.47486  1.0000
  H   H1714     1.0  0.75531  0.61157  0.50442  1.0000
  C   C2139     1.0  0.77566  0.74177  0.56271  1.0000
  Fe  Fe144     1.0  0.75785  0.58437  0.65338  1.0000
  H   H1715     1.0  0.75471  0.61084  0.76066  1.0000
  C   C2140     1.0  0.75856  0.77753  0.59694  1.0000
  P   P71       1.0  0.88651  0.51841  0.72411  1.0000
  H   H1716     1.0  0.74761  0.66231  0.81754  1.0000
  H   H1717     1.0  0.86073  0.53563  0.57359  1.0000
  C   C2141     1.0  0.98963  0.56661  0.75064  1.0000
  H   H1718     1.0  0.77163  0.62614  0.95883  1.0000
  C   C2142     1.0  0.74671  0.65068  0.58572  1.0000
  S   S288      1.0  0.98870  0.50965  0.65026  1.0000
  H   H1719     1.0  0.91688  0.53289  0.51992  1.0000
  C   C2143     1.0  0.99087  0.51943  0.48959  1.0000
  H   H1720     1.0  0.75878  0.89239  0.91145  1.0000
  C   C2144     1.0  0.75545  0.83512  0.87514  1.0000
  H   H1721     1.0  0.90564  0.81165  0.48970  1.0000
  C   C2145     1.0  0.75156  0.66790  0.60734  1.0000
  H   H1722     1.0  0.79439  0.69029  0.47995  1.0000
  C   C2146     1.0  0.75217  0.74084  0.82370  1.0000
  C   C2147     1.0  0.76789  0.76712  0.83229  1.0000
  C   C2148     1.0  0.78950  0.83124  0.47086  1.0000
  C   C2149     1.0  0.93393  0.52193  0.80010  1.0000
  P   P72       1.0  0.74719  0.96582  0.87628  1.0000
  H   H1723     1.0  0.77189  0.58042  0.51206  1.0000
  H   H1724     1.0  0.99488  0.53083  0.50790  1.0000
  C   C2150     1.0  0.80279  0.98135  0.96241  1.0000
  H   H1725     1.0  0.80540  0.96425  0.96002  1.0000
  H   H1726     1.0  0.82765  0.53891  0.77880  1.0000
  H   H1727     1.0  0.75608  0.73256  0.95060  1.0000
  C   C2151     1.0  0.75978  0.58258  0.52721  1.0000
  C   C2152     1.0  0.77494  0.62684  0.93732  1.0000
  C   C2153     1.0  0.75347  0.56752  0.55088  1.0000
  C   C2154     1.0  0.76130  0.62896  0.89148  1.0000
  C   C2155     1.0  0.74774  0.64404  0.81354  1.0000
  C   C2156     1.0  0.98789  0.50060  0.74274  1.0000
  C   C2157     1.0  0.92581  0.50090  0.78199  1.0000
  C   C2158     1.0  0.74827  0.59708  0.80182  1.0000
  C   C2159     1.0  0.91110  0.49962  0.75916  1.0000
  H   H1728     1.0  0.77419  0.67062  0.96740  1.0000
  C   C2160     1.0  0.81483  0.83368  0.46933  1.0000
