data_image0
_chemical_formula_structural       FeSCSHSFeSHC4SCHCHCHC6H4PC9H2CHCSH5CH2CH2C5H3CH2FeSCHC2HCHCHCFeCHC3HC2PCH3C2H3CH3PHCSH4CHFeS2HC3HC10H4CH2C2H2CFeSHC2SC2HCH2C9H2CHCH2C2HC3HCHCHCHCPHC2H2CH3C2H2CHCHCHCH2SFeSHC2H2CHCHC6HCH2CHFeH4CHC3HC4H2CSHCH3C4H2CSHSHCHC2H2C2HCH2C5H2SC2HCH4C2HCSFeS2CSHC8H4CH2C7HPHCH4FeH2CH2CHCHCHSHC5HFeCHC2H3C2H2SC5H2C2HCHCHSHC6HC3HCHC2HCH2C2HSHCHCFeC4HCHFeC2H3CSCHCHPC3HPHC2HCHCHC2SHC3H2CH3C2HS2FeSFeSHC2HC3HCHC3H2CH5CH3C4H2CH2C2HC7HC4H2CHCFeHCHPH3SC3H2CHCH2C2HC3HSFeSCHC2H2CHCH2SH2C3HC3H2C2H5C2HPC3HC4HC5HC8HCHFeH3C2SHCHCSFeSC2HSFeSFeC7H6FeHC2H4C2SHPC8H2C3SHC2H2C2H2CHCH2C2H2CHC2HSCSHCH6C3H2C2H2CHSH2C2HCPCHC3HC2HCHC2H2CH2C3HC5H2PSHCH4C2HC4SH3CFeC2H2CPC3HFeC4H3CHFeSCS2FeSHC6H4SFeH3C2FeC2HCHS2C2SC3H2CH5CHC3H4SHC4PC8HC2HFeC2HC2HCH3CHC6HCH2C2H2FeSPC2SCH4C6H5CSH2CHCHPCHFeC4SCHCH3SC4HC2FeH2C3SCSC3HCH5CH2CH3
_chemical_formula_sum              "Fe32 S64 C480 H384 P16"
_cell_length_a       27.1319
_cell_length_b       27.1196
_cell_length_c       42.0245
_cell_angle_alpha    89.9737
_cell_angle_beta     90.0948
_cell_angle_gamma    89.8887

_space_group_name_H-M_alt    "P 1"
_space_group_IT_number       1

loop_
  _space_group_symop_operation_xyz
  'x, y, z'

loop_
  _atom_site_type_symbol
  _atom_site_label
  _atom_site_symmetry_multiplicity
  _atom_site_fract_x
  _atom_site_fract_y
  _atom_site_fract_z
  _atom_site_occupancy
  Fe  Fe1       1.0  0.24651  0.04917  0.11955  1.0000
  S   S1        1.0  0.18091  0.10323  0.12043  1.0000
  C   C1        1.0  0.15060  0.48869  0.08981  1.0000
  S   S2        1.0  0.37255  0.03406  0.03023  1.0000
  H   H1        1.0  0.09511  0.46798  0.21754  1.0000
  S   S3        1.0  0.32696  0.06772  0.11567  1.0000
  Fe  Fe2       1.0  0.01670  0.27920  0.23788  1.0000
  S   S4        1.0  0.09026  0.23841  0.23111  1.0000
  H   H2        1.0  0.16107  0.33019  0.24455  1.0000
  C   C2        1.0  0.22456  0.10651  0.26225  1.0000
  C   C3        1.0  0.45876  0.05501  0.11052  1.0000
  C   C4        1.0  0.08007  0.45244  0.06352  1.0000
  C   C5        1.0  0.45912  0.08506  0.08354  1.0000
  S   S5        1.0  0.39055  0.02695  0.19208  1.0000
  C   C6        1.0  0.04747  0.08629  0.26424  1.0000
  H   H3        1.0  0.21689  0.13113  0.18399  1.0000
  C   C7        1.0  0.21222  0.01567  0.23199  1.0000
  H   H4        1.0  0.46972  0.14252  0.15285  1.0000
  C   C8        1.0  0.08592  0.40951  0.08155  1.0000
  H   H5        1.0  0.09546  0.44228  0.16142  1.0000
  C   C9        1.0  0.15524  0.13878  0.15210  1.0000
  C   C10       1.0  0.10847  0.16066  0.14807  1.0000
  C   C11       1.0  0.08761  0.19085  0.17198  1.0000
  C   C12       1.0  0.11350  0.19981  0.20021  1.0000
  C   C13       1.0  0.16034  0.17824  0.20407  1.0000
  C   C14       1.0  0.18084  0.14741  0.18047  1.0000
  H   H6        1.0  0.08834  0.15438  0.12622  1.0000
  H   H7        1.0  0.05176  0.20750  0.16848  1.0000
  H   H8        1.0  0.18105  0.18571  0.22551  1.0000
  H   H9        1.0  0.02971  0.35446  0.15552  1.0000
  P   P1        1.0  0.13001  0.35204  0.12922  1.0000
  C   C15       1.0  0.18523  0.31732  0.11960  1.0000
  C   C16       1.0  0.13088  0.37178  0.17040  1.0000
  C   C17       1.0  0.14905  0.34049  0.19435  1.0000
  C   C18       1.0  0.11146  0.41801  0.17907  1.0000
  C   C19       1.0  0.19088  0.26881  0.13083  1.0000
  C   C20       1.0  0.23225  0.24086  0.12255  1.0000
  C   C21       1.0  0.26852  0.26104  0.10301  1.0000
  C   C22       1.0  0.26336  0.30920  0.09164  1.0000
  C   C23       1.0  0.22185  0.33721  0.09976  1.0000
  H   H10       1.0  0.43900  0.06858  0.24670  1.0000
  H   H11       1.0  0.03860  0.21313  0.08070  1.0000
  C   C24       1.0  0.12993  0.40168  0.23449  1.0000
  H   H12       1.0  0.18560  0.44417  0.12565  1.0000
  C   C25       1.0  0.12393  0.40602  0.10417  1.0000
  S   S6        1.0  0.01106  0.36230  0.23789  1.0000
  H   H13       1.0  0.16233  0.30391  0.18893  1.0000
  H   H14       1.0  0.16276  0.25203  0.14546  1.0000
  H   H15       1.0  0.23580  0.20317  0.13094  1.0000
  H   H16       1.0  0.30032  0.23905  0.09644  1.0000
  H   H17       1.0  0.29132  0.32465  0.07622  1.0000
  C   C26       1.0  0.03673  0.24418  0.09688  1.0000
  H   H18       1.0  0.14794  0.99511  0.12225  1.0000
  H   H19       1.0  0.43328  0.11542  0.08151  1.0000
  C   C27       1.0  0.14857  0.35543  0.22619  1.0000
  H   H20       1.0  0.00629  0.44642  0.16791  1.0000
  H   H21       1.0  0.06373  0.07512  0.28667  1.0000
  C   C28       1.0  0.17712  0.08764  0.25754  1.0000
  C   C29       1.0  0.25954  0.03482  0.23654  1.0000
  C   C30       1.0  0.04210  0.08109  0.20678  1.0000
  C   C31       1.0  0.07835  0.27354  0.10183  1.0000
  C   C32       1.0  0.15633  0.44595  0.10811  1.0000
  H   H22       1.0  0.05403  0.06639  0.18417  1.0000
  H   H23       1.0  0.14589  0.10929  0.26535  1.0000
  H   H24       1.0  0.21843  0.37392  0.09007  1.0000
  C   C33       1.0  0.01059  0.12240  0.26426  1.0000
  H   H25       1.0  0.06002  0.37979  0.07817  1.0000
  H   H26       1.0  0.12830  0.41246  0.25930  1.0000
  Fe  Fe3       1.0  0.34096  0.00447  0.14970  1.0000
  S   S7        1.0  0.25045  0.99754  0.07742  1.0000
  C   C34       1.0  0.11123  0.43291  0.21093  1.0000
  H   H27       1.0  0.27414  0.03304  0.00675  1.0000
  C   C35       1.0  0.42246  0.00828  0.00794  1.0000
  C   C36       1.0  0.12988  0.00431  0.17179  1.0000
  H   H28       1.0  0.11165  0.26513  0.08874  1.0000
  C   C37       1.0  0.26572  0.08024  0.25160  1.0000
  H   H29       1.0  0.22932  0.14197  0.27370  1.0000
  C   C38       1.0  0.43367  0.00106  0.21981  1.0000
  H   H30       1.0  0.04948  0.45578  0.04705  1.0000
  C   C39       1.0  0.00502  0.11705  0.20695  1.0000
  Fe  Fe4       1.0  0.33269  0.01103  0.07648  1.0000
  C   C40       1.0  0.07678  0.31301  0.12350  1.0000
  H   H31       1.0  0.43323  0.06242  0.12973  1.0000
  C   C41       1.0  0.99061  0.29478  0.13369  1.0000
  C   C42       1.0  0.25260  0.00312  0.99685  1.0000
  C   C43       1.0  0.45192  0.03095  0.24463  1.0000
  H   H32       1.0  0.30247  0.09511  0.25477  1.0000
  C   C44       1.0  0.03240  0.32366  0.13921  1.0000
  C   C45       1.0  0.17054  0.04210  0.24224  1.0000
  P   P2        1.0  0.10959  0.01680  0.23615  1.0000
  C   C46       1.0  0.06342  0.06513  0.23549  1.0000
  H   H33       1.0  0.14418  0.04150  0.17262  1.0000
  H   H34       1.0  0.29157  0.01466  0.22811  1.0000
  H   H35       1.0  0.99879  0.13916  0.28640  1.0000
  C   C47       1.0  0.48670  0.01276  0.26688  1.0000
  C   C48       1.0  0.20209  0.00937  0.99191  1.0000
  H   H36       1.0  0.48862  0.99126  0.13344  1.0000
  H   H37       1.0  0.18454  0.04398  0.99812  1.0000
  H   H38       1.0  0.99186  0.35043  0.01426  1.0000
  C   C49       1.0  0.99290  0.25466  0.11292  1.0000
  H   H39       1.0  0.48600  0.19779  0.31633  1.0000
  H   H40       1.0  0.12700  0.40973  0.52573  1.0000
  H   H41       1.0  0.17303  0.17860  0.64939  1.0000
  P   P3        1.0  0.99768  0.10640  0.63226  1.0000
  H   H42       1.0  0.30945  0.47602  0.63829  1.0000
  C   C50       1.0  0.01696  0.01067  0.61044  1.0000
  S   S8        1.0  0.22534  0.08663  0.64813  1.0000
  H   H43       1.0  0.14989  0.00819  0.64471  1.0000
  H   H44       1.0  0.13584  0.20558  0.58988  1.0000
  H   H45       1.0  0.00981  0.34624  0.38894  1.0000
  H   H46       1.0  0.41581  0.02934  0.54324  1.0000
  C   C51       1.0  0.08642  0.24958  0.61826  1.0000
  H   H47       1.0  0.10744  0.28322  0.61545  1.0000
  Fe  Fe5       1.0  0.26235  0.01053  0.64149  1.0000
  S   S9        1.0  0.34541  0.99792  0.64090  1.0000
  S   S10       1.0  0.99427  0.40208  0.32623  1.0000
  H   H48       1.0  0.02106  0.37451  0.44414  1.0000
  C   C52       1.0  0.07595  0.16219  0.60839  1.0000
  C   C53       1.0  0.03509  0.05189  0.62691  1.0000
  C   C54       1.0  0.05037  0.40072  0.51354  1.0000
  H   H49       1.0  0.08912  0.12876  0.59716  1.0000
  C   C55       1.0  0.46579  0.02400  0.50309  1.0000
  C   C56       1.0  0.09489  0.42658  0.51485  1.0000
  C   C57       1.0  0.10235  0.20590  0.60390  1.0000
  C   C58       1.0  0.00835  0.42254  0.49983  1.0000
  C   C59       1.0  0.04345  0.24980  0.63649  1.0000
  C   C60       1.0  0.43262  0.00504  0.52597  1.0000
  C   C61       1.0  0.00524  0.46568  0.37727  1.0000
  C   C62       1.0  0.03334  0.16196  0.62733  1.0000
  C   C63       1.0  0.08274  0.05012  0.63988  1.0000
  C   C64       1.0  0.01644  0.20641  0.64044  1.0000
  H   H50       1.0  0.21827  0.46935  0.63846  1.0000
  H   H51       1.0  0.47413  0.06298  0.50300  1.0000
  H   H52       1.0  0.47567  0.07935  0.62016  1.0000
  H   H53       1.0  0.04915  0.36361  0.52294  1.0000
  C   C65       1.0  0.09816  0.47383  0.50178  1.0000
  H   H54       1.0  0.99468  0.08508  0.56396  1.0000
  H   H55       1.0  0.01375  0.41849  0.60942  1.0000
  C   C66       1.0  0.11273  0.00880  0.63513  1.0000
  C   C67       1.0  0.48781  0.99327  0.48007  1.0000
  H   H56       1.0  0.04361  0.45492  0.37630  1.0000
  H   H57       1.0  0.03114  0.28359  0.64776  1.0000
  C   C68       1.0  0.01217  0.46978  0.48638  1.0000
  Fe  Fe6       1.0  0.02713  0.25210  0.75244  1.0000
  S   S11       1.0  0.08542  0.18940  0.75285  1.0000
  H   H58       1.0  0.28961  0.08090  0.71808  1.0000
  C   C69       1.0  0.02803  0.45635  0.84905  1.0000
  C   C70       1.0  0.26829  0.06195  0.89245  1.0000
  S   S12       1.0  0.03377  0.33562  0.75206  1.0000
  C   C71       1.0  0.30849  0.10696  0.76506  1.0000
  C   C72       1.0  0.33295  0.09630  0.79363  1.0000
  H   H59       1.0  0.05578  0.44902  0.74309  1.0000
  C   C73       1.0  0.33966  0.05386  0.92664  1.0000
  H   H60       1.0  0.11680  0.21874  0.68835  1.0000
  H   H61       1.0  0.28095  0.05445  0.84246  1.0000
  C   C74       1.0  0.30833  0.07254  0.74032  1.0000
  C   C75       1.0  0.18620  0.11378  0.67771  1.0000
  C   C76       1.0  0.34934  0.04925  0.86917  1.0000
  C   C77       1.0  0.06209  0.41787  0.93043  1.0000
  C   C78       1.0  0.13282  0.18312  0.69366  1.0000
  C   C79       1.0  0.12311  0.16079  0.72301  1.0000
  C   C80       1.0  0.14516  0.11464  0.72943  1.0000
  C   C81       1.0  0.17574  0.09090  0.70682  1.0000
  C   C82       1.0  0.04994  0.03256  0.75639  1.0000
  H   H62       1.0  0.13865  0.09714  0.75215  1.0000
  H   H63       1.0  0.19184  0.05532  0.71216  1.0000
  C   C83       1.0  0.33284  0.02757  0.74410  1.0000
  H   H64       1.0  0.26591  0.06664  0.94358  1.0000
  C   C84       1.0  0.35704  0.01667  0.77269  1.0000
  H   H65       1.0  0.05768  0.04520  0.70621  1.0000
  H   H66       1.0  0.04801  0.07154  0.76216  1.0000
  C   C85       1.0  0.07653  0.45558  0.95103  1.0000
  C   C86       1.0  0.28906  0.06142  0.92288  1.0000
  H   H67       1.0  0.28977  0.14200  0.76195  1.0000
  C   C87       1.0  0.44947  0.11419  0.85543  1.0000
  C   C88       1.0  0.36978  0.04777  0.89991  1.0000
  C   C89       1.0  0.35650  0.05057  0.79792  1.0000
  H   H68       1.0  0.40895  0.04151  0.90326  1.0000
  C   C90       1.0  0.05023  0.48211  0.75713  1.0000
  H   H69       1.0  0.42090  0.12454  0.87205  1.0000
  C   C91       1.0  0.16470  0.16016  0.67152  1.0000
  H   H70       1.0  0.33334  0.12362  0.81243  1.0000
  C   C92       1.0  0.29816  0.05537  0.86569  1.0000
  H   H71       1.0  0.05118  0.43989  0.83102  1.0000
  C   C93       1.0  0.48009  0.06348  0.81231  1.0000
  P   P4        1.0  0.38785  0.03730  0.83499  1.0000
  H   H72       1.0  0.47553  0.03340  0.79565  1.0000
  C   C94       1.0  0.48401  0.01774  0.96535  1.0000
  C   C95       1.0  0.05514  0.01767  0.72477  1.0000
  H   H73       1.0  0.08563  0.40745  0.91073  1.0000
  H   H74       1.0  0.35537  0.05250  0.95036  1.0000
  C   C96       1.0  0.99244  0.12652  0.69752  1.0000
  H   H75       1.0  0.02555  0.14828  0.69469  1.0000
  H   H76       1.0  0.22891  0.06716  0.88961  1.0000
  H   H77       1.0  0.43173  0.07380  0.97947  1.0000
  C   C97       1.0  0.44293  0.07451  0.83438  1.0000
  C   C98       1.0  0.01622  0.39519  0.93417  1.0000
  H   H78       1.0  0.00578  0.36705  0.91730  1.0000
  H   H79       1.0  0.33341  0.00120  0.72472  1.0000
  C   C99       1.0  0.04553  0.47004  0.97582  1.0000
  H   H80       1.0  0.12406  0.48242  0.77597  1.0000
  C   C100      1.0  0.99993  0.44702  0.97992  1.0000
  H   H81       1.0  0.11107  0.47465  0.94720  1.0000
  C   C101      1.0  0.44467  0.03664  0.98376  1.0000
  H   H82       1.0  0.04482  0.00906  0.80514  1.0000
  C   C102      1.0  0.04829  0.99731  0.78059  1.0000
  H   H83       1.0  0.09696  0.08099  0.65336  1.0000
  H   H84       1.0  0.20828  0.98028  0.22033  1.0000
  S   S13       1.0  0.35042  0.94846  0.11014  1.0000
  Fe  Fe7       1.0  0.26719  0.93824  0.11297  1.0000
  S   S14       1.0  0.22600  0.86411  0.11414  1.0000
  H   H85       1.0  0.31430  0.95388  0.99457  1.0000
  C   C103      1.0  0.28254  0.82576  0.00656  1.0000
  C   C104      1.0  0.27300  0.77483  0.00791  1.0000
  H   H86       1.0  0.00087  0.66758  0.14552  1.0000
  H   H87       1.0  0.99625  0.92614  0.30713  1.0000
  C   C105      1.0  0.13296  0.95364  0.28677  1.0000
  H   H88       1.0  0.04159  0.50858  0.13065  1.0000
  C   C106      1.0  0.02030  0.61294  0.18115  1.0000
  H   H89       1.0  0.17499  0.77105  0.11098  1.0000
  C   C107      1.0  0.18717  0.83771  0.08418  1.0000
  C   C108      1.0  0.17618  0.86231  0.05575  1.0000
  C   C109      1.0  0.14583  0.83977  0.03261  1.0000
  C   C110      1.0  0.12613  0.79226  0.03724  1.0000
  C   C111      1.0  0.13660  0.76787  0.06586  1.0000
  C   C112      1.0  0.16687  0.79049  0.08912  1.0000
  H   H90       1.0  0.19117  0.89865  0.05150  1.0000
  C   C113      1.0  0.45115  0.95260  0.21744  1.0000
  H   H91       1.0  0.12195  0.73134  0.06988  1.0000
  H   H92       1.0  0.07811  0.91563  0.21846  1.0000
  C   C114      1.0  0.09912  0.57222  0.17257  1.0000
  H   H93       1.0  0.12652  0.54532  0.17976  1.0000
  Fe  Fe8       1.0  0.03802  0.69841  0.00156  1.0000
  H   H94       1.0  0.10684  0.52564  0.05407  1.0000
  H   H95       1.0  0.05116  0.55622  0.21168  1.0000
  H   H96       1.0  0.31957  0.84241  0.08337  1.0000
  H   H97       1.0  0.26955  0.71021  0.03766  1.0000
  C   C115      1.0  0.27884  0.74899  0.03648  1.0000
  H   H98       1.0  0.13732  0.85940  0.01093  1.0000
  C   C116      1.0  0.13219  0.97802  0.14324  1.0000
  C   C117      1.0  0.00321  0.70909  0.22566  1.0000
  C   C118      1.0  0.09585  0.90726  0.16912  1.0000
  H   H99       1.0  0.03486  0.77634  0.24373  1.0000
  C   C119      1.0  0.44009  0.96055  0.01332  1.0000
  C   C120      1.0  0.09528  0.97564  0.26869  1.0000
  C   C121      1.0  0.10616  0.59982  0.14485  1.0000
  C   C122      1.0  0.02815  0.64110  0.15354  1.0000
  H   H100      1.0  0.08372  0.86929  0.16801  1.0000
  H   H101      1.0  0.41090  0.85183  0.07392  1.0000
  C   C123      1.0  0.45046  0.85305  0.07075  1.0000
  S   S15       1.0  0.25959  0.98902  0.15533  1.0000
  H   H102      1.0  0.26095  0.75473  0.98712  1.0000
  C   C124      1.0  0.47487  0.81401  0.05586  1.0000
  H   H103      1.0  0.29907  0.75378  0.08600  1.0000
  H   H104      1.0  0.17532  0.51958  0.09308  1.0000
  H   H105      1.0  0.45419  0.78244  0.04746  1.0000
  C   C125      1.0  0.30049  0.84966  0.03384  1.0000
  C   C126      1.0  0.30740  0.82339  0.06211  1.0000
  C   C127      1.0  0.29581  0.77334  0.06361  1.0000
  C   C128      1.0  0.07071  0.63424  0.13537  1.0000
  H   H106      1.0  0.99776  0.58981  0.26689  1.0000
  H   H107      1.0  0.43784  0.92910  0.19852  1.0000
  C   C129      1.0  0.09290  0.93372  0.19767  1.0000
  S   S16       1.0  0.09108  0.76471  0.00577  1.0000
  H   H108      1.0  0.42286  0.93802  0.03130  1.0000
  S   S17       1.0  0.05854  0.61791  0.00125  1.0000
  H   H109      1.0  0.30879  0.88863  0.03358  1.0000
  C   C130      1.0  0.00675  0.74848  0.24705  1.0000
  H   H110      1.0  0.45712  0.92409  0.09243  1.0000
  C   C131      1.0  0.04588  0.96494  0.27594  1.0000
  C   C132      1.0  0.05628  0.57859  0.19064  1.0000
  H   H111      1.0  0.11884  0.90861  0.11997  1.0000
  H   H112      1.0  0.17135  0.96089  0.28165  1.0000
  C   C133      1.0  0.11558  0.92938  0.14194  1.0000
  C   C134      1.0  0.47692  0.89417  0.08123  1.0000
  H   H113      1.0  0.01625  0.98132  0.26217  1.0000
  C   C135      1.0  0.47974  0.94181  0.99519  1.0000
  H   H114      1.0  0.05635  0.50001  0.99136  1.0000
  H   H115      1.0  0.02887  0.70714  0.20600  1.0000
  C   C136      1.0  0.12133  0.92205  0.31198  1.0000
  C   C137      1.0  0.11022  0.98250  0.19923  1.0000
  C   C138      1.0  0.03439  0.93347  0.30124  1.0000
  C   C139      1.0  0.48595  0.93442  0.23968  1.0000
  C   C140      1.0  0.27520  0.95800  0.98993  1.0000
  H   H116      1.0  0.13878  0.59426  0.13047  1.0000
  H   H117      1.0  0.07563  0.65488  0.11347  1.0000
  S   S18       1.0  0.00419  0.55852  0.07539  1.0000
  C   C141      1.0  0.00508  0.49417  0.12641  1.0000
  C   C142      1.0  0.11234  0.49200  0.06762  1.0000
  H   H118      1.0  0.25167  0.77734  0.52784  1.0000
  C   C143      1.0  0.44304  0.92401  0.50328  1.0000
  H   H119      1.0  0.12039  0.64308  0.52405  1.0000
  H   H120      1.0  0.17498  0.56801  0.44159  1.0000
  H   H121      1.0  0.24499  0.53498  0.47330  1.0000
  H   H122      1.0  0.28531  0.75292  0.62633  1.0000
  C   C144      1.0  0.04731  0.96967  0.60531  1.0000
  C   C145      1.0  0.24566  0.69425  0.60287  1.0000
  H   H123      1.0  0.43429  0.88514  0.50315  1.0000
  C   C146      1.0  0.17816  0.57677  0.46668  1.0000
  S   S19       1.0  0.31934  0.88119  0.62833  1.0000
  Fe  Fe9       1.0  0.23904  0.90129  0.62819  1.0000
  S   S20       1.0  0.17751  0.84297  0.62646  1.0000
  S   S21       1.0  0.37960  0.92828  0.55472  1.0000
  C   C147      1.0  0.27211  0.76956  0.57705  1.0000
  S   S22       1.0  0.07003  0.72875  0.51215  1.0000
  H   H124      1.0  0.00422  0.62659  0.63167  1.0000
  C   C148      1.0  0.13332  0.62173  0.59158  1.0000
  C   C149      1.0  0.04838  0.59409  0.59496  1.0000
  C   C150      1.0  0.14778  0.81252  0.59404  1.0000
  C   C151      1.0  0.15732  0.82425  0.56222  1.0000
  C   C152      1.0  0.13300  0.79856  0.53749  1.0000
  C   C153      1.0  0.09784  0.76184  0.54418  1.0000
  C   C154      1.0  0.08726  0.75120  0.57599  1.0000
  C   C155      1.0  0.11260  0.77582  0.60069  1.0000
  H   H125      1.0  0.18405  0.85248  0.55661  1.0000
  H   H126      1.0  0.14155  0.80719  0.51298  1.0000
  H   H127      1.0  0.06013  0.72334  0.58149  1.0000
  H   H128      1.0  0.10457  0.76665  0.62517  1.0000
  C   C156      1.0  0.42086  0.95483  0.52622  1.0000
  H   H129      1.0  0.46056  0.79199  0.45539  1.0000
  H   H130      1.0  0.11288  0.62252  0.46730  1.0000
  C   C157      1.0  0.22347  0.67824  0.57444  1.0000
  C   C158      1.0  0.22188  0.56998  0.51691  1.0000
  C   C159      1.0  0.18648  0.60017  0.53161  1.0000
  C   C160      1.0  0.14737  0.61888  0.51335  1.0000
  C   C161      1.0  0.09467  0.59175  0.58063  1.0000
  C   C162      1.0  0.07211  0.91209  0.31929  1.0000
  C   C163      1.0  0.14312  0.60720  0.48110  1.0000
  H   H131      1.0  0.25305  0.55586  0.53017  1.0000
  P   P5        1.0  0.19316  0.61889  0.57271  1.0000
  H   H132      1.0  0.05970  0.53129  0.47642  1.0000
  C   C164      1.0  0.22587  0.70859  0.54738  1.0000
  H   H133      1.0  0.06329  0.88805  0.33910  1.0000
  H   H134      1.0  0.01602  0.51539  0.41710  1.0000
  H   H135      1.0  0.44673  0.86968  0.61384  1.0000
  H   H136      1.0  0.05545  0.85833  0.61438  1.0000
  Fe  Fe10      1.0  0.33146  0.94900  0.59803  1.0000
  H   H137      1.0  0.29980  0.60657  0.58082  1.0000
  H   H138      1.0  0.28985  0.80532  0.57813  1.0000
  C   C165      1.0  0.21753  0.55815  0.48458  1.0000
  H   H139      1.0  0.09989  0.56667  0.56090  1.0000
  H   H140      1.0  0.01838  0.57216  0.58575  1.0000
  C   C166      1.0  0.03600  0.85189  0.63649  1.0000
  H   H141      1.0  0.11906  0.93720  0.61334  1.0000
  C   C167      1.0  0.25063  0.75372  0.54864  1.0000
  H   H142      1.0  0.20817  0.69818  0.52532  1.0000
  C   C168      1.0  0.09529  0.96879  0.61752  1.0000
  H   H143      1.0  0.03380  0.93868  0.59160  1.0000
  S   S23       1.0  0.24978  0.96672  0.59610  1.0000
  H   H144      1.0  0.16755  0.53067  0.61017  1.0000
  C   C169      1.0  0.12521  0.65248  0.61798  1.0000
  C   C170      1.0  0.07892  0.65397  0.63264  1.0000
  C   C171      1.0  0.28154  0.57701  0.59350  1.0000
  C   C172      1.0  0.22986  0.57372  0.59370  1.0000
  C   C173      1.0  0.20726  0.53446  0.60986  1.0000
  H   H145      1.0  0.15062  0.90558  0.32603  1.0000
  Fe  Fe11      1.0  0.00009  0.68114  0.51319  1.0000
  C   C174      1.0  0.26948  0.73994  0.60419  1.0000
  H   H146      1.0  0.48209  0.94159  0.58600  1.0000
  C   C175      1.0  0.31009  0.54191  0.60957  1.0000
  C   C176      1.0  0.04041  0.62506  0.62092  1.0000
  H   H147      1.0  0.24417  0.67169  0.62410  1.0000
  H   H148      1.0  0.15409  0.67600  0.62702  1.0000
  H   H149      1.0  0.34993  0.54470  0.60942  1.0000
  C   C177      1.0  0.47618  0.94297  0.48037  1.0000
  C   C178      1.0  0.05701  0.49510  0.48720  1.0000
  H   H150      1.0  0.13266  0.49376  0.50268  1.0000
  H   H151      1.0  0.47939  0.78573  0.60328  1.0000
  S   S24       1.0  0.99405  0.59752  0.51387  1.0000
  C   C179      1.0  0.28731  0.50319  0.62582  1.0000
  C   C180      1.0  0.47750  0.86454  0.59773  1.0000
  C   C181      1.0  0.23594  0.49944  0.62591  1.0000
  C   C182      1.0  0.42401  0.91922  0.73351  1.0000
  C   C183      1.0  0.05814  0.96755  0.71720  1.0000
  H   H152      1.0  0.05241  0.92063  0.79246  1.0000
  H   H153      1.0  0.15935  0.75542  0.87910  1.0000
  C   C184      1.0  0.36857  0.93659  0.83332  1.0000
  C   C185      1.0  0.37452  0.83284  0.96094  1.0000
  H   H154      1.0  0.17400  0.89644  0.96278  1.0000
  C   C186      1.0  0.00428  0.50549  0.75700  1.0000
  H   H155      1.0  0.11116  0.55830  0.80798  1.0000
  C   C187      1.0  0.42685  0.87307  0.84864  1.0000
  H   H156      1.0  0.15138  0.91437  0.76109  1.0000
  S   S25       1.0  0.24674  0.94607  0.67330  1.0000
  H   H157      1.0  0.42200  0.85981  0.76759  1.0000
  C   C188      1.0  0.37996  0.88678  0.83801  1.0000
  C   C189      1.0  0.16398  0.88499  0.74570  1.0000
  C   C190      1.0  0.03548  0.56732  0.79344  1.0000
  C   C191      1.0  0.39804  0.91697  0.92579  1.0000
  C   C192      1.0  0.25405  0.82401  0.90877  1.0000
  C   C193      1.0  0.03455  0.85368  0.69432  1.0000
  H   H158      1.0  0.09708  0.77302  0.76027  1.0000
  C   C194      1.0  0.33789  0.86827  0.95467  1.0000
  C   C195      1.0  0.05623  0.93178  0.74136  1.0000
  C   C196      1.0  0.04563  0.49628  0.86750  1.0000
  H   H159      1.0  0.43719  0.98211  0.70348  1.0000
  C   C197      1.0  0.42255  0.83971  0.94986  1.0000
  H   H160      1.0  0.12329  0.79517  0.69528  1.0000
  C   C198      1.0  0.19610  0.80237  0.95025  1.0000
  C   C199      1.0  0.22512  0.79863  0.88656  1.0000
  H   H161      1.0  0.28723  0.84225  0.90075  1.0000
  C   C200      1.0  0.24737  0.91872  0.97759  1.0000
  H   H162      1.0  0.08233  0.51030  0.86335  1.0000
  H   H163      1.0  0.33192  0.94674  0.82541  1.0000
  C   C201      1.0  0.16728  0.77712  0.92806  1.0000
  C   C202      1.0  0.44194  0.89201  0.75963  1.0000
  H   H164      1.0  0.27167  0.83561  0.71888  1.0000
  S   S26       1.0  0.36839  0.89991  0.71462  1.0000
  H   H165      1.0  0.24073  0.90078  0.75481  1.0000
  C   C203      1.0  0.01650  0.51771  0.89157  1.0000
  H   H166      1.0  0.35253  0.85879  0.83323  1.0000
  C   C204      1.0  0.24001  0.82559  0.94092  1.0000
  Fe  Fe12      1.0  0.32853  0.93092  0.67067  1.0000
  C   C205      1.0  0.46228  0.90918  0.85474  1.0000
  C   C206      1.0  0.05198  0.94713  0.77320  1.0000
  C   C207      1.0  0.06260  0.78381  0.77118  1.0000
  C   C208      1.0  0.40439  0.97300  0.83859  1.0000
  H   H167      1.0  0.23623  0.79725  0.86183  1.0000
  C   C209      1.0  0.19904  0.81067  0.70556  1.0000
  H   H168      1.0  0.32219  0.93766  0.93097  1.0000
  Fe  Fe13      1.0  0.00999  0.60935  0.95787  1.0000
  C   C210      1.0  0.21474  0.87726  0.74242  1.0000
  C   C211      1.0  0.43429  0.88178  0.93235  1.0000
  H   H169      1.0  0.06304  0.95709  0.69257  1.0000
  H   H170      1.0  0.03061  0.60041  0.80749  1.0000
  H   H171      1.0  0.36623  0.80001  0.97455  1.0000
  C   C212      1.0  0.45042  0.96070  0.72348  1.0000
  S   S27       1.0  0.04057  0.56814  0.91411  1.0000
  C   C213      1.0  0.18181  0.77511  0.89622  1.0000
  H   H172      1.0  0.13353  0.75922  0.93575  1.0000
  C   C214      1.0  0.45114  0.95895  0.84992  1.0000
  H   H173      1.0  0.40767  0.94981  0.91263  1.0000
  P   P6        1.0  0.06465  0.86727  0.73181  1.0000
  C   C215      1.0  0.03882  0.82783  0.76233  1.0000
  C   C216      1.0  0.13027  0.85577  0.72867  1.0000
  C   C217      1.0  0.14826  0.81805  0.70890  1.0000
  H   H174      1.0  0.45100  0.81283  0.95515  1.0000
  P   P7        1.0  0.27616  0.85966  0.96969  1.0000
  H   H175      1.0  0.43587  0.83452  0.85216  1.0000
  C   C218      1.0  0.23227  0.84034  0.72221  1.0000
  C   C219      1.0  0.34983  0.91010  0.93654  1.0000
  H   H176      1.0  0.21266  0.78311  0.68909  1.0000
  C   C220      1.0  0.99628  0.54772  0.77567  1.0000
  H   H177      1.0  0.06071  0.71945  0.80138  1.0000
  C   C221      1.0  0.04201  0.75314  0.79443  1.0000
  H   H178      1.0  0.13488  0.97534  0.97587  1.0000
  C   C222      1.0  0.99376  0.84018  0.77681  1.0000
  C   C223      1.0  0.08143  0.54381  0.79352  1.0000
  S   S28       1.0  0.99485  0.69124  0.95553  1.0000
  H   H179      1.0  0.37648  0.98203  0.77482  1.0000
  C   C224      1.0  0.19669  0.92571  0.97215  1.0000
  C   C225      1.0  0.99745  0.76600  0.80891  1.0000
  C   C226      1.0  0.48572  0.90581  0.77548  1.0000
  H   H180      1.0  0.09524  0.87933  0.66522  1.0000
  H   H181      1.0  0.47176  0.88746  0.92425  1.0000
  C   C227      1.0  0.17419  0.97072  0.97945  1.0000
  H   H182      1.0  0.46847  0.87266  0.67558  1.0000
  H   H183      1.0  0.47917  0.98607  0.85529  1.0000
  H   H184      1.0  0.18398  0.80366  0.97476  1.0000
  C   C228      1.0  0.05861  0.86343  0.66545  1.0000
  C   C229      1.0  0.08872  0.50107  0.77553  1.0000
  H   H185      1.0  0.07265  0.67828  0.65266  1.0000
  S   S29       1.0  0.94680  0.26950  0.21016  1.0000
  S   S30       1.0  0.89419  0.34912  0.25820  1.0000
  Fe  Fe14      1.0  0.90776  0.26665  0.25761  1.0000
  S   S31       1.0  0.85210  0.20262  0.26029  1.0000
  Fe  Fe15      1.0  0.93879  0.35234  0.21254  1.0000
  S   S32       1.0  0.91111  0.39435  0.16802  1.0000
  H   H186      1.0  0.66460  0.18551  0.18707  1.0000
  C   C230      1.0  0.93803  0.43976  0.14246  1.0000
  C   C231      1.0  0.69136  0.21696  0.26373  1.0000
  H   H187      1.0  0.82763  0.37551  0.06355  1.0000
  C   C232      1.0  0.52371  0.18691  0.17721  1.0000
  C   C233      1.0  0.78739  0.13228  0.28260  1.0000
  C   C234      1.0  0.81543  0.17422  0.29050  1.0000
  H   H188      1.0  0.82707  0.03030  0.30032  1.0000
  C   C235      1.0  0.49955  0.14284  0.17003  1.0000
  H   H189      1.0  0.78925  0.11796  0.25865  1.0000
  C   C236      1.0  0.94970  0.34890  0.05739  1.0000
  C   C237      1.0  0.72864  0.25124  0.25776  1.0000
  C   C238      1.0  0.75709  0.10873  0.30533  1.0000
  H   H190      1.0  0.60375  0.01867  0.13626  1.0000
  H   H191      1.0  0.74829  0.26807  0.27743  1.0000
  C   C239      1.0  0.66726  0.19323  0.23839  1.0000
  H   H192      1.0  0.55875  0.06603  0.22107  1.0000
  H   H193      1.0  0.52435  0.18273  0.26421  1.0000
  H   H194      1.0  0.71576  0.11144  0.21678  1.0000
  H   H195      1.0  0.57871  0.22224  0.20589  1.0000
  H   H196      1.0  0.83779  0.38864  0.00577  1.0000
  C   C240      1.0  0.72483  0.03598  0.23006  1.0000
  H   H197      1.0  0.97668  0.45872  0.99944  1.0000
  H   H198      1.0  0.77254  0.28737  0.22215  1.0000
  H   H199      1.0  0.96059  0.23199  0.10911  1.0000
  C   C241      1.0  0.55056  0.09979  0.20841  1.0000
  C   C242      1.0  0.65477  0.08640  0.24599  1.0000
  C   C243      1.0  0.54506  0.17430  0.28554  1.0000
  C   C244      1.0  0.90354  0.35574  0.07137  1.0000
  H   H200      1.0  0.73597  0.07649  0.29884  1.0000
  H   H201      1.0  0.50006  0.03632  0.28578  1.0000
  C   C245      1.0  0.91077  0.45734  0.11620  1.0000
  H   H202      1.0  0.96067  0.16566  0.23578  1.0000
  H   H203      1.0  0.95627  0.30373  0.14544  1.0000
  C   C246      1.0  0.86334  0.36994  0.05261  1.0000
  C   C247      1.0  0.61835  0.14409  0.31214  1.0000
  H   H204      1.0  0.93107  0.44799  0.27814  1.0000
  C   C248      1.0  0.71864  0.23879  0.20116  1.0000
  C   C249      1.0  0.69951  0.08091  0.22951  1.0000
  C   C250      1.0  0.56142  0.18748  0.19995  1.0000
  C   C251      1.0  0.68134  0.20442  0.20701  1.0000
  C   C252      1.0  0.70540  0.99595  0.24667  1.0000
  C   C253      1.0  0.59290  0.15447  0.28384  1.0000
  C   C254      1.0  0.93740  0.48052  0.26378  1.0000
  H   H205      1.0  0.75990  0.03255  0.21797  1.0000
  C   C255      1.0  0.63532  0.04577  0.26244  1.0000
  C   C256      1.0  0.86934  0.37757  0.01990  1.0000
  C   C257      1.0  0.52291  0.00360  0.08740  1.0000
  C   C258      1.0  0.57571  0.14371  0.21536  1.0000
  H   H206      1.0  0.89489  0.45418  0.22398  1.0000
  H   H207      1.0  0.89906  0.35062  0.09682  1.0000
  C   C259      1.0  0.66045  0.00069  0.26245  1.0000
  H   H208      1.0  0.60076  0.04869  0.27525  1.0000
  C   C260      1.0  0.74245  0.26200  0.22654  1.0000
  Fe  Fe16      1.0  0.96777  0.35469  0.28365  1.0000
  H   H209      1.0  0.61917  0.01266  0.19404  1.0000
  C   C261      1.0  0.91584  0.37142  0.00582  1.0000
  H   H210      1.0  0.68290  0.20822  0.28819  1.0000
  P   P8        1.0  0.62272  0.14493  0.24589  1.0000
  H   H211      1.0  0.73006  0.24662  0.17700  1.0000
  H   H212      1.0  0.87389  0.44359  0.11220  1.0000
  H   H213      1.0  0.98084  0.33834  0.07197  1.0000
  S   S33       1.0  0.97864  0.27190  0.28535  1.0000
  C   C262      1.0  0.51299  0.09935  0.18562  1.0000
  C   C263      1.0  0.95582  0.35617  0.02472  1.0000
  C   C264      1.0  0.52313  0.03408  0.06037  1.0000
  H   H214      1.0  0.54662  0.02626  0.04026  1.0000
  H   H215      1.0  0.51269  0.22077  0.16548  1.0000
  C   C265      1.0  0.91691  0.48417  0.23335  1.0000
  H   H216      1.0  0.65504  0.12852  0.31147  1.0000
  C   C266      1.0  0.98530  0.45873  0.14753  1.0000
  H   H217      1.0  0.49340  0.06542  0.18063  1.0000
  H   H218      1.0  0.98916  0.12977  0.18474  1.0000
  C   C267      1.0  0.98919  0.13758  0.23566  1.0000
  C   C268      1.0  0.49150  0.07477  0.05859  1.0000
  H   H219      1.0  0.49074  0.09726  0.03728  1.0000
  C   C269      1.0  0.49045  0.01454  0.11251  1.0000
  C   C270      1.0  0.52314  0.18320  0.31511  1.0000
  C   C271      1.0  0.82040  0.99716  0.31407  1.0000
  H   H220      1.0  0.83775  0.48239  0.56771  1.0000
  S   S34       1.0  0.58146  0.03789  0.36430  1.0000
  Fe  Fe17      1.0  0.66438  0.03187  0.36889  1.0000
  S   S35       1.0  0.71709  0.09853  0.36644  1.0000
  C   C272      1.0  0.96373  0.42866  0.64858  1.0000
  H   H221      1.0  0.94855  0.23033  0.58629  1.0000
  C   C273      1.0  0.78244  0.16876  0.34438  1.0000
  C   C274      1.0  0.86769  0.13992  0.58746  1.0000
  H   H222      1.0  0.78072  0.18320  0.36834  1.0000
  H   H223      1.0  0.71609  0.01801  0.65012  1.0000
  C   C275      1.0  0.96429  0.34606  0.55689  1.0000
  H   H224      1.0  0.61720  0.14658  0.36333  1.0000
  C   C276      1.0  0.92237  0.10553  0.54777  1.0000
  H   H225      1.0  0.92567  0.21514  0.52991  1.0000
  H   H226      1.0  0.89591  0.44415  0.34041  1.0000
  S   S36       1.0  0.52988  0.01988  0.45209  1.0000
  H   H227      1.0  0.92969  0.09529  0.52328  1.0000
  H   H228      1.0  0.62562  0.01221  0.48428  1.0000
  C   C277      1.0  0.89133  0.33624  0.41424  1.0000
  C   C278      1.0  0.89726  0.35237  0.44564  1.0000
  C   C279      1.0  0.94388  0.36692  0.45678  1.0000
  H   H229      1.0  0.92624  0.28307  0.49112  1.0000
  C   C280      1.0  0.98484  0.44146  0.61911  1.0000
  C   C281      1.0  0.93621  0.25178  0.53749  1.0000
  C   C282      1.0  0.90175  0.43235  0.50567  1.0000
  H   H230      1.0  0.83387  0.22455  0.32818  1.0000
  H   H231      1.0  0.92735  0.32271  0.36929  1.0000
  C   C283      1.0  0.51995  0.05500  0.58068  1.0000
  C   C284      1.0  0.94922  0.26026  0.56922  1.0000
  H   H232      1.0  0.85516  0.32607  0.40550  1.0000
  H   H233      1.0  0.86537  0.35427  0.46108  1.0000
  H   H234      1.0  0.97600  0.38216  0.56465  1.0000
  H   H235      1.0  0.84839  0.13059  0.53805  1.0000
  H   H236      1.0  0.83270  0.15662  0.59377  1.0000
  C   C285      1.0  0.81274  0.19233  0.32163  1.0000
  C   C286      1.0  0.50789  0.05850  0.61290  1.0000
  H   H237      1.0  0.90234  0.42188  0.55699  1.0000
  P   P9        1.0  0.95095  0.38908  0.49712  1.0000
  C   C287      1.0  0.54912  0.17334  0.34315  1.0000
  C   C288      1.0  0.94944  0.11158  0.60281  1.0000
  C   C289      1.0  0.80964  0.00096  0.34649  1.0000
  H   H238      1.0  0.89265  0.45563  0.45654  1.0000
  C   C290      1.0  0.90409  0.13345  0.61071  1.0000
  C   C291      1.0  0.96909  0.48361  0.60207  1.0000
  C   C292      1.0  0.88590  0.44076  0.53706  1.0000
  C   C293      1.0  0.87999  0.45953  0.48085  1.0000
  H   H239      1.0  0.53221  0.18009  0.36610  1.0000
  C   C294      1.0  0.96311  0.30749  0.57893  1.0000
  C   C295      1.0  0.93659  0.29058  0.51550  1.0000
  C   C296      1.0  0.56110  0.02770  0.57120  1.0000
  C   C297      1.0  0.93194  0.33402  0.39388  1.0000
  C   C298      1.0  0.57839  0.00710  0.62643  1.0000
  H   H240      1.0  0.97275  0.31449  0.60359  1.0000
  C   C299      1.0  0.84865  0.47505  0.54335  1.0000
  C   C300      1.0  0.59024  0.00361  0.59395  1.0000
  C   C301      1.0  0.95040  0.33824  0.52510  1.0000
  C   C302      1.0  0.75441  0.12679  0.33647  1.0000
  C   C303      1.0  0.87662  0.12552  0.55606  1.0000
  C   C304      1.0  0.98466  0.36366  0.43632  1.0000
  C   C305      1.0  0.97181  0.44520  0.35520  1.0000
  C   C306      1.0  0.59690  0.15430  0.34162  1.0000
  H   H241      1.0  0.56993  0.02485  0.54609  1.0000
  C   C307      1.0  0.95893  0.09928  0.57094  1.0000
  H   H242      1.0  0.80777  0.03690  0.35775  1.0000
  Fe  Fe18      1.0  0.57732  0.99301  0.40983  1.0000
  H   H243      1.0  0.97970  0.01021  0.60126  1.0000
  H   H244      1.0  0.89692  0.14615  0.63473  1.0000
  H   H245      1.0  0.70913  0.02063  0.50764  1.0000
  C   C308      1.0  0.53719  0.03500  0.63574  1.0000
  C   C309      1.0  0.92228  0.45954  0.35695  1.0000
  S   S37       1.0  0.66011  0.99191  0.41607  1.0000
  H   H246      1.0  0.98072  0.48696  0.47488  1.0000
  C   C310      1.0  0.97858  0.34731  0.40501  1.0000
  H   H247      1.0  0.49724  0.07332  0.56301  1.0000
  C   C311      1.0  0.80053  0.43961  0.92138  1.0000
  S   S38       1.0  0.59626  0.01967  0.86757  1.0000
  Fe  Fe19      1.0  0.67967  0.02375  0.86859  1.0000
  S   S39       1.0  0.72486  0.09573  0.86689  1.0000
  C   C312      1.0  0.87999  0.47441  0.95718  1.0000
  C   C313      1.0  0.91041  0.23604  0.90732  1.0000
  H   H248      1.0  0.90629  0.20212  0.89389  1.0000
  S   S40       1.0  0.91106  0.33882  0.75270  1.0000
  Fe  Fe20      1.0  0.91334  0.25546  0.75574  1.0000
  S   S41       1.0  0.84920  0.19966  0.75494  1.0000
  Fe  Fe21      1.0  0.97161  0.33436  0.71603  1.0000
  C   C314      1.0  0.97151  0.10134  0.67165  1.0000
  C   C315      1.0  0.76109  0.12218  0.83555  1.0000
  C   C316      1.0  0.75791  0.10610  0.80391  1.0000
  C   C317      1.0  0.78535  0.12994  0.77975  1.0000
  C   C318      1.0  0.81703  0.16969  0.78677  1.0000
  C   C319      1.0  0.82093  0.18514  0.81848  1.0000
  C   C320      1.0  0.79288  0.16184  0.84255  1.0000
  H   H249      1.0  0.73375  0.07578  0.79801  1.0000
  H   H250      1.0  0.78185  0.11757  0.75539  1.0000
  H   H251      1.0  0.84481  0.21569  0.82439  1.0000
  H   H252      1.0  0.79564  0.17482  0.86682  1.0000
  H   H253      1.0  0.86138  0.41729  0.79934  1.0000
  H   H254      1.0  0.98555  0.14534  0.74716  1.0000
  Fe  Fe22      1.0  0.97294  0.33711  0.78897  1.0000
  H   H255      1.0  0.50075  0.04018  0.94704  1.0000
  C   C321      1.0  0.98085  0.43732  0.85439  1.0000
  C   C322      1.0  0.81320  0.46210  0.77032  1.0000
  H   H256      1.0  0.66398  0.14413  0.69236  1.0000
  H   H257      1.0  0.91441  0.44606  0.88199  1.0000
  H   H258      1.0  0.92720  0.47923  0.80170  1.0000
  H   H259      1.0  0.90937  0.19992  0.95291  1.0000
  C   C323      1.0  0.92021  0.32420  0.94192  1.0000
  C   C324      1.0  0.92984  0.07169  0.67671  1.0000
  S   S42       1.0  0.96790  0.25117  0.71531  1.0000
  H   H260      1.0  0.51468  0.00620  0.73114  1.0000
  P   P10       1.0  0.92441  0.38164  0.96374  1.0000
  C   C325      1.0  0.80444  0.48991  0.92808  1.0000
  C   C326      1.0  0.91844  0.32485  0.90851  1.0000
  C   C327      1.0  0.97019  0.12450  0.72749  1.0000
  C   C328      1.0  0.91215  0.23490  0.94058  1.0000
  C   C329      1.0  0.64098  0.07171  0.67708  1.0000
  C   C330      1.0  0.83643  0.40668  0.93245  1.0000
  C   C331      1.0  0.92755  0.09669  0.73203  1.0000
  C   C332      1.0  0.85658  0.45225  0.78712  1.0000
  H   H261      1.0  0.78434  0.43457  0.76933  1.0000
  H   H262      1.0  0.63846  0.08254  0.65232  1.0000
  C   C333      1.0  0.95135  0.45955  0.87797  1.0000
  C   C334      1.0  0.63467  0.01028  0.71867  1.0000
  C   C335      1.0  0.89412  0.48739  0.78823  1.0000
  S   S43       1.0  0.95705  0.38537  0.83313  1.0000
  H   H263      1.0  0.55332  0.07995  0.79585  1.0000
  C   C336      1.0  0.64916  0.04541  0.74116  1.0000
  C   C337      1.0  0.91377  0.28103  0.89130  1.0000
  H   H264      1.0  0.91022  0.45006  0.68368  1.0000
  H   H265      1.0  0.83206  0.36787  0.92728  1.0000
  C   C338      1.0  0.91710  0.27877  0.95787  1.0000
  C   C339      1.0  0.87722  0.42397  0.94986  1.0000
  H   H266      1.0  0.92048  0.35936  0.89567  1.0000
  H   H267      1.0  0.91266  0.28215  0.86548  1.0000
  C   C340      1.0  0.65985  0.09354  0.73168  1.0000
  H   H268      1.0  0.67150  0.12050  0.74922  1.0000
  C   C341      1.0  0.52414  0.09008  0.81224  1.0000
  H   H269      1.0  0.90954  0.09663  0.75508  1.0000
  H   H270      1.0  0.49906  0.17083  0.87194  1.0000
  C   C342      1.0  0.92709  0.45937  0.66116  1.0000
  C   C343      1.0  0.65562  0.10674  0.69965  1.0000
  H   H271      1.0  0.56575  0.14842  0.83422  1.0000
  H   H272      1.0  0.65198  0.03514  0.76608  1.0000
  C   C344      1.0  0.53110  0.12854  0.83388  1.0000
  H   H273      1.0  0.76969  0.42609  0.90751  1.0000
  C   C345      1.0  0.90771  0.06976  0.70675  1.0000
  C   C346      1.0  0.98438  0.40997  0.95874  1.0000
  H   H274      1.0  0.87464  0.04822  0.71046  1.0000
  S   S44       1.0  0.97224  0.25378  0.79309  1.0000
  C   C347      1.0  0.63046  0.02302  0.68637  1.0000
  S   S45       1.0  0.98384  0.37325  0.66775  1.0000
  H   H275      1.0  0.52742  0.03808  0.66068  1.0000
  C   C348      1.0  0.49361  0.14088  0.85526  1.0000
  H   H276      1.0  0.91804  0.27698  0.98357  1.0000
  H   H277      1.0  0.91383  0.05090  0.65731  1.0000
  H   H278      1.0  0.98247  0.20752  0.65386  1.0000
  H   H279      1.0  0.91009  0.48886  0.97107  1.0000
  H   H280      1.0  0.97500  0.49028  0.74244  1.0000
  H   H281      1.0  0.73001  0.97090  0.00932  1.0000
  C   C349      1.0  0.97797  0.51146  0.09998  1.0000
  C   C350      1.0  0.65207  0.95715  0.01186  1.0000
  C   C351      1.0  0.92378  0.83127  0.21680  1.0000
  H   H282      1.0  0.96480  0.88844  0.24049  1.0000
  H   H283      1.0  0.90945  0.52771  0.19113  1.0000
  C   C352      1.0  0.70363  0.97240  0.05779  1.0000
  C   C353      1.0  0.55258  0.85673  0.06246  1.0000
  H   H284      1.0  0.54502  0.78546  0.04036  1.0000
  H   H285      1.0  0.87814  0.59544  0.10095  1.0000
  C   C354      1.0  0.87618  0.61287  0.12416  1.0000
  H   H286      1.0  0.91336  0.71807  0.29732  1.0000
  S   S46       1.0  0.54893  0.93908  0.29137  1.0000
  H   H287      1.0  0.90719  0.64804  0.26003  1.0000
  H   H288      1.0  0.49880  0.89680  0.23764  1.0000
  C   C355      1.0  0.93490  0.67610  0.25601  1.0000
  C   C356      1.0  0.88195  0.80130  0.21767  1.0000
  H   H289      1.0  0.87614  0.77405  0.19919  1.0000
  C   C357      1.0  0.69832  0.96727  0.02486  1.0000
  P   P11       1.0  0.96374  0.62007  0.20347  1.0000
  C   C358      1.0  0.89785  0.87091  0.26568  1.0000
  H   H290      1.0  0.86962  0.67571  0.20688  1.0000
  C   C359      1.0  0.52806  0.89682  0.07655  1.0000
  C   C360      1.0  0.92503  0.52623  0.21485  1.0000
  C   C361      1.0  0.73544  0.85646  0.25201  1.0000
  H   H291      1.0  0.81572  0.78266  0.24287  1.0000
  C   C362      1.0  0.64838  0.85183  0.26466  1.0000
  C   C363      1.0  0.59440  0.93757  0.19756  1.0000
  H   H292      1.0  0.59876  0.93596  0.22320  1.0000
  C   C364      1.0  0.91302  0.62868  0.17597  1.0000
  H   H293      1.0  0.55367  0.86761  0.13591  1.0000
  C   C365      1.0  0.56872  0.89935  0.14811  1.0000
  C   C366      1.0  0.85473  0.84232  0.26601  1.0000
  H   H294      1.0  0.59218  0.85726  0.05924  1.0000
  H   H295      1.0  0.80662  0.64834  0.11491  1.0000
  C   C367      1.0  0.57643  0.89667  0.18101  1.0000
  H   H296      1.0  0.56716  0.86331  0.19386  1.0000
  H   H297      1.0  0.72527  0.96138  0.24756  1.0000
  C   C368      1.0  0.83602  0.64269  0.13204  1.0000
  C   C369      1.0  0.91425  0.60563  0.14608  1.0000
  C   C370      1.0  0.84773  0.80648  0.24233  1.0000
  H   H298      1.0  0.94489  0.58224  0.13956  1.0000
  C   C371      1.0  0.93196  0.86575  0.24095  1.0000
  C   C372      1.0  0.52597  0.81574  0.05186  1.0000
  C   C373      1.0  0.57866  0.94325  0.13159  1.0000
  C   C374      1.0  0.60534  0.98099  0.18119  1.0000
  C   C375      1.0  0.83387  0.66509  0.16197  1.0000
  H   H299      1.0  0.90528  0.89712  0.28450  1.0000
  H   H300      1.0  0.76391  0.86437  0.23477  1.0000
  P   P12       1.0  0.56236  0.94993  0.09008  1.0000
  S   S47       1.0  0.94206  0.59205  0.98661  1.0000
  H   H301      1.0  0.80245  0.68785  0.16811  1.0000
  C   C376      1.0  0.68602  0.85891  0.24243  1.0000
  H   H302      1.0  0.95017  0.82729  0.19760  1.0000
  H   H303      1.0  0.82762  0.94895  0.27396  1.0000
  H   H304      1.0  0.61001  0.85516  0.25764  1.0000
  H   H305      1.0  0.77113  0.74821  0.30428  1.0000
  C   C377      1.0  0.87218  0.65813  0.18391  1.0000
  C   C378      1.0  0.74747  0.84575  0.28381  1.0000
  H   H306      1.0  0.90900  0.50562  0.07502  1.0000
  C   C379      1.0  0.66264  0.96750  0.07776  1.0000
  C   C380      1.0  0.50394  0.96420  0.26462  1.0000
  C   C381      1.0  0.82126  0.95094  0.29934  1.0000
  C   C382      1.0  0.61589  0.95759  0.06483  1.0000
  S   S48       1.0  0.97131  0.68651  0.03238  1.0000
  H   H307      1.0  0.67683  0.86745  0.21794  1.0000
  H   H308      1.0  0.64516  0.96937  0.27493  1.0000
  H   H309      1.0  0.57570  0.94408  0.02108  1.0000
  C   C383      1.0  0.61112  0.95220  0.03171  1.0000
  Fe  Fe23      1.0  0.92929  0.67505  0.98629  1.0000
  C   C384      1.0  0.97436  0.75175  0.27283  1.0000
  C   C385      1.0  0.95302  0.56544  0.22703  1.0000
  H   H310      1.0  0.66787  0.97109  0.10312  1.0000
  H   H311      1.0  0.64782  0.95300  0.98630  1.0000
  C   C386      1.0  0.93832  0.71569  0.27723  1.0000
  P   P13       1.0  0.81037  0.84866  0.29776  1.0000
  C   C387      1.0  0.66013  0.84163  0.29634  1.0000
  C   C388      1.0  0.70941  0.83841  0.30585  1.0000
  C   C389      1.0  0.96656  0.51863  0.27568  1.0000
  H   H312      1.0  0.73965  0.97999  0.06779  1.0000
  Fe  Fe24      1.0  0.98948  0.60507  0.03019  1.0000
  C   C390      1.0  0.97463  0.56087  0.25735  1.0000
  C   C391      1.0  0.96738  0.67243  0.23006  1.0000
  C   C392      1.0  0.59702  0.98407  0.14841  1.0000
  C   C393      1.0  0.93061  0.49262  0.09499  1.0000
  H   H313      1.0  0.97724  0.78216  0.28945  1.0000
  H   H314      1.0  0.49298  0.90482  0.99974  1.0000
  H   H315      1.0  0.98295  0.51509  0.29915  1.0000
  C   C394      1.0  0.81296  0.90795  0.31721  1.0000
  H   H316      1.0  0.63098  0.83748  0.31379  1.0000
  Fe  Fe25      1.0  0.65831  0.92182  0.38779  1.0000
  S   S49       1.0  0.70214  0.85033  0.39525  1.0000
  C   C395      1.0  0.61579  0.93778  0.50084  1.0000
  S   S50       1.0  0.57535  0.92068  0.38345  1.0000
  S   S51       1.0  0.87374  0.61541  0.50905  1.0000
  Fe  Fe26      1.0  0.88871  0.69688  0.50748  1.0000
  S   S52       1.0  0.83190  0.75984  0.50864  1.0000
  H   H317      1.0  0.63346  0.80574  0.58602  1.0000
  C   C396      1.0  0.73973  0.82766  0.42685  1.0000
  C   C397      1.0  0.76592  0.78342  0.42219  1.0000
  C   C398      1.0  0.79534  0.76290  0.44658  1.0000
  C   C399      1.0  0.79837  0.78609  0.47625  1.0000
  C   C400      1.0  0.77215  0.83041  0.48095  1.0000
  C   C401      1.0  0.74330  0.85135  0.45636  1.0000
  H   H318      1.0  0.76309  0.76464  0.39959  1.0000
  H   H319      1.0  0.81489  0.72865  0.44265  1.0000
  H   H320      1.0  0.77407  0.84852  0.50382  1.0000
  H   H321      1.0  0.72334  0.88535  0.46038  1.0000
  S   S53       1.0  0.94069  0.69233  0.54941  1.0000
  Fe  Fe27      1.0  0.93084  0.60956  0.54799  1.0000
  H   H322      1.0  0.63612  0.84251  0.45762  1.0000
  H   H323      1.0  0.79284  0.90140  0.60224  1.0000
  H   H324      1.0  0.59738  0.81879  0.40707  1.0000
  C   C402      1.0  0.87237  0.76528  0.36864  1.0000
  C   C403      1.0  0.98898  0.83113  0.63596  1.0000
  Fe  Fe28      1.0  0.58518  0.96518  0.33834  1.0000
  C   C404      1.0  0.49922  0.80187  0.45611  1.0000
  C   C405      1.0  0.57606  0.81736  0.42885  1.0000
  H   H325      1.0  0.71780  0.83157  0.33064  1.0000
  C   C406      1.0  0.79936  0.75352  0.32218  1.0000
  H   H326      1.0  0.70057  0.87323  0.54402  1.0000
  S   S54       1.0  0.91795  0.55840  0.43080  1.0000
  S   S55       1.0  0.66846  0.96130  0.34103  1.0000
  C   C407      1.0  0.81138  0.71437  0.34251  1.0000
  C   C408      1.0  0.82334  0.79912  0.32528  1.0000
  S   S56       1.0  0.91238  0.56967  0.59513  1.0000
  C   C409      1.0  0.82652  0.50096  0.51841  1.0000
  C   C410      1.0  0.93269  0.51456  0.61472  1.0000
  C   C411      1.0  0.70960  0.94735  0.52766  1.0000
  H   H327      1.0  0.69491  0.74330  0.60208  1.0000
  H   H328      1.0  0.66513  0.77404  0.48735  1.0000
  C   C412      1.0  0.80138  0.91220  0.34966  1.0000
  H   H329      1.0  0.54817  0.93047  0.54695  1.0000
  H   H330      1.0  0.79216  0.88000  0.36368  1.0000
  H   H331      1.0  0.85644  0.69022  0.38195  1.0000
  H   H332      1.0  0.86832  0.50460  0.38123  1.0000
  H   H333      1.0  0.50920  0.79482  0.40542  1.0000
  C   C413      1.0  0.84773  0.72030  0.36581  1.0000
  H   H334      1.0  0.82668  0.51488  0.46791  1.0000
  C   C414      1.0  0.53379  0.81069  0.56953  1.0000
  C   C415      1.0  0.79983  0.95852  0.36421  1.0000
  C   C416      1.0  0.94018  0.51454  0.40223  1.0000
  H   H335      1.0  0.88036  0.83889  0.35066  1.0000
  H   H336      1.0  0.78976  0.96158  0.38910  1.0000
  H   H337      1.0  0.90005  0.76995  0.38704  1.0000
  H   H338      1.0  0.79211  0.67953  0.34053  1.0000
  S   S57       1.0  0.94861  0.68914  0.47107  1.0000
  H   H339      1.0  0.72663  0.71309  0.50402  1.0000
  C   C417      1.0  0.71616  0.88783  0.61204  1.0000
  C   C418      1.0  0.53539  0.89870  0.55995  1.0000
  C   C419      1.0  0.55446  0.85150  0.55385  1.0000
  C   C420      1.0  0.86070  0.80438  0.34821  1.0000
  P   P14       1.0  0.60098  0.84237  0.52356  1.0000
  C   C421      1.0  0.63599  0.89841  0.51822  1.0000
  C   C422      1.0  0.64321  0.79387  0.53540  1.0000
  C   C423      1.0  0.65251  0.78494  0.56783  1.0000
  C   C424      1.0  0.68760  0.74985  0.57709  1.0000
  C   C425      1.0  0.71411  0.72382  0.55407  1.0000
  C   C426      1.0  0.70511  0.73242  0.52184  1.0000
  C   C427      1.0  0.66998  0.76731  0.51248  1.0000
  C   C428      1.0  0.68335  0.90338  0.53138  1.0000
  H   H340      1.0  0.57979  0.93457  0.48988  1.0000
  C   C429      1.0  0.57142  0.82746  0.48622  1.0000
  C   C430      1.0  0.52161  0.81338  0.48518  1.0000
  H   H341      1.0  0.74234  0.69758  0.56107  1.0000
  Fe  Fe29      1.0  0.93726  0.60668  0.47458  1.0000
  C   C431      1.0  0.67252  0.90665  0.62500  1.0000
  C   C432      1.0  0.59812  0.83035  0.45769  1.0000
  H   H342      1.0  0.74639  0.95065  0.53745  1.0000
  C   C433      1.0  0.49759  0.90519  0.58210  1.0000
  C   C434      1.0  0.52651  0.80358  0.42797  1.0000
  H   H343      1.0  0.54632  0.77367  0.56420  1.0000
  C   C435      1.0  0.68875  0.98668  0.51085  1.0000
  H   H344      1.0  0.71684  0.85131  0.60166  1.0000
  H   H345      1.0  0.97201  0.82158  0.61340  1.0000
  H   H346      1.0  0.49955  0.81194  0.50656  1.0000
  C   C436      1.0  0.67195  0.95358  0.63915  1.0000
  H   H347      1.0  0.63932  0.88454  0.62414  1.0000
  C   C437      1.0  0.75916  0.91606  0.61244  1.0000
  C   C438      1.0  0.64180  0.98191  0.49757  1.0000
  C   C439      1.0  0.49571  0.81729  0.59156  1.0000
  C   C440      1.0  0.75872  0.96303  0.62607  1.0000
  C   C441      1.0  0.90671  0.49390  0.38025  1.0000
  C   C442      1.0  0.91176  0.50193  0.64431  1.0000
  H   H348      1.0  0.79824  0.52811  0.52339  1.0000
  C   C443      1.0  0.98965  0.49996  0.40060  1.0000
  H   H349      1.0  0.62167  0.98233  0.58599  1.0000
  H   H350      1.0  0.98516  0.49200  0.57917  1.0000
  C   C444      1.0  0.84236  0.49335  0.48719  1.0000
  C   C445      1.0  0.71537  0.98174  0.63946  1.0000
  H   H351      1.0  0.49249  0.91875  0.46285  1.0000
  H   H352      1.0  0.79211  0.98488  0.62651  1.0000
  Fe  Fe30      1.0  0.69144  0.91082  0.87417  1.0000
  S   S58       1.0  0.75534  0.85413  0.87500  1.0000
  P   P15       1.0  0.93702  0.57805  0.77481  1.0000
  C   C446      1.0  0.58168  0.85373  0.70816  1.0000
  C   C447      1.0  0.92398  0.61246  0.81060  1.0000
  S   S59       1.0  0.60905  0.89825  0.87070  1.0000
  C   C448      1.0  0.88124  0.67927  0.83771  1.0000
  H   H353      1.0  0.51170  0.81704  0.71308  1.0000
  H   H354      1.0  0.88916  0.68099  0.88880  1.0000
  H   H355      1.0  0.60041  0.82976  0.72492  1.0000
  H   H356      1.0  0.85722  0.71129  0.83705  1.0000
  C   C449      1.0  0.78282  0.81717  0.90574  1.0000
  C   C450      1.0  0.83109  0.79887  0.90146  1.0000
  C   C451      1.0  0.85349  0.76744  0.92423  1.0000
  C   C452      1.0  0.82738  0.75240  0.95127  1.0000
  C   C453      1.0  0.77922  0.77089  0.95562  1.0000
  C   C454      1.0  0.75729  0.80336  0.93328  1.0000
  H   H357      1.0  0.85139  0.80931  0.88040  1.0000
  H   H358      1.0  0.89080  0.75455  0.92073  1.0000
  H   H359      1.0  0.83872  0.57833  0.74496  1.0000
  H   H360      1.0  0.72014  0.81667  0.93696  1.0000
  H   H361      1.0  0.64572  0.89799  0.69959  1.0000
  C   C455      1.0  0.93082  0.62843  0.68298  1.0000
  S   S60       1.0  0.56784  0.96635  0.78434  1.0000
  H   H362      1.0  0.92728  0.80718  0.66407  1.0000
  H   H363      1.0  0.92033  0.61401  0.65985  1.0000
  C   C456      1.0  0.96404  0.82274  0.66450  1.0000
  H   H364      1.0  0.77304  0.51546  0.74249  1.0000
  C   C457      1.0  0.96310  0.69472  0.71539  1.0000
  H   H365      1.0  0.75854  0.75974  0.97638  1.0000
  P   P16       1.0  0.61569  0.97719  0.65644  1.0000
  C   C458      1.0  0.94874  0.67654  0.68566  1.0000
  H   H366      1.0  0.94597  0.51583  0.91443  1.0000
  Fe  Fe31      1.0  0.60207  0.96141  0.90583  1.0000
  C   C459      1.0  0.60708  0.89279  0.69399  1.0000
  C   C460      1.0  0.53246  0.91754  0.66654  1.0000
  C   C461      1.0  0.97330  0.80945  0.80003  1.0000
  C   C462      1.0  0.89337  0.65432  0.80961  1.0000
  S   S61       1.0  0.55247  0.94422  0.94924  1.0000
  C   C463      1.0  0.51208  0.94726  0.76554  1.0000
  H   H367      1.0  0.84691  0.54626  0.95153  1.0000
  C   C464      1.0  0.50743  0.87790  0.68032  1.0000
  H   H368      1.0  0.91465  0.56079  0.70727  1.0000
  H   H369      1.0  0.49862  0.89866  0.86307  1.0000
  H   H370      1.0  0.49961  0.88387  0.79499  1.0000
  S   S62       1.0  0.68471  0.97125  0.91053  1.0000
  C   C465      1.0  0.89911  0.66226  0.86695  1.0000
  C   C466      1.0  0.88895  0.53241  0.77207  1.0000
  C   C467      1.0  0.84397  0.50723  0.94617  1.0000
  C   C468      1.0  0.95881  0.66507  0.74249  1.0000
  H   H371      1.0  0.87802  0.66712  0.78728  1.0000
  C   C469      1.0  0.93979  0.61709  0.74007  1.0000
  C   C470      1.0  0.53180  0.84645  0.70145  1.0000
  Fe  Fe32      1.0  0.60696  0.95727  0.83271  1.0000
  H   H372      1.0  0.95200  0.69938  0.66458  1.0000
  H   H373      1.0  0.51219  0.94169  0.65082  1.0000
  C   C471      1.0  0.84448  0.54294  0.75631  1.0000
  C   C472      1.0  0.58243  0.92580  0.67364  1.0000
  C   C473      1.0  0.94076  0.59507  0.84014  1.0000
  S   S63       1.0  0.85209  0.70943  0.97967  1.0000
  C   C474      1.0  0.96907  0.49922  0.89650  1.0000
  S   S64       1.0  0.68998  0.96403  0.83256  1.0000
  C   C475      1.0  0.92892  0.62027  0.86813  1.0000
  C   C476      1.0  0.92703  0.59851  0.70999  1.0000
  C   C477      1.0  0.50209  0.97018  0.97106  1.0000
  H   H374      1.0  0.93876  0.81947  0.81135  1.0000
  C   C478      1.0  0.98651  0.83430  0.69356  1.0000
  H   H375      1.0  0.62658  0.97354  0.72695  1.0000
  H   H376      1.0  0.96626  0.82770  0.71525  1.0000
  H   H377      1.0  0.96246  0.56164  0.84162  1.0000
  H   H378      1.0  0.88307  0.52501  0.65418  1.0000
  H   H379      1.0  0.97431  0.87359  0.77012  1.0000
  C   C479      1.0  0.80699  0.50759  0.75511  1.0000
  H   H380      1.0  0.77680  0.51549  0.91936  1.0000
  H   H381      1.0  0.94241  0.60689  0.89087  1.0000
  C   C480      1.0  0.49437  0.97430  0.73925  1.0000
  H   H382      1.0  0.97085  0.67934  0.76526  1.0000
  H   H383      1.0  0.97791  0.73161  0.71744  1.0000
  H   H384      1.0  0.98170  0.74242  0.82712  1.0000
