data_image0
_chemical_formula_structural       SH3FeSFeS2FeS2FeSFeHS2CSHFeCSFeSHCHSCSHSFeSH5C6H4C6H4C6H4C6H4C2HC2HC2HCHCH2C5HCHCSHC2HCHCH4CHCPHCHCHSCHCHCHCHCHC2H6CHC7HC4H5CHCHSHCHC4SC11H2CHCHC4HC2H7C2SH5C7PC14H2PCH6CH2CHCH2C4HCSPCHCSHC3HC8HC3H4CPCH2C2H2C2H2C2HCHC3HFeCHCFeCSCH5CH2C2HCFeCPCHCHCH3CHCHCHCSCSHC2FeSFeS2FeS2FeSFeCS2HSCFeHSFeSH3SCSH2FeSFeC2H2C6H3C7H4C6H4C6H7CHC3FeH2CHCHSCHC6PHC4H2CH6C2H5C5HCH5C4HC2HCH2CH2CHCH3C2H2CHCH2C3HCH2C3HCHC8H2CPC2PHPCH2C7H2C9H2C2HC2H6C4HCPCH2CH3C3H2C4SHCH2C2H3C2H3CH2CHCHCSCSC3SC4HCHCHC6HC2H3CH2C2HPC2HCH2C2H2C2HC4SHC2H5C2SC2FeH3CPH5FeHCH2CHC3HCFeS2FeS2FeSFeS3CSCFeHSCHFeS2C2SFeS2HFeSC2SCH5CH2SHC7H3CSH3C6H4C2HCHC6H4C6H4C2HFeCH2CFeH4CSCPHC6HCH2C8HCH5C2PCH4C3H2C2HCHCSHC2HCH3C4HCFeCH3CH4CH2C2H4CHCHCHC2H2PCHC2HCH3C2H2CHCH7CHCHCHC2HCHCH4CHCHC5PC10HC5HC3HCHSH3C5HC3HFeC8HCH2FeHCHCH2CHCSPHC5HFeS2FeS2FeSFeCS2CSCFeS2FeCFeS2H2SFeS2HFeSCHSH3C2HPC2HC7H5C2H2C6H5C2FeC7H4C6H5C2HSH2C2H2SHCHCH2CHSC3PC17H9CH4C3PC4HC5H2C6FeCHC2HC3SHC2H7CHCH3CPC8FeCH2CH2CH2C3HCH6C2SH2CH2C6HCH2CHC2H3CHC2H3CH3CH3C3HCH3SC2H3CHCH2C6PC2HC2H2C11H8SH11C3H2C2H3CPC2HCSH2C2H2CHC2H2CHC4HC8HCHCHC4HC2HC2HC2HC2S2C3FeSHSHSFeSHSFeC2SC4H5CH3C2H3C3FeC5SHPCH2CH3C2HCHC3HCHC2H4C6HCHC4PCH6CFeH4PC3H2SH2FeCH3CH3CHCHC2HCSC2H4CHCH3C2HSCH4C2SHCH2SCHCHC2FeC3HC2FeCSHC2HC4HC3HC9HCH4C4H2CH4C4HFeSCS2CFeCFeSCS3FeSHSFeCHC3HCH3CH2C5H3CHCHCHCH3CHC3HCFeCSCH4C5H2CH2CSH2C4HC3HCHC3H3C2H3C3H2CH2CHCPH2CH2CHCH2C2SC6HC5H2CH2C2H8SH4C3H5CH3C6PC3H6C7HSCH2CHC2H3C2HCHFeCHCHSHFeSHC2SFeS2CFeSC2SCFeHC2HS2C3HCH4C2HCH2CHC2H2C6H2C3PHC2H3C3FeC6HCH2C6H2CHC2SC7PH3CSHC4HCH2SCHC2HFeH2C2H3FeHC3H2CH2C2HCH3CSHC4H3PCH2CH6CH2CH2SC3HC8HCHCHCHCPHCH2CHCHC6HCHC3H2CHC3HCH2C2HCH2C3HCH3C3HC2PCH2CHC3HCHCHCH2SCHCHC2FeSHC3SC3HCH3CH3C5H3CPSHFeSHSC2FeS2CFeSH2SHFeSC2HSH2C2HC2PCHPCH3C2SCH3SH2FeC4HC2PHC3HC5HCSC2HCHC5H3CHC2HCH3CH4CH2CHFeC2H2C3HC4H7C4H2C3H4C2H2C3SCHC5HCHC2SHCHSHC2HFeC4HCH3C4HC4HFeC2SCHCHCHCHCH3C3SH2C2HC7H2PCH2CFeH2C2HC5HC2HCSC5HCH5C3HCHSHCH2CH2CHC3FeS2FeS2FeSFeS3CSHFeHSFeSHCHS2HFeSCSFeSPSHSH3CHPHC2H2C6H3C7H4CSC7H4C6H5C10PC5HC4HC5H10CH3CH3CH3C3HCH2CH2CHC3H2CH3C2HC2HCHCHCHC2H7C2HCSC5HC6HFeC4H9CH10C5HCH2CSH2CH4CHCHC3H2CFeH3C3HC2HCH4CHCHC4HCHCHC7PC18H5C3HC3FeH2C2H2C2HCHFeC2HC3HCH2SH2C2P2HFeS2FeS2FeSFeS3CSCFeCSFeSHSHS2HFeSC2FeSFeC2SC2H6C9H4C6H4CHC7H4C6H5C2H2CHC3HPH2C2HCHC2HC2H4PC2HCHCHC3H2C2HCSCSC9PC18H12CH8C2FeH2CSH2CH3C2H3CH5CPHCHC2H2C2SCHC3H2C3HCH6CH2C2H2C2SCH5CHC4PC6HC4HFeC2H8C4HCHCHC2H3CH2C7HC3HCH2C2PHC14HCH2CHC4HSCHC2HSH3C2HCHCHSCH2CH2C4H2CHCHCHCPC2HCHSCSCFeCSH2FeS2HFeS2FeS2FeSFeS3HSFeS3HSFeSH2CHCHCHCHC7H4C6H3PC6H4C6H5CHCHCH3CHC2PC8HCHCHSH9C2HC2H4CHFeHCHC2HC2HC2H7C4H2C2H5C3HC3HC2HC4H2C2H2C11FeC2H2C2HC3H2C2H4C2PCFeHC4H2PC8HC11H5CPH5CH5C3H2SC2H3C2H2CH2CH2CHSHC2HC6PC7H4C2HCSCHCH2CHCH6C2H2SFeCSCHC3PC7HCHSCFeCSHCFeS2HFeS2FeS2FeSFeS3CSFeSCSHSFeSCSHC2HC2HC8H4C6H4C6H4C6H5C3H2C2H2CSC7PC18H20CH3C5HC2H2C3HC3HC2HCHCHCH2CFeCPHC9HCH3CHC2SCH2CH4C6H3CHCHCH6C4H5PH2CHC2HC4HSCHCH6CHCH4C2H2C3HC3HCHSH2CHC3HCH5CPCH2C3HCHPHC2HC6HC2FeH2FeCH2C2SC2H2C2HC3HFeC2HCH2C2H2CSC4H2CH2CH2FeC
_chemical_formula_sum              "S256 H1536 Fe128 C1920 P64"
_cell_length_a       54.5911
_cell_length_b       54.3958
_cell_length_c       41.9416
_cell_angle_alpha    90.2887
_cell_angle_beta     90.1845
_cell_angle_gamma    89.709

_space_group_name_H-M_alt    "P 1"
_space_group_IT_number       1

loop_
  _space_group_symop_operation_xyz
  'x, y, z'

loop_
  _atom_site_type_symbol
  _atom_site_label
  _atom_site_symmetry_multiplicity
  _atom_site_fract_x
  _atom_site_fract_y
  _atom_site_fract_z
  _atom_site_occupancy
  S   S1        1.0  0.06063  0.00783  0.34601  1.0000
  H   H1        1.0  0.21374  0.01564  0.99840  1.0000
  H   H2        1.0  0.12549  0.26483  0.04897  1.0000
  H   H3        1.0  0.30155  0.34657  0.30229  1.0000
  Fe  Fe1       1.0  0.10183  0.00322  0.34635  1.0000
  S   S2        1.0  0.13018  0.03435  0.34230  1.0000
  Fe  Fe2       1.0  0.24389  0.16393  0.19487  1.0000
  S   S3        1.0  0.27909  0.16149  0.22347  1.0000
  S   S4        1.0  0.23510  0.18387  0.14761  1.0000
  Fe  Fe3       1.0  0.21763  0.12566  0.23791  1.0000
  S   S5        1.0  0.25087  0.12176  0.26914  1.0000
  S   S6        1.0  0.18293  0.10154  0.23744  1.0000
  Fe  Fe4       1.0  0.25409  0.16323  0.26666  1.0000
  S   S7        1.0  0.26548  0.18359  0.31297  1.0000
  Fe  Fe5       1.0  0.27325  0.12022  0.22387  1.0000
  H   H4        1.0  0.27863  0.03733  0.19463  1.0000
  S   S8        1.0  0.21916  0.16733  0.23798  1.0000
  S   S9        1.0  0.23978  0.12264  0.19283  1.0000
  C   C1        1.0  0.17430  0.99356  0.05416  1.0000
  S   S10       1.0  0.26428  0.34300  0.02592  1.0000
  H   H5        1.0  0.12972  0.01892  0.21221  1.0000
  Fe  Fe6       1.0  0.24940  0.30155  0.44022  1.0000
  C   C2        1.0  0.27776  0.46981  0.15806  1.0000
  S   S11       1.0  0.23958  0.28176  0.39284  1.0000
  Fe  Fe7       1.0  0.25905  0.30173  0.02674  1.0000
  S   S12       1.0  0.26440  0.28382  0.07608  1.0000
  H   H6        1.0  0.23326  0.46747  0.06110  1.0000
  C   C3        1.0  0.01903  0.98931  0.46280  1.0000
  H   H7        1.0  0.08911  0.99815  0.00930  1.0000
  S   S13       1.0  0.24385  0.34287  0.44136  1.0000
  C   C4        1.0  0.16837  0.30236  0.44935  1.0000
  S   S14       1.0  0.06313  0.45659  0.09825  1.0000
  H   H8        1.0  0.17316  0.27990  0.01913  1.0000
  S   S15       1.0  0.04696  0.46925  0.18910  1.0000
  Fe  Fe8       1.0  0.10441  0.45395  0.09799  1.0000
  S   S16       1.0  0.12389  0.41661  0.09398  1.0000
  H   H9        1.0  0.08129  0.12386  0.31927  1.0000
  H   H10       1.0  0.00200  0.47098  0.14651  1.0000
  H   H11       1.0  0.17330  0.00545  0.10330  1.0000
  H   H12       1.0  0.01039  0.46575  0.03303  1.0000
  H   H13       1.0  0.05032  0.24631  0.03194  1.0000
  C   C5        1.0  0.18215  0.38768  0.02336  1.0000
  C   C6        1.0  0.17605  0.37434  0.05056  1.0000
  C   C7        1.0  0.15869  0.38382  0.07232  1.0000
  C   C8        1.0  0.14728  0.40674  0.06725  1.0000
  C   C9        1.0  0.15396  0.42045  0.04055  1.0000
  C   C10       1.0  0.17114  0.41086  0.01862  1.0000
  H   H14       1.0  0.18429  0.35650  0.05444  1.0000
  H   H15       1.0  0.15384  0.37323  0.09307  1.0000
  H   H16       1.0  0.14549  0.43818  0.03645  1.0000
  H   H17       1.0  0.03907  0.48600  0.34366  1.0000
  C   C11       1.0  0.24466  0.21109  0.12737  1.0000
  C   C12       1.0  0.26153  0.22756  0.14053  1.0000
  C   C13       1.0  0.26763  0.24937  0.12424  1.0000
  C   C14       1.0  0.25731  0.25497  0.09426  1.0000
  C   C15       1.0  0.24120  0.23798  0.08047  1.0000
  C   C16       1.0  0.23472  0.21640  0.09709  1.0000
  H   H18       1.0  0.26991  0.22339  0.16320  1.0000
  H   H19       1.0  0.28074  0.26181  0.13477  1.0000
  H   H20       1.0  0.23367  0.24144  0.05706  1.0000
  H   H21       1.0  0.22197  0.20364  0.08634  1.0000
  C   C17       1.0  0.24731  0.25440  0.37100  1.0000
  C   C18       1.0  0.23423  0.24883  0.34283  1.0000
  C   C19       1.0  0.23977  0.22767  0.32437  1.0000
  C   C20       1.0  0.25827  0.21142  0.33413  1.0000
  C   C21       1.0  0.27130  0.21695  0.36236  1.0000
  C   C22       1.0  0.26595  0.23826  0.38059  1.0000
  H   H22       1.0  0.21960  0.26095  0.33526  1.0000
  H   H23       1.0  0.22947  0.22373  0.30288  1.0000
  H   H24       1.0  0.28563  0.20457  0.37024  1.0000
  H   H25       1.0  0.27629  0.24221  0.40203  1.0000
  C   C23       1.0  0.14530  0.05191  0.31230  1.0000
  C   C24       1.0  0.16314  0.06913  0.32177  1.0000
  C   C25       1.0  0.17532  0.08393  0.29924  1.0000
  C   C26       1.0  0.16963  0.08194  0.26679  1.0000
  C   C27       1.0  0.15184  0.06464  0.25726  1.0000
  C   C28       1.0  0.13984  0.04965  0.27976  1.0000
  H   H26       1.0  0.16759  0.07107  0.34680  1.0000
  H   H27       1.0  0.18884  0.09714  0.30707  1.0000
  H   H28       1.0  0.14720  0.06297  0.23227  1.0000
  H   H29       1.0  0.12636  0.03645  0.27197  1.0000
  C   C29       1.0  0.06229  0.28043  0.01139  1.0000
  C   C30       1.0  0.26002  0.23363  0.48094  1.0000
  H   H30       1.0  0.11867  0.14791  0.30878  1.0000
  C   C31       1.0  0.28473  0.31421  0.14767  1.0000
  C   C32       1.0  0.20041  0.27760  0.21058  1.0000
  H   H31       1.0  0.14235  0.14083  0.25909  1.0000
  C   C33       1.0  0.19552  0.43660  0.11150  1.0000
  C   C34       1.0  0.26202  0.06634  0.09983  1.0000
  H   H32       1.0  0.12827  0.11024  0.21961  1.0000
  C   C35       1.0  0.08187  0.29661  0.00744  1.0000
  H   H33       1.0  0.02592  0.43258  0.14502  1.0000
  C   C36       1.0  0.00712  0.13755  0.26161  1.0000
  H   H34       1.0  0.22432  0.33388  0.08332  1.0000
  H   H35       1.0  0.13365  0.00511  0.01474  1.0000
  C   C37       1.0  0.17669  0.47452  0.09347  1.0000
  C   C38       1.0  0.23124  0.37260  0.08896  1.0000
  C   C39       1.0  0.23289  0.38770  0.14335  1.0000
  C   C40       1.0  0.22788  0.36405  0.15448  1.0000
  C   C41       1.0  0.22487  0.34464  0.13288  1.0000
  H   H36       1.0  0.19421  0.42007  0.12560  1.0000
  C   C42       1.0  0.12761  0.46830  0.22555  1.0000
  H   H37       1.0  0.10501  0.02998  0.16458  1.0000
  C   C43       1.0  0.14644  0.44411  0.46698  1.0000
  S   S17       1.0  0.28567  0.30381  0.46614  1.0000
  H   H38       1.0  0.09085  0.23660  0.05582  1.0000
  C   C44       1.0  0.00053  0.00028  0.01075  1.0000
  C   C45       1.0  0.21654  0.44165  0.09352  1.0000
  H   H39       1.0  0.30192  0.24336  0.19391  1.0000
  C   C46       1.0  0.10796  0.26952  0.03845  1.0000
  H   H40       1.0  0.18553  0.29080  0.20930  1.0000
  C   C47       1.0  0.23836  0.23251  0.46317  1.0000
  H   H41       1.0  0.25305  0.22962  0.21569  1.0000
  H   H42       1.0  0.23528  0.40253  0.16039  1.0000
  H   H43       1.0  0.22651  0.36074  0.17986  1.0000
  H   H44       1.0  0.22142  0.32625  0.14146  1.0000
  C   C48       1.0  0.00582  0.47661  0.01229  1.0000
  H   H45       1.0  0.23135  0.03576  0.17277  1.0000
  C   C49       1.0  0.28771  0.29390  0.19909  1.0000
  P   P1        1.0  0.27362  0.27838  0.23237  1.0000
  H   H46       1.0  0.23208  0.37557  0.06349  1.0000
  C   C50       1.0  0.22650  0.34893  0.10015  1.0000
  H   H47       1.0  0.09129  0.08566  0.22968  1.0000
  C   C51       1.0  0.27043  0.99850  0.18864  1.0000
  H   H48       1.0  0.08405  0.44565  0.46987  1.0000
  S   S18       1.0  0.10847  0.47450  0.14440  1.0000
  C   C52       1.0  0.17761  0.29087  0.42203  1.0000
  H   H49       1.0  0.16458  0.32196  0.44933  1.0000
  C   C53       1.0  0.27670  0.01965  0.20614  1.0000
  H   H50       1.0  0.11836  0.41905  0.45135  1.0000
  C   C54       1.0  0.00667  0.99807  0.25636  1.0000
  H   H51       1.0  0.00727  0.06673  0.27223  1.0000
  C   C55       1.0  0.21537  0.23590  0.20448  1.0000
  H   H52       1.0  0.17825  0.24706  0.19488  1.0000
  C   C56       1.0  0.29440  0.24446  0.27464  1.0000
  H   H53       1.0  0.15955  0.44910  0.12544  1.0000
  C   C57       1.0  0.26456  0.43553  0.12473  1.0000
  C   C58       1.0  0.21720  0.46313  0.07504  1.0000
  H   H54       1.0  0.30912  0.46302  0.18817  1.0000
  H   H55       1.0  0.02849  0.45062  0.24814  1.0000
  H   H56       1.0  0.23421  0.41319  0.43540  1.0000
  H   H57       1.0  0.07087  0.48417  0.25154  1.0000
  H   H58       1.0  0.24708  0.47150  0.12637  1.0000
  H   H59       1.0  0.29436  0.41247  0.07515  1.0000
  C   C59       1.0  0.98791  0.42163  0.08216  1.0000
  H   H60       1.0  0.08313  0.03729  0.29526  1.0000
  C   C60       1.0  0.19524  0.20714  0.41318  1.0000
  C   C61       1.0  0.21613  0.19263  0.40738  1.0000
  C   C62       1.0  0.21940  0.18125  0.37773  1.0000
  C   C63       1.0  0.20198  0.18434  0.35361  1.0000
  C   C64       1.0  0.18102  0.19854  0.35928  1.0000
  C   C65       1.0  0.17750  0.20968  0.38908  1.0000
  C   C66       1.0  0.09028  0.48603  0.24691  1.0000
  H   H61       1.0  0.24069  0.09842  0.11257  1.0000
  C   C67       1.0  0.28910  0.31737  0.27128  1.0000
  C   C68       1.0  0.10294  0.46603  0.23377  1.0000
  C   C69       1.0  0.31714  0.21704  0.22637  1.0000
  C   C70       1.0  0.01671  0.46579  0.24142  1.0000
  H   H62       1.0  0.22995  0.18998  0.42558  1.0000
  H   H63       1.0  0.23578  0.17046  0.37303  1.0000
  H   H64       1.0  0.20503  0.17599  0.33040  1.0000
  H   H65       1.0  0.16759  0.20095  0.34050  1.0000
  H   H66       1.0  0.16103  0.22037  0.39331  1.0000
  C   C71       1.0  0.26179  0.46000  0.13520  1.0000
  H   H67       1.0  0.22683  0.30432  0.22601  1.0000
  C   C72       1.0  0.27348  0.30313  0.17382  1.0000
  H   H68       1.0  0.28600  0.40217  0.13011  1.0000
  S   S19       1.0  0.22407  0.30372  0.99824  1.0000
  H   H69       1.0  0.04532  0.13621  0.27335  1.0000
  C   C73       1.0  0.28088  0.01824  0.23897  1.0000
  H   H70       1.0  0.28523  0.25429  0.29370  1.0000
  C   C74       1.0  0.31332  0.29618  0.19784  1.0000
  C   C75       1.0  0.29980  0.43115  0.16000  1.0000
  C   C76       1.0  0.28370  0.42119  0.13742  1.0000
  C   C77       1.0  0.24497  0.07942  0.11814  1.0000
  S   S20       1.0  0.20244  0.37587  0.99380  1.0000
  C   C78       1.0  0.12216  0.43667  0.46243  1.0000
  C   C79       1.0  0.02079  0.00760  0.99211  1.0000
  C   C80       1.0  0.27937  0.99564  0.25449  1.0000
  C   C81       1.0  0.30805  0.22345  0.28221  1.0000
  C   C82       1.0  0.15242  0.30677  0.04652  1.0000
  C   C83       1.0  0.17136  0.28958  0.04163  1.0000
  C   C84       1.0  0.18828  0.28465  0.06586  1.0000
  C   C85       1.0  0.18632  0.29648  0.09531  1.0000
  C   C86       1.0  0.16753  0.31358  0.10047  1.0000
  C   C87       1.0  0.15057  0.31864  0.07624  1.0000
  C   C88       1.0  0.12516  0.36127  0.99549  1.0000
  H   H71       1.0  0.31303  0.02426  0.13633  1.0000
  H   H72       1.0  0.28132  0.03227  0.09318  1.0000
  C   C89       1.0  0.23497  0.39207  0.11048  1.0000
  H   H73       1.0  0.09325  0.44909  0.22873  1.0000
  C   C90       1.0  0.11801  0.34328  0.01748  1.0000
  H   H74       1.0  0.20574  0.44869  0.43618  1.0000
  C   C91       1.0  0.29221  0.25203  0.24279  1.0000
  C   C92       1.0  0.09874  0.39121  0.02127  1.0000
  C   C93       1.0  0.09149  0.37347  0.04319  1.0000
  C   C94       1.0  0.10090  0.34956  0.04118  1.0000
  H   H75       1.0  0.17460  0.33066  0.98601  1.0000
  C   C95       1.0  0.20065  0.02491  0.07672  1.0000
  C   C96       1.0  0.17576  0.45307  0.11155  1.0000
  H   H76       1.0  0.22682  0.04074  0.04462  1.0000
  H   H77       1.0  0.01405  0.00870  0.27600  1.0000
  H   H78       1.0  0.06713  0.46156  0.99858  1.0000
  H   H79       1.0  0.20309  0.27173  0.06175  1.0000
  H   H80       1.0  0.19953  0.29239  0.11392  1.0000
  H   H81       1.0  0.16615  0.32305  0.12319  1.0000
  H   H82       1.0  0.13623  0.33193  0.08083  1.0000
  C   C97       1.0  0.08833  0.25338  0.04233  1.0000
  C   C98       1.0  0.14255  0.20954  0.47370  1.0000
  S   S21       1.0  0.10874  0.48782  0.06827  1.0000
  H   H83       1.0  0.16140  0.48735  0.09379  1.0000
  H   H84       1.0  0.27089  0.07520  0.07989  1.0000
  H   H85       1.0  0.09200  0.40992  0.02356  1.0000
  H   H86       1.0  0.07914  0.37854  0.06233  1.0000
  H   H87       1.0  0.09509  0.33610  0.05848  1.0000
  C   C99       1.0  0.18182  0.00784  0.08023  1.0000
  C   C100      1.0  0.07963  0.06640  0.37464  1.0000
  C   C101      1.0  0.05763  0.06178  0.39036  1.0000
  C   C102      1.0  0.03540  0.06449  0.37413  1.0000
  C   C103      1.0  0.03515  0.07174  0.34215  1.0000
  C   C104      1.0  0.05721  0.07651  0.32615  1.0000
  C   C105      1.0  0.07945  0.07358  0.34267  1.0000
  P   P2        1.0  0.05731  0.08386  0.28406  1.0000
  C   C106      1.0  0.08347  0.10289  0.27531  1.0000
  C   C107      1.0  0.05948  0.05568  0.26124  1.0000
  C   C108      1.0  0.04769  0.05342  0.23150  1.0000
  C   C109      1.0  0.04816  0.03102  0.21499  1.0000
  C   C110      1.0  0.06080  0.01096  0.22776  1.0000
  C   C111      1.0  0.07357  0.01346  0.25643  1.0000
  C   C112      1.0  0.07307  0.03576  0.27306  1.0000
  C   C113      1.0  0.09667  0.09948  0.24692  1.0000
  C   C114      1.0  0.11755  0.11349  0.24096  1.0000
  C   C115      1.0  0.12553  0.13082  0.26330  1.0000
  C   C116      1.0  0.11227  0.13465  0.29134  1.0000
  C   C117      1.0  0.09121  0.12088  0.29725  1.0000
  C   C118      1.0  0.02924  0.09984  0.27385  1.0000
  C   C119      1.0  0.02888  0.12547  0.27002  1.0000
  H   H88       1.0  0.30920  0.21733  0.30673  1.0000
  H   H89       1.0  0.00156  0.99846  0.14077  1.0000
  P   P3        1.0  0.24341  0.42216  0.09621  1.0000
  C   C120      1.0  0.00747  0.08654  0.26934  1.0000
  H   H90       1.0  0.09696  0.06341  0.38676  1.0000
  H   H91       1.0  0.05781  0.05520  0.41472  1.0000
  H   H92       1.0  0.01843  0.06013  0.38615  1.0000
  H   H93       1.0  0.01774  0.07305  0.33002  1.0000
  H   H94       1.0  0.09680  0.07606  0.33066  1.0000
  H   H95       1.0  0.03776  0.06874  0.22125  1.0000
  C   C121      1.0  0.18017  0.25204  0.45030  1.0000
  H   H96       1.0  0.08120  0.99822  0.13598  1.0000
  H   H97       1.0  0.08341  0.99787  0.26610  1.0000
  C   C122      1.0  0.23994  0.04401  0.15220  1.0000
  H   H98       1.0  0.00696  0.15732  0.25858  1.0000
  C   C123      1.0  0.24283  0.41910  0.02979  1.0000
  H   H99       1.0  0.23804  0.30762  0.33401  1.0000
  H   H100      1.0  0.99358  0.46234  0.28309  1.0000
  C   C124      1.0  0.23868  0.24334  0.21430  1.0000
  C   C125      1.0  0.27175  0.29869  0.26653  1.0000
  C   C126      1.0  0.99688  0.47239  0.26135  1.0000
  C   C127      1.0  0.25216  0.31048  0.31631  1.0000
  H   H101      1.0  0.28252  0.99467  0.27997  1.0000
  C   C128      1.0  0.29283  0.40869  0.02450  1.0000
  S   S22       1.0  0.29923  0.08650  0.22104  1.0000
  P   P4        1.0  0.18982  0.22026  0.45216  1.0000
  C   C129      1.0  0.25314  0.41437  0.99988  1.0000
  H   H102      1.0  0.24014  0.28063  0.28674  1.0000
  C   C130      1.0  0.99760  0.45719  0.12875  1.0000
  S   S23       1.0  0.03926  0.00268  0.43434  1.0000
  H   H103      1.0  0.19064  0.16931  0.47282  1.0000
  C   C131      1.0  0.30373  0.23817  0.21871  1.0000
  C   C132      1.0  0.25333  0.29531  0.28936  1.0000
  C   C133      1.0  0.21203  0.02768  0.04717  1.0000
  H   H104      1.0  0.13733  0.22800  0.46690  1.0000
  C   C134      1.0  0.16670  0.20105  0.46974  1.0000
  C   C135      1.0  0.98957  0.00881  0.23513  1.0000
  C   C136      1.0  0.18525  0.99666  0.02420  1.0000
  C   C137      1.0  0.19732  0.47947  0.07503  1.0000
  C   C138      1.0  0.02146  0.47861  0.21301  1.0000
  C   C139      1.0  0.10285  0.45158  0.47292  1.0000
  C   C140      1.0  0.01129  0.43543  0.12784  1.0000
  C   C141      1.0  0.10544  0.01112  0.17277  1.0000
  H   H105      1.0  0.99440  0.01165  0.03042  1.0000
  C   C142      1.0  0.21768  0.22067  0.47544  1.0000
  C   C143      1.0  0.18352  0.26582  0.42247  1.0000
  C   C144      1.0  0.25762  0.03100  0.13454  1.0000
  H   H106      1.0  0.31128  0.18971  0.46346  1.0000
  H   H107      1.0  0.03811  0.02900  0.19282  1.0000
  H   H108      1.0  0.22326  0.42210  0.03137  1.0000
  H   H109      1.0  0.06040  0.99329  0.21585  1.0000
  C   C145      1.0  0.22378  0.28516  0.22014  1.0000
  P   P5        1.0  0.26577  0.00010  0.14608  1.0000
  C   C146      1.0  0.23371  0.06813  0.14407  1.0000
  H   H110      1.0  0.19174  0.25766  0.40146  1.0000
  H   H111      1.0  0.25384  0.30104  0.17346  1.0000
  C   C147      1.0  0.00660  0.41772  0.10443  1.0000
  C   C148      1.0  0.24316  0.26811  0.22187  1.0000
  H   H112      1.0  0.13715  0.45298  0.21450  1.0000
  H   H113      1.0  0.22056  0.07829  0.15841  1.0000
  C   C149      1.0  0.17235  0.17648  0.47695  1.0000
  C   C150      1.0  0.31020  0.31613  0.14648  1.0000
  H   H114      1.0  0.28539  0.03483  0.25223  1.0000
  H   H115      1.0  0.16107  0.43199  0.45930  1.0000
  C   C151      1.0  0.25748  0.41875  0.05739  1.0000
  C   C152      1.0  0.26814  0.04209  0.10773  1.0000
  H   H116      1.0  0.18120  0.30159  0.40086  1.0000
  C   C153      1.0  0.28797  0.33239  0.29845  1.0000
  H   H117      1.0  0.20656  0.03587  0.09696  1.0000
  C   C154      1.0  0.21178  0.44080  0.45852  1.0000
  C   C155      1.0  0.19625  0.25299  0.20258  1.0000
  C   C156      1.0  0.29682  0.45544  0.17036  1.0000
  H   H118      1.0  0.23754  0.24134  0.44010  1.0000
  Fe  Fe9       1.0  0.06733  0.47963  0.14298  1.0000
  C   C157      1.0  0.28262  0.41352  0.05447  1.0000
  H   H119      1.0  0.21226  0.21682  0.19800  1.0000
  C   C158      1.0  0.11943  0.00490  0.19955  1.0000
  Fe  Fe10      1.0  0.27872  0.34475  0.46991  1.0000
  C   C159      1.0  0.11545  0.38507  0.99735  1.0000
  S   S24       1.0  0.30646  0.37661  0.46840  1.0000
  C   C160      1.0  0.27810  0.40907  0.99724  1.0000
  H   H120      1.0  0.27378  0.32043  0.12763  1.0000
  H   H121      1.0  0.27571  0.24341  0.47172  1.0000
  H   H122      1.0  0.26883  0.34023  0.34234  1.0000
  H   H123      1.0  0.01765  0.40115  0.10340  1.0000
  H   H124      1.0  0.17578  0.42138  0.99771  1.0000
  C   C161      1.0  0.26953  0.32890  0.32099  1.0000
  H   H125      1.0  0.31446  0.41992  0.16974  1.0000
  H   H126      1.0  0.30368  0.32023  0.25438  1.0000
  C   C162      1.0  0.20445  0.01355  0.02099  1.0000
  C   C163      1.0  0.16520  0.28885  0.47726  1.0000
  H   H127      1.0  0.02999  0.02465  0.99772  1.0000
  C   C164      1.0  0.10481  0.29135  0.02111  1.0000
  Fe  Fe11      1.0  0.23068  0.34447  0.99496  1.0000
  C   C165      1.0  0.31461  0.00532  0.12836  1.0000
  P   P6        1.0  0.13004  0.31222  0.01540  1.0000
  C   C166      1.0  0.06551  0.25884  0.02887  1.0000
  H   H128      1.0  0.31207  0.40387  0.02230  1.0000
  C   C167      1.0  0.17134  0.26384  0.47788  1.0000
  H   H129      1.0  0.11026  0.44886  0.98986  1.0000
  C   C168      1.0  0.09180  0.99310  0.15681  1.0000
  H   H130      1.0  0.04460  0.28464  0.00088  1.0000
  H   H131      1.0  0.09058  0.00796  0.47479  1.0000
  H   H132      1.0  0.31642  0.36792  0.40002  1.0000
  C   C169      1.0  0.29450  0.98940  0.12984  1.0000
  H   H133      1.0  0.27279  0.17046  0.48168  1.0000
  C   C170      1.0  0.22786  0.42069  0.45790  1.0000
  H   H134      1.0  0.07913  0.31320  0.99363  1.0000
  C   C171      1.0  0.31924  0.20964  0.25811  1.0000
  H   H135      1.0  0.31882  0.32405  0.12569  1.0000
  C   C172      1.0  0.15154  0.46662  0.48207  1.0000
  S   S25       1.0  0.22738  0.29615  0.48521  1.0000
  C   C173      1.0  0.09060  0.98965  0.48487  1.0000
  S   S26       1.0  0.07340  0.01509  0.85358  1.0000
  H   H136      1.0  0.08558  0.48101  0.85492  1.0000
  C   C174      1.0  0.27004  0.11379  0.60671  1.0000
  C   C175      1.0  0.03828  0.99424  0.61984  1.0000
  Fe  Fe12      1.0  0.11490  0.01588  0.85365  1.0000
  S   S27       1.0  0.14199  0.04825  0.85192  1.0000
  Fe  Fe13      1.0  0.24739  0.17954  0.69564  1.0000
  S   S28       1.0  0.28384  0.18038  0.72099  1.0000
  S   S29       1.0  0.23247  0.20268  0.65393  1.0000
  Fe  Fe14      1.0  0.22702  0.14022  0.74160  1.0000
  S   S30       1.0  0.26212  0.13878  0.76958  1.0000
  S   S31       1.0  0.19281  0.11594  0.74663  1.0000
  Fe  Fe15      1.0  0.26209  0.18022  0.76676  1.0000
  S   S32       1.0  0.27664  0.20293  0.80918  1.0000
  Fe  Fe16      1.0  0.28139  0.13881  0.72214  1.0000
  C   C176      1.0  0.30987  0.07909  0.66922  1.0000
  S   S33       1.0  0.22574  0.18177  0.74142  1.0000
  S   S34       1.0  0.24626  0.13797  0.69403  1.0000
  H   H137      1.0  0.29153  0.41565  0.74032  1.0000
  S   S35       1.0  0.25890  0.34158  0.51705  1.0000
  C   C177      1.0  0.00055  0.00551  0.74205  1.0000
  Fe  Fe17      1.0  0.24826  0.30010  0.95466  1.0000
  H   H138      1.0  0.00833  0.02876  0.58518  1.0000
  S   S36       1.0  0.23214  0.27814  0.91256  1.0000
  Fe  Fe18      1.0  0.26325  0.30042  0.51141  1.0000
  S   S37       1.0  0.27925  0.27591  0.55122  1.0000
  H   H139      1.0  0.03852  0.46482  0.95310  1.0000
  H   H140      1.0  0.16127  0.01270  0.79760  1.0000
  H   H141      1.0  0.28035  0.11222  0.85842  1.0000
  S   S38       1.0  0.25254  0.34112  0.94960  1.0000
  C   C178      1.0  0.18219  0.99140  0.95311  1.0000
  S   S39       1.0  0.06944  0.45984  0.60216  1.0000
  H   H142      1.0  0.31334  0.05899  0.75897  1.0000
  H   H143      1.0  0.11864  0.03384  0.51920  1.0000
  Fe  Fe19      1.0  0.11079  0.46301  0.59985  1.0000
  S   S40       1.0  0.14095  0.43318  0.59699  1.0000
  Fe  Fe20      1.0  0.22432  0.33772  0.48820  1.0000
  C   C179      1.0  0.06382  0.01056  0.68669  1.0000
  C   C180      1.0  0.04879  0.43636  0.82389  1.0000
  H   H144      1.0  0.12461  0.43851  0.93527  1.0000
  H   H145      1.0  0.00805  0.00422  0.65078  1.0000
  C   C181      1.0  0.17566  0.38016  0.52225  1.0000
  C   C182      1.0  0.18634  0.38365  0.55232  1.0000
  C   C183      1.0  0.17557  0.40005  0.57461  1.0000
  C   C184      1.0  0.15405  0.41333  0.56726  1.0000
  C   C185      1.0  0.14352  0.41005  0.53707  1.0000
  C   C186      1.0  0.15414  0.39344  0.51492  1.0000
  H   H146      1.0  0.20272  0.37348  0.55857  1.0000
  H   H147      1.0  0.18390  0.40229  0.59787  1.0000
  H   H148      1.0  0.12693  0.41994  0.53103  1.0000
  C   C187      1.0  0.99909  0.47784  0.76199  1.0000
  C   C188      1.0  0.24586  0.22354  0.62627  1.0000
  C   C189      1.0  0.27113  0.22742  0.62471  1.0000
  C   C190      1.0  0.28091  0.24360  0.60179  1.0000
  C   C191      1.0  0.26561  0.25633  0.58026  1.0000
  C   C192      1.0  0.24030  0.25256  0.58196  1.0000
  C   C193      1.0  0.23056  0.23618  0.60467  1.0000
  H   H149      1.0  0.28307  0.21797  0.64125  1.0000
  H   H150      1.0  0.30049  0.24640  0.60079  1.0000
  H   H151      1.0  0.22827  0.26210  0.56557  1.0000
  H   H152      1.0  0.21097  0.23338  0.60559  1.0000
  C   C194      1.0  0.24506  0.25766  0.88368  1.0000
  C   C195      1.0  0.22967  0.24728  0.86021  1.0000
  C   C196      1.0  0.23891  0.23064  0.83715  1.0000
  C   C197      1.0  0.26374  0.22406  0.83733  1.0000
  C   C198      1.0  0.27910  0.23450  0.86078  1.0000
  C   C199      1.0  0.26990  0.25123  0.88372  1.0000
  H   H153      1.0  0.21043  0.25207  0.85993  1.0000
  H   H154      1.0  0.22686  0.22287  0.81927  1.0000
  H   H155      1.0  0.29833  0.22960  0.86119  1.0000
  H   H156      1.0  0.28202  0.25901  0.90152  1.0000
  C   C200      1.0  0.15675  0.06561  0.82160  1.0000
  C   C201      1.0  0.17760  0.07951  0.82970  1.0000
  C   C202      1.0  0.18921  0.09461  0.80706  1.0000
  C   C203      1.0  0.17990  0.09628  0.77600  1.0000
  C   C204      1.0  0.15921  0.08217  0.76782  1.0000
  C   C205      1.0  0.14776  0.06685  0.79037  1.0000
  H   H157      1.0  0.18465  0.07882  0.85381  1.0000
  H   H158      1.0  0.20514  0.10520  0.81377  1.0000
  H   H159      1.0  0.15185  0.08329  0.74389  1.0000
  H   H160      1.0  0.13165  0.05648  0.78383  1.0000
  H   H161      1.0  0.27982  0.24498  0.75915  1.0000
  H   H162      1.0  0.23273  0.41031  0.53745  1.0000
  H   H163      1.0  0.03595  0.38840  0.61938  1.0000
  C   C206      1.0  0.24350  0.11052  0.87667  1.0000
  H   H164      1.0  0.08734  0.44729  0.76208  1.0000
  C   C207      1.0  0.13199  0.48161  0.49224  1.0000
  C   C208      1.0  0.09775  0.45005  0.96976  1.0000
  C   C209      1.0  0.19484  0.18764  0.90586  1.0000
  Fe  Fe21      1.0  0.07625  0.99204  0.89834  1.0000
  H   H165      1.0  0.00966  0.45726  0.65619  1.0000
  H   H166      1.0  0.99265  0.02364  0.74475  1.0000
  C   C210      1.0  0.29615  0.45171  0.76092  1.0000
  H   H167      1.0  0.01748  0.46077  0.53137  1.0000
  C   C211      1.0  0.13639  0.48053  0.73546  1.0000
  H   H168      1.0  0.14727  0.11416  0.95543  1.0000
  S   S41       1.0  0.05166  0.47296  0.69271  1.0000
  C   C212      1.0  0.17728  0.21742  0.94295  1.0000
  H   H169      1.0  0.18376  0.03516  0.75623  1.0000
  C   C213      1.0  0.25845  0.07878  0.78746  1.0000
  C   C214      1.0  0.28379  0.07731  0.78326  1.0000
  C   C215      1.0  0.29368  0.05980  0.76244  1.0000
  C   C216      1.0  0.27825  0.04389  0.74555  1.0000
  C   C217      1.0  0.25268  0.04616  0.74842  1.0000
  C   C218      1.0  0.24297  0.06345  0.76991  1.0000
  P   P7        1.0  0.23180  0.02693  0.72619  1.0000
  H   H170      1.0  0.15608  0.19167  0.91554  1.0000
  C   C219      1.0  0.26306  0.12184  0.86129  1.0000
  C   C220      1.0  0.21117  0.04538  0.70250  1.0000
  C   C221      1.0  0.28469  0.26130  0.77269  1.0000
  C   C222      1.0  0.21593  0.07029  0.69675  1.0000
  H   H171      1.0  0.25068  0.09232  0.80358  1.0000
  H   H172      1.0  0.14469  0.46312  0.72873  1.0000
  C   C223      1.0  0.14667  0.28287  0.92757  1.0000
  H   H173      1.0  0.10342  0.00753  0.61334  1.0000
  H   H174      1.0  0.14551  0.39070  0.49196  1.0000
  H   H175      1.0  0.09624  0.44135  0.88953  1.0000
  H   H176      1.0  0.29612  0.31826  0.90196  1.0000
  H   H177      1.0  0.13922  0.26925  0.91134  1.0000
  H   H178      1.0  0.23187  0.07924  0.70685  1.0000
  C   C224      1.0  0.17663  0.01635  0.94842  1.0000
  C   C225      1.0  0.15181  0.13112  0.86592  1.0000
  H   H179      1.0  0.05192  0.42154  0.77630  1.0000
  H   H180      1.0  0.23619  0.17649  0.84314  1.0000
  H   H181      1.0  0.10432  0.47697  0.80143  1.0000
  H   H182      1.0  0.23919  0.22332  0.93983  1.0000
  H   H183      1.0  0.31865  0.13591  0.65285  1.0000
  C   C226      1.0  0.01997  0.99822  0.76239  1.0000
  C   C227      1.0  0.18207  0.17927  0.83853  1.0000
  C   C228      1.0  0.05949  0.43418  0.79377  1.0000
  C   C229      1.0  0.99117  0.98960  0.71839  1.0000
  C   C230      1.0  0.09757  0.01762  0.59242  1.0000
  H   H184      1.0  0.17854  0.28963  0.89862  1.0000
  C   C231      1.0  0.17897  0.02677  0.91813  1.0000
  H   H185      1.0  0.12159  0.39899  0.98090  1.0000
  H   H186      1.0  0.19576  0.32065  0.93564  1.0000
  H   H187      1.0  0.28048  0.46737  0.83706  1.0000
  H   H188      1.0  0.11671  0.15774  0.50369  1.0000
  H   H189      1.0  0.99218  0.45901  0.90490  1.0000
  C   C232      1.0  0.24059  0.21137  0.52370  1.0000
  C   C233      1.0  0.00656  0.44096  0.64183  1.0000
  C   C234      1.0  0.07395  0.02796  0.59088  1.0000
  C   C235      1.0  0.27988  0.41672  0.78933  1.0000
  H   H190      1.0  0.18654  0.01520  0.69262  1.0000
  C   C236      1.0  0.08970  0.44624  0.91303  1.0000
  C   C237      1.0  0.13062  0.16977  0.49415  1.0000
  H   H191      1.0  0.00314  0.47698  0.84856  1.0000
  C   C238      1.0  0.11366  0.01986  0.56671  1.0000
  H   H192      1.0  0.24134  0.20393  0.54761  1.0000
  H   H193      1.0  0.03267  0.42561  0.82897  1.0000
  C   C239      1.0  0.24659  0.00707  0.69735  1.0000
  H   H194      1.0  0.17618  0.21550  0.85930  1.0000
  H   H195      1.0  0.23446  0.18963  0.90137  1.0000
  C   C240      1.0  0.30449  0.26055  0.79383  1.0000
  H   H196      1.0  0.05688  0.99524  0.51034  1.0000
  C   C241      1.0  0.21828  0.19675  0.91303  1.0000
  H   H197      1.0  0.17359  0.16608  0.75969  1.0000
  H   H198      1.0  0.18750  0.14674  0.80943  1.0000
  H   H199      1.0  0.30348  0.45930  0.73915  1.0000
  C   C242      1.0  0.13444  0.28861  0.95596  1.0000
  C   C243      1.0  0.21853  0.14723  0.86912  1.0000
  H   H200      1.0  0.27781  0.22438  0.52518  1.0000
  H   H201      1.0  0.17691  0.14549  0.93818  1.0000
  C   C244      1.0  0.29656  0.30295  0.80934  1.0000
  H   H202      1.0  0.11755  0.27919  0.96124  1.0000
  C   C245      1.0  0.27660  0.13757  0.59707  1.0000
  H   H203      1.0  0.04638  0.40329  0.88389  1.0000
  H   H204      1.0  0.20659  0.11408  0.89305  1.0000
  C   C246      1.0  0.16644  0.31753  0.96965  1.0000
  C   C247      1.0  0.02144  0.40199  0.62132  1.0000
  C   C248      1.0  0.02909  0.04697  0.62259  1.0000
  H   H205      1.0  0.29576  0.09002  0.79568  1.0000
  C   C249      1.0  0.26033  0.14565  0.84949  1.0000
  H   H206      1.0  0.04225  0.42599  0.65216  1.0000
  H   H207      1.0  0.20941  0.12355  0.62127  1.0000
  C   C250      1.0  0.29355  0.46642  0.78832  1.0000
  C   C251      1.0  0.02905  0.99326  0.96614  1.0000
  C   C252      1.0  0.02953  0.06721  0.64353  1.0000
  H   H208      1.0  0.28646  0.03017  0.73025  1.0000
  C   C253      1.0  0.99911  0.39838  0.60557  1.0000
  H   H209      1.0  0.02680  0.01072  0.78044  1.0000
  C   C254      1.0  0.23565  0.40995  0.48637  1.0000
  C   C255      1.0  0.14843  0.11905  0.93048  1.0000
  C   C256      1.0  0.08842  0.04325  0.66450  1.0000
  C   C257      1.0  0.10134  0.04513  0.69329  1.0000
  C   C258      1.0  0.07688  0.01243  0.71534  1.0000
  C   C259      1.0  0.17436  0.19809  0.92112  1.0000
  C   C260      1.0  0.01047  0.08452  0.64315  1.0000
  C   C261      1.0  0.18663  0.01230  0.89236  1.0000
  H   H210      1.0  0.24555  0.09198  0.88565  1.0000
  H   H211      1.0  0.29159  0.08643  0.66597  1.0000
  C   C262      1.0  0.17235  0.48254  0.55262  1.0000
  P   P8        1.0  0.30336  0.32960  0.83372  1.0000
  C   C263      1.0  0.11216  0.48555  0.72696  1.0000
  C   C264      1.0  0.24581  0.10869  0.61514  1.0000
  P   P9        1.0  0.19043  0.16428  0.87546  1.0000
  H   H212      1.0  0.28356  0.09924  0.60821  1.0000
  P   P10       1.0  0.30763  0.14467  0.58579  1.0000
  C   C265      1.0  0.27668  0.30356  0.78795  1.0000
  H   H213      1.0  0.09289  0.05554  0.64515  1.0000
  H   H214      1.0  0.11567  0.05870  0.69611  1.0000
  C   C266      1.0  0.17902  0.00602  0.78972  1.0000
  C   C267      1.0  0.16763  0.20166  0.78118  1.0000
  C   C268      1.0  0.99808  0.00195  0.88606  1.0000
  C   C269      1.0  0.16854  0.21547  0.80933  1.0000
  C   C270      1.0  0.31536  0.35419  0.77719  1.0000
  C   C271      1.0  0.21486  0.01015  0.75590  1.0000
  C   C272      1.0  0.13368  0.10704  0.90807  1.0000
  H   H215      1.0  0.13177  0.01167  0.56789  1.0000
  H   H216      1.0  0.16232  0.46547  0.55046  1.0000
  C   C273      1.0  0.17864  0.07347  0.66547  1.0000
  C   C274      1.0  0.22135  0.12319  0.88079  1.0000
  C   C275      1.0  0.27515  0.34142  0.85046  1.0000
  C   C276      1.0  0.27278  0.36638  0.85871  1.0000
  C   C277      1.0  0.25096  0.37529  0.87198  1.0000
  C   C278      1.0  0.23133  0.35940  0.87695  1.0000
  C   C279      1.0  0.23365  0.33450  0.86918  1.0000
  C   C280      1.0  0.25553  0.32546  0.85635  1.0000
  C   C281      1.0  0.23467  0.15114  0.60568  1.0000
  H   H217      1.0  0.22334  0.06533  0.77275  1.0000
  H   H218      1.0  0.27552  0.15452  0.83763  1.0000
  C   C282      1.0  0.20065  0.22643  0.94974  1.0000
  C   C283      1.0  0.19033  0.03449  0.68880  1.0000
  H   H219      1.0  0.02702  0.45224  0.74646  1.0000
  C   C284      1.0  0.03068  0.48718  0.88350  1.0000
  C   C285      1.0  0.17848  0.31190  0.94115  1.0000
  H   H220      1.0  0.28786  0.37893  0.85557  1.0000
  H   H221      1.0  0.24943  0.39440  0.87907  1.0000
  H   H222      1.0  0.21461  0.36618  0.88782  1.0000
  H   H223      1.0  0.21877  0.32194  0.87399  1.0000
  H   H224      1.0  0.25719  0.30591  0.85162  1.0000
  H   H225      1.0  0.18765  0.02025  0.86874  1.0000
  C   C286      1.0  0.27081  0.28281  0.76970  1.0000
  C   C287      1.0  0.23802  0.15812  0.85278  1.0000
  C   C288      1.0  0.16690  0.14317  0.88820  1.0000
  C   C289      1.0  0.99086  0.08175  0.62193  1.0000
  H   H226      1.0  0.31475  0.24358  0.79667  1.0000
  C   C290      1.0  0.00931  0.04439  0.60129  1.0000
  P   P11       1.0  0.04409  0.45682  0.88495  1.0000
  C   C291      1.0  0.06960  0.02588  0.66091  1.0000
  H   H227      1.0  0.22115  0.16582  0.60621  1.0000
  H   H228      1.0  0.99627  0.38186  0.59154  1.0000
  C   C292      1.0  0.16506  0.13696  0.92061  1.0000
  H   H229      1.0  0.04428  0.06957  0.66051  1.0000
  H   H230      1.0  0.26984  0.03571  0.67836  1.0000
  H   H231      1.0  0.30135  0.10156  0.54539  1.0000
  C   C293      1.0  0.27465  0.00178  0.65283  1.0000
  C   C294      1.0  0.25889  0.15636  0.59754  1.0000
  C   C295      1.0  0.02135  0.43358  0.89239  1.0000
  H   H232      1.0  0.26936  0.42354  0.83804  1.0000
  H   H233      1.0  0.12427  0.10338  0.85843  1.0000
  C   C296      1.0  0.05733  0.45922  0.94885  1.0000
  C   C297      1.0  0.22809  0.12732  0.61433  1.0000
  C   C298      1.0  0.02504  0.42317  0.63969  1.0000
  C   C299      1.0  0.28325  0.45621  0.81588  1.0000
  S   S42       1.0  0.05463  0.00379  0.94332  1.0000
  H   H234      1.0  0.07672  0.05144  0.51568  1.0000
  C   C300      1.0  0.26426  0.01665  0.67655  1.0000
  H   H235      1.0  0.15302  0.13489  0.84074  1.0000
  H   H236      1.0  0.25530  0.28320  0.75351  1.0000
  C   C301      1.0  0.31770  0.35352  0.81055  1.0000
  C   C302      1.0  0.07949  0.44876  0.78572  1.0000
  H   H237      1.0  0.24088  0.09039  0.62284  1.0000
  H   H238      1.0  0.20282  0.20239  0.51696  1.0000
  H   H239      1.0  0.16585  0.08455  0.65185  1.0000
  C   C303      1.0  0.09559  0.02967  0.71868  1.0000
  C   C304      1.0  0.28886  0.17013  0.49693  1.0000
  H   H240      1.0  0.15782  0.04013  0.66042  1.0000
  H   H241      1.0  0.30218  0.38058  0.91737  1.0000
  H   H242      1.0  0.12120  0.09271  0.91547  1.0000
  C   C305      1.0  0.17407  0.04853  0.67048  1.0000
  H   H243      1.0  0.28867  0.00910  0.63728  1.0000
  H   H244      1.0  0.00316  0.01138  0.90795  1.0000
  C   C306      1.0  0.19180  0.01861  0.76608  1.0000
  H   H245      1.0  0.26383  0.17513  0.59187  1.0000
  C   C307      1.0  0.06650  0.04003  0.56292  1.0000
  H   H246      1.0  0.04920  0.99723  0.68502  1.0000
  C   C308      1.0  0.06544  0.45420  0.91776  1.0000
  S   S43       1.0  0.18777  0.35902  0.49332  1.0000
  C   C309      1.0  0.01073  0.47207  0.51208  1.0000
  S   S44       1.0  0.28308  0.29574  0.98348  1.0000
  C   C310      1.0  0.05850  0.45275  0.84658  1.0000
  C   C311      1.0  0.99751  0.44000  0.90174  1.0000
  C   C312      1.0  0.00866  0.00441  0.48670  1.0000
  S   S45       1.0  0.11745  0.99556  0.90027  1.0000
  C   C313      1.0  0.10582  0.44436  0.93898  1.0000
  C   C314      1.0  0.17404  0.17679  0.78158  1.0000
  C   C315      1.0  0.28934  0.42695  0.76148  1.0000
  C   C316      1.0  0.17553  0.20432  0.83796  1.0000
  H   H247      1.0  0.16398  0.23486  0.80890  1.0000
  C   C317      1.0  0.01842  0.46981  0.74205  1.0000
  H   H248      1.0  0.31977  0.41112  0.87974  1.0000
  C   C318      1.0  0.19961  0.08426  0.67844  1.0000
  H   H249      1.0  0.20284  0.10375  0.67540  1.0000
  C   C319      1.0  0.31040  0.28123  0.81220  1.0000
  C   C320      1.0  0.01045  0.39039  0.89596  1.0000
  C   C321      1.0  0.27676  0.43138  0.81647  1.0000
  C   C322      1.0  0.13532  0.11315  0.87587  1.0000
  C   C323      1.0  0.99034  0.06174  0.60096  1.0000
  C   C324      1.0  0.22715  0.41913  0.51547  1.0000
  H   H250      1.0  0.31206  0.98891  0.70604  1.0000
  C   C325      1.0  0.18181  0.16580  0.80992  1.0000
  C   C326      1.0  0.21094  0.43914  0.51623  1.0000
  H   H251      1.0  0.27494  0.39745  0.78984  1.0000
  H   H252      1.0  0.16232  0.21027  0.75893  1.0000
  H   H253      1.0  0.17390  0.04582  0.91421  1.0000
  C   C327      1.0  0.22111  0.21596  0.93499  1.0000
  H   H254      1.0  0.20423  0.44541  0.53909  1.0000
  H   H255      1.0  0.10546  0.03114  0.74109  1.0000
  C   C328      1.0  0.16873  0.29443  0.92025  1.0000
  C   C329      1.0  0.02787  0.40861  0.89020  1.0000
  H   H256      1.0  0.30654  0.05202  0.63158  1.0000
  P   P12       1.0  0.05294  0.02376  0.62361  1.0000
  C   C330      1.0  0.99305  0.99462  0.51026  1.0000
  C   C331      1.0  0.30842  0.15912  0.54710  1.0000
  H   H257      1.0  0.27080  0.15073  0.53428  1.0000
  C   C332      1.0  0.07840  0.46762  0.83816  1.0000
  H   H258      1.0  0.16984  0.25390  0.50009  1.0000
  H   H259      1.0  0.04823  0.04759  0.56060  1.0000
  C   C333      1.0  0.10626  0.03232  0.53925  1.0000
  C   C334      1.0  0.12466  0.19400  0.48619  1.0000
  H   H260      1.0  0.26554  0.31999  0.78567  1.0000
  H   H261      1.0  0.09272  0.48551  0.49619  1.0000
  C   C335      1.0  0.08266  0.04229  0.53730  1.0000
  C   C336      1.0  0.21879  0.21047  0.50613  1.0000
  H   H262      1.0  0.24801  0.39426  0.48586  1.0000
  C   C337      1.0  0.20347  0.45046  0.48774  1.0000
  C   C338      1.0  0.28775  0.15918  0.52701  1.0000
  C   C339      1.0  0.26117  0.22296  0.51112  1.0000
  C   C340      1.0  0.08897  0.46547  0.80790  1.0000
  S   S46       1.0  0.11276  0.48477  0.64584  1.0000
  H   H263      1.0  0.01073  0.09994  0.65959  1.0000
  C   C341      1.0  0.15443  0.16098  0.48937  1.0000
  C   C342      1.0  0.02659  0.48411  0.71629  1.0000
  H   H264      1.0  0.16144  0.22568  0.95428  1.0000
  H   H265      1.0  0.30500  0.34037  0.76448  1.0000
  H   H266      1.0  0.07238  0.00054  0.73515  1.0000
  H   H267      1.0  0.13845  0.35732  0.97715  1.0000
  H   H268      1.0  0.01546  0.37116  0.89387  1.0000
  C   C343      1.0  0.31547  0.31713  0.89652  1.0000
  C   C344      1.0  0.10776  0.47407  0.48776  1.0000
  S   S47       1.0  0.31570  0.11417  0.71774  1.0000
  C   C345      1.0  0.07346  0.45726  0.97469  1.0000
  C   C346      1.0  0.31949  0.16436  0.61694  1.0000
  Fe  Fe22      1.0  0.07130  0.48420  0.64619  1.0000
  H   H269      1.0  0.20302  0.24182  0.96598  1.0000
  H   H270      1.0  0.10168  0.47197  0.71383  1.0000
  H   H271      1.0  0.99320  0.46655  0.78166  1.0000
  C   C347      1.0  0.14434  0.30594  0.97734  1.0000
  P   P13       1.0  0.18277  0.47658  0.48815  1.0000
  H   H272      1.0  0.15903  0.29813  0.49875  1.0000
  H   H273      1.0  0.32008  0.19767  0.58861  1.0000
  H   H274      1.0  0.24153  0.41390  0.97888  1.0000
  H   H275      1.0  0.28596  0.40464  0.97420  1.0000
  H   H276      1.0  0.15897  0.14208  0.49502  1.0000
  Fe  Fe23      1.0  0.28578  0.33736  0.98073  1.0000
  H   H277      1.0  0.16971  0.02755  0.96784  1.0000
  C   C348      1.0  0.99167  0.46346  0.49203  1.0000
  H   H278      1.0  0.00055  0.48163  0.59228  1.0000
  H   H279      1.0  0.10611  0.20073  0.48944  1.0000
  C   C349      1.0  0.31056  0.18097  0.48663  1.0000
  H   H280      1.0  0.16328  0.48696  0.60223  1.0000
  C   C350      1.0  0.01609  0.99014  0.63565  1.0000
  C   C351      1.0  0.31775  0.09872  0.55953  1.0000
  C   C352      1.0  0.31837  0.05946  0.64992  1.0000
  H   H281      1.0  0.01277  0.02383  0.48703  1.0000
  C   C353      1.0  0.22543  0.98962  0.77085  1.0000
  Fe  Fe24      1.0  0.22205  0.62934  0.23193  1.0000
  S   S48       1.0  0.25861  0.62399  0.20831  1.0000
  S   S49       1.0  0.18896  0.60310  0.22967  1.0000
  Fe  Fe25      1.0  0.24201  0.67252  0.27433  1.0000
  S   S50       1.0  0.27997  0.66920  0.25324  1.0000
  S   S51       1.0  0.22657  0.69839  0.31340  1.0000
  Fe  Fe26      1.0  0.25998  0.66577  0.20560  1.0000
  S   S52       1.0  0.27399  0.68371  0.15902  1.0000
  Fe  Fe27      1.0  0.27553  0.62784  0.25735  1.0000
  S   S53       1.0  0.29658  0.59550  0.28044  1.0000
  S   S54       1.0  0.22228  0.67071  0.22668  1.0000
  S   S55       1.0  0.23882  0.63174  0.28092  1.0000
  C   C354      1.0  0.26497  0.64628  0.08119  1.0000
  S   S56       1.0  0.25417  0.83662  0.45454  1.0000
  C   C355      1.0  0.17390  0.50928  0.43793  1.0000
  Fe  Fe28      1.0  0.25333  0.79862  0.02863  1.0000
  H   H282      1.0  0.11909  0.94243  0.04313  1.0000
  S   S57       1.0  0.24274  0.77775  0.07450  1.0000
  C   C356      1.0  0.28787  0.70946  0.00481  1.0000
  H   H283      1.0  0.27283  0.95680  0.24909  1.0000
  Fe  Fe29      1.0  0.25437  0.79560  0.46350  1.0000
  S   S58       1.0  0.26789  0.76621  0.42757  1.0000
  S   S59       1.0  0.24506  0.83948  0.02788  1.0000
  C   C357      1.0  0.00470  0.96038  0.22590  1.0000
  C   C358      1.0  0.01478  0.53192  0.29871  1.0000
  S   S60       1.0  0.03693  0.95941  0.27671  1.0000
  Fe  Fe30      1.0  0.09843  0.94862  0.36603  1.0000
  S   S61       1.0  0.12007  0.91239  0.37060  1.0000
  S   S62       1.0  0.05693  0.94955  0.36661  1.0000
  H   H284      1.0  0.28014  0.63676  0.99160  1.0000
  Fe  Fe31      1.0  0.11070  0.50879  0.11499  1.0000
  S   S63       1.0  0.14185  0.53713  0.11793  1.0000
  C   C359      1.0  0.24585  0.55595  0.16870  1.0000
  C   C360      1.0  0.05803  0.52638  0.28689  1.0000
  S   S64       1.0  0.06983  0.51553  0.11628  1.0000
  C   C361      1.0  0.29768  0.96456  0.12125  1.0000
  H   H285      1.0  0.31003  0.59578  0.38194  1.0000
  H   H286      1.0  0.29412  0.65999  0.32640  1.0000
  H   H287      1.0  0.25469  0.66508  0.35414  1.0000
  H   H288      1.0  0.01033  0.94154  0.22219  1.0000
  H   H289      1.0  0.26555  0.95907  0.19100  1.0000
  C   C362      1.0  0.01348  0.96423  0.46278  1.0000
  H   H290      1.0  0.26778  0.67480  0.42091  1.0000
  H   H291      1.0  0.02125  0.95235  0.44464  1.0000
  S   S65       1.0  0.04672  0.50569  0.02700  1.0000
  H   H292      1.0  0.25387  0.92986  0.98555  1.0000
  C   C363      1.0  0.17159  0.87963  0.44786  1.0000
  C   C364      1.0  0.16150  0.90338  0.45166  1.0000
  C   C365      1.0  0.14628  0.91391  0.42797  1.0000
  C   C366      1.0  0.14055  0.90068  0.40030  1.0000
  C   C367      1.0  0.15092  0.87709  0.39624  1.0000
  C   C368      1.0  0.16642  0.86667  0.41972  1.0000
  C   C369      1.0  0.13960  0.49066  0.23035  1.0000
  H   H293      1.0  0.13891  0.93223  0.43099  1.0000
  H   H294      1.0  0.14675  0.86668  0.37488  1.0000
  H   H295      1.0  0.17385  0.84837  0.41638  1.0000
  C   C370      1.0  0.27903  0.62026  0.03790  1.0000
  S   S66       1.0  0.10074  0.96778  0.31854  1.0000
  H   H296      1.0  0.98923  0.98386  0.08699  1.0000
  H   H297      1.0  0.17575  0.68479  0.03117  1.0000
  H   H298      1.0  0.23216  0.55689  0.14995  1.0000
  C   C371      1.0  0.17633  0.58494  0.19807  1.0000
  C   C372      1.0  0.18502  0.58593  0.16675  1.0000
  C   C373      1.0  0.17430  0.57113  0.14269  1.0000
  C   C374      1.0  0.15477  0.55513  0.14950  1.0000
  C   C375      1.0  0.14624  0.55400  0.18087  1.0000
  C   C376      1.0  0.15696  0.56881  0.20492  1.0000
  H   H299      1.0  0.19986  0.59823  0.16102  1.0000
  H   H300      1.0  0.18105  0.57224  0.11853  1.0000
  H   H301      1.0  0.13128  0.54183  0.18645  1.0000
  H   H302      1.0  0.15020  0.56791  0.22907  1.0000
  C   C377      1.0  0.20589  0.52899  0.40746  1.0000
  C   C378      1.0  0.00838  0.55721  0.11349  1.0000
  H   H303      1.0  0.26487  0.71413  0.44977  1.0000
  C   C379      1.0  0.11234  0.91320  0.12677  1.0000
  H   H304      1.0  0.15457  0.50632  0.44191  1.0000
  C   C380      1.0  0.23866  0.71757  0.34449  1.0000
  C   C381      1.0  0.26367  0.71852  0.35182  1.0000
  C   C382      1.0  0.27217  0.73365  0.37703  1.0000
  C   C383      1.0  0.25592  0.74831  0.39513  1.0000
  C   C384      1.0  0.23090  0.74737  0.38779  1.0000
  C   C385      1.0  0.22237  0.73201  0.36281  1.0000
  H   H305      1.0  0.27650  0.70764  0.33805  1.0000
  H   H306      1.0  0.29154  0.73410  0.38247  1.0000
  H   H307      1.0  0.21810  0.75835  0.40148  1.0000
  H   H308      1.0  0.20299  0.73149  0.35747  1.0000
  C   C386      1.0  0.26493  0.71011  0.13613  1.0000
  C   C387      1.0  0.24367  0.72373  0.14262  1.0000
  C   C388      1.0  0.23721  0.74417  0.12348  1.0000
  C   C389      1.0  0.25178  0.75142  0.09749  1.0000
  C   C390      1.0  0.27301  0.73778  0.09095  1.0000
  C   C391      1.0  0.27952  0.71736  0.11011  1.0000
  H   H309      1.0  0.23220  0.71857  0.16245  1.0000
  H   H310      1.0  0.22080  0.75455  0.12901  1.0000
  H   H311      1.0  0.28458  0.74333  0.07147  1.0000
  H   H312      1.0  0.29611  0.70721  0.10495  1.0000
  C   C392      1.0  0.01917  0.95814  0.08294  1.0000
  C   C393      1.0  0.05091  0.90725  0.22415  1.0000
  H   H313      1.0  0.05013  0.93388  0.08543  1.0000
  Fe  Fe32      1.0  0.05946  0.97122  0.32080  1.0000
  C   C394      1.0  0.09191  0.96873  0.16775  1.0000
  H   H314      1.0  0.26080  0.64899  0.10628  1.0000
  H   H315      1.0  0.19216  0.56669  0.45858  1.0000
  C   C395      1.0  0.01457  0.97380  0.25169  1.0000
  Fe  Fe33      1.0  0.06062  0.98609  0.39189  1.0000
  H   H316      1.0  0.31380  0.96677  0.32224  1.0000
  H   H317      1.0  0.13081  0.97581  0.23104  1.0000
  H   H318      1.0  0.12432  0.97873  0.46217  1.0000
  H   H319      1.0  0.12875  0.52727  0.30624  1.0000
  C   C396      1.0  0.03576  0.53892  0.28208  1.0000
  S   S67       1.0  0.10193  0.98384  0.39395  1.0000
  C   C397      1.0  0.00554  0.97643  0.09833  1.0000
  P   P14       1.0  0.08527  0.53512  0.26545  1.0000
  H   H320      1.0  0.23057  0.49259  0.46501  1.0000
  C   C398      1.0  0.07739  0.55015  0.22859  1.0000
  C   C399      1.0  0.09109  0.57009  0.21737  1.0000
  C   C400      1.0  0.08591  0.58029  0.18754  1.0000
  C   C401      1.0  0.06697  0.57072  0.16881  1.0000
  C   C402      1.0  0.05332  0.55085  0.17984  1.0000
  C   C403      1.0  0.05881  0.54033  0.20931  1.0000
  H   H321      1.0  0.27619  0.55973  0.13676  1.0000
  C   C404      1.0  0.19958  0.90706  0.01114  1.0000
  H   H322      1.0  0.23563  0.89135  0.00519  1.0000
  H   H323      1.0  0.08930  0.95979  0.08133  1.0000
  C   C405      1.0  0.23160  0.72726  0.01709  1.0000
  C   C406      1.0  0.10265  0.55512  0.29137  1.0000
  C   C407      1.0  0.12318  0.54634  0.30815  1.0000
  C   C408      1.0  0.13679  0.56226  0.32754  1.0000
  C   C409      1.0  0.12967  0.58686  0.33087  1.0000
  C   C410      1.0  0.10880  0.59551  0.31505  1.0000
  C   C411      1.0  0.09520  0.57966  0.29558  1.0000
  C   C412      1.0  0.24854  0.70320  0.44593  1.0000
  H   H324      1.0  0.03440  0.55388  0.26527  1.0000
  C   C413      1.0  0.08924  0.89032  0.48385  1.0000
  H   H325      1.0  0.10630  0.57733  0.23100  1.0000
  H   H326      1.0  0.09705  0.59517  0.17860  1.0000
  H   H327      1.0  0.22484  0.72981  0.46824  1.0000
  H   H328      1.0  0.01947  0.57367  0.11335  1.0000
  H   H329      1.0  0.04890  0.52421  0.21684  1.0000
  C   C414      1.0  0.19490  0.94981  0.99558  1.0000
  C   C415      1.0  0.25583  0.55424  0.22489  1.0000
  P   P15       1.0  0.26280  0.68813  0.00049  1.0000
  C   C416      1.0  0.03823  0.50079  0.32648  1.0000
  H   H330      1.0  0.15293  0.55554  0.33985  1.0000
  H   H331      1.0  0.14027  0.59925  0.34573  1.0000
  H   H332      1.0  0.10321  0.61456  0.31771  1.0000
  H   H333      1.0  0.07902  0.58660  0.28352  1.0000
  C   C417      1.0  0.08154  0.89952  0.45421  1.0000
  C   C418      1.0  0.26171  0.66568  0.05987  1.0000
  C   C419      1.0  0.24149  0.61763  0.46308  1.0000
  H   H334      1.0  0.04730  0.91108  0.24913  1.0000
  H   H335      1.0  0.20780  0.75668  0.03246  1.0000
  C   C420      1.0  0.20929  0.73717  0.02744  1.0000
  C   C421      1.0  0.00600  0.49821  0.20476  1.0000
  H   H336      1.0  0.10760  0.83319  0.45963  1.0000
  C   C422      1.0  0.05926  0.50769  0.30982  1.0000
  H   H337      1.0  0.25500  0.68319  0.06888  1.0000
  C   C423      1.0  0.24076  0.98088  0.13299  1.0000
  S   S68       1.0  0.28981  0.80323  0.00382  1.0000
  H   H338      1.0  0.25400  0.97743  0.08452  1.0000
  C   C424      1.0  0.23970  0.97265  0.10121  1.0000
  C   C425      1.0  0.09285  0.86108  0.42874  1.0000
  H   H339      1.0  0.31042  0.54924  0.30790  1.0000
  C   C426      1.0  0.10657  0.96250  0.19413  1.0000
  H   H340      1.0  0.19895  0.67276  0.36936  1.0000
  H   H341      1.0  0.07638  0.49821  0.31449  1.0000
  H   H342      1.0  0.14474  0.90640  0.05810  1.0000
  C   C427      1.0  0.04727  0.88363  0.21186  1.0000
  C   C428      1.0  0.05150  0.87888  0.17956  1.0000
  C   C429      1.0  0.05971  0.89767  0.15965  1.0000
  C   C430      1.0  0.22034  0.95784  0.09083  1.0000
  H   H343      1.0  0.00929  0.50829  0.18305  1.0000
  C   C431      1.0  0.01206  0.50946  0.48143  1.0000
  Fe  Fe34      1.0  0.28023  0.84374  0.00053  1.0000
  C   C432      1.0  0.08326  0.88488  0.42684  1.0000
  H   H344      1.0  0.27072  0.60064  0.41030  1.0000
  H   H345      1.0  0.02923  0.53926  0.07650  1.0000
  H   H346      1.0  0.06120  0.94435  0.21430  1.0000
  C   C433      1.0  0.21344  0.68670  0.01625  1.0000
  H   H347      1.0  0.11110  0.90510  0.15027  1.0000
  H   H348      1.0  0.27590  0.60852  0.08681  1.0000
  H   H349      1.0  0.19664  0.59565  0.41401  1.0000
  H   H350      1.0  0.00071  0.89795  0.17897  1.0000
  C   C434      1.0  0.19164  0.49735  0.45673  1.0000
  H   H351      1.0  0.31733  0.49989  0.09033  1.0000
  H   H352      1.0  0.17222  0.72965  0.04151  1.0000
  C   C435      1.0  0.27384  0.97436  0.23710  1.0000
  C   C436      1.0  0.18104  0.52500  0.41336  1.0000
  H   H353      1.0  0.04101  0.86909  0.22737  1.0000
  H   H354      1.0  0.04841  0.86062  0.16995  1.0000
  H   H355      1.0  0.06266  0.89375  0.13461  1.0000
  H   H356      1.0  0.30280  0.69333  0.04800  1.0000
  C   C437      1.0  0.28847  0.55674  0.18578  1.0000
  H   H357      1.0  0.30424  0.51822  0.14157  1.0000
  C   C438      1.0  0.10229  0.50842  0.25232  1.0000
  H   H358      1.0  0.01319  0.95142  0.05979  1.0000
  C   C439      1.0  0.22132  0.97551  0.15362  1.0000
  H   H359      1.0  0.03904  0.54293  0.16515  1.0000
  C   C440      1.0  0.20150  0.95181  0.11184  1.0000
  C   C441      1.0  0.27588  0.63971  0.01649  1.0000
  H   H360      1.0  0.98730  0.88756  0.32502  1.0000
  H   H361      1.0  0.16555  0.91374  0.47308  1.0000
  P   P16       1.0  0.07522  0.94527  0.14630  1.0000
  C   C442      1.0  0.11725  0.93432  0.06652  1.0000
  H   H362      1.0  0.17017  0.62840  0.29360  1.0000
  C   C443      1.0  0.10942  0.97313  0.47749  1.0000
  C   C444      1.0  0.20186  0.96086  0.14311  1.0000
  H   H363      1.0  0.06334  0.57829  0.14541  1.0000
  C   C445      1.0  0.23459  0.92948  0.99170  1.0000
  H   H364      1.0  0.00442  0.50161  0.07669  1.0000
  H   H365      1.0  0.21997  0.95103  0.06648  1.0000
  H   H366      1.0  0.12310  0.93633  0.48275  1.0000
  C   C446      1.0  0.28076  0.55533  0.21759  1.0000
  C   C447      1.0  0.98756  0.97106  0.20475  1.0000
  H   H367      1.0  0.18657  0.94023  0.10383  1.0000
  H   H368      1.0  0.21144  0.54099  0.38824  1.0000
  C   C448      1.0  0.03370  0.97522  0.14306  1.0000
  H   H369      1.0  0.28293  0.95150  0.12372  1.0000
  C   C449      1.0  0.12950  0.90375  0.10520  1.0000
  H   H370      1.0  0.16725  0.53389  0.39872  1.0000
  H   H371      1.0  0.25004  0.55422  0.24959  1.0000
  H   H372      1.0  0.19171  0.88999  0.01947  1.0000
  H   H373      1.0  0.14098  0.88826  0.11189  1.0000
  H   H374      1.0  0.29392  0.55607  0.23692  1.0000
  H   H375      1.0  0.16011  0.97996  0.05747  1.0000
  H   H376      1.0  0.07452  0.91809  0.45192  1.0000
  C   C450      1.0  0.20604  0.58084  0.45967  1.0000
  H   H377      1.0  0.21904  0.55429  0.20627  1.0000
  C   C451      1.0  0.23838  0.55447  0.20047  1.0000
  H   H378      1.0  0.31663  0.51670  0.21489  1.0000
  C   C452      1.0  0.30469  0.70739  0.03009  1.0000
  H   H379      1.0  0.19272  0.59230  0.31404  1.0000
  C   C453      1.0  0.10014  0.94390  0.08811  1.0000
  C   C454      1.0  0.22436  0.90774  0.00299  1.0000
  H   H380      1.0  0.13627  0.52809  0.24594  1.0000
  C   C455      1.0  0.99299  0.50086  0.46141  1.0000
  H   H381      1.0  0.17354  0.66861  0.32145  1.0000
  C   C456      1.0  0.02034  0.49682  0.00437  1.0000
  H   H382      1.0  0.03854  0.98150  0.16677  1.0000
  H   H383      1.0  0.99737  0.54095  0.29413  1.0000
  H   H384      1.0  0.24712  0.73940  0.01455  1.0000
  H   H385      1.0  0.21868  0.59604  0.36228  1.0000
  C   C457      1.0  0.27081  0.55736  0.16135  1.0000
  H   H386      1.0  0.24293  0.52035  0.42159  1.0000
  C   C458      1.0  0.23382  0.70190  0.01141  1.0000
  H   H387      1.0  0.07800  0.89232  0.40387  1.0000
  C   C459      1.0  0.22590  0.71204  0.45645  1.0000
  C   C460      1.0  0.20472  0.69833  0.45091  1.0000
  C   C461      1.0  0.20616  0.67587  0.43454  1.0000
  C   C462      1.0  0.22876  0.66729  0.42293  1.0000
  C   C463      1.0  0.25002  0.68097  0.42917  1.0000
  P   P17       1.0  0.23065  0.63747  0.40387  1.0000
  C   C464      1.0  0.22678  0.61555  0.43566  1.0000
  C   C465      1.0  0.20911  0.63413  0.37128  1.0000
  C   C466      1.0  0.20761  0.61157  0.35487  1.0000
  C   C467      1.0  0.19301  0.60936  0.32751  1.0000
  C   C468      1.0  0.18030  0.62979  0.31585  1.0000
  C   C469      1.0  0.18208  0.65239  0.33162  1.0000
  C   C470      1.0  0.19650  0.65462  0.35911  1.0000
  C   C471      1.0  0.20878  0.59721  0.43429  1.0000
  C   C472      1.0  0.26008  0.63375  0.38500  1.0000
  C   C473      1.0  0.27575  0.61404  0.39260  1.0000
  H   H388      1.0  0.25529  0.63183  0.46475  1.0000
  C   C474      1.0  0.09691  0.93279  0.11798  1.0000
  C   C475      1.0  0.28918  0.64736  0.34519  1.0000
  C   C476      1.0  0.26685  0.65020  0.36097  1.0000
  C   C477      1.0  0.09991  0.85155  0.45826  1.0000
  C   C478      1.0  0.18920  0.72191  0.03255  1.0000
  H   H389      1.0  0.18963  0.66539  0.43048  1.0000
  C   C479      1.0  0.26952  0.97574  0.20423  1.0000
  C   C480      1.0  0.18490  0.92805  0.00769  1.0000
  C   C481      1.0  0.26719  0.66259  0.02736  1.0000
  H   H390      1.0  0.31199  0.64500  0.13067  1.0000
  C   C482      1.0  0.27357  0.62355  0.07022  1.0000
  H   H391      1.0  0.16581  0.92707  0.01415  1.0000
  S   S69       1.0  0.18832  0.86626  0.48027  1.0000
  H   H392      1.0  0.28567  0.60262  0.02940  1.0000
  H   H393      1.0  0.18712  0.95641  0.15932  1.0000
  H   H394      1.0  0.18718  0.70537  0.45885  1.0000
  C   C483      1.0  0.22364  0.51737  0.42625  1.0000
  C   C484      1.0  0.12697  0.51067  0.24353  1.0000
  C   C485      1.0  0.21657  0.50161  0.45077  1.0000
  C   C486      1.0  0.30481  0.62791  0.35306  1.0000
  C   C487      1.0  0.19122  0.69668  0.02677  1.0000
  H   H395      1.0  0.99950  0.50711  0.33306  1.0000
  C   C488      1.0  0.06417  0.92127  0.17208  1.0000
  C   C489      1.0  0.13176  0.91411  0.07495  1.0000
  C   C490      1.0  0.31716  0.63429  0.15138  1.0000
  H   H396      1.0  0.21490  0.66702  0.01255  1.0000
  Fe  Fe35      1.0  0.06759  0.49208  0.07155  1.0000
  C   C491      1.0  0.14397  0.97127  0.99058  1.0000
  C   C492      1.0  0.29807  0.61119  0.37661  1.0000
  C   C493      1.0  0.01597  0.51278  0.32074  1.0000
  C   C494      1.0  0.21995  0.95049  0.98808  1.0000
  C   C495      1.0  0.01393  0.53780  0.09280  1.0000
  C   C496      1.0  0.31700  0.60858  0.15013  1.0000
  C   C497      1.0  0.04806  0.95750  0.12724  1.0000
  C   C498      1.0  0.04021  0.94846  0.09746  1.0000
  H   H397      1.0  0.09521  0.85025  0.40720  1.0000
  C   C499      1.0  0.05906  0.92609  0.20430  1.0000
  H   H398      1.0  0.10760  0.94371  0.20247  1.0000
  H   H399      1.0  0.22118  0.98255  0.17783  1.0000
  Fe  Fe36      1.0  0.21984  0.83785  0.48424  1.0000
  H   H400      1.0  0.00183  0.92959  0.33810  1.0000
  C   C500      1.0  0.99977  0.51646  0.09293  1.0000
  H   H401      1.0  0.31168  0.59951  0.12820  1.0000
  C   C501      1.0  0.12002  0.98060  0.21018  1.0000
  H   H402      1.0  0.15752  0.61963  0.47073  1.0000
  H   H403      1.0  0.19789  0.49613  0.06100  1.0000
  C   C502      1.0  0.01263  0.98478  0.12851  1.0000
  H   H404      1.0  0.01986  0.52737  0.47711  1.0000
  C   C503      1.0  0.98867  0.55527  0.13448  1.0000
  S   S70       1.0  0.30332  0.87920  0.00396  1.0000
  P   P18       1.0  0.17646  0.97726  0.99110  1.0000
  H   H405      1.0  0.15847  0.49273  0.22294  1.0000
  C   C504      1.0  0.10204  0.98463  0.00027  1.0000
  C   C505      1.0  0.98694  0.92698  0.32125  1.0000
  C   C506      1.0  0.98818  0.97840  0.00372  1.0000
  C   C507      1.0  0.12729  0.98843  0.00334  1.0000
  C   C508      1.0  0.31823  0.52723  0.12773  1.0000
  H   H406      1.0  0.27508  0.48849  0.16657  1.0000
  Fe  Fe37      1.0  0.22421  0.63037  0.73677  1.0000
  S   S71       1.0  0.25755  0.62921  0.70601  1.0000
  S   S72       1.0  0.19340  0.60173  0.73371  1.0000
  Fe  Fe38      1.0  0.24635  0.67203  0.77880  1.0000
  S   S73       1.0  0.28132  0.67308  0.74996  1.0000
  S   S74       1.0  0.23444  0.69527  0.82248  1.0000
  Fe  Fe39      1.0  0.25630  0.67065  0.70686  1.0000
  S   S75       1.0  0.26449  0.68786  0.65804  1.0000
  Fe  Fe40      1.0  0.27990  0.63144  0.75124  1.0000
  C   C509      1.0  0.01485  0.50660  0.71051  1.0000
  S   S76       1.0  0.22134  0.67182  0.73545  1.0000
  S   S77       1.0  0.24642  0.63051  0.78231  1.0000
  C   C510      1.0  0.99342  0.49580  0.60803  1.0000
  S   S78       1.0  0.26133  0.83912  0.95272  1.0000
  C   C511      1.0  0.04098  0.50687  0.90062  1.0000
  Fe  Fe41      1.0  0.24250  0.80196  0.53435  1.0000
  S   S79       1.0  0.27823  0.79936  0.50776  1.0000
  S   S80       1.0  0.23324  0.78597  0.58371  1.0000
  Fe  Fe42      1.0  0.27529  0.84046  0.50080  1.0000
  C   C512      1.0  0.99347  0.50436  0.95815  1.0000
  Fe  Fe43      1.0  0.26806  0.79830  0.95791  1.0000
  S   S81       1.0  0.28334  0.77595  0.91535  1.0000
  S   S82       1.0  0.24103  0.84330  0.53004  1.0000
  H   H407      1.0  0.21840  0.57059  0.50666  1.0000
  H   H408      1.0  0.21218  0.75059  0.53434  1.0000
  S   S83       1.0  0.05574  0.96461  0.78330  1.0000
  Fe  Fe44      1.0  0.11942  0.96075  0.87136  1.0000
  S   S84       1.0  0.15320  0.93526  0.87570  1.0000
  S   S85       1.0  0.07828  0.95554  0.87220  1.0000
  H   H409      1.0  0.07374  0.96142  0.98089  1.0000
  Fe  Fe45      1.0  0.10968  0.51868  0.61596  1.0000
  S   S86       1.0  0.13477  0.55261  0.61728  1.0000
  C   C513      1.0  0.25689  0.91971  0.72477  1.0000
  H   H410      1.0  0.22060  0.96111  0.80595  1.0000
  S   S87       1.0  0.06832  0.51971  0.61888  1.0000
  H   H411      1.0  0.24891  0.48885  0.78298  1.0000
  H   H412      1.0  0.15486  0.64449  0.59483  1.0000
  H   H413      1.0  0.27874  0.91595  0.68287  1.0000
  C   C514      1.0  0.17263  0.76091  0.95821  1.0000
  C   C515      1.0  0.27608  0.51723  0.77579  1.0000
  H   H414      1.0  0.02078  0.51786  0.69083  1.0000
  P   P19       1.0  0.08756  0.90940  0.51912  1.0000
  C   C516      1.0  0.02123  0.95894  0.73551  1.0000
  C   C517      1.0  0.30867  0.53119  0.83878  1.0000
  H   H415      1.0  0.22077  0.55770  0.74885  1.0000
  C   C518      1.0  0.03054  0.97483  0.75921  1.0000
  C   C519      1.0  0.17949  0.87376  0.94389  1.0000
  C   C520      1.0  0.15452  0.88036  0.94250  1.0000
  C   C521      1.0  0.14615  0.89922  0.92208  1.0000
  C   C522      1.0  0.16269  0.91186  0.90283  1.0000
  C   C523      1.0  0.18764  0.90516  0.90408  1.0000
  C   C524      1.0  0.19603  0.88635  0.92456  1.0000
  H   H416      1.0  0.31546  0.84830  0.78516  1.0000
  H   H417      1.0  0.12686  0.90372  0.92090  1.0000
  H   H418      1.0  0.20062  0.91463  0.88915  1.0000
  H   H419      1.0  0.21528  0.88154  0.92537  1.0000
  H   H420      1.0  0.24970  0.60342  0.50979  1.0000
  C   C525      1.0  0.13498  0.95120  0.97307  1.0000
  C   C526      1.0  0.01373  0.98413  0.87328  1.0000
  H   H421      1.0  0.03874  0.54555  0.91166  1.0000
  H   H422      1.0  0.00363  0.93248  0.60883  1.0000
  C   C527      1.0  0.17943  0.58719  0.70001  1.0000
  C   C528      1.0  0.17869  0.59811  0.66990  1.0000
  C   C529      1.0  0.16507  0.58716  0.64491  1.0000
  C   C530      1.0  0.15235  0.56499  0.64946  1.0000
  C   C531      1.0  0.15384  0.55360  0.67923  1.0000
  C   C532      1.0  0.16725  0.56468  0.70426  1.0000
  H   H423      1.0  0.18816  0.61524  0.66610  1.0000
  H   H424      1.0  0.16403  0.59613  0.62204  1.0000
  H   H425      1.0  0.14441  0.53643  0.68310  1.0000
  H   H426      1.0  0.16823  0.55572  0.72710  1.0000
  H   H427      1.0  0.03074  0.97982  0.88535  1.0000
  C   C533      1.0  0.25971  0.55617  0.75663  1.0000
  C   C534      1.0  0.01093  0.49172  0.86278  1.0000
  Fe  Fe46      1.0  0.06837  0.49550  0.57471  1.0000
  C   C535      1.0  0.24848  0.96822  0.66851  1.0000
  C   C536      1.0  0.24863  0.71775  0.84779  1.0000
  C   C537      1.0  0.27214  0.72691  0.84224  1.0000
  C   C538      1.0  0.28235  0.74470  0.86307  1.0000
  C   C539      1.0  0.26924  0.75374  0.88962  1.0000
  C   C540      1.0  0.24567  0.74468  0.89504  1.0000
  C   C541      1.0  0.23557  0.72677  0.87437  1.0000
  H   H428      1.0  0.28254  0.72018  0.82207  1.0000
  H   H429      1.0  0.30062  0.75143  0.85868  1.0000
  H   H430      1.0  0.23533  0.75129  0.91534  1.0000
  H   H431      1.0  0.21756  0.71960  0.87923  1.0000
  C   C542      1.0  0.25611  0.71570  0.63838  1.0000
  C   C543      1.0  0.24018  0.73300  0.65200  1.0000
  C   C544      1.0  0.23330  0.75423  0.63480  1.0000
  C   C545      1.0  0.24238  0.75862  0.60393  1.0000
  C   C546      1.0  0.25845  0.74140  0.59044  1.0000
  C   C547      1.0  0.26515  0.72005  0.60751  1.0000
  H   H432      1.0  0.23305  0.72996  0.67566  1.0000
  H   H433      1.0  0.22088  0.76742  0.64551  1.0000
  H   H434      1.0  0.26566  0.74447  0.56679  1.0000
  H   H435      1.0  0.27739  0.70677  0.59662  1.0000
  H   H436      1.0  0.31288  0.94506  0.56411  1.0000
  C   C548      1.0  0.10857  0.94908  0.48889  1.0000
  C   C549      1.0  0.00160  0.96613  0.71546  1.0000
  H   H437      1.0  0.98872  0.51533  0.93760  1.0000
  S   S88       1.0  0.18883  0.84972  0.97009  1.0000
  H   H438      1.0  0.03760  0.86932  0.60233  1.0000
  H   H439      1.0  0.99798  0.88341  0.57935  1.0000
  C   C550      1.0  0.30976  0.92204  0.60546  1.0000
  C   C551      1.0  0.99545  0.51463  0.73039  1.0000
  H   H440      1.0  0.30460  0.51561  0.72078  1.0000
  H   H441      1.0  0.13750  0.88937  0.50846  1.0000
  S   S89       1.0  0.30420  0.87134  0.50185  1.0000
  H   H442      1.0  0.17322  0.88530  0.54344  1.0000
  C   C552      1.0  0.26666  0.97761  0.64872  1.0000
  H   H443      1.0  0.24366  0.98355  0.76436  1.0000
  C   C553      1.0  0.18922  0.98505  0.80365  1.0000
  H   H444      1.0  0.04340  0.93882  0.58203  1.0000
  H   H445      1.0  0.00203  0.54516  0.79759  1.0000
  C   C554      1.0  0.27959  0.54167  0.76622  1.0000
  H   H446      1.0  0.29063  0.72467  0.69386  1.0000
  S   S90       1.0  0.21861  0.79642  0.49075  1.0000
  C   C555      1.0  0.26277  0.67819  0.95927  1.0000
  C   C556      1.0  0.11502  0.52610  0.75136  1.0000
  C   C557      1.0  0.13933  0.52074  0.76018  1.0000
  P   P20       1.0  0.10154  0.55587  0.76025  1.0000
  C   C558      1.0  0.07008  0.55237  0.77242  1.0000
  C   C559      1.0  0.11846  0.57015  0.79254  1.0000
  C   C560      1.0  0.10990  0.56894  0.82406  1.0000
  C   C561      1.0  0.12343  0.57950  0.84897  1.0000
  C   C562      1.0  0.14563  0.59120  0.84264  1.0000
  C   C563      1.0  0.15433  0.59234  0.81140  1.0000
  C   C564      1.0  0.14084  0.58185  0.78652  1.0000
  C   C565      1.0  0.05346  0.57193  0.76856  1.0000
  C   C566      1.0  0.06201  0.53039  0.78622  1.0000
  C   C567      1.0  0.10143  0.57476  0.72481  1.0000
  C   C568      1.0  0.09441  0.56462  0.69532  1.0000
  C   C569      1.0  0.09354  0.57925  0.66804  1.0000
  C   C570      1.0  0.09989  0.60404  0.66980  1.0000
  C   C571      1.0  0.10636  0.61446  0.69912  1.0000
  C   C572      1.0  0.10675  0.60001  0.72661  1.0000
  C   C573      1.0  0.19477  0.68113  0.65488  1.0000
  C   C574      1.0  0.00328  0.51940  0.60636  1.0000
  H   H447      1.0  0.08275  0.51173  0.72736  1.0000
  H   H448      1.0  0.09288  0.55980  0.82955  1.0000
  H   H449      1.0  0.11674  0.57856  0.87323  1.0000
  H   H450      1.0  0.15615  0.59934  0.86192  1.0000
  H   H451      1.0  0.17161  0.60131  0.80629  1.0000
  H   H452      1.0  0.14795  0.58290  0.76254  1.0000
  H   H453      1.0  0.05928  0.58913  0.75824  1.0000
  H   H454      1.0  0.07444  0.51514  0.78986  1.0000
  H   H455      1.0  0.08976  0.54541  0.69303  1.0000
  C   C575      1.0  0.08870  0.94122  0.50726  1.0000
  H   H456      1.0  0.09989  0.61504  0.64835  1.0000
  H   H457      1.0  0.11117  0.63371  0.70056  1.0000
  H   H458      1.0  0.11118  0.60870  0.74911  1.0000
  H   H459      1.0  0.14111  0.72274  0.50942  1.0000
  C   C576      1.0  0.00102  0.51535  0.86023  1.0000
  C   C577      1.0  0.18836  0.66532  0.60126  1.0000
  C   C578      1.0  0.20185  0.67952  0.62297  1.0000
  P   P21       1.0  0.19811  0.66337  0.56019  1.0000
  C   C579      1.0  0.18465  0.63705  0.54056  1.0000
  C   C580      1.0  0.18963  0.69260  0.54307  1.0000
  C   C581      1.0  0.20612  0.71234  0.54451  1.0000
  C   C582      1.0  0.04824  0.97552  0.60056  1.0000
  H   H460      1.0  0.31489  0.55662  0.87746  1.0000
  C   C583      1.0  0.15935  0.71969  0.51891  1.0000
  C   C584      1.0  0.16596  0.69659  0.53091  1.0000
  C   C585      1.0  0.28560  0.66594  0.91199  1.0000
  C   C586      1.0  0.17635  0.63841  0.50891  1.0000
  C   C587      1.0  0.15938  0.65600  0.64337  1.0000
  H   H461      1.0  0.27422  0.96629  0.62980  1.0000
  H   H462      1.0  0.14303  0.64669  0.65134  1.0000
  C   C588      1.0  0.23081  0.65915  0.55684  1.0000
  C   C589      1.0  0.24483  0.65046  0.58261  1.0000
  C   C590      1.0  0.27031  0.64877  0.58012  1.0000
  C   C591      1.0  0.28193  0.65520  0.55173  1.0000
  C   C592      1.0  0.26803  0.66312  0.52564  1.0000
  C   C593      1.0  0.24255  0.66495  0.52810  1.0000
  Fe  Fe47      1.0  0.22685  0.83308  0.98037  1.0000
  C   C594      1.0  0.03107  0.53054  0.89785  1.0000
  H   H463      1.0  0.21810  0.68908  0.61527  1.0000
  C   C595      1.0  0.03739  0.88024  0.58079  1.0000
  C   C596      1.0  0.01475  0.90161  0.53965  1.0000
  H   H464      1.0  0.31052  0.90261  0.64972  1.0000
  C   C597      1.0  0.98742  0.96954  0.51016  1.0000
  C   C598      1.0  0.30940  0.72397  0.70222  1.0000
  C   C599      1.0  0.16645  0.65441  0.61138  1.0000
  S   S91       1.0  0.11831  0.98123  0.82468  1.0000
  H   H465      1.0  0.20586  0.69153  0.67155  1.0000
  C   C600      1.0  0.27831  0.92282  0.70703  1.0000
  C   C601      1.0  0.07143  0.98237  0.50463  1.0000
  H   H466      1.0  0.23633  0.64549  0.60495  1.0000
  H   H467      1.0  0.28106  0.64303  0.60061  1.0000
  H   H468      1.0  0.30172  0.65430  0.55010  1.0000
  H   H469      1.0  0.27704  0.66836  0.50372  1.0000
  H   H470      1.0  0.23206  0.67148  0.50783  1.0000
  H   H471      1.0  0.21404  0.51465  0.76578  1.0000
  H   H472      1.0  0.22407  0.71016  0.55527  1.0000
  C   C602      1.0  0.19723  0.51461  0.52967  1.0000
  H   H473      1.0  0.31431  0.68634  0.68723  1.0000
  C   C603      1.0  0.02904  0.56935  0.77784  1.0000
  H   H474      1.0  0.17909  0.97527  0.82183  1.0000
  H   H475      1.0  0.01615  0.58433  0.77447  1.0000
  H   H476      1.0  0.20684  0.52262  0.50984  1.0000
  C   C604      1.0  0.14995  0.49809  0.75216  1.0000
  P   P22       1.0  0.30280  0.77265  0.72116  1.0000
  C   C605      1.0  0.17256  0.78621  0.95285  1.0000
  C   C606      1.0  0.27078  0.76623  0.72765  1.0000
  C   C607      1.0  0.26397  0.74669  0.74745  1.0000
  C   C608      1.0  0.23923  0.74192  0.75315  1.0000
  C   C609      1.0  0.22112  0.75671  0.73937  1.0000
  C   C610      1.0  0.22775  0.77652  0.72021  1.0000
  C   C611      1.0  0.25249  0.78143  0.71458  1.0000
  C   C612      1.0  0.31217  0.78967  0.75618  1.0000
  Fe  Fe48      1.0  0.07700  0.97883  0.82736  1.0000
  C   C613      1.0  0.01101  0.53475  0.87780  1.0000
  H   H477      1.0  0.29898  0.54482  0.82493  1.0000
  H   H478      1.0  0.16883  0.49428  0.75850  1.0000
  C   C614      1.0  0.18524  0.51698  0.58524  1.0000
  H   H479      1.0  0.03612  0.91789  0.50248  1.0000
  H   H480      1.0  0.31294  0.95172  0.76359  1.0000
  C   C615      1.0  0.99662  0.96395  0.97795  1.0000
  H   H481      1.0  0.14151  0.87066  0.95715  1.0000
  H   H482      1.0  0.98733  0.94696  0.97226  1.0000
  C   C616      1.0  0.18449  0.49235  0.52618  1.0000
  C   C617      1.0  0.28507  0.67226  0.94435  1.0000
  C   C618      1.0  0.17285  0.49471  0.58202  1.0000
  H   H483      1.0  0.17122  0.79891  0.97280  1.0000
  C   C619      1.0  0.03753  0.52778  0.79504  1.0000
  H   H484      1.0  0.27773  0.73503  0.75845  1.0000
  H   H485      1.0  0.23413  0.72666  0.76819  1.0000
  H   H486      1.0  0.20197  0.75278  0.74352  1.0000
  H   H487      1.0  0.21371  0.78793  0.70939  1.0000
  H   H488      1.0  0.25721  0.79697  0.69984  1.0000
  H   H489      1.0  0.30359  0.90624  0.59180  1.0000
  C   C620      1.0  0.01507  0.88801  0.56779  1.0000
  C   C621      1.0  0.10153  0.50824  0.73462  1.0000
  S   S92       1.0  0.10954  0.49717  0.56992  1.0000
  H   H490      1.0  0.31305  0.75862  0.96716  1.0000
  H   H491      1.0  0.22501  0.67155  0.89474  1.0000
  C   C622      1.0  0.03672  0.90766  0.52459  1.0000
  H   H492      1.0  0.14751  0.93888  0.96096  1.0000
  H   H493      1.0  0.17100  0.75704  0.51076  1.0000
  C   C623      1.0  0.16110  0.59668  0.51224  1.0000
  C   C624      1.0  0.15639  0.89320  0.55283  1.0000
  C   C625      1.0  0.15531  0.90139  0.58441  1.0000
  C   C626      1.0  0.13376  0.91206  0.59609  1.0000
  C   C627      1.0  0.11319  0.91424  0.57628  1.0000
  C   C628      1.0  0.11384  0.90519  0.54487  1.0000
  H   H494      1.0  0.26435  0.66121  0.86897  1.0000
  C   C629      1.0  0.21253  0.97700  0.79446  1.0000
  H   H495      1.0  0.10295  0.93199  0.95630  1.0000
  H   H496      1.0  0.05652  0.50408  0.91630  1.0000
  C   C630      1.0  0.24104  0.67778  0.94123  1.0000
  H   H497      1.0  0.16862  0.66980  0.69016  1.0000
  C   C631      1.0  0.18946  0.97690  0.92698  1.0000
  C   C632      1.0  0.00754  0.97215  0.84487  1.0000
  H   H498      1.0  0.16791  0.57799  0.55668  1.0000
  H   H499      1.0  0.22396  0.97536  0.70723  1.0000
  H   H500      1.0  0.99739  0.90759  0.52961  1.0000
  C   C633      1.0  0.05942  0.88645  0.56596  1.0000
  H   H501      1.0  0.24190  0.94968  0.66469  1.0000
  C   C634      1.0  0.26391  0.66554  0.89425  1.0000
  C   C635      1.0  0.17481  0.79526  0.92188  1.0000
  H   H502      1.0  0.27832  0.73008  0.96235  1.0000
  H   H503      1.0  0.02493  0.52633  0.97089  1.0000
  H   H504      1.0  0.20719  0.54410  0.56182  1.0000
  C   C636      1.0  0.29773  0.79563  0.62860  1.0000
  H   H505      1.0  0.17130  0.89965  0.59961  1.0000
  H   H506      1.0  0.13304  0.91874  0.62044  1.0000
  H   H507      1.0  0.09677  0.92301  0.58543  1.0000
  C   C637      1.0  0.27589  0.93985  0.76996  1.0000
  H   H508      1.0  0.05496  0.95302  0.53017  1.0000
  H   H509      1.0  0.02295  0.95985  0.93968  1.0000
  H   H510      1.0  0.01776  0.52318  0.58944  1.0000
  C   C638      1.0  0.25567  0.92821  0.75620  1.0000
  C   C639      1.0  0.17674  0.75358  0.90146  1.0000
  C   C640      1.0  0.98742  0.50038  0.75635  1.0000
  H   H511      1.0  0.07644  0.87977  0.57605  1.0000
  C   C641      1.0  0.17479  0.74459  0.93255  1.0000
  H   H512      1.0  0.28031  0.76881  0.65796  1.0000
  H   H513      1.0  0.19680  0.97587  0.87671  1.0000
  H   H514      1.0  0.03118  0.51045  0.80445  1.0000
  S   S93       1.0  0.31130  0.60303  0.75105  1.0000
  C   C642      1.0  0.01687  0.97125  0.95933  1.0000
  C   C643      1.0  0.23611  0.54641  0.75645  1.0000
  H   H515      1.0  0.30288  0.66175  0.90047  1.0000
  H   H516      1.0  0.00313  0.55301  0.87590  1.0000
  H   H517      1.0  0.17118  0.75403  0.98228  1.0000
  C   C644      1.0  0.23237  0.52214  0.76601  1.0000
  H   H518      1.0  0.15035  0.53403  0.77289  1.0000
  C   C645      1.0  0.03590  0.95318  0.59697  1.0000
  H   H519      1.0  0.26268  0.57502  0.74927  1.0000
  H   H520      1.0  0.22369  0.68293  0.95170  1.0000
  C   C646      1.0  0.24666  0.79871  0.81258  1.0000
  C   C647      1.0  0.26120  0.80812  0.83714  1.0000
  C   C648      1.0  0.25105  0.81284  0.86703  1.0000
  C   C649      1.0  0.22656  0.80728  0.87294  1.0000
  C   C650      1.0  0.21190  0.79724  0.84866  1.0000
  C   C651      1.0  0.22195  0.79375  0.81810  1.0000
  P   P23       1.0  0.17995  0.79113  0.85592  1.0000
  C   C652      1.0  0.16914  0.76871  0.82712  1.0000
  C   C653      1.0  0.17687  0.77903  0.89584  1.0000
  H   H521      1.0  0.30237  0.82534  0.73712  1.0000
  C   C654      1.0  0.18267  0.61471  0.55703  1.0000
  C   C655      1.0  0.17049  0.59477  0.54316  1.0000
  H   H522      1.0  0.23911  0.92561  0.76995  1.0000
  H   H523      1.0  0.28681  0.79108  0.60771  1.0000
  C   C656      1.0  0.14655  0.77180  0.81149  1.0000
  C   C657      1.0  0.13851  0.75429  0.78928  1.0000
  C   C658      1.0  0.15292  0.73357  0.78256  1.0000
  C   C659      1.0  0.17545  0.73042  0.79790  1.0000
  C   C660      1.0  0.18358  0.74796  0.81990  1.0000
  C   C661      1.0  0.16285  0.81967  0.85396  1.0000
  C   C662      1.0  0.17366  0.84114  0.84205  1.0000
  C   C663      1.0  0.16082  0.86348  0.84278  1.0000
  C   C664      1.0  0.13713  0.86454  0.85516  1.0000
  C   C665      1.0  0.12621  0.84328  0.86696  1.0000
  C   C666      1.0  0.13901  0.82093  0.86644  1.0000
  H   H524      1.0  0.25457  0.79508  0.78937  1.0000
  H   H525      1.0  0.28038  0.81156  0.83330  1.0000
  H   H526      1.0  0.26245  0.82004  0.88604  1.0000
  H   H527      1.0  0.21927  0.81071  0.89654  1.0000
  H   H528      1.0  0.21086  0.78701  0.79856  1.0000
  H   H529      1.0  0.17827  0.74053  0.88213  1.0000
  H   H530      1.0  0.10322  0.85825  0.50852  1.0000
  H   H531      1.0  0.27504  0.94630  0.79444  1.0000
  S   S94       1.0  0.04525  0.50734  0.53125  1.0000
  H   H532      1.0  0.17521  0.81499  0.91846  1.0000
  H   H533      1.0  0.13511  0.78767  0.81627  1.0000
  H   H534      1.0  0.12105  0.75674  0.77734  1.0000
  H   H535      1.0  0.14663  0.71994  0.76551  1.0000
  H   H536      1.0  0.18669  0.71434  0.79289  1.0000
  H   H537      1.0  0.20121  0.74526  0.83133  1.0000
  H   H538      1.0  0.19214  0.84091  0.83286  1.0000
  H   H539      1.0  0.16940  0.88020  0.83450  1.0000
  H   H540      1.0  0.12747  0.88201  0.85621  1.0000
  H   H541      1.0  0.10801  0.84428  0.87713  1.0000
  H   H542      1.0  0.13054  0.80473  0.87640  1.0000
  C   C667      1.0  0.30751  0.78938  0.68459  1.0000
  C   C668      1.0  0.99769  0.95450  0.48614  1.0000
  C   C669      1.0  0.30991  0.81539  0.75722  1.0000
  H   H543      1.0  0.19236  0.95729  0.92949  1.0000
  H   H544      1.0  0.17509  0.72497  0.93678  1.0000
  C   C670      1.0  0.10977  0.94737  0.97017  1.0000
  C   C671      1.0  0.19753  0.52688  0.55912  1.0000
  H   H545      1.0  0.29775  0.54955  0.76604  1.0000
  H   H546      1.0  0.18998  0.61293  0.58096  1.0000
  H   H547      1.0  0.06525  0.97812  0.58795  1.0000
  C   C672      1.0  0.01356  0.94948  0.61228  1.0000
  P   P24       1.0  0.30205  0.49848  0.78759  1.0000
  C   C673      1.0  0.29388  0.78325  0.65726  1.0000
  C   C674      1.0  0.17611  0.73905  0.51972  1.0000
  H   H548      1.0  0.13543  0.49906  0.50394  1.0000
  C   C675      1.0  0.24166  0.67136  0.90888  1.0000
  S   S95       1.0  0.23229  0.79187  0.98287  1.0000
  H   H549      1.0  0.17888  0.65497  0.49514  1.0000
  H   H550      1.0  0.15137  0.58132  0.50170  1.0000
  C   C676      1.0  0.01395  0.51060  0.97720  1.0000
  C   C677      1.0  0.17373  0.66907  0.66522  1.0000
  H   H551      1.0  0.24125  0.91055  0.71415  1.0000
  H   H552      1.0  0.30212  0.67294  0.95762  1.0000
  C   C678      1.0  0.00383  0.96789  0.63181  1.0000
  H   H553      1.0  0.08865  0.57113  0.64525  1.0000
  C   C679      1.0  0.31510  0.94394  0.58977  1.0000
  C   C680      1.0  0.31307  0.50743  0.82674  1.0000
  H   H554      1.0  0.18510  0.52661  0.60795  1.0000
  H   H555      1.0  0.15251  0.68204  0.53112  1.0000
  C   C681      1.0  0.05927  0.90087  0.53825  1.0000
  H   H556      1.0  0.01997  0.95865  0.83467  1.0000
  C   C682      1.0  0.16439  0.61834  0.49492  1.0000
  C   C683      1.0  0.07037  0.95822  0.51573  1.0000
  C   C684      1.0  0.19940  0.73540  0.53278  1.0000
  C   C685      1.0  0.13586  0.89532  0.53303  1.0000
  H   H557      1.0  0.02912  0.94077  0.73282  1.0000
  C   C686      1.0  0.29734  0.94299  0.75230  1.0000
  C   C687      1.0  0.31070  0.74431  0.98475  1.0000
  C   C688      1.0  0.02109  0.49520  0.50692  1.0000
  C   C689      1.0  0.02107  0.54728  0.79100  1.0000
  C   C690      1.0  0.99439  0.53809  0.62620  1.0000
  C   C691      1.0  0.25224  0.50758  0.77571  1.0000
  C   C692      1.0  0.23849  0.98283  0.69278  1.0000
  C   C693      1.0  0.31759  0.53801  0.86883  1.0000
  H   H558      1.0  0.22815  0.96718  0.97917  1.0000
  C   C694      1.0  0.29872  0.93458  0.72059  1.0000
  H   H559      1.0  0.00231  0.55629  0.62504  1.0000
  C   C695      1.0  0.31351  0.92016  0.63836  1.0000
  H   H560      1.0  0.99436  0.95331  0.69815  1.0000
  C   C696      1.0  0.19185  0.98738  0.89682  1.0000
  C   C697      1.0  0.31575  0.81368  0.62672  1.0000
  C   C698      1.0  0.23843  0.60150  0.48859  1.0000
  C   C699      1.0  0.29102  0.72808  0.98213  1.0000
  H   H561      1.0  0.31952  0.61350  0.81928  1.0000
  C   C700      1.0  0.09331  0.96398  0.98397  1.0000
  C   C701      1.0  0.22081  0.58302  0.48682  1.0000
  H   H562      1.0  0.31875  0.82310  0.60438  1.0000
  C   C702      1.0  0.31724  0.82846  0.78442  1.0000
  C   C703      1.0  0.09769  0.86594  0.48585  1.0000
  H   H563      1.0  0.99319  0.93520  0.48532  1.0000
  C   C704      1.0  0.32199  0.07571  0.19368  1.0000
  C   C705      1.0  0.58388  0.01938  0.00524  1.0000
  H   H564      1.0  0.65254  0.38742  0.22819  1.0000
  C   C706      1.0  0.55628  0.05255  0.04858  1.0000
  C   C707      1.0  0.33942  0.41191  0.44930  1.0000
  S   S96       1.0  0.56638  0.01112  0.38992  1.0000
  S   S97       1.0  0.44838  0.01366  0.12761  1.0000
  C   C708      1.0  0.50121  0.47079  0.46377  1.0000
  C   C709      1.0  0.52127  0.99360  0.27263  1.0000
  C   C710      1.0  0.64867  0.09100  0.44876  1.0000
  Fe  Fe49      1.0  0.40705  0.01235  0.12384  1.0000
  S   S98       1.0  0.38445  0.04805  0.12775  1.0000
  H   H565      1.0  0.32225  0.10784  0.16405  1.0000
  S   S99       1.0  0.44574  0.45500  0.37743  1.0000
  H   H566      1.0  0.63156  0.48415  0.00464  1.0000
  S   S100      1.0  0.47978  0.45887  0.29496  1.0000
  Fe  Fe50      1.0  0.40537  0.46127  0.36816  1.0000
  S   S101      1.0  0.37690  0.43008  0.36791  1.0000
  H   H567      1.0  0.42231  0.01652  0.01218  1.0000
  S   S102      1.0  0.57506  0.45504  0.11915  1.0000
  Fe  Fe51      1.0  0.61648  0.45760  0.12166  1.0000
  C   C711      1.0  0.55978  0.02781  0.48262  1.0000
  C   C712      1.0  0.42162  0.45801  0.07837  1.0000
  S   S103      1.0  0.55763  0.46681  0.02848  1.0000
  C   C713      1.0  0.35717  0.41581  0.39625  1.0000
  C   C714      1.0  0.35523  0.42396  0.42786  1.0000
  C   C715      1.0  0.59558  0.09326  0.99131  1.0000
  C   C716      1.0  0.49382  0.00036  0.22677  1.0000
  H   H568      1.0  0.36581  0.43959  0.43578  1.0000
  H   H569      1.0  0.33824  0.41831  0.47371  1.0000
  H   H570      1.0  0.57823  0.46416  0.35522  1.0000
  H   H571      1.0  0.41081  0.39900  0.31651  1.0000
  H   H572      1.0  0.39088  0.01481  0.32370  1.0000
  C   C717      1.0  0.53130  0.47721  0.00667  1.0000
  H   H573      1.0  0.49615  0.46079  0.44244  1.0000
  H   H574      1.0  0.34427  0.30849  0.17051  1.0000
  H   H575      1.0  0.50829  0.47126  0.39008  1.0000
  C   C718      1.0  0.52819  0.46601  0.22120  1.0000
  C   C719      1.0  0.51311  0.45650  0.24554  1.0000
  H   H576      1.0  0.53949  0.45376  0.20705  1.0000
  H   H577      1.0  0.51297  0.43690  0.24978  1.0000
  H   H578      1.0  0.52344  0.07457  0.00537  1.0000
  C   C720      1.0  0.41236  0.00428  0.99632  1.0000
  C   C721      1.0  0.60393  0.02550  0.47902  1.0000
  C   C722      1.0  0.40653  0.45115  0.05279  1.0000
  Fe  Fe52      1.0  0.44869  0.99089  0.08229  1.0000
  C   C723      1.0  0.39882  0.34327  0.41016  1.0000
  C   C724      1.0  0.44475  0.46829  0.07269  1.0000
  C   C725      1.0  0.35990  0.05771  0.15304  1.0000
  C   C726      1.0  0.33263  0.05231  0.19839  1.0000
  C   C727      1.0  0.35127  0.04326  0.17809  1.0000
  S   S104      1.0  0.54214  0.00625  0.30123  1.0000
  H   H579      1.0  0.35946  0.02543  0.18237  1.0000
  P   P25       1.0  0.43698  0.37517  0.42507  1.0000
  C   C728      1.0  0.33712  0.99685  0.11680  1.0000
  H   H580      1.0  0.46439  0.00349  0.38288  1.0000
  H   H581      1.0  0.61920  0.06876  0.42970  1.0000
  C   C729      1.0  0.44019  0.40267  0.44896  1.0000
  H   H582      1.0  0.32675  0.04127  0.21825  1.0000
  H   H583      1.0  0.36179  0.01821  0.36857  1.0000
  H   H584      1.0  0.51566  0.02849  0.24952  1.0000
  C   C730      1.0  0.32449  0.30724  0.17163  1.0000
  C   C731      1.0  0.34295  0.39553  0.38650  1.0000
  H   H585      1.0  0.40687  0.07679  0.20137  1.0000
  C   C732      1.0  0.42240  0.38718  0.36309  1.0000
  H   H586      1.0  0.45732  0.47431  0.22291  1.0000
  C   C733      1.0  0.63928  0.08205  0.02318  1.0000
  C   C734      1.0  0.42627  0.39628  0.33241  1.0000
  C   C735      1.0  0.47273  0.33884  0.41484  1.0000
  H   H587      1.0  0.56333  0.07567  0.12392  1.0000
  C   C736      1.0  0.33015  0.08984  0.16808  1.0000
  H   H588      1.0  0.51172  0.00631  0.45226  1.0000
  C   C737      1.0  0.32704  0.38356  0.40790  1.0000
  C   C738      1.0  0.49828  0.47205  0.26440  1.0000
  H   H589      1.0  0.32543  0.20604  0.20763  1.0000
  H   H590      1.0  0.49180  0.39290  0.13948  1.0000
  H   H591      1.0  0.64951  0.41901  0.44585  1.0000
  H   H592      1.0  0.47860  0.46616  0.17227  1.0000
  C   C739      1.0  0.48612  0.45012  0.10725  1.0000
  C   C740      1.0  0.50735  0.45001  0.08847  1.0000
  C   C741      1.0  0.52282  0.42945  0.08814  1.0000
  C   C742      1.0  0.51740  0.40901  0.10682  1.0000
  C   C743      1.0  0.49612  0.40886  0.12527  1.0000
  C   C744      1.0  0.48032  0.42920  0.12514  1.0000
  H   H593      1.0  0.53062  0.44582  0.47618  1.0000
  C   C745      1.0  0.50546  0.99584  0.47247  1.0000
  H   H594      1.0  0.35253  0.00922  0.11537  1.0000
  C   C746      1.0  0.37048  0.35667  0.46289  1.0000
  C   C747      1.0  0.58148  0.03370  0.46696  1.0000
  C   C748      1.0  0.63877  0.07028  0.43300  1.0000
  C   C749      1.0  0.63748  0.10343  0.00501  1.0000
  P   P26       1.0  0.57198  0.05024  0.01059  1.0000
  C   C750      1.0  0.48930  0.31301  0.45669  1.0000
  H   H595      1.0  0.40837  0.42013  0.42794  1.0000
  H   H596      1.0  0.50306  0.03505  0.08436  1.0000
  H   H597      1.0  0.52614  0.45886  0.33821  1.0000
  H   H598      1.0  0.45263  0.41079  0.29939  1.0000
  H   H599      1.0  0.54238  0.03403  0.47307  1.0000
  H   H600      1.0  0.55318  0.00104  0.02758  1.0000
  C   C751      1.0  0.35764  0.00626  0.34853  1.0000
  Fe  Fe53      1.0  0.57716  0.47872  0.07499  1.0000
  H   H601      1.0  0.53911  0.42947  0.07341  1.0000
  H   H602      1.0  0.52965  0.39328  0.10680  1.0000
  H   H603      1.0  0.34427  0.38900  0.36217  1.0000
  H   H604      1.0  0.46358  0.42852  0.13886  1.0000
  P   P27       1.0  0.46514  0.47575  0.10531  1.0000
  C   C752      1.0  0.60568  0.01547  0.98815  1.0000
  C   C753      1.0  0.41464  0.45401  0.02144  1.0000
  C   C754      1.0  0.57059  0.99892  0.01575  1.0000
  H   H605      1.0  0.58093  0.04435  0.44521  1.0000
  H   H606      1.0  0.48587  0.01272  0.20942  1.0000
  S   S105      1.0  0.64658  0.42773  0.12259  1.0000
  H   H607      1.0  0.49964  0.31029  0.40726  1.0000
  H   H608      1.0  0.47474  0.99260  0.30954  1.0000
  Fe  Fe54      1.0  0.45250  0.47537  0.33125  1.0000
  C   C755      1.0  0.52099  0.04335  0.08175  1.0000
  H   H609      1.0  0.64358  0.46077  0.42421  1.0000
  H   H610      1.0  0.42590  0.00119  0.21703  1.0000
  H   H611      1.0  0.32470  0.28903  0.21691  1.0000
  C   C756      1.0  0.53191  0.05543  0.10751  1.0000
  H   H612      1.0  0.43906  0.00818  0.28005  1.0000
  H   H613      1.0  0.41535  0.45490  0.10245  1.0000
  H   H614      1.0  0.38101  0.02820  0.99236  1.0000
  C   C757      1.0  0.43800  0.46330  0.01566  1.0000
  H   H615      1.0  0.62099  0.04962  0.03945  1.0000
  C   C758      1.0  0.36199  0.33879  0.44164  1.0000
  H   H616      1.0  0.32905  0.19289  0.26402  1.0000
  C   C759      1.0  0.32520  0.39162  0.43956  1.0000
  C   C760      1.0  0.61564  0.10905  0.98914  1.0000
  H   H617      1.0  0.63648  0.10517  0.45766  1.0000
  C   C761      1.0  0.44207  0.38471  0.38447  1.0000
  S   S106      1.0  0.40747  0.99175  0.07687  1.0000
  C   C762      1.0  0.37403  0.00435  0.32306  1.0000
  C   C763      1.0  0.55493  0.06619  0.10394  1.0000
  H   H618      1.0  0.40303  0.44867  0.00156  1.0000
  H   H619      1.0  0.40976  0.33765  0.38989  1.0000
  H   H620      1.0  0.48742  0.40705  0.33689  1.0000
  H   H621      1.0  0.52247  0.05650  0.13018  1.0000
  C   C764      1.0  0.40439  0.05989  0.21455  1.0000
  H   H622      1.0  0.48079  0.39133  0.39152  1.0000
  C   C765      1.0  0.41484  0.01713  0.22325  1.0000
  H   H623      1.0  0.35548  0.09228  0.12873  1.0000
  H   H624      1.0  0.51191  0.46563  0.07371  1.0000
  H   H625      1.0  0.47182  0.34333  0.38976  1.0000
  C   C766      1.0  0.38611  0.05838  0.23770  1.0000
  C   C767      1.0  0.41875  0.03929  0.20737  1.0000
  H   H626      1.0  0.63399  0.41652  0.18928  1.0000
  S   S107      1.0  0.41225  0.47892  0.32019  1.0000
  C   C768      1.0  0.38197  0.03618  0.25344  1.0000
  H   H627      1.0  0.58481  0.07337  0.07253  1.0000
  H   H628      1.0  0.62057  0.02970  0.46628  1.0000
  H   H629      1.0  0.36699  0.03523  0.27018  1.0000
  H   H630      1.0  0.59109  0.00216  0.27391  1.0000
  C   C769      1.0  0.34904  0.08093  0.14806  1.0000
  C   C770      1.0  0.53307  0.04194  0.05247  1.0000
  S   S108      1.0  0.47277  0.00401  0.04078  1.0000
  H   H631      1.0  0.58788  0.46867  0.41246  1.0000
  C   C771      1.0  0.52631  0.47801  0.34552  1.0000
  H   H632      1.0  0.40384  0.38316  0.37035  1.0000
  H   H633      1.0  0.38868  0.44329  0.05720  1.0000
  S   S109      1.0  0.64293  0.02479  0.40178  1.0000
  C   C772      1.0  0.62207  0.47381  0.46426  1.0000
  H   H634      1.0  0.43252  0.04036  0.18891  1.0000
  C   C773      1.0  0.61923  0.06627  0.02557  1.0000
  H   H635      1.0  0.37441  0.07416  0.24235  1.0000
  C   C774      1.0  0.63904  0.43251  0.45922  1.0000
  C   C775      1.0  0.58968  0.47919  0.36328  1.0000
  Fe  Fe55      1.0  0.60738  0.00379  0.38925  1.0000
  C   C776      1.0  0.39654  0.01546  0.24659  1.0000
  C   C777      1.0  0.37617  0.33204  0.41530  1.0000
  C   C778      1.0  0.44977  0.40306  0.32286  1.0000
  H   H636      1.0  0.36951  0.31819  0.39884  1.0000
  C   C779      1.0  0.63572  0.45623  0.44711  1.0000
  C   C780      1.0  0.51076  0.00925  0.24960  1.0000
  Fe  Fe56      1.0  0.56495  0.99038  0.34275  1.0000
  C   C781      1.0  0.56709  0.06479  0.07463  1.0000
  S   S110      1.0  0.61855  0.47868  0.07558  1.0000
  H   H637      1.0  0.52412  0.03262  0.03285  1.0000
  C   C782      1.0  0.46942  0.40090  0.34409  1.0000
  C   C783      1.0  0.64987  0.40570  0.18267  1.0000
  H   H638      1.0  0.63424  0.00426  0.25607  1.0000
  C   C784      1.0  0.46557  0.39200  0.37492  1.0000
  C   C785      1.0  0.59727  0.07162  0.00937  1.0000
  C   C786      1.0  0.45315  0.47002  0.04116  1.0000
  C   C787      1.0  0.59533  0.48173  0.39566  1.0000
  H   H639      1.0  0.34420  0.33050  0.44544  1.0000
  C   C788      1.0  0.46059  0.47464  0.17170  1.0000
  C   C789      1.0  0.51615  0.48503  0.37470  1.0000
  C   C790      1.0  0.52062  0.46218  0.48320  1.0000
  H   H640      1.0  0.47149  0.47644  0.03621  1.0000
  C   C791      1.0  0.50275  0.00210  0.98803  1.0000
  C   C792      1.0  0.40715  0.36177  0.43096  1.0000
  C   C793      1.0  0.49263  0.98865  0.01338  1.0000
  C   C794      1.0  0.39291  0.36820  0.45760  1.0000
  C   C795      1.0  0.44946  0.48109  0.14264  1.0000
  C   C796      1.0  0.44876  0.47958  0.20058  1.0000
  C   C797      1.0  0.42317  0.42185  0.44509  1.0000
  C   C798      1.0  0.45814  0.35137  0.43723  1.0000
  C   C799      1.0  0.48839  0.31987  0.42463  1.0000
  H   H641      1.0  0.41235  0.45839  0.45940  1.0000
  C   C800      1.0  0.42537  0.44352  0.46289  1.0000
  H   H642      1.0  0.44451  0.46515  0.99137  1.0000
  H   H643      1.0  0.43431  0.99680  0.47678  1.0000
  H   H644      1.0  0.39895  0.38207  0.47439  1.0000
  H   H645      1.0  0.47409  0.39194  0.47238  1.0000
  C   C801      1.0  0.44465  0.44624  0.48459  1.0000
  C   C802      1.0  0.41479  0.99924  0.48020  1.0000
  C   C803      1.0  0.46000  0.40584  0.47005  1.0000
  C   C804      1.0  0.45871  0.34395  0.46925  1.0000
  H   H646      1.0  0.42497  0.99423  0.40905  1.0000
  H   H647      1.0  0.50134  0.29821  0.46420  1.0000
  C   C805      1.0  0.47439  0.32498  0.47896  1.0000
  H   H648      1.0  0.35923  0.36205  0.48307  1.0000
  H   H649      1.0  0.65327  0.11531  0.00257  1.0000
  H   H650      1.0  0.32318  0.99433  0.36788  1.0000
  H   H651      1.0  0.34763  0.98955  0.22431  1.0000
  C   C806      1.0  0.36870  0.98909  0.29686  1.0000
  C   C807      1.0  0.33589  0.99283  0.34814  1.0000
  C   C808      1.0  0.43855  0.98965  0.28926  1.0000
  C   C809      1.0  0.34326  0.00846  0.72406  1.0000
  H   H652      1.0  0.35448  0.48730  0.79185  1.0000
  Fe  Fe57      1.0  0.60250  0.00690  0.87818  1.0000
  S   S111      1.0  0.61742  0.04550  0.88931  1.0000
  C   C810      1.0  0.32548  0.11676  0.58139  1.0000
  S   S112      1.0  0.56149  0.00186  0.87345  1.0000
  S   S113      1.0  0.42737  0.01283  0.63125  1.0000
  C   C811      1.0  0.48738  0.00565  0.49299  1.0000
  Fe  Fe58      1.0  0.57115  0.47814  0.57965  1.0000
  C   C812      1.0  0.61455  0.99164  0.98301  1.0000
  Fe  Fe59      1.0  0.38765  0.00214  0.62545  1.0000
  S   S114      1.0  0.35179  0.02473  0.62882  1.0000
  C   C813      1.0  0.36014  0.09076  0.59564  1.0000
  S   S115      1.0  0.43997  0.45668  0.87425  1.0000
  S   S116      1.0  0.45647  0.00608  0.54478  1.0000
  S   S117      1.0  0.46132  0.46758  0.78456  1.0000
  Fe  Fe60      1.0  0.39883  0.46262  0.87402  1.0000
  S   S118      1.0  0.36609  0.43581  0.87625  1.0000
  H   H653      1.0  0.36971  0.30635  0.93429  1.0000
  S   S119      1.0  0.57536  0.45832  0.62700  1.0000
  Fe  Fe61      1.0  0.61542  0.46864  0.62470  1.0000
  C   C814      1.0  0.45881  0.45776  0.59268  1.0000
  H   H654      1.0  0.32459  0.06264  0.53983  1.0000
  C   C815      1.0  0.58300  0.00537  0.52236  1.0000
  C   C816      1.0  0.35378  0.41536  0.90536  1.0000
  C   C817      1.0  0.36695  0.40803  0.93241  1.0000
  H   H655      1.0  0.49669  0.08311  0.95943  1.0000
  C   C818      1.0  0.56372  0.45621  0.82143  1.0000
  H   H656      1.0  0.38507  0.41533  0.93661  1.0000
  H   H657      1.0  0.32517  0.37301  0.73397  1.0000
  H   H658      1.0  0.35640  0.32250  0.83569  1.0000
  C   C819      1.0  0.47478  0.47628  0.60336  1.0000
  H   H659      1.0  0.44690  0.35277  0.48665  1.0000
  H   H660      1.0  0.36083  0.08710  0.71457  1.0000
  C   C820      1.0  0.58526  0.44954  0.95246  1.0000
  C   C821      1.0  0.61727  0.99242  0.61690  1.0000
  C   C822      1.0  0.60494  0.01207  0.50742  1.0000
  C   C823      1.0  0.58140  0.42977  0.93167  1.0000
  C   C824      1.0  0.49370  0.46474  0.73406  1.0000
  H   H661      1.0  0.51829  0.46180  0.69366  1.0000
  H   H662      1.0  0.48548  0.44699  0.72971  1.0000
  H   H663      1.0  0.45100  0.46586  0.65901  1.0000
  C   C825      1.0  0.33780  0.19439  0.66608  1.0000
  H   H664      1.0  0.59376  0.43836  0.84637  1.0000
  C   C826      1.0  0.51232  0.47313  0.71346  1.0000
  H   H665      1.0  0.62604  0.41597  0.68059  1.0000
  C   C827      1.0  0.33134  0.18049  0.50616  1.0000
  H   H666      1.0  0.49389  0.99683  0.68976  1.0000
  C   C828      1.0  0.34213  0.04959  0.65386  1.0000
  H   H667      1.0  0.51281  0.48520  0.61307  1.0000
  H   H668      1.0  0.34946  0.40512  0.76194  1.0000
  H   H669      1.0  0.35404  0.12650  0.61537  1.0000
  C   C829      1.0  0.37658  0.99515  0.96425  1.0000
  H   H670      1.0  0.33068  0.47233  0.83672  1.0000
  C   C830      1.0  0.34883  0.07938  0.69658  1.0000
  C   C831      1.0  0.44006  0.48332  0.70254  1.0000
  C   C832      1.0  0.36774  0.00690  0.73374  1.0000
  H   H671      1.0  0.57678  0.04169  0.94200  1.0000
  C   C833      1.0  0.50693  0.43476  0.82860  1.0000
  Fe  Fe62      1.0  0.44105  0.48063  0.83003  1.0000
  C   C834      1.0  0.55175  0.05652  0.97741  1.0000
  S   S120      1.0  0.61168  0.48545  0.57564  1.0000
  C   C835      1.0  0.61455  0.44329  0.50521  1.0000
  H   H672      1.0  0.55041  0.05184  0.89631  1.0000
  H   H673      1.0  0.36192  0.05544  0.57247  1.0000
  H   H674      1.0  0.58416  0.99454  0.71343  1.0000
  H   H675      1.0  0.34560  0.00749  0.49821  1.0000
  C   C836      1.0  0.36488  0.00536  0.49276  1.0000
  C   C837      1.0  0.32017  0.38815  0.92171  1.0000
  C   C838      1.0  0.49789  0.01550  0.60695  1.0000
  C   C839      1.0  0.33196  0.31157  0.92107  1.0000
  C   C840      1.0  0.33176  0.37161  0.82600  1.0000
  H   H676      1.0  0.34823  0.18875  0.49806  1.0000
  H   H677      1.0  0.53800  0.47339  0.78877  1.0000
  C   C841      1.0  0.35689  0.39075  0.95373  1.0000
  H   H678      1.0  0.38523  0.31291  0.87942  1.0000
  H   H679      1.0  0.62765  0.05679  0.51794  1.0000
  C   C842      1.0  0.50209  0.47042  0.96265  1.0000
  S   S121      1.0  0.55166  0.46236  0.53534  1.0000
  H   H680      1.0  0.51196  0.44289  0.80616  1.0000
  H   H681      1.0  0.34669  0.16893  0.55092  1.0000
  C   C843      1.0  0.53905  0.02515  0.59014  1.0000
  C   C844      1.0  0.52163  0.06766  0.92497  1.0000
  C   C845      1.0  0.55923  0.05047  0.94631  1.0000
  C   C846      1.0  0.56049  0.01335  0.51006  1.0000
  H   H682      1.0  0.55188  0.03791  0.57972  1.0000
  C   C847      1.0  0.35705  0.31020  0.91498  1.0000
  C   C848      1.0  0.64627  0.08214  0.91475  1.0000
  C   C849      1.0  0.58659  0.44432  0.82367  1.0000
  H   H683      1.0  0.43811  0.46613  0.71525  1.0000
  C   C850      1.0  0.32309  0.15487  0.64765  1.0000
  H   H684      1.0  0.50814  0.04978  0.58557  1.0000
  C   C851      1.0  0.54428  0.05619  0.92024  1.0000
  C   C852      1.0  0.63151  0.98905  0.56212  1.0000
  C   C853      1.0  0.64123  0.05679  0.91465  1.0000
  H   H685      1.0  0.56299  0.99445  0.66151  1.0000
  H   H686      1.0  0.63126  0.98885  0.96959  1.0000
  H   H687      1.0  0.52673  0.00169  0.94694  1.0000
  C   C854      1.0  0.57812  0.47322  0.94354  1.0000
  C   C855      1.0  0.64494  0.41005  0.67901  1.0000
  H   H688      1.0  0.61446  0.12539  0.97456  1.0000
  H   H689      1.0  0.59987  0.47970  0.50652  1.0000
  H   H690      1.0  0.44655  0.46321  0.49797  1.0000
  C   C856      1.0  0.62852  0.42607  0.48833  1.0000
  C   C857      1.0  0.50004  0.47141  0.60473  1.0000
  C   C858      1.0  0.57003  0.43362  0.90215  1.0000
  H   H691      1.0  0.35375  0.40411  0.82081  1.0000
  H   H692      1.0  0.34472  0.20597  0.68515  1.0000
  C   C859      1.0  0.36576  0.31400  0.88413  1.0000
  H   H693      1.0  0.47739  0.43002  0.50417  1.0000
  H   H694      1.0  0.64977  0.10665  0.84028  1.0000
  C   C860      1.0  0.38914  0.01086  0.98505  1.0000
  H   H695      1.0  0.43923  0.46101  0.59178  1.0000
  C   C861      1.0  0.56688  0.47718  0.91398  1.0000
  P   P28       1.0  0.63432  0.00257  0.52301  1.0000
  H   H696      1.0  0.49530  0.45897  0.94350  1.0000
  H   H697      1.0  0.50512  0.48466  0.89238  1.0000
  C   C862      1.0  0.33265  0.16970  0.67193  1.0000
  H   H698      1.0  0.61562  0.03074  0.97808  1.0000
  H   H699      1.0  0.60294  0.44433  0.74529  1.0000
  C   C863      1.0  0.44747  0.48331  0.67063  1.0000
  H   H700      1.0  0.47479  0.31940  0.50373  1.0000
  C   C864      1.0  0.51889  0.99257  0.72970  1.0000
  H   H701      1.0  0.33676  0.22357  0.63159  1.0000
  H   H702      1.0  0.63084  0.40766  0.49766  1.0000
  C   C865      1.0  0.51447  0.03191  0.59352  1.0000
  C   C866      1.0  0.61980  0.00246  0.58645  1.0000
  S   S122      1.0  0.65102  0.44645  0.63262  1.0000
  C   C867      1.0  0.33022  0.40546  0.90040  1.0000
  C   C868      1.0  0.56954  0.45972  0.76406  1.0000
  C   C869      1.0  0.52931  0.06881  0.98189  1.0000
  C   C870      1.0  0.51911  0.99103  0.96619  1.0000
  C   C871      1.0  0.34057  0.39076  0.77541  1.0000
  C   C872      1.0  0.61128  0.46701  0.49323  1.0000
  H   H703      1.0  0.48005  0.02382  0.48848  1.0000
  C   C873      1.0  0.46804  0.43495  0.58277  1.0000
  C   C874      1.0  0.49323  0.43040  0.58374  1.0000
  C   C875      1.0  0.50915  0.44854  0.59491  1.0000
  C   C876      1.0  0.32414  0.32156  0.86562  1.0000
  C   C877      1.0  0.32512  0.08927  0.69265  1.0000
  H   H704      1.0  0.56302  0.46587  0.74097  1.0000
  H   H705      1.0  0.56638  0.41799  0.88676  1.0000
  C   C878      1.0  0.32682  0.37272  0.75973  1.0000
  H   H706      1.0  0.34623  0.48475  0.88929  1.0000
  H   H707      1.0  0.32544  0.27990  0.82894  1.0000
  C   C879      1.0  0.38158  0.02311  0.50304  1.0000
  C   C880      1.0  0.46201  0.42747  0.48807  1.0000
  H   H708      1.0  0.37760  0.02342  0.74038  1.0000
  H   H709      1.0  0.47881  0.02073  0.60926  1.0000
  H   H710      1.0  0.51000  0.07182  0.90470  1.0000
  H   H711      1.0  0.45567  0.42085  0.57422  1.0000
  H   H712      1.0  0.50052  0.41285  0.57581  1.0000
  H   H713      1.0  0.52867  0.44497  0.59541  1.0000
  H   H714      1.0  0.37533  0.03901  0.51641  1.0000
  H   H715      1.0  0.64102  0.38130  0.71403  1.0000
  S   S123      1.0  0.32204  0.35860  0.97630  1.0000
  H   H716      1.0  0.53270  0.00425  0.71941  1.0000
  H   H717      1.0  0.59310  0.44648  0.97592  1.0000
  H   H718      1.0  0.32539  0.30887  0.94510  1.0000
  H   H719      1.0  0.60814  0.00283  0.63553  1.0000
  C   C881      1.0  0.34710  0.11281  0.59897  1.0000
  C   C882      1.0  0.35732  0.05974  0.67733  1.0000
  C   C883      1.0  0.47873  0.99223  0.51925  1.0000
  H   H720      1.0  0.41962  0.03337  0.50559  1.0000
  H   H721      1.0  0.58657  0.41136  0.93889  1.0000
  H   H722      1.0  0.56595  0.99673  0.59689  1.0000
  H   H723      1.0  0.33560  0.16209  0.69550  1.0000
  H   H724      1.0  0.37635  0.08741  0.61002  1.0000
  C   C884      1.0  0.52253  0.46284  0.98102  1.0000
  H   H725      1.0  0.61257  0.02069  0.58178  1.0000
  H   H726      1.0  0.63544  0.09421  0.89986  1.0000
  H   H727      1.0  0.37564  0.05248  0.68065  1.0000
  C   C885      1.0  0.35201  0.07271  0.57439  1.0000
  C   C886      1.0  0.51944  0.44061  0.85693  1.0000
  C   C887      1.0  0.51121  0.43048  0.88576  1.0000
  C   C888      1.0  0.49131  0.41439  0.88606  1.0000
  C   C889      1.0  0.47926  0.40844  0.85766  1.0000
  C   C890      1.0  0.48698  0.41874  0.82900  1.0000
  P   P29       1.0  0.54511  0.46160  0.85662  1.0000
  C   C891      1.0  0.33037  0.16937  0.53614  1.0000
  C   C892      1.0  0.33344  0.20424  0.63587  1.0000
  C   C893      1.0  0.55538  0.46390  0.79130  1.0000
  H   H728      1.0  0.33422  0.37127  0.85163  1.0000
  H   H729      1.0  0.51984  0.43519  0.90819  1.0000
  H   H730      1.0  0.48491  0.40694  0.90843  1.0000
  H   H731      1.0  0.46347  0.39645  0.85796  1.0000
  H   H732      1.0  0.47707  0.41495  0.80710  1.0000
  H   H733      1.0  0.54352  0.00799  0.52139  1.0000
  C   C894      1.0  0.40651  0.02003  0.49676  1.0000
  C   C895      1.0  0.56244  0.45734  0.89315  1.0000
  C   C896      1.0  0.59209  0.44767  0.76652  1.0000
  C   C897      1.0  0.51417  0.07401  0.95578  1.0000
  C   C898      1.0  0.52706  0.47435  0.51174  1.0000
  C   C899      1.0  0.33351  0.38056  0.94851  1.0000
  C   C900      1.0  0.34937  0.31952  0.85947  1.0000
  H   H734      1.0  0.57898  0.09783  0.97842  1.0000
  S   S124      1.0  0.39978  0.48399  0.82792  1.0000
  C   C901      1.0  0.33090  0.07672  0.55620  1.0000
  H   H735      1.0  0.60583  0.43822  0.52745  1.0000
  H   H736      1.0  0.33425  0.02623  0.72311  1.0000
  C   C902      1.0  0.34298  0.39021  0.80855  1.0000
  H   H737      1.0  0.65134  0.02201  0.93495  1.0000
  C   C903      1.0  0.60062  0.43999  0.79631  1.0000
  C   C904      1.0  0.48548  0.47911  0.76004  1.0000
  H   H738      1.0  0.36742  0.38506  0.97432  1.0000
  H   H739      1.0  0.61812  0.43060  0.79813  1.0000
  H   H740      1.0  0.35871  0.00040  0.95525  1.0000
  C   C905      1.0  0.32412  0.18937  0.61141  1.0000
  C   C906      1.0  0.54693  0.00184  0.59978  1.0000
  H   H741      1.0  0.58311  0.99368  0.54304  1.0000
  C   C907      1.0  0.50568  0.99216  0.61658  1.0000
  H   H742      1.0  0.53156  0.44563  0.97538  1.0000
  Fe  Fe63      1.0  0.43408  0.99045  0.58616  1.0000
  C   C908      1.0  0.64648  0.05271  0.52402  1.0000
  H   H743      1.0  0.58038  0.48835  0.96022  1.0000
  C   C909      1.0  0.49680  0.98845  0.71279  1.0000
  H   H744      1.0  0.49790  0.02128  0.98523  1.0000
  S   S125      1.0  0.55918  0.95338  0.36511  1.0000
  H   H745      1.0  0.41037  0.94134  0.23328  1.0000
  Fe  Fe64      1.0  0.60059  0.95016  0.36547  1.0000
  S   S126      1.0  0.62296  0.91435  0.35929  1.0000
  H   H746      1.0  0.49125  0.95318  0.03564  1.0000
  C   C910      1.0  0.54628  0.94992  0.19372  1.0000
  C   C911      1.0  0.57927  0.97509  0.00996  1.0000
  S   S127      1.0  0.46534  0.96330  0.19890  1.0000
  Fe  Fe65      1.0  0.40747  0.95714  0.10603  1.0000
  S   S128      1.0  0.38579  0.92122  0.09933  1.0000
  S   S129      1.0  0.44881  0.95500  0.10879  1.0000
  C   C912      1.0  0.33402  0.52527  0.22025  1.0000
  Fe  Fe66      1.0  0.41342  0.51477  0.34712  1.0000
  S   S130      1.0  0.40020  0.55163  0.32628  1.0000
  C   C913      1.0  0.36160  0.93743  0.18307  1.0000
  C   C914      1.0  0.63387  0.96825  0.23431  1.0000
  S   S131      1.0  0.45434  0.51216  0.35578  1.0000
  C   C915      1.0  0.61341  0.51548  0.35162  1.0000
  Fe  Fe67      1.0  0.61625  0.51291  0.10534  1.0000
  H   H747      1.0  0.33672  0.72258  0.05281  1.0000
  C   C916      1.0  0.45149  0.58785  0.31428  1.0000
  C   C917      1.0  0.41808  0.97451  0.28436  1.0000
  H   H748      1.0  0.36344  0.92641  0.45797  1.0000
  S   S132      1.0  0.57498  0.51462  0.10195  1.0000
  S   S133      1.0  0.60316  0.96754  0.41415  1.0000
  C   C918      1.0  0.45888  0.95716  0.31867  1.0000
  C   C919      1.0  0.64299  0.90284  0.32890  1.0000
  C   C920      1.0  0.61921  0.51803  0.38400  1.0000
  H   H749      1.0  0.33712  0.91882  0.36210  1.0000
  C   C921      1.0  0.38875  0.94730  0.38894  1.0000
  H   H750      1.0  0.52721  0.88991  0.34241  1.0000
  H   H751      1.0  0.50242  0.93878  0.13775  1.0000
  H   H752      1.0  0.52559  0.51063  0.03331  1.0000
  H   H753      1.0  0.62693  0.87391  0.15023  1.0000
  C   C922      1.0  0.50689  0.54828  0.09116  1.0000
  C   C923      1.0  0.61990  0.94733  0.22770  1.0000
  H   H754      1.0  0.47653  0.54921  0.40982  1.0000
  C   C924      1.0  0.64493  0.94284  0.46489  1.0000
  H   H755      1.0  0.51399  0.52645  0.22994  1.0000
  H   H756      1.0  0.51979  0.93344  0.99689  1.0000
  C   C925      1.0  0.48681  0.54290  0.07164  1.0000
  H   H757      1.0  0.33195  0.64224  0.22957  1.0000
  C   C926      1.0  0.32591  0.89063  0.03124  1.0000
  C   C927      1.0  0.53651  0.89565  0.32093  1.0000
  H   H758      1.0  0.35746  0.96587  0.09867  1.0000
  H   H759      1.0  0.39417  0.91557  0.18966  1.0000
  C   C928      1.0  0.36968  0.58748  0.30180  1.0000
  C   C929      1.0  0.59211  0.51902  0.46865  1.0000
  C   C930      1.0  0.52378  0.89703  0.29204  1.0000
  C   C931      1.0  0.51466  0.96874  0.27236  1.0000
  C   C932      1.0  0.49762  0.95988  0.24961  1.0000
  C   C933      1.0  0.32883  0.54918  0.13868  1.0000
  H   H760      1.0  0.52247  0.95642  0.28986  1.0000
  H   H761      1.0  0.49247  0.94072  0.24986  1.0000
  C   C934      1.0  0.35325  0.88640  0.07706  1.0000
  C   C935      1.0  0.36290  0.91008  0.07235  1.0000
  C   C936      1.0  0.35385  0.92407  0.04692  1.0000
  P   P30       1.0  0.61733  0.50428  0.44818  1.0000
  H   H762      1.0  0.36097  0.94230  0.04289  1.0000
  C   C937      1.0  0.37103  0.56356  0.31446  1.0000
  C   C938      1.0  0.34943  0.54992  0.31669  1.0000
  H   H763      1.0  0.41719  0.49565  0.22329  1.0000
  H   H764      1.0  0.35010  0.53151  0.32629  1.0000
  H   H765      1.0  0.34652  0.61606  0.28188  1.0000
  C   C939      1.0  0.51513  0.95267  0.99438  1.0000
  C   C940      1.0  0.37310  0.98458  0.47608  1.0000
  C   C941      1.0  0.61036  0.50103  0.40623  1.0000
  Fe  Fe68      1.0  0.44568  0.97774  0.15390  1.0000
  C   C942      1.0  0.49889  0.50700  0.99511  1.0000
  C   C943      1.0  0.34717  0.59763  0.29141  1.0000
  C   C944      1.0  0.44260  0.91258  0.04315  1.0000
  C   C945      1.0  0.59921  0.98682  0.26107  1.0000
  C   C946      1.0  0.52879  0.49132  0.21544  1.0000
  C   C947      1.0  0.62280  0.61210  0.19409  1.0000
  H   H766      1.0  0.48983  0.52420  0.00070  1.0000
  C   C948      1.0  0.59870  0.49605  0.34126  1.0000
  H   H767      1.0  0.46620  0.55834  0.46563  1.0000
  H   H768      1.0  0.41309  0.93291  0.02201  1.0000
  C   C949      1.0  0.45956  0.60064  0.34127  1.0000
  C   C950      1.0  0.60420  0.89267  0.18466  1.0000
  C   C951      1.0  0.46521  0.90103  0.03838  1.0000
  C   C952      1.0  0.38361  0.93119  0.19821  1.0000
  C   C953      1.0  0.48034  0.59255  0.35784  1.0000
  C   C954      1.0  0.59101  0.57941  0.36100  1.0000
  H   H769      1.0  0.63066  0.53318  0.39151  1.0000
  H   H770      1.0  0.64165  0.63507  0.03779  1.0000
  C   C955      1.0  0.56703  0.61053  0.33391  1.0000
  H   H771      1.0  0.60432  0.88023  0.26435  1.0000
  C   C956      1.0  0.34971  0.51422  0.24249  1.0000
  C   C957      1.0  0.63365  0.59855  0.16951  1.0000
  S   S134      1.0  0.46285  0.50338  0.44939  1.0000
  C   C958      1.0  0.64320  0.54814  0.45601  1.0000
  C   C959      1.0  0.54550  0.59815  0.34181  1.0000
  C   C960      1.0  0.37104  0.93863  0.36754  1.0000
  C   C961      1.0  0.52239  0.58510  0.46314  1.0000
  C   C962      1.0  0.51740  0.93515  0.15415  1.0000
  C   C963      1.0  0.43074  0.92427  0.01781  1.0000
  C   C964      1.0  0.43772  0.96011  0.42987  1.0000
  P   P31       1.0  0.39078  0.98617  0.26504  1.0000
  H   H772      1.0  0.35701  0.57617  0.12982  1.0000
  H   H773      1.0  0.60742  0.95295  0.98819  1.0000
  H   H774      1.0  0.39802  0.50883  0.17235  1.0000
  C   C965      1.0  0.54663  0.57626  0.35935  1.0000
  S   S135      1.0  0.40429  0.49756  0.39453  1.0000
  H   H775      1.0  0.49323  0.89169  0.00429  1.0000
  C   C966      1.0  0.36355  0.55780  0.21256  1.0000
  C   C967      1.0  0.37916  0.54672  0.23483  1.0000
  C   C968      1.0  0.37219  0.52502  0.24990  1.0000
  C   C969      1.0  0.41049  0.90569  0.47316  1.0000
  H   H776      1.0  0.62357  0.64578  0.22130  1.0000
  C   C970      1.0  0.32026  0.95616  0.10981  1.0000
  H   H777      1.0  0.40234  0.93894  0.29427  1.0000
  H   H778      1.0  0.60641  0.61092  0.33754  1.0000
  S   S136      1.0  0.61575  0.49202  0.15172  1.0000
  C   C971      1.0  0.44018  0.98152  0.41154  1.0000
  H   H779      1.0  0.47485  0.95040  0.33138  1.0000
  C   C972      1.0  0.32290  0.59484  0.17740  1.0000
  C   C973      1.0  0.36578  0.93008  0.43277  1.0000
  H   H780      1.0  0.38398  0.51698  0.26799  1.0000
  Fe  Fe69      1.0  0.56235  0.97359  0.41206  1.0000
  H   H781      1.0  0.45820  0.51745  0.06070  1.0000
  H   H782      1.0  0.40430  0.95711  0.37959  1.0000
  C   C974      1.0  0.53470  0.52062  0.33366  1.0000
  C   C975      1.0  0.63197  0.63526  0.20220  1.0000
  H   H783      1.0  0.36925  0.57466  0.20123  1.0000
  H   H784      1.0  0.39639  0.55529  0.24121  1.0000
  H   H785      1.0  0.45670  0.92768  0.44735  1.0000
  Fe  Fe70      1.0  0.57450  0.49103  0.14644  1.0000
  H   H786      1.0  0.51684  0.56529  0.08810  1.0000
  C   C976      1.0  0.46435  0.56716  0.30360  1.0000
  C   C977      1.0  0.41532  0.49897  0.17207  1.0000
  C   C978      1.0  0.51232  0.56626  0.41204  1.0000
  H   H787      1.0  0.56606  0.62743  0.32036  1.0000
  H   H788      1.0  0.40542  0.89978  0.44937  1.0000
  C   C979      1.0  0.49889  0.96380  0.01637  1.0000
  H   H789      1.0  0.48720  0.50952  0.27239  1.0000
  H   H790      1.0  0.38619  0.59827  0.29998  1.0000
  C   C980      1.0  0.33543  0.91443  0.02667  1.0000
  C   C981      1.0  0.49315  0.57147  0.34760  1.0000
  H   H791      1.0  0.60727  0.60462  0.20677  1.0000
  C   C982      1.0  0.50175  0.50950  0.11834  1.0000
  H   H792      1.0  0.50451  0.89244  0.29105  1.0000
  H   H793      1.0  0.65181  0.56833  0.99097  1.0000
  H   H794      1.0  0.34426  0.49758  0.25460  1.0000
  C   C983      1.0  0.56841  0.51876  0.45550  1.0000
  S   S137      1.0  0.54796  0.50470  0.18570  1.0000
  H   H795      1.0  0.53046  0.52814  0.46246  1.0000
  C   C984      1.0  0.32415  0.72391  0.03284  1.0000
  C   C985      1.0  0.52862  0.57950  0.43157  1.0000
  C   C986      1.0  0.53591  0.90428  0.26433  1.0000
  C   C987      1.0  0.35076  0.92569  0.37870  1.0000
  H   H796      1.0  0.41877  0.50022  0.12108  1.0000
  H   H797      1.0  0.50626  0.51474  0.40560  1.0000
  H   H798      1.0  0.60865  0.57233  0.36860  1.0000
  P   P32       1.0  0.51905  0.56034  0.37048  1.0000
  C   C988      1.0  0.52770  0.95450  0.17148  1.0000
  H   H799      1.0  0.54605  0.58575  0.42263  1.0000
  H   H800      1.0  0.59652  0.90507  0.16711  1.0000
  C   C989      1.0  0.43847  0.94209  0.31429  1.0000
  H   H801      1.0  0.36003  0.87536  0.09662  1.0000
  H   H802      1.0  0.52944  0.53598  0.13035  1.0000
  H   H803      1.0  0.48116  0.55576  0.05335  1.0000
  H   H804      1.0  0.49988  0.97523  0.38925  1.0000
  H   H805      1.0  0.54305  0.49032  0.30211  1.0000
  H   H806      1.0  0.37306  0.94187  0.34225  1.0000
  C   C990      1.0  0.35535  0.54926  0.09224  1.0000
  H   H807      1.0  0.54129  0.53417  0.31696  1.0000
  H   H808      1.0  0.55318  0.96520  0.20755  1.0000
  C   C991      1.0  0.62158  0.87518  0.17502  1.0000
  H   H809      1.0  0.57124  0.90085  0.34458  1.0000
  H   H810      1.0  0.59425  0.49405  0.31615  1.0000
  S   S138      1.0  0.53976  0.95997  0.45478  1.0000
  C   C992      1.0  0.49863  0.49733  0.25839  1.0000
  C   C993      1.0  0.64927  0.49211  0.99941  1.0000
  C   C994      1.0  0.48361  0.56444  0.45618  1.0000
  H   H811      1.0  0.32189  0.62547  0.34033  1.0000
  C   C995      1.0  0.41808  0.95077  0.29737  1.0000
  C   C996      1.0  0.51552  0.97260  0.47830  1.0000
  C   C997      1.0  0.48964  0.55907  0.42454  1.0000
  C   C998      1.0  0.58976  0.60120  0.34355  1.0000
  C   C999      1.0  0.37941  0.96657  0.23347  1.0000
  C   C1000     1.0  0.62347  0.98805  0.25084  1.0000
  C   C1001     1.0  0.45786  0.94411  0.43300  1.0000
  C   C1002     1.0  0.34815  0.92142  0.41131  1.0000
  H   H812      1.0  0.34264  0.96283  0.27758  1.0000
  C   C1003     1.0  0.42282  0.98181  0.98737  1.0000
  H   H813      1.0  0.53506  0.59529  0.47808  1.0000
  C   C1004     1.0  0.51413  0.53172  0.11476  1.0000
  H   H814      1.0  0.49436  0.54268  0.31160  1.0000
  C   C1005     1.0  0.56128  0.90187  0.32220  1.0000
  H   H815      1.0  0.56688  0.96479  0.26430  1.0000
  C   C1006     1.0  0.51919  0.49933  0.01372  1.0000
  P   P33       1.0  0.40916  0.95376  0.44998  1.0000
  H   H816      1.0  0.45769  0.55693  0.28313  1.0000
  C   C1007     1.0  0.64487  0.52245  0.45255  1.0000
  H   H817      1.0  0.49578  0.93746  0.42131  1.0000
  H   H818      1.0  0.57074  0.55003  0.38242  1.0000
  C   C1008     1.0  0.59550  0.94589  0.23818  1.0000
  H   H819      1.0  0.43488  0.59356  0.30211  1.0000
  C   C1009     1.0  0.38630  0.94306  0.42180  1.0000
  H   H820      1.0  0.47440  0.89215  0.05817  1.0000
  C   C1010     1.0  0.39266  0.94581  0.22313  1.0000
  C   C1011     1.0  0.39813  0.98149  0.46928  1.0000
  C   C1012     1.0  0.48170  0.50384  0.09866  1.0000
  C   C1013     1.0  0.62586  0.86149  0.22951  1.0000
  C   C1014     1.0  0.48007  0.94950  0.41811  1.0000
  C   C1015     1.0  0.52383  0.52795  0.36256  1.0000
  H   H821      1.0  0.44932  0.61647  0.34972  1.0000
  C   C1016     1.0  0.59743  0.89464  0.21690  1.0000
  H   H822      1.0  0.62038  0.52851  0.33446  1.0000
  C   C1017     1.0  0.51493  0.50988  0.38331  1.0000
  C   C1018     1.0  0.35758  0.97302  0.21764  1.0000
  C   C1019     1.0  0.57325  0.90988  0.29478  1.0000
  H   H823      1.0  0.55021  0.88765  0.18509  1.0000
  H   H824      1.0  0.52809  0.60575  0.33418  1.0000
  C   C1020     1.0  0.45883  0.98097  0.30635  1.0000
  H   H825      1.0  0.56843  0.95943  0.01708  1.0000
  C   C1021     1.0  0.51383  0.50686  0.23420  1.0000
  C   C1022     1.0  0.47401  0.52092  0.07563  1.0000
  C   C1023     1.0  0.32837  0.63286  0.20719  1.0000
  H   H826      1.0  0.36990  0.55767  0.07861  1.0000
  C   C1024     1.0  0.33495  0.87671  0.05670  1.0000
  H   H827      1.0  0.63328  0.54488  0.03552  1.0000
  H   H828      1.0  0.56476  0.51026  0.43264  1.0000
  C   C1025     1.0  0.34787  0.55980  0.12113  1.0000
  C   C1026     1.0  0.54880  0.52895  0.47237  1.0000
  H   H829      1.0  0.62556  0.55726  0.45735  1.0000
  C   C1027     1.0  0.48517  0.55905  0.32004  1.0000
  H   H830      1.0  0.48611  0.60253  0.37895  1.0000
  H   H831      1.0  0.43407  0.91233  0.06647  1.0000
  C   C1028     1.0  0.56954  0.56688  0.36878  1.0000
  C   C1029     1.0  0.53578  0.49577  0.32514  1.0000
  C   C1030     1.0  0.47577  0.90075  0.00806  1.0000
  H   H832      1.0  0.52562  0.90510  0.24229  1.0000
  C   C1031     1.0  0.60843  0.87885  0.23924  1.0000
  H   H833      1.0  0.59228  0.91521  0.29651  1.0000
  H   H834      1.0  0.51746  0.89612  0.14579  1.0000
  H   H835      1.0  0.35514  0.92650  0.16305  1.0000
  C   C1032     1.0  0.52583  0.91114  0.15882  1.0000
  C   C1033     1.0  0.63253  0.85971  0.19749  1.0000
  C   C1034     1.0  0.32817  0.60719  0.20601  1.0000
  H   H836      1.0  0.62841  0.93231  0.21483  1.0000
  C   C1035     1.0  0.55499  0.92585  0.19851  1.0000
  C   C1036     1.0  0.54447  0.90647  0.18098  1.0000
  P   P34       1.0  0.57705  0.91913  0.22964  1.0000
  C   C1037     1.0  0.56085  0.91057  0.26543  1.0000
  H   H837      1.0  0.63487  0.84994  0.24705  1.0000
  H   H838      1.0  0.62661  0.58055  0.16301  1.0000
  C   C1038     1.0  0.34695  0.97535  0.29687  1.0000
  H   H839      1.0  0.65334  0.62310  0.09189  1.0000
  C   C1039     1.0  0.33992  0.97236  0.10740  1.0000
  C   C1040     1.0  0.34059  0.54746  0.20567  1.0000
  C   C1041     1.0  0.34422  0.52779  0.08102  1.0000
  H   H840      1.0  0.63543  0.93099  0.29434  1.0000
  C   C1042     1.0  0.34863  0.95838  0.19275  1.0000
  H   H841      1.0  0.43853  0.92363  0.32387  1.0000
  C   C1043     1.0  0.48703  0.97559  0.22669  1.0000
  H   H842      1.0  0.34202  0.75538  0.01252  1.0000
  C   C1044     1.0  0.32574  0.51671  0.09884  1.0000
  H   H843      1.0  0.33252  0.91118  0.42005  1.0000
  H   H844      1.0  0.32860  0.92545  0.00715  1.0000
  S   S139      1.0  0.64445  0.54421  0.10420  1.0000
  C   C1045     1.0  0.33057  0.97736  0.32235  1.0000
  H   H845      1.0  0.63693  0.92480  0.46171  1.0000
  C   C1046     1.0  0.41410  0.93071  0.48021  1.0000
  H   H846      1.0  0.64654  0.84661  0.19035  1.0000
  C   C1047     1.0  0.60123  0.97144  0.99362  1.0000
  C   C1048     1.0  0.49995  0.57746  0.47549  1.0000
  Fe  Fe71      1.0  0.44527  0.49217  0.40125  1.0000
  S   S140      1.0  0.40431  0.97783  0.15270  1.0000
  H   H847      1.0  0.33196  0.96363  0.18042  1.0000
  C   C1049     1.0  0.48241  0.97087  0.40008  1.0000
  C   C1050     1.0  0.64877  0.55675  0.03999  1.0000
  C   C1051     1.0  0.64538  0.91416  0.29915  1.0000
  S   S141      1.0  0.60622  0.98603  0.34043  1.0000
  C   C1052     1.0  0.42703  0.49388  0.14309  1.0000
  C   C1053     1.0  0.46245  0.98683  0.39669  1.0000
  C   C1054     1.0  0.32294  0.64641  0.17987  1.0000
  H   H848      1.0  0.33142  0.59700  0.22765  1.0000
  C   C1055     1.0  0.65191  0.64495  0.18563  1.0000
  H   H849      1.0  0.52056  0.97300  0.16854  1.0000
  H   H850      1.0  0.44088  0.97705  0.99629  1.0000
  H   H851      1.0  0.32267  0.93702  0.10307  1.0000
  C   C1056     1.0  0.32712  0.74239  0.01022  1.0000
  H   H852      1.0  0.50776  0.49683  0.13670  1.0000
  H   H853      1.0  0.35986  0.97088  0.46906  1.0000
  H   H854      1.0  0.32793  0.85841  0.06064  1.0000
  C   C1057     1.0  0.44136  0.92434  0.98734  1.0000
  C   C1058     1.0  0.32561  0.58393  0.29343  1.0000
  C   C1059     1.0  0.48798  0.49185  0.47248  1.0000
  C   C1060     1.0  0.58546  0.96563  0.25544  1.0000
  C   C1061     1.0  0.32693  0.56003  0.30617  1.0000
  H   H855      1.0  0.35007  0.51964  0.05863  1.0000
  H   H856      1.0  0.65280  0.96904  0.22678  1.0000
  H   H857      1.0  0.32238  0.66634  0.18102  1.0000
  C   C1062     1.0  0.42612  0.49165  0.20079  1.0000
  P   P35       1.0  0.32038  0.56178  0.17694  1.0000
  S   S142      1.0  0.57302  0.94375  0.85507  1.0000
  H   H858      1.0  0.61380  0.52957  0.51000  1.0000
  Fe  Fe72      1.0  0.61321  0.95263  0.86041  1.0000
  S   S143      1.0  0.54741  0.50748  0.69406  1.0000
  H   H859      1.0  0.56099  0.49564  0.90813  1.0000
  S   S144      1.0  0.54502  0.95079  0.94156  1.0000
  C   C1063     1.0  0.42154  0.93759  0.51105  1.0000
  C   C1064     1.0  0.34231  0.51291  0.70727  1.0000
  Fe  Fe73      1.0  0.40098  0.94840  0.60726  1.0000
  S   S145      1.0  0.38587  0.90944  0.60028  1.0000
  S   S146      1.0  0.44163  0.95522  0.61228  1.0000
  C   C1065     1.0  0.34668  0.58692  0.83498  1.0000
  Fe  Fe74      1.0  0.40389  0.51792  0.85803  1.0000
  S   S147      1.0  0.38144  0.55377  0.85618  1.0000
  H   H860      1.0  0.53728  0.54672  0.51583  1.0000
  H   H861      1.0  0.55868  0.50727  0.82284  1.0000
  S   S148      1.0  0.44524  0.51611  0.85753  1.0000
  H   H862      1.0  0.34761  0.89104  0.96674  1.0000
  Fe  Fe75      1.0  0.60398  0.52112  0.60048  1.0000
  S   S149      1.0  0.61737  0.55919  0.58477  1.0000
  C   C1066     1.0  0.48128  0.91851  0.65987  1.0000
  C   C1067     1.0  0.44405  0.94577  0.92135  1.0000
  H   H863      1.0  0.47139  0.91835  0.68226  1.0000
  S   S150      1.0  0.56315  0.51479  0.60207  1.0000
  H   H864      1.0  0.33196  0.82598  0.83214  1.0000
  H   H865      1.0  0.44983  0.54530  0.65927  1.0000
  C   C1068     1.0  0.54321  0.51107  0.83816  1.0000
  C   C1069     1.0  0.33302  0.86805  0.55689  1.0000
  H   H866      1.0  0.33507  0.97796  0.65233  1.0000
  C   C1070     1.0  0.34717  0.70095  0.70856  1.0000
  C   C1071     1.0  0.35824  0.72159  0.72226  1.0000
  P   P36       1.0  0.54048  0.95454  0.62332  1.0000
  C   C1072     1.0  0.37969  0.98413  0.73409  1.0000
  H   H867      1.0  0.39889  0.98301  0.74084  1.0000
  P   P37       1.0  0.32705  0.93762  0.69867  1.0000
  C   C1073     1.0  0.51515  0.51034  0.74477  1.0000
  H   H868      1.0  0.35850  0.85963  0.92646  1.0000
  H   H869      1.0  0.49047  0.51330  0.78513  1.0000
  H   H870      1.0  0.52346  0.52804  0.74923  1.0000
  C   C1074     1.0  0.48675  0.52874  0.61245  1.0000
  C   C1075     1.0  0.58160  0.95549  0.71969  1.0000
  S   S151      1.0  0.55174  0.98779  0.77979  1.0000
  C   C1076     1.0  0.33112  0.52131  0.88700  1.0000
  H   H871      1.0  0.51443  0.92185  0.57835  1.0000
  H   H872      1.0  0.37606  0.92491  0.97914  1.0000
  H   H873      1.0  0.42504  0.95666  0.51705  1.0000
  S   S152      1.0  0.46404  0.50310  0.94732  1.0000
  H   H874      1.0  0.42931  0.92515  0.55867  1.0000
  H   H875      1.0  0.37725  0.94566  0.72399  1.0000
  Fe  Fe76      1.0  0.56957  0.97987  0.82882  1.0000
  C   C1077     1.0  0.39325  0.87618  0.91507  1.0000
  C   C1078     1.0  0.57880  0.92587  0.59834  1.0000
  C   C1079     1.0  0.55544  0.94965  0.56007  1.0000
  C   C1080     1.0  0.34288  0.96442  0.71379  1.0000
  H   H876      1.0  0.33385  0.78046  0.83165  1.0000
  C   C1081     1.0  0.36281  0.89952  0.57300  1.0000
  C   C1082     1.0  0.35623  0.91325  0.54614  1.0000
  P   P38       1.0  0.42464  0.93751  0.95439  1.0000
  H   H877      1.0  0.36515  0.93060  0.54167  1.0000
  C   C1083     1.0  0.36161  0.56667  0.82669  1.0000
  C   C1084     1.0  0.36059  0.55771  0.79540  1.0000
  C   C1085     1.0  0.34516  0.56911  0.77269  1.0000
  H   H878      1.0  0.37207  0.54233  0.78857  1.0000
  C   C1086     1.0  0.32701  0.50179  0.75967  1.0000
  C   C1087     1.0  0.32762  0.79025  0.81062  1.0000
  C   C1088     1.0  0.32282  0.51054  0.72863  1.0000
  C   C1089     1.0  0.47847  0.97373  0.72593  1.0000
  C   C1090     1.0  0.50183  0.93351  0.65663  1.0000
  H   H879      1.0  0.50778  0.95897  0.79606  1.0000
  C   C1091     1.0  0.41288  0.88802  0.49708  1.0000
  S   S153      1.0  0.61040  0.98742  0.83170  1.0000
  C   C1092     1.0  0.33826  0.90433  0.52475  1.0000
  C   C1093     1.0  0.33014  0.58929  0.78103  1.0000
  H   H880      1.0  0.50024  0.97023  0.90607  1.0000
  C   C1094     1.0  0.33019  0.81916  0.65339  1.0000
  H   H881      1.0  0.33901  0.52016  0.68362  1.0000
  C   C1095     1.0  0.37853  0.88380  0.68540  1.0000
  C   C1096     1.0  0.36406  0.90486  0.68193  1.0000
  C   C1097     1.0  0.47300  0.90451  0.63400  1.0000
  C   C1098     1.0  0.57611  0.53985  0.51565  1.0000
  C   C1099     1.0  0.63320  0.76218  0.90188  1.0000
  H   H882      1.0  0.34489  0.56225  0.74845  1.0000
  H   H883      1.0  0.51372  0.94072  0.50854  1.0000
  H   H884      1.0  0.35627  0.86592  0.59861  1.0000
  C   C1100     1.0  0.62668  0.96905  0.62343  1.0000
  H   H885      1.0  0.48163  0.95799  0.54443  1.0000
  C   C1101     1.0  0.32183  0.94049  0.65611  1.0000
  C   C1102     1.0  0.34245  0.89501  0.73053  1.0000
  H   H886      1.0  0.37720  0.72064  0.72987  1.0000
  C   C1103     1.0  0.36729  0.96291  0.72437  1.0000
  H   H887      1.0  0.38652  0.85214  0.71426  1.0000
  H   H888      1.0  0.39250  0.87969  0.66777  1.0000
  H   H889      1.0  0.36720  0.91681  0.66181  1.0000
  C   C1104     1.0  0.49642  0.50201  0.76528  1.0000
  H   H890      1.0  0.62276  0.95194  0.50547  1.0000
  H   H891      1.0  0.63432  0.60697  0.56649  1.0000
  H   H892      1.0  0.62382  0.80017  0.89533  1.0000
  H   H893      1.0  0.55346  0.91589  0.66878  1.0000
  C   C1105     1.0  0.48818  0.96862  0.52449  1.0000
  H   H894      1.0  0.46876  0.95180  0.76662  1.0000
  H   H895      1.0  0.35384  0.75938  0.73616  1.0000
  C   C1106     1.0  0.64670  0.98193  0.49323  1.0000
  H   H896      1.0  0.47826  0.89543  0.58445  1.0000
  Fe  Fe77      1.0  0.56945  0.49586  0.64937  1.0000
  C   C1107     1.0  0.50566  0.92079  0.60139  1.0000
  C   C1108     1.0  0.56611  0.97715  0.67343  1.0000
  H   H897      1.0  0.45773  0.49728  0.54576  1.0000
  H   H898      1.0  0.51822  0.50477  0.54258  1.0000
  C   C1109     1.0  0.52533  0.96615  0.96914  1.0000
  C   C1110     1.0  0.61220  0.86512  0.83109  1.0000
  C   C1111     1.0  0.51443  0.93446  0.62752  1.0000
  H   H899      1.0  0.39831  0.86203  0.89804  1.0000
  C   C1112     1.0  0.35712  0.87399  0.73411  1.0000
  C   C1113     1.0  0.35080  0.49455  0.76841  1.0000
  C   C1114     1.0  0.43959  0.52778  0.70292  1.0000
  C   C1115     1.0  0.55722  0.95500  0.66062  1.0000
  H   H900      1.0  0.40914  0.86887  0.49186  1.0000
  H   H901      1.0  0.33341  0.91501  0.50398  1.0000
  H   H902      1.0  0.63846  0.92343  0.79212  1.0000
  H   H903      1.0  0.54075  0.96233  0.55427  1.0000
  H   H904      1.0  0.63563  0.51389  0.96040  1.0000
  H   H905      1.0  0.47941  0.53975  0.56371  1.0000
  H   H906      1.0  0.62319  0.85195  0.90882  1.0000
  C   C1116     1.0  0.43879  0.51379  0.58588  1.0000
  C   C1117     1.0  0.57283  0.93339  0.70716  1.0000
  C   C1118     1.0  0.51331  0.49848  0.87733  1.0000
  C   C1119     1.0  0.36470  0.89257  0.95380  1.0000
  H   H907      1.0  0.57493  0.91659  0.72070  1.0000
  H   H908      1.0  0.35476  0.86216  0.75454  1.0000
  C   C1120     1.0  0.44160  0.50721  0.55363  1.0000
  C   C1121     1.0  0.52326  0.49603  0.71867  1.0000
  C   C1122     1.0  0.33083  0.59798  0.81247  1.0000
  H   H909      1.0  0.59017  0.95591  0.74307  1.0000
  H   H910      1.0  0.32919  0.98071  0.59469  1.0000
  H   H911      1.0  0.33892  0.52697  0.90964  1.0000
  H   H912      1.0  0.59319  0.87337  0.87474  1.0000
  C   C1123     1.0  0.50472  0.52268  0.87940  1.0000
  C   C1124     1.0  0.40299  0.91381  0.94392  1.0000
  H   H913      1.0  0.45671  0.89336  0.63636  1.0000
  H   H914      1.0  0.59916  0.87494  0.81627  1.0000
  C   C1125     1.0  0.40936  0.89550  0.92166  1.0000
  C   C1126     1.0  0.48511  0.90575  0.60474  1.0000
  C   C1127     1.0  0.65158  0.50877  0.97437  1.0000
  S   S154      1.0  0.60774  0.97273  0.90711  1.0000
  C   C1128     1.0  0.59582  0.52963  0.49892  1.0000
  H   H915      1.0  0.60712  0.90265  0.57862  1.0000
  C   C1129     1.0  0.60890  0.86429  0.86407  1.0000
  C   C1130     1.0  0.63905  0.95590  0.59965  1.0000
  C   C1131     1.0  0.50642  0.95890  0.50410  1.0000
  C   C1132     1.0  0.41019  0.96576  0.96694  1.0000
  C   C1133     1.0  0.34578  0.91052  0.70423  1.0000
  H   H916      1.0  0.59865  0.91482  0.52265  1.0000
  C   C1134     1.0  0.49056  0.54259  0.58472  1.0000
  H   H917      1.0  0.34740  0.59410  0.85906  1.0000
  C   C1135     1.0  0.65008  0.84214  0.83653  1.0000
  C   C1136     1.0  0.32648  0.81592  0.81092  1.0000
  S   S155      1.0  0.60987  0.50518  0.64939  1.0000
  H   H918      1.0  0.50768  0.55952  0.86149  1.0000
  C   C1137     1.0  0.56959  0.93982  0.53533  1.0000
  H   H919      1.0  0.58260  0.92001  0.62242  1.0000
  S   S156      1.0  0.40118  0.49689  0.90405  1.0000
  H   H920      1.0  0.54190  0.54926  0.82479  1.0000
  C   C1138     1.0  0.33546  0.49761  0.87537  1.0000
  C   C1139     1.0  0.35119  0.87681  0.57811  1.0000
  H   H921      1.0  0.57902  0.54765  0.53919  1.0000
  Fe  Fe78      1.0  0.43276  0.97667  0.65696  1.0000
  C   C1140     1.0  0.50903  0.56032  0.58388  1.0000
  C   C1141     1.0  0.52377  0.56439  0.61069  1.0000
  C   C1142     1.0  0.52017  0.55060  0.63827  1.0000
  C   C1143     1.0  0.53401  0.53510  0.83956  1.0000
  H   H922      1.0  0.42619  0.50862  0.50627  1.0000
  C   C1144     1.0  0.56064  0.93312  0.67779  1.0000
  H   H923      1.0  0.51201  0.57086  0.56244  1.0000
  H   H924      1.0  0.53832  0.57787  0.60997  1.0000
  H   H925      1.0  0.53195  0.55327  0.65887  1.0000
  C   C1145     1.0  0.57829  0.97732  0.70282  1.0000
  C   C1146     1.0  0.50191  0.53271  0.63909  1.0000
  C   C1147     1.0  0.32646  0.88173  0.53001  1.0000
  C   C1148     1.0  0.55991  0.94276  0.59182  1.0000
  H   H926      1.0  0.49238  0.97976  0.62664  1.0000
  C   C1149     1.0  0.37088  0.87477  0.93107  1.0000
  C   C1150     1.0  0.38077  0.91187  0.96050  1.0000
  C   C1151     1.0  0.32657  0.49068  0.84539  1.0000
  C   C1152     1.0  0.41955  0.89511  0.52793  1.0000
  H   H927      1.0  0.49985  0.52185  0.66052  1.0000
  Fe  Fe79      1.0  0.44237  0.49253  0.90176  1.0000
  C   C1153     1.0  0.59282  0.91595  0.57349  1.0000
  C   C1154     1.0  0.58814  0.92284  0.54199  1.0000
  S   S157      1.0  0.44998  0.96783  0.70598  1.0000
  C   C1155     1.0  0.48272  0.96322  0.75614  1.0000
  H   H928      1.0  0.44271  0.95185  0.84031  1.0000
  C   C1156     1.0  0.42369  0.51353  0.53119  1.0000
  H   H929      1.0  0.50760  0.94461  0.67679  1.0000
  C   C1157     1.0  0.64394  0.56854  0.56345  1.0000
  H   H930      1.0  0.56584  0.94508  0.51086  1.0000
  C   C1158     1.0  0.39962  0.53274  0.57288  1.0000
  H   H931      1.0  0.38330  0.54262  0.58031  1.0000
  C   C1159     1.0  0.32285  0.70224  0.69825  1.0000
  H   H932      1.0  0.49012  0.52728  0.89589  1.0000
  H   H933      1.0  0.42069  0.88158  0.54677  1.0000
  H   H934      1.0  0.35743  0.68396  0.70574  1.0000
  C   C1160     1.0  0.62620  0.85242  0.88335  1.0000
  C   C1161     1.0  0.43497  0.94506  0.88996  1.0000
  C   C1162     1.0  0.37509  0.86834  0.71148  1.0000
  S   S158      1.0  0.39253  0.96740  0.65356  1.0000
  H   H935      1.0  0.34453  0.83279  0.65157  1.0000
  H   H936      1.0  0.37749  0.96106  0.93821  1.0000
  C   C1163     1.0  0.50485  0.96730  0.77300  1.0000
  C   C1164     1.0  0.46378  0.91213  0.98250  1.0000
  H   H937      1.0  0.49516  0.58166  0.49997  1.0000
  C   C1165     1.0  0.64773  0.59378  0.55803  1.0000
  C   C1166     1.0  0.42424  0.91979  0.53473  1.0000
  C   C1167     1.0  0.63259  0.85375  0.81731  1.0000
  C   C1168     1.0  0.51477  0.54090  0.86020  1.0000
  C   C1169     1.0  0.48204  0.96306  0.90157  1.0000
  C   C1170     1.0  0.32421  0.96396  0.60695  1.0000
  C   C1171     1.0  0.63704  0.95820  0.48973  1.0000
  H   H938      1.0  0.47418  0.95784  0.95113  1.0000
  H   H939      1.0  0.43180  0.50541  0.74392  1.0000
  P   P39       1.0  0.46264  0.50612  0.61422  1.0000
  C   C1172     1.0  0.49445  0.50408  0.50097  1.0000
  H   H940      1.0  0.32872  0.89917  0.74832  1.0000
  H   H941      1.0  0.41489  0.53185  0.62000  1.0000
  C   C1173     1.0  0.51366  0.49529  0.52064  1.0000
  Fe  Fe80      1.0  0.56735  0.96645  0.90002  1.0000
  H   H942      1.0  0.48450  0.52047  0.50788  1.0000
  H   H943      1.0  0.32432  0.85055  0.56091  1.0000
  C   C1174     1.0  0.41762  0.52658  0.59537  1.0000
  C   C1175     1.0  0.45118  0.50562  0.65466  1.0000
  H   H944      1.0  0.43699  0.54496  0.71572  1.0000
  C   C1176     1.0  0.44687  0.52787  0.67097  1.0000
  C   C1177     1.0  0.34487  0.74343  0.72604  1.0000
  C   C1178     1.0  0.43643  0.50552  0.71878  1.0000
  C   C1179     1.0  0.36601  0.50610  0.71646  1.0000
  C   C1180     1.0  0.37019  0.49674  0.74695  1.0000
  H   H945      1.0  0.47201  0.91123  0.95908  1.0000
  C   C1181     1.0  0.53026  0.98508  0.61277  1.0000
  C   C1182     1.0  0.32634  0.80680  0.68214  1.0000
  H   H946      1.0  0.42699  0.89582  0.90992  1.0000
  C   C1183     1.0  0.55262  0.53942  0.50245  1.0000
  S   S159      1.0  0.64525  0.92490  0.86170  1.0000
  C   C1184     1.0  0.64164  0.96590  0.56915  1.0000
  C   C1185     1.0  0.49020  0.49266  0.96939  1.0000
  C   C1186     1.0  0.65206  0.74497  0.90588  1.0000
  C   C1187     1.0  0.38718  0.97277  0.95489  1.0000
  C   C1188     1.0  0.44965  0.95259  0.86453  1.0000
  H   H947      1.0  0.64031  0.55701  0.64599  1.0000
  C   C1189     1.0  0.40268  0.52627  0.54082  1.0000
  H   H948      1.0  0.38114  0.50807  0.70002  1.0000
  H   H949      1.0  0.38879  0.53112  0.52339  1.0000
  H   H950      1.0  0.33821  0.81070  0.70220  1.0000
  H   H951      1.0  0.64674  0.93797  0.60493  1.0000
  H   H952      1.0  0.32080  0.75721  0.78398  1.0000
  C   C1190     1.0  0.46736  0.95567  0.92703  1.0000
  C   C1191     1.0  0.64737  0.84191  0.86983  1.0000
  C   C1192     1.0  0.32751  0.96230  0.63995  1.0000
  H   H953      1.0  0.62465  0.96128  0.64705  1.0000
  C   C1193     1.0  0.32015  0.74455  0.71674  1.0000
  H   H954      1.0  0.61430  0.75618  0.90145  1.0000
  S   S160      1.0  0.39394  0.98240  0.57849  1.0000
  H   H955      1.0  0.64785  0.72563  0.90848  1.0000
  C   C1194     1.0  0.47327  0.96140  0.87032  1.0000
  H   H956      1.0  0.41650  0.93892  0.88512  1.0000
  H   H957      1.0  0.65175  0.95562  0.55139  1.0000
  C   C1195     1.0  0.63868  0.78712  0.89830  1.0000
  H   H958      1.0  0.48468  0.96728  0.85068  1.0000
  H   H959      1.0  0.38851  0.49132  0.75418  1.0000
  C   C1196     1.0  0.53261  0.49244  0.85662  1.0000
  H   H960      1.0  0.63537  0.85469  0.79176  1.0000
  C   C1197     1.0  0.52316  0.98206  0.75992  1.0000
  C   C1198     1.0  0.32028  0.77713  0.78349  1.0000
  C   C1199     1.0  0.33080  0.98730  0.71432  1.0000
  Fe  Fe81      1.0  0.78319  0.33199  0.24426  1.0000
  S   S161      1.0  0.74940  0.33376  0.27453  1.0000
  S   S162      1.0  0.81644  0.35786  0.24489  1.0000
  Fe  Fe82      1.0  0.76254  0.28912  0.20362  1.0000
  S   S163      1.0  0.72728  0.28827  0.23163  1.0000
  S   S164      1.0  0.77689  0.26373  0.16347  1.0000
  Fe  Fe83      1.0  0.72806  0.32985  0.22859  1.0000
  S   S165      1.0  0.69345  0.35409  0.22561  1.0000
  Fe  Fe84      1.0  0.75095  0.29224  0.27581  1.0000
  S   S166      1.0  0.73981  0.27248  0.32229  1.0000
  S   S167      1.0  0.76186  0.33045  0.19803  1.0000
  S   S168      1.0  0.78618  0.29065  0.24806  1.0000
  C   C1200     1.0  0.80870  0.47143  0.24901  1.0000
  S   S169      1.0  0.75866  0.12795  0.45421  1.0000
  H   H961      1.0  0.84937  0.46652  0.31052  1.0000
  Fe  Fe85      1.0  0.74176  0.17009  0.01521  1.0000
  H   H962      1.0  0.95933  0.44556  0.06607  1.0000
  S   S170      1.0  0.72803  0.19404  0.05698  1.0000
  Fe  Fe86      1.0  0.76587  0.16850  0.46125  1.0000
  S   S171      1.0  0.78198  0.19301  0.42172  1.0000
  H   H963      1.0  0.98446  0.40806  0.06371  1.0000
  C   C1201     1.0  0.70022  0.22562  0.98684  1.0000
  H   H964      1.0  0.83320  0.00083  0.11757  1.0000
  S   S172      1.0  0.74964  0.12962  0.02073  1.0000
  S   S173      1.0  0.93542  0.01743  0.09365  1.0000
  H   H965      1.0  0.74480  0.12902  0.18821  1.0000
  Fe  Fe87      1.0  0.89443  0.01076  0.09390  1.0000
  S   S174      1.0  0.86133  0.03737  0.08909  1.0000
  C   C1202     1.0  0.71761  0.13032  0.09042  1.0000
  S   S175      1.0  0.95883  0.01021  0.18271  1.0000
  Fe  Fe88      1.0  0.89844  0.45497  0.35185  1.0000
  S   S176      1.0  0.86880  0.42501  0.35081  1.0000
  P   P40       1.0  0.79618  0.45303  0.21687  1.0000
  S   S177      1.0  0.95779  0.46614  0.44284  1.0000
  H   H966      1.0  0.68311  0.30378  0.41315  1.0000
  S   S178      1.0  0.93991  0.45356  0.35190  1.0000
  H   H967      1.0  0.71996  0.43934  0.13503  1.0000
  H   H968      1.0  0.70924  0.07687  0.44425  1.0000
  H   H969      1.0  0.76038  0.21865  0.19485  1.0000
  C   C1203     1.0  0.98560  0.12414  0.25695  1.0000
  H   H970      1.0  0.65651  0.07748  0.03468  1.0000
  P   P41       1.0  0.78133  0.14014  0.14015  1.0000
  H   H971      1.0  0.96916  0.08819  0.25707  1.0000
  C   C1204     1.0  0.80119  0.11705  0.15745  1.0000
  C   C1205     1.0  0.77039  0.18454  0.17187  1.0000
  H   H972      1.0  0.85134  0.19364  0.11458  1.0000
  H   H973      1.0  0.80694  0.24026  0.43352  1.0000
  C   C1206     1.0  0.82930  0.09441  0.01793  1.0000
  C   C1207     1.0  0.81548  0.08587  0.04366  1.0000
  C   C1208     1.0  0.82548  0.06820  0.06475  1.0000
  C   C1209     1.0  0.84936  0.05868  0.06049  1.0000
  C   C1210     1.0  0.86301  0.06699  0.03452  1.0000
  C   C1211     1.0  0.85308  0.08476  0.01354  1.0000
  H   H974      1.0  0.79719  0.09301  0.04745  1.0000
  H   H975      1.0  0.81465  0.06189  0.08461  1.0000
  H   H976      1.0  0.88139  0.06001  0.03088  1.0000
  C   C1212     1.0  0.76962  0.28896  0.05388  1.0000
  C   C1213     1.0  0.83016  0.37703  0.27453  1.0000
  C   C1214     1.0  0.85154  0.39011  0.26685  1.0000
  C   C1215     1.0  0.86342  0.40514  0.28963  1.0000
  C   C1216     1.0  0.85418  0.40713  0.32059  1.0000
  C   C1217     1.0  0.83275  0.39410  0.32828  1.0000
  C   C1218     1.0  0.82071  0.37932  0.30537  1.0000
  H   H977      1.0  0.85915  0.38841  0.24319  1.0000
  H   H978      1.0  0.87992  0.41490  0.28333  1.0000
  H   H979      1.0  0.82545  0.39541  0.35217  1.0000
  H   H980      1.0  0.80424  0.36956  0.31159  1.0000
  C   C1219     1.0  0.68094  0.37457  0.19653  1.0000
  S   S179      1.0  0.89708  0.47649  0.39780  1.0000
  C   C1220     1.0  0.82001  0.17132  0.12559  1.0000
  C   C1221     1.0  0.75192  0.25007  0.34932  1.0000
  C   C1222     1.0  0.77630  0.24204  0.34826  1.0000
  C   C1223     1.0  0.78500  0.22444  0.37032  1.0000
  C   C1224     1.0  0.76956  0.21463  0.39392  1.0000
  C   C1225     1.0  0.74517  0.22263  0.39499  1.0000
  C   C1226     1.0  0.73645  0.24015  0.37281  1.0000
  H   H981      1.0  0.78835  0.24930  0.33027  1.0000
  H   H982      1.0  0.80388  0.21840  0.36914  1.0000
  H   H983      1.0  0.73304  0.21540  0.41295  1.0000
  H   H984      1.0  0.71755  0.24616  0.37395  1.0000
  C   C1227     1.0  0.76281  0.24475  0.13375  1.0000
  C   C1228     1.0  0.73741  0.24190  0.13150  1.0000
  C   C1229     1.0  0.72722  0.22639  0.10784  1.0000
  C   C1230     1.0  0.74218  0.21339  0.08618  1.0000
  C   C1231     1.0  0.76760  0.21609  0.08858  1.0000
  C   C1232     1.0  0.77780  0.23179  0.11202  1.0000
  H   H985      1.0  0.72558  0.25165  0.14795  1.0000
  H   H986      1.0  0.70753  0.22446  0.10634  1.0000
  H   H987      1.0  0.77939  0.20610  0.07236  1.0000
  H   H988      1.0  0.79748  0.23372  0.11353  1.0000
  H   H989      1.0  0.79522  0.45391  0.45846  1.0000
  C   C1233     1.0  0.68964  0.07514  0.44126  1.0000
  C   C1234     1.0  0.67414  0.09361  0.45305  1.0000
  C   C1235     1.0  0.90505  0.47683  0.04456  1.0000
  C   C1236     1.0  0.80821  0.22670  0.00482  1.0000
  C   C1237     1.0  0.83871  0.26367  0.29595  1.0000
  C   C1238     1.0  0.84423  0.27929  0.27064  1.0000
  C   C1239     1.0  0.84707  0.30446  0.27617  1.0000
  C   C1240     1.0  0.84459  0.31402  0.30698  1.0000
  C   C1241     1.0  0.83947  0.29841  0.33265  1.0000
  C   C1242     1.0  0.83637  0.27315  0.32687  1.0000
  P   P42       1.0  0.83729  0.31104  0.37248  1.0000
  C   C1243     1.0  0.86186  0.33301  0.37707  1.0000
  C   C1244     1.0  0.80791  0.32549  0.37932  1.0000
  C   C1245     1.0  0.80106  0.33193  0.41054  1.0000
  C   C1246     1.0  0.77863  0.34364  0.41630  1.0000
  C   C1247     1.0  0.76273  0.34868  0.39097  1.0000
  H   H990      1.0  0.70256  0.17007  0.41782  1.0000
  C   C1248     1.0  0.79166  0.33022  0.35405  1.0000
  C   C1249     1.0  0.85788  0.35587  0.39195  1.0000
  C   C1250     1.0  0.87684  0.37297  0.39418  1.0000
  C   C1251     1.0  0.97994  0.99544  0.20912  1.0000
  H   H991      1.0  0.66951  0.00945  0.47082  1.0000
  C   C1252     1.0  0.88510  0.32766  0.36437  1.0000
  C   C1253     1.0  0.84046  0.28656  0.40115  1.0000
  C   C1254     1.0  0.82021  0.27163  0.40788  1.0000
  C   C1255     1.0  0.82254  0.25196  0.42895  1.0000
  C   C1256     1.0  0.83615  0.47491  0.29455  1.0000
  H   H992      1.0  0.67525  0.20609  0.45669  1.0000
  H   H993      1.0  0.92169  0.34094  0.35604  1.0000
  H   H994      1.0  0.83605  0.24422  0.29156  1.0000
  H   H995      1.0  0.84570  0.27205  0.24660  1.0000
  H   H996      1.0  0.85076  0.31671  0.25645  1.0000
  H   H997      1.0  0.84676  0.33361  0.31073  1.0000
  H   H998      1.0  0.83218  0.26064  0.34601  1.0000
  H   H999      1.0  0.81320  0.32808  0.43041  1.0000
  H   H1000     1.0  0.77347  0.34858  0.44042  1.0000
  H   H1001     1.0  0.93888  0.46547  0.22154  1.0000
  C   C1257     1.0  0.74948  0.28634  0.03322  1.0000
  H   H1002     1.0  0.79620  0.32503  0.32980  1.0000
  H   H1003     1.0  0.84013  0.36100  0.40114  1.0000
  H   H1004     1.0  0.87354  0.39085  0.40492  1.0000
  C   C1258     1.0  0.69374  0.46890  0.13733  1.0000
  H   H1005     1.0  0.83205  0.44215  0.26665  1.0000
  H   H1006     1.0  0.88855  0.31029  0.35242  1.0000
  H   H1007     1.0  0.80274  0.27479  0.39622  1.0000
  C   C1259     1.0  0.79856  0.15400  0.08020  1.0000
  H   H1008     1.0  0.81790  0.09176  0.22862  1.0000
  H   H1009     1.0  0.86854  0.47833  0.46210  1.0000
  H   H1010     1.0  0.81296  0.21307  0.02253  1.0000
  C   C1260     1.0  0.72073  0.46155  0.09250  1.0000
  C   C1261     1.0  0.75672  0.12606  0.11780  1.0000
  C   C1262     1.0  0.74236  0.29934  0.09743  1.0000
  H   H1011     1.0  0.70669  0.36606  0.15932  1.0000
  C   C1263     1.0  0.73257  0.46277  0.01525  1.0000
  H   H1012     1.0  0.71789  0.12986  0.28298  1.0000
  H   H1013     1.0  0.73172  0.22034  0.29545  1.0000
  C   C1264     1.0  0.71242  0.45522  0.12290  1.0000
  H   H1014     1.0  0.75092  0.43215  0.18996  1.0000
  H   H1015     1.0  0.74522  0.35750  0.39538  1.0000
  C   C1265     1.0  0.80059  0.15727  0.11335  1.0000
  H   H1016     1.0  0.76553  0.27830  0.45116  1.0000
  C   C1266     1.0  0.75728  0.10101  0.10943  1.0000
  C   C1267     1.0  0.75740  0.19896  0.19379  1.0000
  C   C1268     1.0  0.73679  0.14063  0.10804  1.0000
  H   H1017     1.0  0.78971  0.12278  0.20644  1.0000
  H   H1018     1.0  0.78147  0.29631  0.10216  1.0000
  C   C1269     1.0  0.84404  0.44719  0.19501  1.0000
  H   H1019     1.0  0.88148  0.44256  0.17981  1.0000
  H   H1020     1.0  0.70271  0.14195  0.08219  1.0000
  H   H1021     1.0  0.70395  0.30068  0.08586  1.0000
  C   C1270     1.0  0.81532  0.16501  0.05968  1.0000
  C   C1271     1.0  0.73574  0.16298  0.21178  1.0000
  H   H1022     1.0  0.81890  0.44609  0.36149  1.0000
  C   C1272     1.0  0.70411  0.29047  0.45324  1.0000
  C   C1273     1.0  0.80532  0.44786  0.40974  1.0000
  H   H1023     1.0  0.82530  0.15310  0.40370  1.0000
  C   C1274     1.0  0.81745  0.10398  0.13765  1.0000
  H   H1024     1.0  0.72953  0.19964  0.22992  1.0000
  C   C1275     1.0  0.84503  0.24702  0.44355  1.0000
  H   H1025     1.0  0.72173  0.24230  0.02373  1.0000
  C   C1276     1.0  0.74878  0.14847  0.18998  1.0000
  H   H1026     1.0  0.91414  0.38133  0.38211  1.0000
  C   C1277     1.0  0.69093  0.37704  0.16601  1.0000
  C   C1278     1.0  0.86520  0.26197  0.43735  1.0000
  H   H1027     1.0  0.70769  0.43605  0.03524  1.0000
  H   H1028     1.0  0.79491  0.43105  0.40749  1.0000
  H   H1029     1.0  0.91292  0.46569  0.09257  1.0000
  H   H1030     1.0  0.96365  0.46314  0.17304  1.0000
  H   H1031     1.0  0.97397  0.45500  0.99993  1.0000
  H   H1032     1.0  0.73889  0.07163  0.08444  1.0000
  H   H1033     1.0  0.80386  0.19572  0.26979  1.0000
  C   C1279     1.0  0.73812  0.09078  0.09160  1.0000
  C   C1280     1.0  0.67972  0.05436  0.42559  1.0000
  H   H1034     1.0  0.66747  0.47309  0.03746  1.0000
  C   C1281     1.0  0.83421  0.17946  0.07203  1.0000
  S   S180      1.0  0.81810  0.11731  0.99094  1.0000
  C   C1282     1.0  0.77396  0.43160  0.23227  1.0000
  C   C1283     1.0  0.82132  0.43574  0.19983  1.0000
  C   C1284     1.0  0.81877  0.41070  0.19227  1.0000
  C   C1285     1.0  0.83866  0.39733  0.18022  1.0000
  C   C1286     1.0  0.86121  0.40881  0.17559  1.0000
  H   H1035     1.0  0.69110  0.21334  0.00323  1.0000
  C   C1287     1.0  0.70113  0.29872  0.42191  1.0000
  C   C1288     1.0  0.77735  0.42059  0.26223  1.0000
  C   C1289     1.0  0.76022  0.40382  0.27374  1.0000
  C   C1290     1.0  0.73960  0.39793  0.25552  1.0000
  C   C1291     1.0  0.73636  0.40840  0.22549  1.0000
  C   C1292     1.0  0.75356  0.42491  0.21369  1.0000
  H   H1036     1.0  0.71203  0.10388  0.33696  1.0000
  Fe  Fe89      1.0  0.72448  0.13373  0.48304  1.0000
  C   C1293     1.0  0.90395  0.34493  0.36641  1.0000
  C   C1294     1.0  0.98520  0.47049  0.99335  1.0000
  C   C1295     1.0  0.81751  0.09499  0.20318  1.0000
  C   C1296     1.0  0.98579  0.09865  0.26082  1.0000
  H   H1037     1.0  0.68659  0.46341  0.16030  1.0000
  H   H1038     1.0  0.82260  0.17319  0.15110  1.0000
  H   H1039     1.0  0.84684  0.23146  0.45945  1.0000
  H   H1040     1.0  0.79074  0.00828  0.09902  1.0000
  H   H1041     1.0  0.73962  0.30359  0.12248  1.0000
  H   H1042     1.0  0.80172  0.40114  0.19641  1.0000
  H   H1043     1.0  0.83669  0.37781  0.17552  1.0000
  H   H1044     1.0  0.87669  0.39825  0.16686  1.0000
  H   H1045     1.0  0.77129  0.22776  0.26876  1.0000
  C   C1297     1.0  0.71755  0.24226  0.99846  1.0000
  H   H1046     1.0  0.79330  0.42447  0.27663  1.0000
  H   H1047     1.0  0.76313  0.39509  0.29660  1.0000
  H   H1048     1.0  0.72627  0.38493  0.26434  1.0000
  H   H1049     1.0  0.72059  0.40343  0.21121  1.0000
  H   H1050     1.0  0.76519  0.09134  0.36596  1.0000
  H   H1051     1.0  0.84731  0.18777  0.05606  1.0000
  H   H1052     1.0  0.79696  0.15650  0.29797  1.0000
  H   H1053     1.0  0.72195  0.15481  0.22681  1.0000
  H   H1054     1.0  0.70383  0.09767  0.06743  1.0000
  H   H1055     1.0  0.84650  0.46641  0.20106  1.0000
  C   C1298     1.0  0.66966  0.48605  0.01814  1.0000
  C   C1299     1.0  0.86389  0.43375  0.18293  1.0000
  C   C1300     1.0  0.76918  0.34183  0.35996  1.0000
  C   C1301     1.0  0.68295  0.21373  0.47840  1.0000
  C   C1302     1.0  0.86297  0.28169  0.41621  1.0000
  H   H1056     1.0  0.67038  0.13849  0.41114  1.0000
  C   C1303     1.0  0.74434  0.29236  0.41235  1.0000
  H   H1057     1.0  0.84579  0.06818  0.19295  1.0000
  H   H1058     1.0  0.88265  0.25813  0.44873  1.0000
  C   C1304     1.0  0.94701  0.47393  0.17252  1.0000
  S   S181      1.0  0.68534  0.12015  0.47355  1.0000
  H   H1059     1.0  0.73626  0.16015  0.11344  1.0000
  H   H1060     1.0  0.81793  0.10741  0.11221  1.0000
  C   C1305     1.0  0.76639  0.15908  0.16999  1.0000
  H   H1061     1.0  0.84572  0.07625  0.13490  1.0000
  H   H1062     1.0  0.78291  0.19358  0.15596  1.0000
  H   H1063     1.0  0.75662  0.34538  0.34050  1.0000
  H   H1064     1.0  0.87887  0.29287  0.41159  1.0000
  C   C1306     1.0  0.73999  0.18824  0.21359  1.0000
  H   H1065     1.0  0.68792  0.39497  0.12026  1.0000
  C   C1307     1.0  0.97828  0.46095  0.10717  1.0000
  H   H1066     1.0  0.72434  0.18145  0.32336  1.0000
  C   C1308     1.0  0.70981  0.48119  0.07597  1.0000
  C   C1309     1.0  0.73350  0.41896  0.00345  1.0000
  C   C1310     1.0  0.83330  0.08633  0.15045  1.0000
  H   H1067     1.0  0.79556  0.08030  0.40744  1.0000
  H   H1068     1.0  0.78811  0.28587  0.04549  1.0000
  C   C1311     1.0  0.83250  0.47780  0.38660  1.0000
  Fe  Fe90      1.0  0.93837  0.47785  0.39613  1.0000
  H   H1069     1.0  0.72634  0.40065  0.00727  1.0000
  H   H1070     1.0  0.69189  0.04021  0.41658  1.0000
  H   H1071     1.0  0.67559  0.10508  0.37149  1.0000
  C   C1312     1.0  0.76601  0.29522  0.08591  1.0000
  C   C1313     1.0  0.81876  0.45633  0.38374  1.0000
  C   C1314     1.0  0.98256  0.47777  0.46659  1.0000
  H   H1072     1.0  0.71004  0.28985  0.02913  1.0000
  C   C1315     1.0  0.71827  0.10541  0.08214  1.0000
  C   C1316     1.0  0.68026  0.39350  0.14391  1.0000
  H   H1073     1.0  0.70422  0.24037  0.45372  1.0000
  C   C1317     1.0  0.82612  0.46104  0.26971  1.0000
  H   H1074     1.0  0.82555  0.11104  0.42647  1.0000
  H   H1075     1.0  0.73925  0.16930  0.38349  1.0000
  H   H1076     1.0  0.81048  0.46821  0.15181  1.0000
  H   H1077     1.0  0.77253  0.08937  0.11610  1.0000
  C   C1318     1.0  0.83650  0.18270  0.10498  1.0000
  H   H1078     1.0  0.79539  0.16444  0.36239  1.0000
  C   C1319     1.0  0.83332  0.08179  0.18318  1.0000
  H   H1079     1.0  0.78449  0.14245  0.07006  1.0000
  C   C1320     1.0  0.80564  0.46087  0.43863  1.0000
  C   C1321     1.0  0.72122  0.29951  0.40142  1.0000
  C   C1322     1.0  0.80148  0.11258  0.19042  1.0000
  C   C1323     1.0  0.72310  0.43905  0.01949  1.0000
  H   H1080     1.0  0.81391  0.16188  0.03418  1.0000
  C   C1324     1.0  0.72228  0.29753  0.07682  1.0000
  H   H1081     1.0  0.77701  0.23981  0.03095  1.0000
  C   C1325     1.0  0.78167  0.47220  0.18697  1.0000
  H   H1082     1.0  0.75967  0.29231  0.39599  1.0000
  C   C1326     1.0  0.81951  0.48247  0.44165  1.0000
  C   C1327     1.0  0.73082  0.10076  0.25242  1.0000
  C   C1328     1.0  0.74953  0.08375  0.24641  1.0000
  C   C1329     1.0  0.76991  0.08265  0.26662  1.0000
  C   C1330     1.0  0.77161  0.09854  0.29288  1.0000
  C   C1331     1.0  0.75259  0.11527  0.29951  1.0000
  C   C1332     1.0  0.73241  0.11659  0.27873  1.0000
  P   P43       1.0  0.75495  0.13690  0.33212  1.0000
  C   C1333     1.0  0.77887  0.12831  0.35974  1.0000
  C   C1334     1.0  0.76041  0.16624  0.31352  1.0000
  C   C1335     1.0  0.78268  0.17038  0.29779  1.0000
  C   C1336     1.0  0.78661  0.19249  0.28169  1.0000
  C   C1337     1.0  0.76825  0.21047  0.28089  1.0000
  C   C1338     1.0  0.74588  0.20627  0.29593  1.0000
  C   C1339     1.0  0.74190  0.18425  0.31213  1.0000
  C   C1340     1.0  0.79589  0.14566  0.37077  1.0000
  C   C1341     1.0  0.81288  0.13931  0.39442  1.0000
  C   C1342     1.0  0.81294  0.11568  0.40734  1.0000
  C   C1343     1.0  0.79599  0.09833  0.39659  1.0000
  C   C1344     1.0  0.77888  0.10466  0.37307  1.0000
  C   C1345     1.0  0.72769  0.13744  0.35632  1.0000
  C   C1346     1.0  0.70988  0.11897  0.35361  1.0000
  C   C1347     1.0  0.68919  0.11950  0.37320  1.0000
  C   C1348     1.0  0.68629  0.13828  0.39575  1.0000
  C   C1349     1.0  0.70438  0.15615  0.39940  1.0000
  C   C1350     1.0  0.72510  0.15565  0.37992  1.0000
  H   H1083     1.0  0.71502  0.10165  0.23674  1.0000
  H   H1084     1.0  0.74823  0.07140  0.22611  1.0000
  H   H1085     1.0  0.78440  0.06943  0.26195  1.0000
  H   H1086     1.0  0.78779  0.09773  0.30783  1.0000
  H   H1087     1.0  0.71883  0.30500  0.37674  1.0000
  C   C1351     1.0  0.72581  0.29124  0.04476  1.0000
  C   C1352     1.0  0.78141  0.25964  0.98680  1.0000
  C   C1353     1.0  0.89979  0.36762  0.38121  1.0000
  H   H1088     1.0  0.73530  0.45079  0.08186  1.0000
  C   C1354     1.0  0.69936  0.23337  0.47692  1.0000
  C   C1355     1.0  0.74749  0.28434  0.44372  1.0000
  C   C1356     1.0  0.78793  0.24204  0.00967  1.0000
  Fe  Fe91      1.0  0.93686  0.99561  0.13959  1.0000
  H   H1089     1.0  0.88855  0.46593  0.04278  1.0000
  H   H1090     1.0  0.75585  0.22502  0.48046  1.0000
  C   C1357     1.0  0.91884  0.47685  0.07275  1.0000
  C   C1358     1.0  0.97366  0.44305  0.08362  1.0000
  H   H1091     1.0  0.68816  0.28889  0.46838  1.0000
  H   H1092     1.0  0.72130  0.02672  0.46864  1.0000
  C   C1359     1.0  0.72733  0.28317  0.46445  1.0000
  C   C1360     1.0  0.93289  0.47509  0.20026  1.0000
  H   H1093     1.0  0.96879  0.13350  0.25026  1.0000
  C   C1361     1.0  0.66331  0.99057  0.47039  1.0000
  H   H1094     1.0  0.91130  0.00099  0.20969  1.0000
  Fe  Fe92      1.0  0.78013  0.13548  0.98619  1.0000
  C   C1362     1.0  0.79600  0.99018  0.10738  1.0000
  C   C1363     1.0  0.66043  0.38910  0.20468  1.0000
  H   H1095     1.0  0.75822  0.48457  0.98810  1.0000
  C   C1364     1.0  0.65959  0.40786  0.15198  1.0000
  C   C1365     1.0  0.65423  0.05170  0.42142  1.0000
  C   C1366     1.0  0.75153  0.46629  0.99318  1.0000
  H   H1096     1.0  0.84335  0.48420  0.36674  1.0000
  C   C1367     1.0  0.79286  0.47630  0.15735  1.0000
  H   H1097     1.0  0.74974  0.48011  0.21587  1.0000
  H   H1098     1.0  0.98386  0.02767  0.23878  1.0000
  S   S182      1.0  0.89567  0.99164  0.14174  1.0000
  H   H1099     1.0  0.86908  0.00245  0.23110  1.0000
  H   H1100     1.0  0.86401  0.09121  0.99384  1.0000
  C   C1368     1.0  0.75873  0.48304  0.19320  1.0000
  C   C1369     1.0  0.94006  0.48734  0.14535  1.0000
  P   P44       1.0  0.75390  0.27766  0.99198  1.0000
  P   P45       1.0  0.95946  0.48831  0.11038  1.0000
  H   H1101     1.0  0.75661  0.05274  0.48467  1.0000
  Fe  Fe93      1.0  0.77961  0.35110  0.73629  1.0000
  S   S183      1.0  0.74808  0.34606  0.76985  1.0000
  S   S184      1.0  0.80342  0.38586  0.73600  1.0000
  Fe  Fe94      1.0  0.76478  0.30468  0.69703  1.0000
  S   S185      1.0  0.73215  0.29717  0.72848  1.0000
  S   S186      1.0  0.77861  0.28324  0.65301  1.0000
  Fe  Fe95      1.0  0.72546  0.33850  0.72587  1.0000
  S   S187      1.0  0.68762  0.35688  0.72054  1.0000
  Fe  Fe96      1.0  0.75767  0.30547  0.76985  1.0000
  S   S188      1.0  0.76414  0.28663  0.81869  1.0000
  S   S189      1.0  0.75644  0.34522  0.69224  1.0000
  S   S190      1.0  0.79071  0.31126  0.73840  1.0000
  C   C1370     1.0  0.67740  0.12844  0.86373  1.0000
  S   S191      1.0  0.75654  0.12741  0.94324  1.0000
  C   C1371     1.0  0.69544  0.04381  0.54030  1.0000
  Fe  Fe97      1.0  0.75133  0.16699  0.53204  1.0000
  C   C1372     1.0  0.76136  0.25813  0.50846  1.0000
  S   S192      1.0  0.74037  0.18774  0.57791  1.0000
  Fe  Fe98      1.0  0.74756  0.16809  0.94225  1.0000
  S   S193      1.0  0.74137  0.18578  0.89274  1.0000
  H   H1102     1.0  0.83634  0.99717  0.59733  1.0000
  S   S194      1.0  0.77384  0.17673  0.98254  1.0000
  H   H1103     1.0  0.75993  0.44005  0.69323  1.0000
  S   S195      1.0  0.74310  0.12628  0.52992  1.0000
  S   S196      1.0  0.95062  0.00936  0.60432  1.0000
  H   H1104     1.0  0.67523  0.06942  0.83743  1.0000
  Fe  Fe99      1.0  0.90953  0.01497  0.60108  1.0000
  S   S197      1.0  0.89178  0.05296  0.59344  1.0000
  C   C1373     1.0  0.71652  0.42179  0.75459  1.0000
  C   C1374     1.0  0.75902  0.06529  0.94440  1.0000
  Fe  Fe100     1.0  0.90121  0.46094  0.84578  1.0000
  S   S198      1.0  0.88072  0.42447  0.83990  1.0000
  Fe  Fe101     1.0  0.77794  0.12241  0.50161  1.0000
  C   C1375     1.0  0.74521  0.08336  0.80339  1.0000
  C   C1376     1.0  0.67335  0.05156  0.95466  1.0000
  S   S199      1.0  0.94245  0.46305  0.85103  1.0000
  C   C1377     1.0  0.79985  0.45310  0.87284  1.0000
  C   C1378     1.0  0.82825  0.47690  0.84144  1.0000
  H   H1105     1.0  0.71272  0.38787  0.67341  1.0000
  H   H1106     1.0  0.82360  0.47457  0.79061  1.0000
  H   H1107     1.0  0.79383  0.31220  0.98078  1.0000
  H   H1108     1.0  0.74585  0.39899  0.73664  1.0000
  H   H1109     1.0  0.78050  0.05283  0.85778  1.0000
  H   H1110     1.0  0.76968  0.03849  0.58039  1.0000
  C   C1379     1.0  0.92169  0.44107  0.72340  1.0000
  C   C1380     1.0  0.69386  0.39393  0.67513  1.0000
  C   C1381     1.0  0.81467  0.24508  0.95312  1.0000
  C   C1382     1.0  0.82669  0.07838  0.53008  1.0000
  C   C1383     1.0  0.83621  0.09366  0.55400  1.0000
  C   C1384     1.0  0.85610  0.08558  0.57301  1.0000
  C   C1385     1.0  0.86654  0.06202  0.56880  1.0000
  C   C1386     1.0  0.85681  0.04664  0.54513  1.0000
  C   C1387     1.0  0.83722  0.05489  0.52578  1.0000
  H   H1111     1.0  0.82846  0.11179  0.55759  1.0000
  H   H1112     1.0  0.86349  0.09768  0.59114  1.0000
  H   H1113     1.0  0.86461  0.02853  0.54145  1.0000
  H   H1114     1.0  0.82165  0.35987  0.87670  1.0000
  C   C1388     1.0  0.82464  0.39640  0.76537  1.0000
  C   C1389     1.0  0.83703  0.41872  0.76043  1.0000
  C   C1390     1.0  0.85415  0.42769  0.78294  1.0000
  C   C1391     1.0  0.85907  0.41443  0.81076  1.0000
  C   C1392     1.0  0.84674  0.39210  0.81561  1.0000
  C   C1393     1.0  0.82952  0.38319  0.79322  1.0000
  H   H1115     1.0  0.83344  0.42907  0.73897  1.0000
  H   H1116     1.0  0.86362  0.44478  0.77873  1.0000
  H   H1117     1.0  0.85066  0.38154  0.83680  1.0000
  H   H1118     1.0  0.82023  0.36598  0.79735  1.0000
  C   C1394     1.0  0.67797  0.38201  0.69608  1.0000
  H   H1119     1.0  0.96317  0.41279  0.59603  1.0000
  C   C1395     1.0  0.79455  0.26065  0.95811  1.0000
  C   C1396     1.0  0.75769  0.25824  0.83848  1.0000
  C   C1397     1.0  0.74305  0.23986  0.82493  1.0000
  C   C1398     1.0  0.73841  0.21790  0.84181  1.0000
  C   C1399     1.0  0.74823  0.21389  0.87253  1.0000
  C   C1400     1.0  0.76292  0.23223  0.88603  1.0000
  C   C1401     1.0  0.76754  0.25421  0.86917  1.0000
  H   H1120     1.0  0.73515  0.24262  0.80153  1.0000
  H   H1121     1.0  0.72693  0.20399  0.83106  1.0000
  H   H1122     1.0  0.77063  0.22947  0.90952  1.0000
  H   H1123     1.0  0.77890  0.26821  0.87994  1.0000
  C   C1402     1.0  0.76764  0.25660  0.63259  1.0000
  C   C1403     1.0  0.74541  0.24547  0.64026  1.0000
  C   C1404     1.0  0.73726  0.22472  0.62293  1.0000
  C   C1405     1.0  0.75120  0.21470  0.59775  1.0000
  C   C1406     1.0  0.77339  0.22588  0.58998  1.0000
  C   C1407     1.0  0.78153  0.24667  0.60731  1.0000
  H   H1124     1.0  0.73442  0.25299  0.65939  1.0000
  H   H1125     1.0  0.72005  0.21629  0.62919  1.0000
  H   H1126     1.0  0.78439  0.21837  0.57084  1.0000
  H   H1127     1.0  0.79875  0.25511  0.60112  1.0000
  H   H1128     1.0  0.69778  0.42263  0.64006  1.0000
  C   C1408     1.0  0.66514  0.09208  0.93390  1.0000
  C   C1409     1.0  0.67868  0.07689  0.95423  1.0000
  H   H1129     1.0  0.71715  0.30652  0.95661  1.0000
  H   H1130     1.0  0.96998  0.47400  0.69629  1.0000
  C   C1410     1.0  0.70411  0.23220  0.53430  1.0000
  H   H1131     1.0  0.82451  0.24567  0.93074  1.0000
  C   C1411     1.0  0.97115  0.06450  0.78074  1.0000
  C   C1412     1.0  0.91708  0.00070  0.88039  1.0000
  C   C1413     1.0  0.82781  0.46706  0.52955  1.0000
  H   H1132     1.0  0.70545  0.41990  0.73321  1.0000
  P   P46       1.0  0.72644  0.05921  0.85663  1.0000
  H   H1133     1.0  0.82924  0.47499  0.89254  1.0000
  H   H1134     1.0  0.98405  0.44544  0.49613  1.0000
  C   C1414     1.0  0.71239  0.32304  0.58613  1.0000
  C   C1415     1.0  0.76870  0.23591  0.49421  1.0000
  H   H1135     1.0  0.98558  0.07746  0.78620  1.0000
  C   C1416     1.0  0.98048  0.41606  0.60794  1.0000
  H   H1136     1.0  0.69585  0.34609  0.55049  1.0000
  C   C1417     1.0  0.90362  0.03350  0.84544  1.0000
  C   C1418     1.0  0.70956  0.24331  0.50503  1.0000
  H   H1137     1.0  0.66872  0.11161  0.93356  1.0000
  C   C1419     1.0  0.78755  0.03643  0.59127  1.0000
  C   C1420     1.0  0.72297  0.29046  0.53558  1.0000
  H   H1138     1.0  0.94838  0.46426  0.74622  1.0000
  H   H1139     1.0  0.73991  0.26803  0.57225  1.0000
  H   H1140     1.0  0.91922  0.42835  0.64408  1.0000
  H   H1141     1.0  0.79734  0.06432  0.95673  1.0000
  P   P47       1.0  0.73035  0.26919  0.50344  1.0000
  C   C1421     1.0  0.70372  0.01948  0.88686  1.0000
  C   C1422     1.0  0.75310  0.45584  0.68010  1.0000
  H   H1142     1.0  0.71254  0.23838  0.55620  1.0000
  C   C1423     1.0  0.75551  0.30609  0.97007  1.0000
  H   H1143     1.0  0.91253  0.43654  0.74554  1.0000
  C   C1424     1.0  0.79146  0.05778  0.90644  1.0000
  H   H1144     1.0  0.71999  0.34486  0.92574  1.0000
  C   C1425     1.0  0.80304  0.36389  0.86926  1.0000
  C   C1426     1.0  0.98431  0.43772  0.62557  1.0000
  C   C1427     1.0  0.91358  0.43094  0.69458  1.0000
  H   H1145     1.0  0.75311  0.06928  0.96856  1.0000
  H   H1146     1.0  0.67121  0.99651  0.80997  1.0000
  C   C1428     1.0  0.73608  0.33775  0.93786  1.0000
  C   C1429     1.0  0.95815  0.06638  0.75207  1.0000
  H   H1147     1.0  0.82622  0.06786  0.64039  1.0000
  C   C1430     1.0  0.76376  0.04037  0.77549  1.0000
  S   S200      1.0  0.95212  0.47615  0.94372  1.0000
  C   C1431     1.0  0.79622  0.05527  0.61105  1.0000
  S   S201      1.0  0.80190  0.08753  0.50473  1.0000
  C   C1432     1.0  0.65467  0.02840  0.52824  1.0000
  C   C1433     1.0  0.67702  0.99050  0.86002  1.0000
  C   C1434     1.0  0.70793  0.43567  0.78040  1.0000
  C   C1435     1.0  0.79671  0.12890  0.68105  1.0000
  C   C1436     1.0  0.79185  0.13190  0.64854  1.0000
  C   C1437     1.0  0.77697  0.15130  0.63835  1.0000
  C   C1438     1.0  0.76698  0.16772  0.66058  1.0000
  C   C1439     1.0  0.77151  0.16475  0.69332  1.0000
  C   C1440     1.0  0.78668  0.14530  0.70337  1.0000
  P   P48       1.0  0.75999  0.18715  0.72171  1.0000
  C   C1441     1.0  0.73048  0.19896  0.70924  1.0000
  C   C1442     1.0  0.75676  0.17298  0.76042  1.0000
  C   C1443     1.0  0.73388  0.16443  0.77076  1.0000
  C   C1444     1.0  0.73139  0.15436  0.80121  1.0000
  C   C1445     1.0  0.75167  0.15276  0.82152  1.0000
  C   C1446     1.0  0.77453  0.16088  0.81128  1.0000
  C   C1447     1.0  0.77714  0.17079  0.78079  1.0000
  C   C1448     1.0  0.72353  0.22317  0.71695  1.0000
  C   C1449     1.0  0.70069  0.23232  0.70739  1.0000
  C   C1450     1.0  0.68459  0.21737  0.69018  1.0000
  C   C1451     1.0  0.69122  0.19316  0.68276  1.0000
  C   C1452     1.0  0.71401  0.18392  0.69240  1.0000
  C   C1453     1.0  0.78111  0.21256  0.72409  1.0000
  C   C1454     1.0  0.79437  0.21974  0.69708  1.0000
  C   C1455     1.0  0.81037  0.23968  0.69880  1.0000
  C   C1456     1.0  0.81313  0.25271  0.72735  1.0000
  C   C1457     1.0  0.79955  0.24610  0.75413  1.0000
  C   C1458     1.0  0.78351  0.22619  0.75249  1.0000
  H   H1148     1.0  0.80857  0.11407  0.68888  1.0000
  H   H1149     1.0  0.79986  0.11943  0.63116  1.0000
  H   H1150     1.0  0.77337  0.15388  0.61312  1.0000
  H   H1151     1.0  0.75597  0.18292  0.65206  1.0000
  H   H1152     1.0  0.79107  0.14290  0.72830  1.0000
  H   H1153     1.0  0.71783  0.16591  0.75571  1.0000
  H   H1154     1.0  0.71360  0.14840  0.80947  1.0000
  H   H1155     1.0  0.74958  0.14581  0.84553  1.0000
  H   H1156     1.0  0.79007  0.16009  0.82740  1.0000
  H   H1157     1.0  0.79498  0.17724  0.77340  1.0000
  H   H1158     1.0  0.73571  0.23518  0.73011  1.0000
  H   H1159     1.0  0.69560  0.25112  0.71311  1.0000
  C   C1459     1.0  0.65351  0.39033  0.69795  1.0000
  H   H1160     1.0  0.67876  0.18161  0.66931  1.0000
  H   H1161     1.0  0.71879  0.16509  0.68654  1.0000
  H   H1162     1.0  0.79205  0.21045  0.67443  1.0000
  H   H1163     1.0  0.82000  0.24560  0.67764  1.0000
  H   H1164     1.0  0.82526  0.26840  0.72841  1.0000
  H   H1165     1.0  0.80099  0.25678  0.77598  1.0000
  H   H1166     1.0  0.77272  0.22181  0.77329  1.0000
  H   H1167     1.0  0.78895  0.43708  0.57930  1.0000
  C   C1460     1.0  0.70111  0.12869  0.87630  1.0000
  C   C1461     1.0  0.94021  0.46079  0.59515  1.0000
  Fe  Fe102     1.0  0.93537  0.48650  0.89484  1.0000
  H   H1168     1.0  0.83035  0.04307  0.50708  1.0000
  H   H1169     1.0  0.96256  0.08068  0.73519  1.0000
  C   C1462     1.0  0.71238  0.42731  0.92150  1.0000
  S   S202      1.0  0.89428  0.48185  0.89133  1.0000
  H   H1170     1.0  0.68464  0.20342  0.55826  1.0000
  H   H1171     1.0  0.68357  0.03962  0.97043  1.0000
  C   C1463     1.0  0.96596  0.04552  0.80204  1.0000
  H   H1172     1.0  0.69870  0.45895  0.94718  1.0000
  H   H1173     1.0  0.97495  0.05943  0.58479  1.0000
  H   H1174     1.0  0.82849  0.23481  0.51749  1.0000
  C   C1464     1.0  0.93425  0.03072  0.76634  1.0000
  C   C1465     1.0  0.67919  0.02414  0.53694  1.0000
  H   H1175     1.0  0.96894  0.45348  0.56068  1.0000
  H   H1176     1.0  0.77107  0.02372  0.76476  1.0000
  H   H1177     1.0  0.79376  0.44698  0.89598  1.0000
  C   C1466     1.0  0.81990  0.46895  0.87106  1.0000
  H   H1178     1.0  0.69778  0.03309  0.80791  1.0000
  H   H1179     1.0  0.96170  0.42697  0.91449  1.0000
  H   H1180     1.0  0.77669  0.06387  0.73795  1.0000
  H   H1181     1.0  0.81219  0.00244  0.49564  1.0000
  H   H1182     1.0  0.72263  0.06706  0.92517  1.0000
  C   C1467     1.0  0.94516  0.45329  0.66608  1.0000
  P   P49       1.0  0.94128  0.00343  0.82200  1.0000
  H   H1183     1.0  0.89824  0.41836  0.69449  1.0000
  C   C1468     1.0  0.81065  0.48020  0.51126  1.0000
  H   H1184     1.0  0.66477  0.46515  0.56820  1.0000
  C   C1469     1.0  0.70747  0.03200  0.85807  1.0000
  C   C1470     1.0  0.75832  0.35027  0.93595  1.0000
  H   H1185     1.0  0.75078  0.47406  0.87349  1.0000
  H   H1186     1.0  0.77662  0.44899  0.96033  1.0000
  C   C1471     1.0  0.76288  0.46151  0.65029  1.0000
  C   C1472     1.0  0.71078  0.31284  0.52978  1.0000
  S   S203      1.0  0.70140  0.08875  0.98086  1.0000
  C   C1473     1.0  0.74159  0.06066  0.81846  1.0000
  H   H1187     1.0  0.70524  0.23719  0.90751  1.0000
  C   C1474     1.0  0.90899  0.46228  0.54187  1.0000
  C   C1475     1.0  0.89972  0.46729  0.57226  1.0000
  C   C1476     1.0  0.91532  0.46681  0.59879  1.0000
  H   H1188     1.0  0.66700  0.22461  0.68254  1.0000
  H   H1189     1.0  0.69022  0.44467  0.77883  1.0000
  C   C1477     1.0  0.79498  0.44918  0.56044  1.0000
  C   C1478     1.0  0.68732  0.06785  0.53502  1.0000
  C   C1479     1.0  0.78700  0.34464  0.86227  1.0000
  H   H1190     1.0  0.73433  0.10840  0.88375  1.0000
  C   C1480     1.0  0.88698  0.04143  0.86870  1.0000
  H   H1191     1.0  0.76104  0.40690  0.97007  1.0000
  H   H1192     1.0  0.72613  0.46540  0.71540  1.0000
  H   H1193     1.0  0.78891  0.27294  0.93922  1.0000
  H   H1194     1.0  0.66531  0.18737  0.50877  1.0000
  H   H1195     1.0  0.73561  0.26680  0.92772  1.0000
  H   H1196     1.0  0.68268  0.21057  0.94503  1.0000
  C   C1481     1.0  0.68859  0.99881  0.88775  1.0000
  H   H1197     1.0  0.73843  0.10023  0.81395  1.0000
  H   H1198     1.0  0.83330  0.44150  0.56810  1.0000
  C   C1482     1.0  0.71586  0.10764  0.87442  1.0000
  C   C1483     1.0  0.74175  0.06401  0.91979  1.0000
  H   H1199     1.0  0.75835  0.45978  0.54675  1.0000
  H   H1200     1.0  0.89946  0.99925  0.92626  1.0000
  C   C1484     1.0  0.82157  0.22818  0.97653  1.0000
  C   C1485     1.0  0.98015  0.42176  0.90750  1.0000
  S   S204      1.0  0.90298  0.99665  0.64827  1.0000
  C   C1486     1.0  0.76187  0.44617  0.97715  1.0000
  H   H1201     1.0  0.70832  0.33552  0.60570  1.0000
  H   H1202     1.0  0.93003  0.05055  0.72234  1.0000
  H   H1203     1.0  0.77387  0.28988  0.53547  1.0000
  H   H1204     1.0  0.81599  0.27454  0.54195  1.0000
  H   H1205     1.0  0.85112  0.03023  0.63213  1.0000
  C   C1487     1.0  0.66836  0.10706  0.84943  1.0000
  H   H1206     1.0  0.78538  0.07180  0.61445  1.0000
  C   C1488     1.0  0.76324  0.34980  0.85182  1.0000
  C   C1489     1.0  0.79545  0.38832  0.86535  1.0000
  C   C1490     1.0  0.77168  0.39364  0.85432  1.0000
  C   C1491     1.0  0.75559  0.37415  0.84778  1.0000
  P   P50       1.0  0.76169  0.42500  0.84774  1.0000
  C   C1492     1.0  0.74450  0.42510  0.81079  1.0000
  C   C1493     1.0  0.74230  0.43551  0.88005  1.0000
  C   C1494     1.0  0.72806  0.41885  0.89743  1.0000
  C   C1495     1.0  0.74042  0.46076  0.88701  1.0000
  C   C1496     1.0  0.75312  0.41151  0.78454  1.0000
  C   C1497     1.0  0.73923  0.40996  0.75654  1.0000
  H   H1207     1.0  0.76035  0.10208  0.76290  1.0000
  C   C1498     1.0  0.72186  0.43740  0.80842  1.0000
  C   C1499     1.0  0.78798  0.44504  0.84490  1.0000
  C   C1500     1.0  0.79674  0.45285  0.81519  1.0000
  C   C1501     1.0  0.70682  0.08596  0.86046  1.0000
  H   H1208     1.0  0.70549  0.31812  0.50599  1.0000
  Fe  Fe103     1.0  0.72539  0.12338  0.97779  1.0000
  C   C1502     1.0  0.77134  0.02597  0.51727  1.0000
  C   C1503     1.0  0.75125  0.03920  0.80450  1.0000
  H   H1209     1.0  0.80854  0.40282  0.86983  1.0000
  H   H1210     1.0  0.73731  0.37767  0.83868  1.0000
  H   H1211     1.0  0.72872  0.39938  0.89223  1.0000
  H   H1212     1.0  0.90800  0.47137  0.62205  1.0000
  H   H1213     1.0  0.77042  0.40169  0.78592  1.0000
  H   H1214     1.0  0.69999  0.08312  0.53669  1.0000
  H   H1215     1.0  0.71465  0.44791  0.82825  1.0000
  H   H1216     1.0  0.70136  0.41440  0.93476  1.0000
  C   C1504     1.0  0.68053  0.00285  0.83132  1.0000
  C   C1505     1.0  0.68291  0.08584  0.84798  1.0000
  C   C1506     1.0  0.72485  0.46914  0.91124  1.0000
  C   C1507     1.0  0.83318  0.03183  0.62109  1.0000
  H   H1217     1.0  0.68578  0.00558  0.54075  1.0000
  C   C1508     1.0  0.68531  0.41368  0.65623  1.0000
  H   H1218     1.0  0.81080  0.05575  0.90131  1.0000
  C   C1509     1.0  0.77414  0.05618  0.88179  1.0000
  H   H1219     1.0  0.83684  0.21576  0.97240  1.0000
  C   C1510     1.0  0.70540  0.32895  0.55500  1.0000
  C   C1511     1.0  0.75774  0.08449  0.77441  1.0000
  H   H1220     1.0  0.91993  0.01782  0.76017  1.0000
  H   H1221     1.0  0.77729  0.45005  0.64041  1.0000
  H   H1222     1.0  0.70806  0.14520  0.88767  1.0000
  C   C1512     1.0  0.73413  0.47020  0.69267  1.0000
  H   H1223     1.0  0.94118  0.45432  0.51409  1.0000
  H   H1224     1.0  0.79302  0.32567  0.86429  1.0000
  C   C1513     1.0  0.88549  0.02912  0.89781  1.0000
  C   C1514     1.0  0.72999  0.28482  0.56702  1.0000
  C   C1515     1.0  0.80206  0.01548  0.58533  1.0000
  C   C1516     1.0  0.72538  0.25591  0.94457  1.0000
  C   C1517     1.0  0.94955  0.45681  0.56435  1.0000
  C   C1518     1.0  0.66076  0.42180  0.65784  1.0000
  C   C1519     1.0  0.92539  0.43683  0.66605  1.0000
  H   H1225     1.0  0.75098  0.33480  0.84588  1.0000
  C   C1520     1.0  0.81910  0.05303  0.62580  1.0000
  C   C1521     1.0  0.97888  0.48428  0.96610  1.0000
  C   C1522     1.0  0.77878  0.27233  0.52497  1.0000
  H   H1226     1.0  0.90460  0.04338  0.82314  1.0000
  C   C1523     1.0  0.80286  0.26385  0.52837  1.0000
  H   H1227     1.0  0.66594  0.14470  0.86549  1.0000
  H   H1228     1.0  0.87282  0.03545  0.91599  1.0000
  C   C1524     1.0  0.71081  0.45243  0.92846  1.0000
  C   C1525     1.0  0.68974  0.48147  0.53472  1.0000
  P   P51       1.0  0.96055  0.46067  0.62921  1.0000
  H   H1229     1.0  0.75954  0.36703  0.92222  1.0000
  C   C1526     1.0  0.77763  0.31910  0.96871  1.0000
  C   C1527     1.0  0.90049  0.00872  0.90360  1.0000
  C   C1528     1.0  0.67996  0.47770  0.56501  1.0000
  C   C1529     1.0  0.69567  0.02351  0.83029  1.0000
  C   C1530     1.0  0.91895  0.01319  0.85124  1.0000
  C   C1531     1.0  0.78553  0.47723  0.51739  1.0000
  C   C1532     1.0  0.75376  0.48159  0.63308  1.0000
  C   C1533     1.0  0.77906  0.34101  0.95148  1.0000
  C   C1534     1.0  0.76856  0.00273  0.53124  1.0000
  C   C1535     1.0  0.78392  0.06246  0.93772  1.0000
  C   C1536     1.0  0.72990  0.25788  0.97746  1.0000
  C   C1537     1.0  0.74908  0.05941  0.88831  1.0000
  C   C1538     1.0  0.72480  0.30104  0.59208  1.0000
  C   C1539     1.0  0.66282  0.07228  0.52726  1.0000
  H   H1230     1.0  0.89699  0.46251  0.52129  1.0000
  C   C1540     1.0  0.80990  0.24149  0.51464  1.0000
  H   H1231     1.0  0.97653  0.04419  0.82383  1.0000
  H   H1232     1.0  0.79631  0.35069  0.94995  1.0000
  C   C1541     1.0  0.73174  0.99663  0.49929  1.0000
  H   H1233     1.0  0.71443  0.04047  0.54656  1.0000
  C   C1542     1.0  0.94762  0.02832  0.79486  1.0000
  C   C1543     1.0  0.70818  0.23910  0.93299  1.0000
  C   C1544     1.0  0.93972  0.04950  0.74491  1.0000
  C   C1545     1.0  0.81997  0.45169  0.55413  1.0000
  H   H1234     1.0  0.71207  0.02569  0.90880  1.0000
  S   S205      1.0  0.96561  0.99965  0.69474  1.0000
  C   C1546     1.0  0.76697  0.06299  0.76041  1.0000
  H   H1235     1.0  0.68205  0.48666  0.61483  1.0000
  C   C1547     1.0  0.68808  0.21227  0.53562  1.0000
  C   C1548     1.0  0.77775  0.46195  0.54208  1.0000
  H   H1236     1.0  0.97297  0.38294  0.90880  1.0000
  S   S206      1.0  0.71496  0.16335  0.97479  1.0000
  H   H1237     1.0  0.87538  0.05728  0.86429  1.0000
  H   H1238     1.0  0.78675  0.03751  0.52352  1.0000
  H   H1239     1.0  0.68548  0.98941  0.91006  1.0000
  C   C1549     1.0  0.73459  0.31585  0.95511  1.0000
  C   C1550     1.0  0.81668  0.46885  0.81356  1.0000
  H   H1240     1.0  0.96446  0.02186  0.88071  1.0000
  C   C1551     1.0  0.95388  0.46248  0.69533  1.0000
  H   H1241     1.0  0.78853  0.44649  0.79318  1.0000
  C   C1552     1.0  0.93392  0.45739  0.53786  1.0000
  H   H1242     1.0  0.73057  0.29659  0.61618  1.0000
  S   S207      1.0  0.78765  0.16253  0.50688  1.0000
  C   C1553     1.0  0.97608  0.00766  0.87062  1.0000
  H   H1243     1.0  0.88053  0.47179  0.57521  1.0000
  H   H1244     1.0  0.74918  0.02158  0.81612  1.0000
  C   C1554     1.0  0.82478  0.01315  0.60091  1.0000
  H   H1245     1.0  0.68187  0.47212  0.51428  1.0000
  H   H1246     1.0  0.76104  0.48534  0.60962  1.0000
  C   C1555     1.0  0.94191  0.45670  0.72377  1.0000
  C   C1556     1.0  0.69554  0.22402  0.95411  1.0000
  C   C1557     1.0  0.67730  0.20318  0.50775  1.0000
  C   C1558     1.0  0.82342  0.98854  0.50692  1.0000
  H   H1247     1.0  0.97591  0.09494  0.62191  1.0000
  H   H1248     1.0  0.84722  0.46851  0.52476  1.0000
  C   C1559     1.0  0.65500  0.04151  0.93469  1.0000
  H   H1249     1.0  0.65663  0.09098  0.52303  1.0000
  C   C1560     1.0  0.75431  0.03461  0.49497  1.0000
  H   H1250     1.0  0.98532  0.00649  0.52844  1.0000
  C   C1561     1.0  0.96938  0.99527  0.84241  1.0000
  H   H1251     1.0  0.77194  0.48662  0.50295  1.0000
  C   C1562     1.0  0.79293  0.22776  0.49717  1.0000
  P   P52       1.0  0.79144  0.99129  0.55897  1.0000
  C   C1563     1.0  0.98655  0.39698  0.90443  1.0000
  C   C1564     1.0  0.75302  0.42248  0.98250  1.0000
  H   H1252     1.0  0.77297  0.98978  0.62499  1.0000
  C   C1565     1.0  0.73451  0.01995  0.48592  1.0000
  H   H1253     1.0  0.79858  0.21082  0.48567  1.0000
  S   S208      1.0  0.73036  0.17474  0.48681  1.0000
  C   C1566     1.0  0.72144  0.71151  0.19023  1.0000
  S   S209      1.0  0.75660  0.62766  0.01941  1.0000
  C   C1567     1.0  0.71218  0.62127  0.13279  1.0000
  Fe  Fe104     1.0  0.74751  0.67278  0.45228  1.0000
  C   C1568     1.0  0.87037  0.96537  0.24897  1.0000
  S   S210      1.0  0.73073  0.69579  0.41141  1.0000
  H   H1254     1.0  0.78866  0.50485  0.23764  1.0000
  H   H1255     1.0  0.66915  0.49981  0.13276  1.0000
  Fe  Fe105     1.0  0.75363  0.66898  0.02350  1.0000
  S   S211      1.0  0.76026  0.68460  0.07391  1.0000
  S   S212      1.0  0.75162  0.63131  0.44906  1.0000
  H   H1256     1.0  0.78409  0.79891  0.06316  1.0000
  Fe  Fe106     1.0  0.72253  0.84003  0.24540  1.0000
  S   S213      1.0  0.75730  0.84088  0.27427  1.0000
  S   S214      1.0  0.69034  0.86763  0.24900  1.0000
  Fe  Fe107     1.0  0.74449  0.80147  0.19818  1.0000
  S   S215      1.0  0.78075  0.80042  0.22445  1.0000
  S   S216      1.0  0.73307  0.78389  0.15005  1.0000
  Fe  Fe108     1.0  0.75758  0.79940  0.26941  1.0000
  S   S217      1.0  0.77109  0.77607  0.31211  1.0000
  Fe  Fe109     1.0  0.77788  0.84191  0.22753  1.0000
  S   S218      1.0  0.80777  0.87197  0.22494  1.0000
  S   S219      1.0  0.72140  0.79843  0.24282  1.0000
  S   S220      1.0  0.74305  0.84301  0.19891  1.0000
  H   H1257     1.0  0.70087  0.78440  0.04380  1.0000
  S   S221      1.0  0.96241  0.96797  0.02622  1.0000
  Fe  Fe110     1.0  0.90090  0.95625  0.11478  1.0000
  S   S222      1.0  0.88031  0.91951  0.12161  1.0000
  S   S223      1.0  0.89764  0.97491  0.06696  1.0000
  S   S224      1.0  0.94226  0.95919  0.11506  1.0000
  H   H1258     1.0  0.76388  0.57275  0.11966  1.0000
  S   S225      1.0  0.93845  0.51370  0.36872  1.0000
  Fe  Fe111     1.0  0.89708  0.51058  0.36807  1.0000
  S   S226      1.0  0.86536  0.53849  0.36863  1.0000
  H   H1259     1.0  0.72940  0.87273  0.01595  1.0000
  H   H1260     1.0  0.78035  0.83250  0.12237  1.0000
  C   C1569     1.0  0.67912  0.58611  0.02016  1.0000
  H   H1261     1.0  0.91318  0.51275  0.12615  1.0000
  C   C1570     1.0  0.78548  0.84970  0.11126  1.0000
  H   H1262     1.0  0.73318  0.65091  0.17737  1.0000
  C   C1571     1.0  0.91859  0.50172  0.14645  1.0000
  H   H1263     1.0  0.68148  0.85364  0.31557  1.0000
  C   C1572     1.0  0.74953  0.58627  0.12344  1.0000
  H   H1264     1.0  0.98316  0.96561  0.31164  1.0000
  C   C1573     1.0  0.69932  0.71372  0.17365  1.0000
  C   C1574     1.0  0.82764  0.88494  0.19563  1.0000
  C   C1575     1.0  0.83234  0.87347  0.16633  1.0000
  C   C1576     1.0  0.84885  0.88408  0.14445  1.0000
  C   C1577     1.0  0.86065  0.90652  0.15115  1.0000
  C   C1578     1.0  0.85600  0.91800  0.18050  1.0000
  C   C1579     1.0  0.83976  0.90720  0.20258  1.0000
  H   H1265     1.0  0.82353  0.85623  0.16072  1.0000
  H   H1266     1.0  0.85237  0.87490  0.12200  1.0000
  H   H1267     1.0  0.86487  0.93521  0.18615  1.0000
  H   H1268     1.0  0.83650  0.91618  0.22524  1.0000
  C   C1580     1.0  0.83416  0.59279  0.44362  1.0000
  C   C1581     1.0  0.82259  0.58943  0.41413  1.0000
  C   C1582     1.0  0.83236  0.57267  0.39164  1.0000
  C   C1583     1.0  0.85378  0.55904  0.39827  1.0000
  C   C1584     1.0  0.86526  0.56228  0.42784  1.0000
  C   C1585     1.0  0.85559  0.57921  0.45020  1.0000
  H   H1269     1.0  0.80628  0.59993  0.40852  1.0000
  H   H1270     1.0  0.82339  0.57043  0.36878  1.0000
  H   H1271     1.0  0.88180  0.55208  0.43326  1.0000
  P   P53       1.0  0.74946  0.78382  0.01224  1.0000
  C   C1586     1.0  0.75241  0.71238  0.09455  1.0000
  C   C1587     1.0  0.76483  0.71829  0.12307  1.0000
  C   C1588     1.0  0.75933  0.74002  0.14032  1.0000
  C   C1589     1.0  0.74083  0.75591  0.12970  1.0000
  C   C1590     1.0  0.72808  0.74973  0.10152  1.0000
  C   C1591     1.0  0.73402  0.72836  0.08380  1.0000
  H   H1272     1.0  0.77900  0.70605  0.13176  1.0000
  H   H1273     1.0  0.76931  0.74437  0.16193  1.0000
  H   H1274     1.0  0.71341  0.76155  0.09341  1.0000
  H   H1275     1.0  0.72423  0.72412  0.06205  1.0000
  C   C1592     1.0  0.74249  0.71785  0.38376  1.0000
  C   C1593     1.0  0.72643  0.72865  0.36134  1.0000
  C   C1594     1.0  0.73478  0.74606  0.33890  1.0000
  C   C1595     1.0  0.75944  0.75307  0.33853  1.0000
  C   C1596     1.0  0.77545  0.74229  0.36096  1.0000
  C   C1597     1.0  0.76711  0.72493  0.38345  1.0000
  H   H1276     1.0  0.70734  0.72342  0.36126  1.0000
  H   H1277     1.0  0.72212  0.75412  0.32200  1.0000
  H   H1278     1.0  0.79456  0.74729  0.36077  1.0000
  H   H1279     1.0  0.77978  0.71688  0.40034  1.0000
  H   H1280     1.0  0.67015  0.49179  0.44754  1.0000
  C   C1598     1.0  0.68854  0.58828  0.05107  1.0000
  H   H1281     1.0  0.71132  0.54215  0.03664  1.0000
  C   C1599     1.0  0.66816  0.51141  0.45050  1.0000
  H   H1282     1.0  0.70369  0.60053  0.05565  1.0000
  C   C1600     1.0  0.67352  0.88150  0.28098  1.0000
  H   H1283     1.0  0.70382  0.56243  0.45669  1.0000
  H   H1284     1.0  0.69053  0.94648  0.02652  1.0000
  H   H1285     1.0  0.75812  0.90998  0.04939  1.0000
  C   C1601     1.0  0.74857  0.60735  0.10458  1.0000
  H   H1286     1.0  0.85190  0.96594  0.25832  1.0000
  C   C1602     1.0  0.77340  0.87147  0.11984  1.0000
  C   C1603     1.0  0.78034  0.89398  0.10636  1.0000
  P   P54       1.0  0.76463  0.92214  0.11731  1.0000
  C   C1604     1.0  0.74058  0.92889  0.08885  1.0000
  C   C1605     1.0  0.75279  0.91811  0.15717  1.0000
  C   C1606     1.0  0.72859  0.91022  0.16189  1.0000
  C   C1607     1.0  0.71987  0.90611  0.19270  1.0000
  C   C1608     1.0  0.73539  0.90907  0.21896  1.0000
  C   C1609     1.0  0.75966  0.91618  0.21443  1.0000
  C   C1610     1.0  0.76835  0.92071  0.18372  1.0000
  C   C1611     1.0  0.76737  0.56551  0.47246  1.0000
  H   H1287     1.0  0.76726  0.73269  0.01023  1.0000
  C   C1612     1.0  0.78609  0.94738  0.11771  1.0000
  H   H1288     1.0  0.83442  0.74271  0.48431  1.0000
  C   C1613     1.0  0.68140  0.68136  0.05436  1.0000
  H   H1289     1.0  0.74896  0.51215  0.12255  1.0000
  S   S227      1.0  0.71922  0.67050  0.99395  1.0000
  H   H1290     1.0  0.72947  0.72754  0.20159  1.0000
  H   H1291     1.0  0.75897  0.87063  0.13742  1.0000
  H   H1292     1.0  0.71658  0.90658  0.14191  1.0000
  H   H1293     1.0  0.70129  0.89980  0.19632  1.0000
  H   H1294     1.0  0.72881  0.90508  0.24275  1.0000
  H   H1295     1.0  0.77202  0.91734  0.23467  1.0000
  H   H1296     1.0  0.78744  0.92540  0.18091  1.0000
  H   H1297     1.0  0.80702  0.52925  0.28118  1.0000
  H   H1298     1.0  0.86492  0.58204  0.47266  1.0000
  C   C1614     1.0  0.94296  0.90524  0.15002  1.0000
  C   C1615     1.0  0.72446  0.92704  0.03476  1.0000
  H   H1299     1.0  0.75474  0.58086  0.47099  1.0000
  C   C1616     1.0  0.72342  0.66824  0.17625  1.0000
  C   C1617     1.0  0.66286  0.63151  0.16071  1.0000
  H   H1300     1.0  0.98454  0.57020  0.15083  1.0000
  H   H1301     1.0  0.72967  0.64104  0.09435  1.0000
  H   H1302     1.0  0.67255  0.87206  0.01803  1.0000
  H   H1303     1.0  0.88832  0.51439  0.17524  1.0000
  C   C1618     1.0  0.74253  0.92080  0.05710  1.0000
  H   H1304     1.0  0.66164  0.59722  0.13420  1.0000
  Fe  Fe112     1.0  0.78744  0.63646  0.47484  1.0000
  H   H1305     1.0  0.95881  0.53328  0.15043  1.0000
  C   C1619     1.0  0.94817  0.50423  0.04842  1.0000
  H   H1306     1.0  0.78979  0.49374  0.11143  1.0000
  C   C1620     1.0  0.69484  0.51289  0.98616  1.0000
  C   C1621     1.0  0.74692  0.55827  0.04091  1.0000
  H   H1307     1.0  0.82639  0.87297  0.05849  1.0000
  C   C1622     1.0  0.79440  0.86818  0.48176  1.0000
  C   C1623     1.0  0.79612  0.73014  0.04455  1.0000
  H   H1308     1.0  0.91148  0.91516  0.17772  1.0000
  C   C1624     1.0  0.76481  0.51016  0.04521  1.0000
  C   C1625     1.0  0.81216  0.51012  0.27800  1.0000
  H   H1309     1.0  0.73995  0.57688  0.03890  1.0000
  H   H1310     1.0  0.81523  0.77614  0.09359  1.0000
  H   H1311     1.0  0.81605  0.92553  0.13598  1.0000
  H   H1312     1.0  0.72163  0.72695  0.46605  1.0000
  H   H1313     1.0  0.72915  0.50533  0.17481  1.0000
  H   H1314     1.0  0.66393  0.75964  0.03626  1.0000
  H   H1315     1.0  0.87808  0.86520  0.31793  1.0000
  C   C1626     1.0  0.77204  0.55410  0.04450  1.0000
  C   C1627     1.0  0.71376  0.60044  0.15240  1.0000
  C   C1628     1.0  0.69246  0.49696  0.01223  1.0000
  C   C1629     1.0  0.67088  0.97532  0.44531  1.0000
  H   H1316     1.0  0.80045  0.52689  0.04999  1.0000
  H   H1317     1.0  0.89894  0.88030  0.20484  1.0000
  C   C1630     1.0  0.66180  0.95143  0.44262  1.0000
  C   C1631     1.0  0.82709  0.96275  0.12809  1.0000
  H   H1318     1.0  0.70085  0.59769  0.17156  1.0000
  H   H1319     1.0  0.73306  0.56667  0.16231  1.0000
  H   H1320     1.0  0.90142  0.49108  0.22323  1.0000
  H   H1321     1.0  0.70329  0.68445  0.09650  1.0000
  H   H1322     1.0  0.84376  0.50738  0.41708  1.0000
  C   C1632     1.0  0.67846  0.65346  0.09927  1.0000
  C   C1633     1.0  0.73456  0.74042  0.47499  1.0000
  C   C1634     1.0  0.68913  0.69320  0.15848  1.0000
  H   H1323     1.0  0.91085  0.49270  0.47043  1.0000
  C   C1635     1.0  0.79923  0.89427  0.08370  1.0000
  C   C1636     1.0  0.80450  0.85021  0.08906  1.0000
  C   C1637     1.0  0.78113  0.49075  0.13427  1.0000
  H   H1324     1.0  0.80271  0.52961  0.42486  1.0000
  C   C1638     1.0  0.66441  0.56241  0.45764  1.0000
  C   C1639     1.0  0.73218  0.58286  0.14742  1.0000
  H   H1325     1.0  0.79954  0.71083  0.03964  1.0000
  C   C1640     1.0  0.80946  0.74211  0.06839  1.0000
  C   C1641     1.0  0.79447  0.53630  0.44666  1.0000
  C   C1642     1.0  0.67950  0.73710  0.99911  1.0000
  C   C1643     1.0  0.80487  0.76688  0.07505  1.0000
  H   H1326     1.0  0.98628  0.51217  0.44209  1.0000
  H   H1327     1.0  0.84581  0.95954  0.13575  1.0000
  C   C1644     1.0  0.74128  0.81242  0.03187  1.0000
  C   C1645     1.0  0.67829  0.57460  0.07615  1.0000
  H   H1328     1.0  0.69035  0.73151  0.17221  1.0000
  H   H1329     1.0  0.79969  0.79299  0.99037  1.0000
  C   C1646     1.0  0.65928  0.57015  0.01477  1.0000
  C   C1647     1.0  0.80044  0.52596  0.47633  1.0000
  C   C1648     1.0  0.78678  0.77961  0.05807  1.0000
  C   C1649     1.0  0.73844  0.83417  0.01432  1.0000
  C   C1650     1.0  0.73150  0.85604  0.02964  1.0000
  C   C1651     1.0  0.72715  0.85630  0.06249  1.0000
  C   C1652     1.0  0.72984  0.83471  0.08007  1.0000
  C   C1653     1.0  0.73696  0.81294  0.06488  1.0000
  C   C1654     1.0  0.90449  0.50278  0.17425  1.0000
  C   C1655     1.0  0.96816  0.90072  0.15013  1.0000
  C   C1656     1.0  0.72056  0.94374  0.09770  1.0000
  Fe  Fe113     1.0  0.93877  0.98042  0.06910  1.0000
  C   C1657     1.0  0.67996  0.75596  0.02179  1.0000
  C   C1658     1.0  0.72997  0.62476  0.10916  1.0000
  H   H1330     1.0  0.75073  0.68722  0.20421  1.0000
  H   H1331     1.0  0.82316  0.73208  0.08189  1.0000
  C   C1659     1.0  0.67165  0.87055  0.31097  1.0000
  C   C1660     1.0  0.96017  0.90003  0.29114  1.0000
  H   H1332     1.0  0.86801  0.84974  0.21836  1.0000
  C   C1661     1.0  0.81130  0.87247  0.07521  1.0000
  C   C1662     1.0  0.77759  0.74262  0.02808  1.0000
  C   C1663     1.0  0.94341  0.90992  0.20765  1.0000
  H   H1333     1.0  0.65462  0.87205  0.35742  1.0000
  H   H1334     1.0  0.68619  0.57601  0.09971  1.0000
  C   C1664     1.0  0.97880  0.90333  0.31374  1.0000
  C   C1665     1.0  0.95772  0.94414  0.28377  1.0000
  H   H1335     1.0  0.72176  0.87317  0.07443  1.0000
  H   H1336     1.0  0.72662  0.83473  0.10562  1.0000
  H   H1337     1.0  0.73907  0.79646  0.07902  1.0000
  H   H1338     1.0  0.80500  0.91138  0.07302  1.0000
  C   C1666     1.0  0.68932  0.52580  0.45182  1.0000
  C   C1667     1.0  0.97932  0.51475  0.11300  1.0000
  P   P55       1.0  0.68840  0.64408  0.13862  1.0000
  C   C1668     1.0  0.70129  0.67035  0.15927  1.0000
  Fe  Fe114     1.0  0.72365  0.62961  0.98762  1.0000
  H   H1339     1.0  0.76234  0.61036  0.08649  1.0000
  C   C1669     1.0  0.68743  0.55127  0.45536  1.0000
  C   C1670     1.0  0.77791  0.55591  0.44479  1.0000
  C   C1671     1.0  0.78095  0.53005  0.04710  1.0000
  C   C1672     1.0  0.72221  0.76512  0.00780  1.0000
  H   H1340     1.0  0.90263  0.48994  0.99609  1.0000
  H   H1341     1.0  0.68881  0.85276  0.41758  1.0000
  P   P56       1.0  0.76394  0.80537  0.44469  1.0000
  C   C1673     1.0  0.75679  0.77858  0.46811  1.0000
  C   C1674     1.0  0.73793  0.81366  0.42011  1.0000
  C   C1675     1.0  0.73413  0.80163  0.39084  1.0000
  C   C1676     1.0  0.71435  0.80806  0.37134  1.0000
  C   C1677     1.0  0.69800  0.82643  0.38105  1.0000
  C   C1678     1.0  0.70151  0.83846  0.41023  1.0000
  C   C1679     1.0  0.72140  0.83211  0.42976  1.0000
  C   C1680     1.0  0.73992  0.76115  0.45680  1.0000
  H   H1342     1.0  0.76062  0.97465  0.09921  1.0000
  C   C1681     1.0  0.74704  0.49739  0.17005  1.0000
  C   C1682     1.0  0.77904  0.97096  0.10743  1.0000
  C   C1683     1.0  0.80180  0.49615  0.25331  1.0000
  C   C1684     1.0  0.78958  0.79793  0.41911  1.0000
  C   C1685     1.0  0.80543  0.77832  0.42645  1.0000
  C   C1686     1.0  0.82486  0.77235  0.40611  1.0000
  C   C1687     1.0  0.82836  0.78563  0.37807  1.0000
  C   C1688     1.0  0.81258  0.80504  0.37049  1.0000
  C   C1689     1.0  0.79338  0.81131  0.39099  1.0000
  C   C1690     1.0  0.87999  0.98589  0.23364  1.0000
  C   C1691     1.0  0.67216  0.86354  0.99462  1.0000
  H   H1343     1.0  0.78456  0.56954  0.04502  1.0000
  H   H1344     1.0  0.66313  0.72618  0.99582  1.0000
  H   H1345     1.0  0.79874  0.84640  0.43939  1.0000
  H   H1346     1.0  0.74654  0.78727  0.38299  1.0000
  H   H1347     1.0  0.71182  0.79879  0.34861  1.0000
  C   C1692     1.0  0.93079  0.91057  0.17850  1.0000
  P   P57       1.0  0.82054  0.49948  0.47878  1.0000
  H   H1348     1.0  0.72375  0.84165  0.45221  1.0000
  H   H1349     1.0  0.73109  0.76319  0.43382  1.0000
  H   H1350     1.0  0.68709  0.96131  0.08235  1.0000
  H   H1351     1.0  0.96502  0.51454  0.04875  1.0000
  H   H1352     1.0  0.83751  0.51044  0.31755  1.0000
  C   C1693     1.0  0.83286  0.49083  0.41535  1.0000
  H   H1353     1.0  0.80250  0.76717  0.44731  1.0000
  H   H1354     1.0  0.83662  0.75679  0.41142  1.0000
  H   H1355     1.0  0.84278  0.78038  0.36165  1.0000
  H   H1356     1.0  0.81463  0.81465  0.34806  1.0000
  H   H1357     1.0  0.78108  0.82612  0.38432  1.0000
  C   C1694     1.0  0.97410  0.53419  0.13417  1.0000
  C   C1695     1.0  0.81023  0.94351  0.12807  1.0000
  C   C1696     1.0  0.73968  0.51424  0.04011  1.0000
  H   H1358     1.0  0.70724  0.51729  0.45000  1.0000
  H   H1359     1.0  0.97449  0.52011  0.21818  1.0000
  S   S228      1.0  0.82296  0.61381  0.47297  1.0000
  C   C1697     1.0  0.75820  0.50122  0.14057  1.0000
  C   C1698     1.0  0.90373  0.98502  0.22139  1.0000
  H   H1360     1.0  0.85719  0.84207  0.27458  1.0000
  H   H1361     1.0  0.95049  0.96021  0.27190  1.0000
  H   H1362     1.0  0.81426  0.83345  0.08304  1.0000
  C   C1699     1.0  0.78920  0.84811  0.46188  1.0000
  C   C1700     1.0  0.70439  0.94144  0.04391  1.0000
  H   H1363     1.0  0.68340  0.51096  0.07920  1.0000
  H   H1364     1.0  0.72624  0.92108  0.01018  1.0000
  C   C1701     1.0  0.73075  0.53847  0.03919  1.0000
  H   H1365     1.0  0.77369  0.56411  0.42191  1.0000
  H   H1366     1.0  0.87666  0.92848  0.26431  1.0000
  C   C1702     1.0  0.70245  0.94980  0.07537  1.0000
  H   H1367     1.0  0.66151  0.91200  0.25219  1.0000
  H   H1368     1.0  0.80789  0.88159  0.47454  1.0000
  C   C1703     1.0  0.66031  0.90339  0.27531  1.0000
  H   H1369     1.0  0.90884  0.89665  0.30501  1.0000
  S   S229      1.0  0.78467  0.67798  0.47489  1.0000
  H   H1370     1.0  0.71915  0.95099  0.12175  1.0000
  C   C1704     1.0  0.73344  0.68878  0.19160  1.0000
  C   C1705     1.0  0.77171  0.83067  0.47095  1.0000
  H   H1371     1.0  0.93286  0.90528  0.12769  1.0000
  C   C1706     1.0  0.77242  0.76737  0.03509  1.0000
  C   C1707     1.0  0.70114  0.76998  0.02605  1.0000
  C   C1708     1.0  0.94941  0.92043  0.27604  1.0000
  C   C1709     1.0  0.88455  0.94404  0.25223  1.0000
  C   C1710     1.0  0.90834  0.94290  0.23950  1.0000
  C   C1711     1.0  0.91771  0.96351  0.22380  1.0000
  P   P58       1.0  0.92719  0.91577  0.24450  1.0000
  C   C1712     1.0  0.68891  0.67413  0.08476  1.0000
  C   C1713     1.0  0.90702  0.89047  0.25395  1.0000
  C   C1714     1.0  0.90074  0.88596  0.28589  1.0000
  C   C1715     1.0  0.88312  0.86831  0.29334  1.0000
  C   C1716     1.0  0.87142  0.85520  0.26900  1.0000
  C   C1717     1.0  0.87758  0.85947  0.23725  1.0000
  C   C1718     1.0  0.89527  0.87698  0.22970  1.0000
  H   H1372     1.0  0.84538  0.78662  0.47708  1.0000
  H   H1373     1.0  0.93593  0.96309  0.21367  1.0000
  H   H1374     1.0  0.68966  0.69728  0.04349  1.0000
  H   H1375     1.0  0.94057  0.51428  0.99970  1.0000
  C   C1719     1.0  0.82000  0.98605  0.11775  1.0000
  C   C1720     1.0  0.93429  0.50419  0.02035  1.0000
  H   H1376     1.0  0.68261  0.83133  0.36595  1.0000
  C   C1721     1.0  0.66116  0.63959  0.08213  1.0000
  S   S230      1.0  0.89691  0.48899  0.32215  1.0000
  C   C1722     1.0  0.94057  0.49052  0.07491  1.0000
  H   H1377     1.0  0.98034  0.96045  0.18497  1.0000
  C   C1723     1.0  0.96878  0.90524  0.20762  1.0000
  H   H1378     1.0  0.67961  0.82716  0.01239  1.0000
  H   H1379     1.0  0.97763  0.89741  0.12784  1.0000
  C   C1724     1.0  0.98626  0.50490  0.22479  1.0000
  H   H1380     1.0  0.77199  0.49164  0.04722  1.0000
  C   C1725     1.0  0.66425  0.66741  0.03747  1.0000
  H   H1381     1.0  0.97929  0.90530  0.22951  1.0000
  H   H1382     1.0  0.67200  0.69524  0.14565  1.0000
  H   H1383     1.0  0.65924  0.67238  0.01333  1.0000
  H   H1384     1.0  0.66681  0.94003  0.42233  1.0000
  H   H1385     1.0  0.66311  0.58216  0.46103  1.0000
  H   H1386     1.0  0.95460  0.88154  0.28487  1.0000
  C   C1726     1.0  0.89557  0.50333  0.47986  1.0000
  C   C1727     1.0  0.82934  0.49952  0.29860  1.0000
  H   H1387     1.0  0.74147  0.83433  0.98883  1.0000
  H   H1388     1.0  0.65864  0.66289  0.19243  1.0000
  S   S231      1.0  0.95622  0.50147  0.27744  1.0000
  Fe  Fe115     1.0  0.93818  0.48938  0.32453  1.0000
  C   C1728     1.0  0.98110  0.90094  0.17891  1.0000
  S   S232      1.0  0.69158  0.60259  0.98750  1.0000
  C   C1729     1.0  0.98151  0.49205  0.25322  1.0000
  H   H1389     1.0  0.68273  0.98253  0.42692  1.0000
  C   C1730     1.0  0.65633  0.88103  0.33460  1.0000
  C   C1731     1.0  0.65801  0.55916  0.07097  1.0000
  C   C1732     1.0  0.87152  0.49537  0.47497  1.0000
  P   P59       1.0  0.71894  0.48865  0.03584  1.0000
  C   C1733     1.0  0.67606  0.83823  0.99143  1.0000
  C   C1734     1.0  0.69175  0.49541  0.09117  1.0000
  C   C1735     1.0  0.97633  0.94734  0.30638  1.0000
  C   C1736     1.0  0.65429  0.64643  0.05127  1.0000
  C   C1737     1.0  0.65357  0.60816  0.15300  1.0000
  C   C1738     1.0  0.91286  0.49040  0.01831  1.0000
  C   C1739     1.0  0.68371  0.48922  0.12168  1.0000
  H   H1390     1.0  0.84931  0.98794  0.46823  1.0000
  C   C1740     1.0  0.91175  0.48961  0.20123  1.0000
  H   H1391     1.0  0.85061  0.62685  0.59259  1.0000
  S   S233      1.0  0.77017  0.63364  0.52318  1.0000
  C   C1741     1.0  0.97442  0.49072  0.62950  1.0000
  Fe  Fe116     1.0  0.74417  0.67443  0.95140  1.0000
  C   C1742     1.0  0.68682  0.88359  0.78140  1.0000
  S   S234      1.0  0.73020  0.70054  0.91222  1.0000
  H   H1392     1.0  0.72917  0.72008  0.70526  1.0000
  C   C1743     1.0  0.88039  0.53907  0.50821  1.0000
  Fe  Fe117     1.0  0.76476  0.67457  0.52171  1.0000
  S   S235      1.0  0.77990  0.69707  0.56383  1.0000
  S   S236      1.0  0.74601  0.63342  0.94266  1.0000
  H   H1393     1.0  0.77240  0.75051  0.53798  1.0000
  Fe  Fe118     1.0  0.73359  0.83965  0.74624  1.0000
  S   S237      1.0  0.77005  0.83984  0.77169  1.0000
  S   S238      1.0  0.70148  0.86709  0.74979  1.0000
  Fe  Fe119     1.0  0.74872  0.79561  0.70389  1.0000
  S   S239      1.0  0.78582  0.79266  0.72684  1.0000
  S   S240      1.0  0.73206  0.77114  0.66500  1.0000
  Fe  Fe120     1.0  0.76619  0.79845  0.77355  1.0000
  S   S241      1.0  0.78031  0.77736  0.81747  1.0000
  Fe  Fe121     1.0  0.78717  0.83413  0.72331  1.0000
  S   S242      1.0  0.82452  0.85109  0.71128  1.0000
  S   S243      1.0  0.72871  0.79860  0.75085  1.0000
  S   S244      1.0  0.75109  0.83663  0.69749  1.0000
  C   C1744     1.0  0.79013  0.53613  0.50415  1.0000
  S   S245      1.0  0.96823  0.95589  0.53964  1.0000
  Fe  Fe122     1.0  0.89881  0.96150  0.62020  1.0000
  S   S246      1.0  0.86346  0.93867  0.62321  1.0000
  C   C1745     1.0  0.85163  0.50953  0.48604  1.0000
  S   S247      1.0  0.93895  0.95168  0.62459  1.0000
  H   H1394     1.0  0.69535  0.54708  0.52655  1.0000
  S   S248      1.0  0.93463  0.52229  0.86744  1.0000
  Fe  Fe123     1.0  0.89394  0.51599  0.86145  1.0000
  S   S249      1.0  0.86192  0.54381  0.86074  1.0000
  C   C1746     1.0  0.70019  0.83096  0.87737  1.0000
  S   S250      1.0  0.96306  0.51184  0.78093  1.0000
  H   H1395     1.0  0.76546  0.56360  0.52338  1.0000
  C   C1747     1.0  0.68155  0.89470  0.83740  1.0000
  C   C1748     1.0  0.73090  0.81788  0.83907  1.0000
  H   H1396     1.0  0.75520  0.57015  0.76387  1.0000
  C   C1749     1.0  0.67641  0.75269  0.90634  1.0000
  C   C1750     1.0  0.74004  0.85077  0.87610  1.0000
  H   H1397     1.0  0.71732  0.50016  0.50751  1.0000
  C   C1751     1.0  0.77184  0.97149  0.61481  1.0000
  C   C1752     1.0  0.70968  0.49722  0.53096  1.0000
  C   C1753     1.0  0.83460  0.87603  0.68719  1.0000
  C   C1754     1.0  0.81895  0.88865  0.66633  1.0000
  C   C1755     1.0  0.82813  0.90775  0.64707  1.0000
  C   C1756     1.0  0.85290  0.91489  0.64884  1.0000
  C   C1757     1.0  0.86846  0.90245  0.66992  1.0000
  C   C1758     1.0  0.85940  0.88303  0.68870  1.0000
  H   H1398     1.0  0.79985  0.88362  0.66499  1.0000
  H   H1399     1.0  0.81596  0.91721  0.63083  1.0000
  H   H1400     1.0  0.88755  0.90757  0.67147  1.0000
  H   H1401     1.0  0.87169  0.87341  0.70467  1.0000
  C   C1759     1.0  0.82647  0.59150  0.94027  1.0000
  C   C1760     1.0  0.81560  0.58950  0.91009  1.0000
  C   C1761     1.0  0.82654  0.57463  0.88626  1.0000
  C   C1762     1.0  0.84843  0.56150  0.89220  1.0000
  C   C1763     1.0  0.85913  0.56333  0.92247  1.0000
  C   C1764     1.0  0.84825  0.57828  0.94624  1.0000
  H   H1402     1.0  0.79882  0.59940  0.90510  1.0000
  H   H1403     1.0  0.81796  0.57327  0.86306  1.0000
  H   H1404     1.0  0.87595  0.55347  0.92747  1.0000
  H   H1405     1.0  0.77385  0.58837  0.66744  1.0000
  C   C1765     1.0  0.76615  0.71757  0.59173  1.0000
  C   C1766     1.0  0.78103  0.72886  0.61498  1.0000
  C   C1767     1.0  0.77109  0.74564  0.63727  1.0000
  C   C1768     1.0  0.74596  0.75080  0.63705  1.0000
  C   C1769     1.0  0.73107  0.73932  0.61399  1.0000
  C   C1770     1.0  0.74109  0.72295  0.59131  1.0000
  H   H1406     1.0  0.80038  0.72455  0.61583  1.0000
  H   H1407     1.0  0.78278  0.75434  0.65483  1.0000
  H   H1408     1.0  0.71161  0.74319  0.61363  1.0000
  H   H1409     1.0  0.72935  0.71435  0.57375  1.0000
  C   C1771     1.0  0.74474  0.72145  0.88579  1.0000
  C   C1772     1.0  0.73096  0.73181  0.86070  1.0000
  C   C1773     1.0  0.74145  0.74884  0.83949  1.0000
  C   C1774     1.0  0.76591  0.75586  0.84323  1.0000
  C   C1775     1.0  0.77966  0.74551  0.86830  1.0000
  C   C1776     1.0  0.76921  0.72839  0.88942  1.0000
  H   H1410     1.0  0.71207  0.72645  0.85744  1.0000
  H   H1411     1.0  0.73063  0.75648  0.82027  1.0000
  H   H1412     1.0  0.79853  0.75094  0.87158  1.0000
  H   H1413     1.0  0.77999  0.72074  0.90868  1.0000
  H   H1414     1.0  0.72584  0.60283  0.65441  1.0000
  C   C1777     1.0  0.66866  0.60215  0.54165  1.0000
  C   C1778     1.0  0.68628  0.58538  0.53090  1.0000
  C   C1779     1.0  0.67439  0.51903  0.96762  1.0000
  H   H1415     1.0  0.67110  0.62153  0.53713  1.0000
  H   H1416     1.0  0.75261  0.86451  0.88512  1.0000
  C   C1780     1.0  0.69428  0.88170  0.81326  1.0000
  C   C1781     1.0  0.85384  0.95338  0.53531  1.0000
  H   H1417     1.0  0.70972  0.87009  0.81927  1.0000
  H   H1418     1.0  0.72612  0.67823  0.68271  1.0000
  C   C1782     1.0  0.76533  0.84549  0.61809  1.0000
  S   S251      1.0  0.72714  0.67109  0.49956  1.0000
  C   C1783     1.0  0.84676  0.87735  0.55717  1.0000
  C   C1784     1.0  0.82202  0.73492  0.77334  1.0000
  C   C1785     1.0  0.84375  0.72953  0.75721  1.0000
  C   C1786     1.0  0.85491  0.70651  0.76083  1.0000
  C   C1787     1.0  0.84441  0.68890  0.78074  1.0000
  C   C1788     1.0  0.82247  0.69414  0.79684  1.0000
  C   C1789     1.0  0.81143  0.71734  0.79309  1.0000
  P   P60       1.0  0.80937  0.67221  0.82406  1.0000
  C   C1790     1.0  0.77642  0.67244  0.81910  1.0000
  C   C1791     1.0  0.82076  0.64167  0.81499  1.0000
  C   C1792     1.0  0.80874  0.62678  0.79246  1.0000
  C   C1793     1.0  0.81717  0.60287  0.78631  1.0000
  C   C1794     1.0  0.83763  0.59369  0.80257  1.0000
  C   C1795     1.0  0.84998  0.60857  0.82449  1.0000
  C   C1796     1.0  0.84177  0.63253  0.83049  1.0000
  C   C1797     1.0  0.76097  0.66696  0.84477  1.0000
  C   C1798     1.0  0.73553  0.66741  0.84080  1.0000
  C   C1799     1.0  0.72527  0.67368  0.81140  1.0000
  C   C1800     1.0  0.74047  0.67904  0.78565  1.0000
  C   C1801     1.0  0.76593  0.67814  0.78932  1.0000
  C   C1802     1.0  0.81770  0.68011  0.86464  1.0000
  C   C1803     1.0  0.82695  0.70350  0.87220  1.0000
  C   C1804     1.0  0.83381  0.70923  0.90352  1.0000
  C   C1805     1.0  0.83177  0.69160  0.92745  1.0000
  C   C1806     1.0  0.82285  0.66825  0.92007  1.0000
  C   C1807     1.0  0.81567  0.66253  0.88892  1.0000
  H   H1419     1.0  0.81350  0.75290  0.77100  1.0000
  H   H1420     1.0  0.85200  0.74332  0.74220  1.0000
  H   H1421     1.0  0.87192  0.70244  0.74860  1.0000
  H   H1422     1.0  0.85359  0.67137  0.78376  1.0000
  H   H1423     1.0  0.79482  0.72204  0.80587  1.0000
  H   H1424     1.0  0.79277  0.63349  0.77988  1.0000
  H   H1425     1.0  0.80768  0.59128  0.76930  1.0000
  H   H1426     1.0  0.84385  0.57493  0.79866  1.0000
  H   H1427     1.0  0.86560  0.60119  0.83745  1.0000
  H   H1428     1.0  0.85166  0.64366  0.84766  1.0000
  H   H1429     1.0  0.76829  0.66279  0.86812  1.0000
  H   H1430     1.0  0.72377  0.66364  0.86098  1.0000
  H   H1431     1.0  0.70554  0.67473  0.80878  1.0000
  H   H1432     1.0  0.73249  0.68428  0.76300  1.0000
  H   H1433     1.0  0.77736  0.68227  0.76903  1.0000
  H   H1434     1.0  0.82879  0.71748  0.85417  1.0000
  H   H1435     1.0  0.84066  0.72738  0.90925  1.0000
  H   H1436     1.0  0.68734  0.89288  0.86194  1.0000
  H   H1437     1.0  0.67846  0.80753  0.95935  1.0000
  H   H1438     1.0  0.80878  0.64428  0.88384  1.0000
  C   C1808     1.0  0.74725  0.83522  0.85124  1.0000
  H   H1439     1.0  0.73643  0.80594  0.81970  1.0000
  H   H1440     1.0  0.76552  0.83657  0.84138  1.0000
  H   H1441     1.0  0.66076  0.90058  0.74955  1.0000
  C   C1809     1.0  0.70018  0.53880  0.64531  1.0000
  C   C1810     1.0  0.93985  0.97111  0.77025  1.0000
  C   C1811     1.0  0.81182  0.62553  0.65610  1.0000
  C   C1812     1.0  0.83399  0.62925  0.60638  1.0000
  C   C1813     1.0  0.70751  0.81567  0.85205  1.0000
  H   H1442     1.0  0.84938  0.61412  0.64938  1.0000
  C   C1814     1.0  0.85627  0.53141  0.50285  1.0000
  C   C1815     1.0  0.70917  0.50649  0.58776  1.0000
  H   H1443     1.0  0.74317  0.61352  0.77412  1.0000
  H   H1444     1.0  0.73490  0.52168  0.55382  1.0000
  C   C1816     1.0  0.74402  0.68546  0.68859  1.0000
  C   C1817     1.0  0.87547  0.86676  0.59900  1.0000
  C   C1818     1.0  0.66707  0.86687  0.93738  1.0000
  H   H1445     1.0  0.81183  0.62048  0.68103  1.0000
  C   C1819     1.0  0.71659  0.84873  0.88911  1.0000
  C   C1820     1.0  0.74677  0.82878  0.61077  1.0000
  C   C1821     1.0  0.81336  0.63990  0.59224  1.0000
  H   H1446     1.0  0.89060  0.87186  0.61443  1.0000
  C   C1822     1.0  0.83323  0.62206  0.63831  1.0000
  C   C1823     1.0  0.72502  0.49033  0.67562  1.0000
  H   H1447     1.0  0.79493  0.52902  0.52741  1.0000
  C   C1824     1.0  0.83525  0.85461  0.56079  1.0000
  H   H1448     1.0  0.71235  0.52103  0.98050  1.0000
  C   C1825     1.0  0.65401  0.91195  0.79818  1.0000
  H   H1449     1.0  0.82151  0.65452  0.93858  1.0000
  C   C1826     1.0  0.82383  0.76356  0.55962  1.0000
  H   H1450     1.0  0.91869  0.53136  0.49997  1.0000
  H   H1451     1.0  0.76950  0.73737  0.71948  1.0000
  C   C1827     1.0  0.70006  0.61806  0.62143  1.0000
  Fe  Fe124     1.0  0.73410  0.63002  0.49781  1.0000
  C   C1828     1.0  0.83317  0.75550  0.50418  1.0000
  P   P61       1.0  0.67021  0.82730  0.89487  1.0000
  H   H1452     1.0  0.69813  0.57598  0.71112  1.0000
  C   C1829     1.0  0.83922  0.78023  0.50013  1.0000
  C   C1830     1.0  0.78237  0.79738  0.91271  1.0000
  C   C1831     1.0  0.67562  0.54102  0.63567  1.0000
  C   C1832     1.0  0.74451  0.54375  0.61048  1.0000
  C   C1833     1.0  0.73647  0.56444  0.59342  1.0000
  C   C1834     1.0  0.75313  0.58229  0.58378  1.0000
  C   C1835     1.0  0.77801  0.57956  0.59082  1.0000
  C   C1836     1.0  0.78614  0.55928  0.60834  1.0000
  C   C1837     1.0  0.76944  0.54150  0.61843  1.0000
  H   H1453     1.0  0.66597  0.83411  0.82517  1.0000
  C   C1838     1.0  0.75004  0.60810  0.75085  1.0000
  H   H1454     1.0  0.80502  0.67159  0.68635  1.0000
  H   H1455     1.0  0.92866  0.98492  0.88535  1.0000
  H   H1456     1.0  0.77622  0.65142  0.59819  1.0000
  C   C1839     1.0  0.72141  0.61862  0.63998  1.0000
  H   H1457     1.0  0.84260  0.81561  0.52206  1.0000
  C   C1840     1.0  0.76750  0.59412  0.69078  1.0000
  C   C1841     1.0  0.76127  0.61882  0.69663  1.0000
  S   S252      1.0  0.90374  0.98036  0.57272  1.0000
  C   C1842     1.0  0.90002  0.52513  0.49654  1.0000
  H   H1458     1.0  0.68832  0.60202  0.62160  1.0000
  H   H1459     1.0  0.66885  0.53183  0.61454  1.0000
  C   C1843     1.0  0.66738  0.56806  0.68054  1.0000
  H   H1460     1.0  0.74670  0.59803  0.57023  1.0000
  H   H1461     1.0  0.79096  0.59309  0.58243  1.0000
  H   H1462     1.0  0.77609  0.52617  0.63234  1.0000
  H   H1463     1.0  0.77061  0.55769  0.71052  1.0000
  C   C1844     1.0  0.87158  0.76812  0.64793  1.0000
  C   C1845     1.0  0.86359  0.77486  0.67838  1.0000
  C   C1846     1.0  0.84394  0.79119  0.68185  1.0000
  C   C1847     1.0  0.83217  0.80076  0.65494  1.0000
  C   C1848     1.0  0.84008  0.79411  0.62426  1.0000
  C   C1849     1.0  0.86007  0.77792  0.62097  1.0000
  H   H1464     1.0  0.69105  0.73933  0.90932  1.0000
  H   H1465     1.0  0.67695  0.63807  0.58882  1.0000
  H   H1466     1.0  0.98145  0.96857  0.80705  1.0000
  C   C1850     1.0  0.76839  0.71889  0.70976  1.0000
  H   H1467     1.0  0.79010  0.79970  0.88910  1.0000
  C   C1851     1.0  0.78970  0.70522  0.70422  1.0000
  H   H1468     1.0  0.74522  0.82099  0.50714  1.0000
  C   C1852     1.0  0.66670  0.89892  0.77408  1.0000
  H   H1469     1.0  0.98569  0.51863  0.84433  1.0000
  H   H1470     1.0  0.75617  0.91351  0.63681  1.0000
  H   H1471     1.0  0.85687  0.57969  0.96943  1.0000
  H   H1472     1.0  0.67612  0.53222  0.94847  1.0000
  H   H1473     1.0  0.71647  0.98521  0.49206  1.0000
  H   H1474     1.0  0.93821  0.94761  0.72891  1.0000
  C   C1853     1.0  0.66773  0.87786  0.96759  1.0000
  C   C1854     1.0  0.65931  0.55550  0.65339  1.0000
  C   C1855     1.0  0.79577  0.81699  0.59696  1.0000
  C   C1856     1.0  0.76549  0.57667  0.71503  1.0000
  H   H1475     1.0  0.86715  0.77326  0.59760  1.0000
  H   H1476     1.0  0.88706  0.75576  0.64521  1.0000
  H   H1477     1.0  0.87297  0.76791  0.69927  1.0000
  H   H1478     1.0  0.83823  0.79711  0.70542  1.0000
  H   H1479     1.0  0.81744  0.81392  0.65831  1.0000
  P   P62       1.0  0.82753  0.80927  0.58962  1.0000
  H   H1480     1.0  0.66387  0.87834  0.91662  1.0000
  H   H1481     1.0  0.81941  0.85025  0.54636  1.0000
  C   C1857     1.0  0.78825  0.68170  0.69071  1.0000
  H   H1482     1.0  0.65459  0.57923  0.69411  1.0000
  C   C1858     1.0  0.75717  0.79411  0.91614  1.0000
  C   C1859     1.0  0.73508  0.49646  0.64590  1.0000
  H   H1483     1.0  0.80737  0.71309  0.70984  1.0000
  C   C1860     1.0  0.97515  0.53334  0.64716  1.0000
  C   C1861     1.0  0.75217  0.62561  0.72671  1.0000
  C   C1862     1.0  0.84391  0.83767  0.58337  1.0000
  C   C1863     1.0  0.69372  0.63826  0.60263  1.0000
  H   H1484     1.0  0.76092  0.86256  0.63024  1.0000
  S   S253      1.0  0.71360  0.59457  0.51114  1.0000
  C   C1864     1.0  0.86407  0.84399  0.60262  1.0000
  H   H1485     1.0  0.73740  0.74170  0.97056  1.0000
  C   C1865     1.0  0.91017  0.96313  0.81160  1.0000
  H   H1486     1.0  0.87077  0.83180  0.62102  1.0000
  H   H1487     1.0  0.81794  0.75673  0.58253  1.0000
  H   H1488     1.0  0.72353  0.48863  0.91652  1.0000
  H   H1489     1.0  0.72796  0.83281  0.61731  1.0000
  H   H1490     1.0  0.84391  0.48907  0.84014  1.0000
  H   H1491     1.0  0.94952  0.50676  0.66412  1.0000
  C   C1866     1.0  0.75677  0.58366  0.74506  1.0000
  H   H1492     1.0  0.81402  0.64591  0.56760  1.0000
  C   C1867     1.0  0.92970  0.97720  0.79997  1.0000
  H   H1493     1.0  0.74560  0.79363  0.89517  1.0000
  H   H1494     1.0  0.69522  0.80195  0.84232  1.0000
  H   H1495     1.0  0.90342  0.92304  0.74948  1.0000
  H   H1496     1.0  0.66511  0.97462  0.86083  1.0000
  C   C1868     1.0  0.83287  0.96164  0.55116  1.0000
  C   C1869     1.0  0.83750  0.79670  0.52580  1.0000
  H   H1497     1.0  0.83994  0.89051  0.53996  1.0000
  H   H1498     1.0  0.80393  0.85238  0.61844  1.0000
  C   C1870     1.0  0.79083  0.63587  0.64187  1.0000
  C   C1871     1.0  0.98553  0.97778  0.82932  1.0000
  C   C1872     1.0  0.91086  0.93797  0.76368  1.0000
  H   H1499     1.0  0.84138  0.54296  0.51115  1.0000
  C   C1873     1.0  0.66124  0.90978  0.83008  1.0000
  C   C1874     1.0  0.76539  0.67167  0.68255  1.0000
  C   C1875     1.0  0.76914  0.92368  0.59016  1.0000
  H   H1500     1.0  0.71727  0.56671  0.58728  1.0000
  C   C1876     1.0  0.79184  0.64307  0.60981  1.0000
  H   H1501     1.0  0.87557  0.90117  0.57409  1.0000
  S   S254      1.0  0.89873  0.49469  0.81540  1.0000
  H   H1502     1.0  0.74178  0.67554  0.61939  1.0000
  H   H1503     1.0  0.78616  0.88661  0.52607  1.0000
  C   C1877     1.0  0.93042  0.95172  0.75211  1.0000
  H   H1504     1.0  0.88567  0.93288  0.80244  1.0000
  C   C1878     1.0  0.70897  0.65877  0.60169  1.0000
  C   C1879     1.0  0.86687  0.88339  0.57628  1.0000
  C   C1880     1.0  0.82551  0.74718  0.53393  1.0000
  H   H1505     1.0  0.87648  0.95696  0.49365  1.0000
  C   C1881     1.0  0.73028  0.65939  0.62019  1.0000
  H   H1506     1.0  0.70422  0.67428  0.58673  1.0000
  H   H1507     1.0  0.71144  0.86115  0.90812  1.0000
  H   H1508     1.0  0.78089  0.78253  0.57941  1.0000
  H   H1509     1.0  0.82069  0.72799  0.53707  1.0000
  H   H1510     1.0  0.70094  0.78308  0.90313  1.0000
  C   C1882     1.0  0.68222  0.56015  0.53570  1.0000
  P   P63       1.0  0.76340  0.64122  0.66507  1.0000
  C   C1883     1.0  0.74559  0.70905  0.70184  1.0000
  H   H1511     1.0  0.74665  0.64436  0.73161  1.0000
  H   H1512     1.0  0.75843  0.95583  0.65850  1.0000
  C   C1884     1.0  0.78974  0.83960  0.61139  1.0000
  C   C1885     1.0  0.73655  0.63946  0.63979  1.0000
  C   C1886     1.0  0.90083  0.94359  0.79349  1.0000
  H   H1513     1.0  0.86604  0.94041  0.54689  1.0000
  C   C1887     1.0  0.74707  0.79084  0.94639  1.0000
  H   H1514     1.0  0.81714  0.79961  0.93687  1.0000
  P   P64       1.0  0.72223  0.52121  0.62250  1.0000
  H   H1515     1.0  0.73823  0.79304  0.59169  1.0000
  C   C1888     1.0  0.68196  0.77758  0.90275  1.0000
  C   C1889     1.0  0.82964  0.78851  0.55579  1.0000
  H   H1516     1.0  0.88386  0.55627  0.52053  1.0000
  C   C1890     1.0  0.70819  0.55162  0.67254  1.0000
  C   C1891     1.0  0.79757  0.79719  0.93959  1.0000
  C   C1892     1.0  0.76351  0.95228  0.63393  1.0000
  C   C1893     1.0  0.71952  0.50955  0.55739  1.0000
  C   C1894     1.0  0.75257  0.80632  0.59635  1.0000
  C   C1895     1.0  0.78209  0.87106  0.51073  1.0000
  H   H1517     1.0  0.78313  0.93890  0.54672  1.0000
  C   C1896     1.0  0.77750  0.94285  0.57095  1.0000
  C   C1897     1.0  0.77695  0.80038  0.58952  1.0000
  Fe  Fe125     1.0  0.94430  0.97335  0.57899  1.0000
  H   H1518     1.0  0.82915  0.95472  0.57482  1.0000
  H   H1519     1.0  0.78241  0.78718  0.50618  1.0000
  Fe  Fe126     1.0  0.77891  0.63379  0.97506  1.0000
  C   C1898     1.0  0.67533  0.82715  0.96127  1.0000
  H   H1520     1.0  0.96813  0.54787  0.66238  1.0000
  H   H1521     1.0  0.83709  0.69596  0.95175  1.0000
  C   C1899     1.0  0.76324  0.75375  0.51546  1.0000
  C   C1900     1.0  0.77907  0.96690  0.58321  1.0000
  S   S255      1.0  0.77861  0.67527  0.98143  1.0000
  C   C1901     1.0  0.84449  0.98030  0.49117  1.0000
  C   C1902     1.0  0.66313  0.79500  0.89855  1.0000
  H   H1522     1.0  0.80544  0.55735  0.61396  1.0000
  H   H1523     1.0  0.69996  0.71737  0.96342  1.0000
  C   C1903     1.0  0.76223  0.92839  0.62168  1.0000
  C   C1904     1.0  0.70029  0.73211  0.98089  1.0000
  H   H1524     1.0  0.95487  0.98167  0.76084  1.0000
  C   C1905     1.0  0.67058  0.84137  0.93402  1.0000
  C   C1906     1.0  0.76871  0.77452  0.49740  1.0000
  C   C1907     1.0  0.69186  0.56618  0.69010  1.0000
  H   H1525     1.0  0.76837  0.90510  0.58086  1.0000
  Fe  Fe127     1.0  0.93955  0.49839  0.82322  1.0000
  C   C1908     1.0  0.85976  0.96280  0.50541  1.0000
  C   C1909     1.0  0.75923  0.83386  0.49997  1.0000
  H   H1526     1.0  0.70968  0.50052  0.68536  1.0000
  C   C1910     1.0  0.78759  0.79341  0.96987  1.0000
  H   H1527     1.0  0.72711  0.55032  0.68012  1.0000
  H   H1528     1.0  0.72749  0.78856  0.94857  1.0000
  C   C1911     1.0  0.96486  0.50985  0.64840  1.0000
  C   C1912     1.0  0.76227  0.78991  0.97342  1.0000
  H   H1529     1.0  0.75512  0.85592  0.54244  1.0000
  H   H1530     1.0  0.74619  0.96991  0.53175  1.0000
  C   C1913     1.0  0.76463  0.85381  0.51993  1.0000
  S   S256      1.0  0.81396  0.61036  0.97126  1.0000
  C   C1914     1.0  0.72158  0.74594  0.98520  1.0000
  C   C1915     1.0  0.74616  0.73677  0.50429  1.0000
  C   C1916     1.0  0.81751  0.97939  0.53718  1.0000
  C   C1917     1.0  0.66123  0.55171  0.55178  1.0000
  H   H1531     1.0  0.90195  0.96722  0.83444  1.0000
  H   H1532     1.0  0.74221  0.72059  0.51819  1.0000
  C   C1918     1.0  0.77351  0.55571  0.50211  1.0000
  H   H1533     1.0  0.66466  0.89749  0.96991  1.0000
  H   H1534     1.0  0.65843  0.53222  0.55511  1.0000
  C   C1919     1.0  0.68973  0.49001  0.59145  1.0000
  H   H1535     1.0  0.98668  0.96509  0.64398  1.0000
  H   H1536     1.0  0.98666  0.53211  0.72571  1.0000
  Fe  Fe128     1.0  0.94366  0.98835  0.64969  1.0000
  C   C1920     1.0  0.74867  0.98803  0.52186  1.0000
