data_image0
_chemical_formula_structural       FeS2FeSHFeSFeS3FeS2FeHFeSC3FeC2HC3H2C2HCHSCHC6H4C7H4C5PC10H2PH7CH2CHCHC3HCHCHC5PHC6H2C9H8CH5C5H2C3HC2H2C3HC2HCH4CH4CH2CH4C4HCH2CH2CHCSHCSH2CH4C2H2CH2C4H2CFeS2C2HFeS2FeSCFeHFeSHSHC2H2C2H4C2HC2H3CH2C2SC4HC2HCH3CPC2HC4PC11HC3HC2H8CH2C3H3C4HCHC2H2C5PC4HCHC11H2CH2CH10C5H2FeCHC2H4SHCSC3HCH5C3FePSCHSFeHSFeS2FeSFeCS3H5C4PCHCH3C7H5SCHC7PC5HCHC3H7CH3CH3C3HC3HCH3CH2CH2C6HC3H2CH2CHC2HC3H2CH3CH2CHCHC3H3CHCHC2HC2H2SC2HCHCHCH2CHSH2C7HC4H2PFeCHC3HC2HCH2CS2HCFeCSC2HC2HCSH2C2SHC2SC3SCHCH5PC5SC5H2SH4C3HCH2C3H6CHC4HC5H8CH2C2HCH2C4SCHCH2CSCHFeS2FeHFeS2C6H2CHCSCH5C3HC2HC3HCHCHCH3SC2HC2H8C6H3CHC3PC10FeC3HC3HCH7CHCPH4SC4HCH2C2H2CHC2H3C2H5SC2H2CH3C2HCHCHCH2CFeSCHSFeCFeSHSFeSH2FeS2C6H4PC2HSC3HC2HFeHC7HC6PC7HC4HC2H8CH3C4H4CHC2H5CH3CHCH2CHSCHC9HCHC2H3SC3H7C2HFeC3HPC5HC2HC4H2CH5C3HC2HCHC2H2C3HFeSC2FeSCFeSCFeS2Fe2SCSH2C7H5CH2PHC2H2C2HSCH4CH6C2H2CSC3HC2H6CHC7SPC3HCPC2H5CHC2H2SC2HPC2HCHCH2C5H3CH3CHC4HCH3C11HC3SC3FeH5C2H2CH2C2HC2HCHC9H5C2HSHSH2FeHCSCFeS2C5H2CHC2HCSC3SH2CHFeC3HC2H2C2HC7H3CH5C2H3CH11PC2SC2H3CH2C2SCHCHC6PC4SHCH4C3FeC3HCH2CH3CH2CHCHCHFeS2CH2C2HCHC4HCH2C3HCHCH3CHCH2CH2CH2C3SCH2C4H4C2H3CH3C2H3C6PHC2H2C2HCH2SCHC2HC4H2C2FeHCFeS2Fe2HS2FeCHFeS2FeHFeCS2FeS2HC3HSC2HC2HC4SHC6H4PSHC2H2SC4H5C4HC3HSH3CHC2H2C3HC4HCHC2H2CHC6PC3H2C13H5C2H12C2HCH2C7PHC6HCH2C4HSHCHCH3C4HC2HPHC2H4CH2C2PC3HCH4CH2C2HCH2CFeCHSFeHFeS2CSH3FeSHCSFeS2FeSFeCHCHC11H3CHC4HPHFeC3H2C2FeC2SHC2SH2CHC6PC18H17C3HC2H2C3SHC2HCH2C2H2CHC3H2CHC2HPHCH4C2H2C6HC3S2C2HC2H5CHC3HCHC3H2C2H3CH4C3H3PCH2C5SC3HC3SHCHFeC2HC2SCSHFeS2FeSHFeSFeCSHFeS2FeSFeHFeCS2C3SH2FeHC2HCHCH2CHCH2C6H4C2SH3CHCH4C7PC11HCHCSHCH4C2HCH2C3PC4HC16H5CH3C3HC3HCH2CH2SCH2CHC2HC4H2C4HC2HCH2C2SH3CHCHCH3PHC2HCHCHSH3PC2SCSHSHCH2SH4C
_chemical_formula_sum              "Fe72 S144 H864 C1080 P36"
_cell_length_a       36.1475
_cell_length_b       35.9505
_cell_length_c       47.747
_cell_angle_alpha    90.0634
_cell_angle_beta     90.0287
_cell_angle_gamma    120.026

_space_group_name_H-M_alt    "P 1"
_space_group_IT_number       1

loop_
  _space_group_symop_operation_xyz
  'x, y, z'

loop_
  _atom_site_type_symbol
  _atom_site_label
  _atom_site_symmetry_multiplicity
  _atom_site_fract_x
  _atom_site_fract_y
  _atom_site_fract_z
  _atom_site_occupancy
  Fe  Fe1       1.0  0.18812  0.23256  0.27497  1.0000
  S   S1        1.0  0.24229  0.26158  0.24349  1.0000
  S   S2        1.0  0.13439  0.24990  0.27530  1.0000
  Fe  Fe2       1.0  0.21739  0.17030  0.29642  1.0000
  S   S3        1.0  0.27337  0.19531  0.26723  1.0000
  H   H1        1.0  0.22599  0.04923  0.27942  1.0000
  Fe  Fe3       1.0  0.28300  0.26051  0.27882  1.0000
  S   S4        1.0  0.35117  0.31064  0.28974  1.0000
  Fe  Fe4       1.0  0.22873  0.19411  0.23410  1.0000
  S   S5        1.0  0.22355  0.17079  0.18846  1.0000
  S   S6        1.0  0.23017  0.23550  0.31073  1.0000
  S   S7        1.0  0.17130  0.16513  0.26269  1.0000
  Fe  Fe5       1.0  0.28550  0.03717  0.07768  1.0000
  S   S8        1.0  0.34506  0.07139  0.05122  1.0000
  S   S9        1.0  0.28780  0.05579  0.12424  1.0000
  Fe  Fe6       1.0  0.30082  0.07081  0.01758  1.0000
  H   H2        1.0  0.03056  0.30458  0.25233  1.0000
  Fe  Fe7       1.0  0.33033  0.00636  0.03451  1.0000
  S   S10       1.0  0.24254  0.03997  0.04476  1.0000
  C   C1        1.0  0.45065  0.38777  0.25151  1.0000
  C   C2        1.0  0.99443  0.24716  0.02429  1.0000
  C   C3        1.0  0.21384  0.01935  0.23854  1.0000
  Fe  Fe8       1.0  0.23516  0.97749  0.02857  1.0000
  C   C4        1.0  0.31303  0.06202  0.25678  1.0000
  C   C5        1.0  0.37317  0.06585  0.28185  1.0000
  H   H3        1.0  0.36232  0.31467  0.08138  1.0000
  C   C6        1.0  0.43019  0.40882  0.24062  1.0000
  C   C7        1.0  0.00090  0.30238  0.24554  1.0000
  C   C8        1.0  0.04914  0.31958  0.01127  1.0000
  H   H4        1.0  0.41562  0.36567  0.04776  1.0000
  H   H5        1.0  0.09914  0.19257  0.20594  1.0000
  C   C9        1.0  0.99501  0.37185  0.12815  1.0000
  C   C10       1.0  0.26106  0.98079  0.19377  1.0000
  H   H6        1.0  0.99376  0.15411  0.31993  1.0000
  C   C11       1.0  0.30875  0.99718  0.27524  1.0000
  H   H7        1.0  0.26978  0.26075  0.01437  1.0000
  S   S11       1.0  0.97771  0.35950  0.32901  1.0000
  C   C12       1.0  0.06450  0.43604  0.13154  1.0000
  H   H8        1.0  0.39558  0.39223  0.23985  1.0000
  C   C13       1.0  0.24157  0.13845  0.17122  1.0000
  C   C14       1.0  0.26827  0.12586  0.18426  1.0000
  C   C15       1.0  0.28180  0.10051  0.16963  1.0000
  C   C16       1.0  0.26910  0.08741  0.14172  1.0000
  C   C17       1.0  0.24222  0.09985  0.12873  1.0000
  C   C18       1.0  0.22864  0.12515  0.14337  1.0000
  H   H9        1.0  0.27845  0.13557  0.20565  1.0000
  H   H10       1.0  0.30268  0.09138  0.17997  1.0000
  H   H11       1.0  0.23223  0.09029  0.10730  1.0000
  H   H12       1.0  0.20810  0.13457  0.13292  1.0000
  C   C19       1.0  0.36770  0.36350  0.30103  1.0000
  C   C20       1.0  0.31161  0.28483  0.05066  1.0000
  C   C21       1.0  0.33711  0.16530  0.09649  1.0000
  C   C22       1.0  0.99616  0.14935  0.29775  1.0000
  C   C23       1.0  0.11596  0.27409  0.30055  1.0000
  C   C24       1.0  0.07990  0.27791  0.29414  1.0000
  C   C25       1.0  0.10661  0.27130  0.12699  1.0000
  H   H13       1.0  0.06389  0.26570  0.27431  1.0000
  H   H14       1.0  0.03161  0.38993  0.19549  1.0000
  H   H15       1.0  0.09227  0.45190  0.17280  1.0000
  H   H16       1.0  0.06307  0.16923  0.30079  1.0000
  C   C26       1.0  0.37283  0.34170  0.01250  1.0000
  C   C27       1.0  0.27246  0.11080  0.32277  1.0000
  C   C28       1.0  0.03143  0.23208  0.19810  1.0000
  C   C29       1.0  0.04288  0.22173  0.17231  1.0000
  C   C30       1.0  0.01121  0.18850  0.15601  1.0000
  P   P1        1.0  0.09807  0.24712  0.16128  1.0000
  C   C31       1.0  0.13090  0.29085  0.18477  1.0000
  C   C32       1.0  0.11139  0.20494  0.16160  1.0000
  C   C33       1.0  0.12223  0.19151  0.13678  1.0000
  C   C34       1.0  0.13046  0.15743  0.13726  1.0000
  C   C35       1.0  0.12735  0.13615  0.16236  1.0000
  C   C36       1.0  0.11608  0.14894  0.18704  1.0000
  C   C37       1.0  0.10779  0.18296  0.18664  1.0000
  C   C38       1.0  0.30109  0.28391  0.02223  1.0000
  C   C39       1.0  0.14925  0.36062  0.20419  1.0000
  C   C40       1.0  0.12551  0.32694  0.18549  1.0000
  H   H17       1.0  0.43185  0.35507  0.25909  1.0000
  H   H18       1.0  0.97994  0.21865  0.22662  1.0000
  P   P2        1.0  0.23575  0.98571  0.24800  1.0000
  H   H19       1.0  0.05538  0.25572  0.21198  1.0000
  H   H20       1.0  0.01956  0.17891  0.13657  1.0000
  H   H21       1.0  0.12415  0.20682  0.11693  1.0000
  H   H22       1.0  0.13963  0.14768  0.11822  1.0000
  H   H23       1.0  0.13484  0.11047  0.16288  1.0000
  H   H24       1.0  0.11471  0.13296  0.20657  1.0000
  H   H25       1.0  0.34239  0.41427  0.01462  1.0000
  C   C41       1.0  0.00774  0.29077  0.02124  1.0000
  H   H26       1.0  0.14469  0.38817  0.20493  1.0000
  H   H27       1.0  0.10259  0.32877  0.17177  1.0000
  C   C42       1.0  0.35030  0.02138  0.28572  1.0000
  H   H28       1.0  0.96834  0.21547  0.30452  1.0000
  C   C43       1.0  0.07322  0.27127  0.11191  1.0000
  H   H29       1.0  0.07038  0.15764  0.25072  1.0000
  C   C44       1.0  0.03961  0.15102  0.25871  1.0000
  C   C45       1.0  0.98866  0.21094  0.20664  1.0000
  C   C46       1.0  0.96796  0.29157  0.26482  1.0000
  H   H30       1.0  0.34382  0.18990  0.13843  1.0000
  C   C47       1.0  0.06444  0.29736  0.31308  1.0000
  H   H31       1.0  0.43785  0.46693  0.22266  1.0000
  C   C48       1.0  0.13607  0.28978  0.32645  1.0000
  H   H32       1.0  0.28506  0.13964  0.31027  1.0000
  C   C49       1.0  0.16125  0.28954  0.20249  1.0000
  C   C50       1.0  0.36241  0.42829  0.30045  1.0000
  C   C51       1.0  0.30288  0.18921  0.06324  1.0000
  C   C52       1.0  0.29741  0.21342  0.08424  1.0000
  C   C53       1.0  0.99551  0.31009  0.21752  1.0000
  P   P3        1.0  0.27413  0.24601  0.07512  1.0000
  H   H33       1.0  0.34583  0.44486  0.29390  1.0000
  C   C54       1.0  0.22174  0.21437  0.05983  1.0000
  C   C55       1.0  0.20076  0.23516  0.04893  1.0000
  C   C56       1.0  0.16074  0.21139  0.03618  1.0000
  C   C57       1.0  0.14114  0.16667  0.03461  1.0000
  C   C58       1.0  0.16117  0.14563  0.04625  1.0000
  C   C59       1.0  0.20123  0.16931  0.05900  1.0000
  H   H34       1.0  0.18724  0.32565  0.08000  1.0000
  H   H35       1.0  0.05503  0.28969  0.07351  1.0000
  C   C60       1.0  0.26634  0.27145  0.10544  1.0000
  C   C61       1.0  0.24258  0.24620  0.12826  1.0000
  C   C62       1.0  0.23625  0.26534  0.15189  1.0000
  C   C63       1.0  0.25308  0.30977  0.15279  1.0000
  C   C64       1.0  0.27560  0.33501  0.12979  1.0000
  C   C65       1.0  0.28203  0.31595  0.10610  1.0000
  C   C66       1.0  0.15544  0.31047  0.08897  1.0000
  C   C67       1.0  0.34621  0.38499  0.29279  1.0000
  C   C68       1.0  0.38362  0.34270  0.04069  1.0000
  H   H36       1.0  0.29202  0.18893  0.04202  1.0000
  H   H37       1.0  0.99354  0.43370  0.00684  1.0000
  H   H38       1.0  0.21594  0.26987  0.04955  1.0000
  H   H39       1.0  0.14548  0.22772  0.02677  1.0000
  H   H40       1.0  0.11082  0.14842  0.02387  1.0000
  H   H41       1.0  0.14616  0.11098  0.04480  1.0000
  H   H42       1.0  0.21609  0.15225  0.06780  1.0000
  H   H43       1.0  0.32567  0.14580  0.05322  1.0000
  C   C69       1.0  0.40921  0.45397  0.02610  1.0000
  H   H44       1.0  0.22969  0.21173  0.12809  1.0000
  H   H45       1.0  0.21889  0.24561  0.16971  1.0000
  H   H46       1.0  0.24872  0.32458  0.17133  1.0000
  H   H47       1.0  0.28844  0.36946  0.13039  1.0000
  H   H48       1.0  0.29927  0.33607  0.08846  1.0000
  C   C70       1.0  0.17733  0.04186  0.20582  1.0000
  C   C71       1.0  0.17751  0.07037  0.22581  1.0000
  C   C72       1.0  0.19505  0.07284  0.25227  1.0000
  C   C73       1.0  0.21291  0.04727  0.25869  1.0000
  C   C74       1.0  0.19504  0.01607  0.21220  1.0000
  H   H49       1.0  0.08585  0.24996  0.00185  1.0000
  H   H50       1.0  0.04136  0.25683  0.12043  1.0000
  C   C75       1.0  0.02292  0.23272  0.01725  1.0000
  C   C76       1.0  0.14789  0.29157  0.11547  1.0000
  C   C77       1.0  0.99609  0.36395  0.15688  1.0000
  H   H51       1.0  0.00753  0.13090  0.21892  1.0000
  C   C78       1.0  0.39947  0.44997  0.31696  1.0000
  C   C79       1.0  0.02924  0.40750  0.11551  1.0000
  H   H52       1.0  0.12790  0.32448  0.05338  1.0000
  H   H53       1.0  0.40247  0.45298  0.04824  1.0000
  C   C80       1.0  0.12196  0.30977  0.07392  1.0000
  C   C81       1.0  0.17866  0.35860  0.22220  1.0000
  C   C82       1.0  0.33290  0.19025  0.11734  1.0000
  H   H54       1.0  0.02081  0.31713  0.20266  1.0000
  C   C83       1.0  0.35470  0.08610  0.26715  1.0000
  C   C84       1.0  0.35325  0.31417  0.05969  1.0000
  H   H55       1.0  0.05927  0.35332  0.00922  1.0000
  C   C85       1.0  0.08090  0.29023  0.08538  1.0000
  H   H56       1.0  0.16425  0.04038  0.18516  1.0000
  H   H57       1.0  0.16449  0.09089  0.22069  1.0000
  H   H58       1.0  0.19495  0.09461  0.26790  1.0000
  H   H59       1.0  0.98634  0.30238  0.02689  1.0000
  C   C86       1.0  0.37488  0.43200  0.00700  1.0000
  H   H60       1.0  0.31764  0.36851  0.28012  1.0000
  H   H61       1.0  0.35120  0.14563  0.10144  1.0000
  H   H62       1.0  0.99173  0.29586  0.12682  1.0000
  H   H63       1.0  0.19398  0.99393  0.19647  1.0000
  C   C87       1.0  0.40516  0.38545  0.31709  1.0000
  H   H64       1.0  0.40503  0.08457  0.29050  1.0000
  H   H65       1.0  0.31072  0.23357  0.12779  1.0000
  C   C88       1.0  0.18481  0.32325  0.22121  1.0000
  H   H66       1.0  0.29943  0.07834  0.24538  1.0000
  H   H67       1.0  0.37245  0.12056  0.26413  1.0000
  H   H68       1.0  0.03714  0.30042  0.30765  1.0000
  H   H69       1.0  0.20708  0.32142  0.23558  1.0000
  C   C89       1.0  0.03094  0.39363  0.17306  1.0000
  C   C90       1.0  0.32229  0.16498  0.06943  1.0000
  C   C91       1.0  0.06419  0.26146  0.00706  1.0000
  C   C92       1.0  0.00427  0.13611  0.24092  1.0000
  H   H70       1.0  0.09108  0.46362  0.12167  1.0000
  C   C93       1.0  0.03548  0.15748  0.28709  1.0000
  H   H71       1.0  0.17415  0.29231  0.12688  1.0000
  H   H72       1.0  0.16670  0.26260  0.20240  1.0000
  C   C94       1.0  0.96479  0.12799  0.25152  1.0000
  H   H73       1.0  0.02830  0.41300  0.09323  1.0000
  H   H74       1.0  0.19655  0.38421  0.23713  1.0000
  C   C95       1.0  0.06521  0.42928  0.16033  1.0000
  H   H75       1.0  0.99614  0.44979  0.25928  1.0000
  C   C96       1.0  0.31334  0.21445  0.11126  1.0000
  S   S12       1.0  0.19787  0.11472  0.32680  1.0000
  H   H76       1.0  0.37100  0.25773  0.32656  1.0000
  C   C97       1.0  0.28947  0.01745  0.26126  1.0000
  S   S13       1.0  0.38005  0.98334  0.03354  1.0000
  H   H77       1.0  0.27364  0.01517  0.19272  1.0000
  H   H78       1.0  0.44457  0.11703  0.07643  1.0000
  C   C98       1.0  0.33153  0.31260  0.00332  1.0000
  H   H79       1.0  0.36443  0.00576  0.29743  1.0000
  H   H80       1.0  0.01304  0.19911  0.01971  1.0000
  H   H81       1.0  0.24188  0.98013  0.30949  1.0000
  H   H82       1.0  0.42221  0.36917  0.32325  1.0000
  C   C99       1.0  0.42079  0.42838  0.32526  1.0000
  C   C100      1.0  0.07750  0.30508  0.00399  1.0000
  H   H83       1.0  0.33054  0.10778  0.32101  1.0000
  H   H84       1.0  0.96759  0.35044  0.11544  1.0000
  C   C101      1.0  0.29820  0.09266  0.32889  1.0000
  H   H85       1.0  0.16394  0.28745  0.33176  1.0000
  H   H86       1.0  0.97189  0.28559  0.28656  1.0000
  C   C102      1.0  0.45425  0.45118  0.23115  1.0000
  C   C103      1.0  0.96154  0.43195  0.25885  1.0000
  C   C104      1.0  0.96856  0.16728  0.16474  1.0000
  C   C105      1.0  0.96189  0.26780  0.13250  1.0000
  H   H87       1.0  0.96700  0.22966  0.09936  1.0000
  H   H88       1.0  0.28037  0.97770  0.15158  1.0000
  C   C106      1.0  0.23084  0.09203  0.33326  1.0000
  Fe  Fe9       1.0  0.01196  0.35430  0.36658  1.0000
  S   S14       1.0  0.06589  0.33730  0.36424  1.0000
  S   S15       1.0  0.02137  0.41663  0.38522  1.0000
  C   C107      1.0  0.41106  0.40315  0.48625  1.0000
  C   C108      1.0  0.15090  0.26330  0.56501  1.0000
  H   H89       1.0  0.98509  0.26059  0.34697  1.0000
  Fe  Fe10      1.0  0.31061  0.25962  0.62161  1.0000
  S   S16       1.0  0.28063  0.28448  0.59050  1.0000
  S   S17       1.0  0.28515  0.18624  0.62251  1.0000
  Fe  Fe11      1.0  0.37500  0.35207  0.64061  1.0000
  S   S18       1.0  0.34898  0.38238  0.61156  1.0000
  C   C109      1.0  0.20633  0.19993  0.37892  1.0000
  Fe  Fe12      1.0  0.28458  0.32839  0.62544  1.0000
  H   H90       1.0  0.99252  0.43918  0.59302  1.0000
  Fe  Fe13      1.0  0.34774  0.33669  0.57899  1.0000
  S   S19       1.0  0.37111  0.35357  0.53316  1.0000
  H   H91       1.0  0.42891  0.31624  0.52436  1.0000
  S   S20       1.0  0.37739  0.30853  0.60745  1.0000
  H   H92       1.0  0.12759  0.45395  0.60790  1.0000
  C   C110      1.0  0.26908  0.14515  0.64867  1.0000
  C   C111      1.0  0.25122  0.10197  0.64008  1.0000
  H   H93       1.0  0.10819  0.18746  0.36575  1.0000
  H   H94       1.0  0.24745  0.09444  0.61796  1.0000
  C   C112      1.0  0.23817  0.06829  0.65979  1.0000
  C   C113      1.0  0.39963  0.40350  0.51448  1.0000
  H   H95       1.0  0.44948  0.44479  0.33780  1.0000
  H   H96       1.0  0.13653  0.32115  0.36528  1.0000
  H   H97       1.0  0.01767  0.36523  0.47249  1.0000
  H   H98       1.0  0.37966  0.42343  0.41718  1.0000
  C   C114      1.0  0.18252  0.31069  0.64843  1.0000
  C   C115      1.0  0.97378  0.40465  0.59553  1.0000
  H   H99       1.0  0.19452  0.32464  0.58342  1.0000
  C   C116      1.0  0.33581  0.05796  0.60315  1.0000
  C   C117      1.0  0.36004  0.15417  0.57962  1.0000
  H   H100      1.0  0.24119  0.99844  0.48160  1.0000
  H   H101      1.0  0.40185  0.37275  0.47621  1.0000
  H   H102      1.0  0.99988  0.44970  0.66360  1.0000
  C   C118      1.0  0.33127  0.06625  0.65336  1.0000
  H   H103      1.0  0.34289  0.00614  0.53163  1.0000
  H   H104      1.0  0.24306  0.05846  0.50865  1.0000
  C   C119      1.0  0.41211  0.44328  0.52704  1.0000
  C   C120      1.0  0.13199  0.13532  0.64338  1.0000
  S   S21       1.0  0.23607  0.34744  0.63909  1.0000
  C   C121      1.0  0.42852  0.46645  0.66452  1.0000
  C   C122      1.0  0.11991  0.23917  0.64882  1.0000
  C   C123      1.0  0.14076  0.20202  0.37332  1.0000
  C   C124      1.0  0.01210  0.36369  0.51745  1.0000
  H   H105      1.0  0.10022  0.20438  0.54774  1.0000
  C   C125      1.0  0.12039  0.30896  0.34547  1.0000
  C   C126      1.0  0.35028  0.08333  0.62750  1.0000
  H   H106      1.0  0.40591  0.05198  0.61139  1.0000
  C   C127      1.0  0.32363  0.05284  0.54214  1.0000
  H   H107      1.0  0.12788  0.12535  0.62164  1.0000
  H   H108      1.0  0.10488  0.20559  0.64325  1.0000
  H   H109      1.0  0.22454  0.03546  0.65271  1.0000
  C   C128      1.0  0.16318  0.26692  0.64204  1.0000
  P   P4        1.0  0.36239  0.07857  0.57007  1.0000
  C   C129      1.0  0.34294  0.41118  0.37937  1.0000
  C   C130      1.0  0.07177  0.36707  0.64985  1.0000
  H   H110      1.0  0.40384  0.44440  0.54867  1.0000
  C   C131      1.0  0.45564  0.05722  0.53851  1.0000
  C   C132      1.0  0.05698  0.33459  0.62962  1.0000
  C   C133      1.0  0.06627  0.34502  0.60118  1.0000
  C   C134      1.0  0.09235  0.38830  0.59353  1.0000
  P   P5        1.0  0.04846  0.30331  0.57487  1.0000
  C   C135      1.0  0.99930  0.25687  0.58629  1.0000
  C   C136      1.0  0.03906  0.32299  0.54228  1.0000
  C   C137      1.0  0.05080  0.31302  0.51651  1.0000
  C   C138      1.0  0.04312  0.32824  0.49145  1.0000
  C   C139      1.0  0.02378  0.35356  0.49192  1.0000
  C   C140      1.0  0.35255  0.24292  0.34530  1.0000
  C   C141      1.0  0.01953  0.34838  0.54252  1.0000
  C   C142      1.0  0.00096  0.22789  0.60520  1.0000
  C   C143      1.0  0.29194  0.99873  0.50533  1.0000
  C   C144      1.0  0.28256  0.05528  0.34521  1.0000
  C   C145      1.0  0.41835  0.22579  0.56968  1.0000
  H   H111      1.0  0.44332  0.44076  0.44935  1.0000
  C   C146      1.0  0.08890  0.28814  0.57063  1.0000
  C   C147      1.0  0.13122  0.31576  0.57929  1.0000
  C   C148      1.0  0.16205  0.30340  0.57632  1.0000
  H   H112      1.0  0.30236  0.38929  0.34300  1.0000
  C   C149      1.0  0.42561  0.16374  0.55923  1.0000
  C   C150      1.0  0.07802  0.24800  0.55902  1.0000
  H   H113      1.0  0.14204  0.25897  0.38865  1.0000
  H   H114      1.0  0.05222  0.32047  0.47160  1.0000
  H   H115      1.0  0.03823  0.30155  0.63640  1.0000
  H   H116      1.0  0.10135  0.39704  0.57188  1.0000
  H   H117      1.0  0.06591  0.29359  0.51562  1.0000
  H   H118      1.0  0.37653  0.11612  0.62668  1.0000
  H   H119      1.0  0.97445  0.32322  0.63117  1.0000
  H   H120      1.0  0.32832  0.13400  0.58817  1.0000
  C   C151      1.0  0.45169  0.04346  0.58832  1.0000
  H   H121      1.0  0.03141  0.23287  0.61270  1.0000
  H   H122      1.0  0.01807  0.40174  0.62437  1.0000
  C   C152      1.0  0.37708  0.19870  0.57965  1.0000
  C   C153      1.0  0.15847  0.32622  0.66204  1.0000
  C   C154      1.0  0.96564  0.42863  0.66450  1.0000
  H   H123      1.0  0.14066  0.34658  0.58877  1.0000
  H   H124      1.0  0.39899  0.44770  0.65322  1.0000
  H   H125      1.0  0.17482  0.25364  0.56330  1.0000
  C   C155      1.0  0.34718  0.20370  0.35460  1.0000
  C   C156      1.0  0.98841  0.38357  0.61297  1.0000
  C   C157      1.0  0.35560  0.39902  0.40369  1.0000
  C   C158      1.0  0.10891  0.23562  0.55632  1.0000
  H   H126      1.0  0.31746  0.15307  0.38503  1.0000
  C   C159      1.0  0.32155  0.01820  0.52703  1.0000
  H   H127      1.0  0.27118  0.31254  0.35417  1.0000
  C   C160      1.0  0.41930  0.05371  0.59085  1.0000
  C   C161      1.0  0.30259  0.01527  0.60518  1.0000
  H   H128      1.0  0.18127  0.25458  0.63146  1.0000
  H   H129      1.0  0.29491  0.09289  0.54694  1.0000
  C   C162      1.0  0.26489  0.04710  0.51389  1.0000
  C   C163      1.0  0.31206  0.37984  0.36189  1.0000
  C   C164      1.0  0.33726  0.35552  0.41063  1.0000
  C   C165      1.0  0.30606  0.32378  0.39314  1.0000
  C   C166      1.0  0.29421  0.33633  0.36844  1.0000
  P   P6        1.0  0.28179  0.26733  0.40171  1.0000
  C   C167      1.0  0.28611  0.26221  0.43906  1.0000
  C   C168      1.0  0.22610  0.24082  0.39145  1.0000
  C   C169      1.0  0.20242  0.26177  0.39514  1.0000
  C   C170      1.0  0.24073  0.03613  0.35542  1.0000
  H   H130      1.0  0.44525  0.15114  0.55148  1.0000
  C   C171      1.0  0.16389  0.18073  0.36987  1.0000
  H   H131      1.0  0.22363  0.18304  0.37524  1.0000
  C   C172      1.0  0.32445  0.26789  0.45046  1.0000
  C   C173      1.0  0.32938  0.26730  0.47948  1.0000
  C   C174      1.0  0.29599  0.26062  0.49732  1.0000
  C   C175      1.0  0.25755  0.25435  0.48615  1.0000
  C   C176      1.0  0.25257  0.25520  0.45714  1.0000
  C   C177      1.0  0.30857  0.24330  0.38363  1.0000
  C   C178      1.0  0.33328  0.26268  0.35968  1.0000
  C   C179      1.0  0.26372  0.01326  0.49869  1.0000
  C   C180      1.0  0.43455  0.44177  0.47087  1.0000
  C   C181      1.0  0.32253  0.18412  0.37836  1.0000
  C   C182      1.0  0.30344  0.20390  0.39293  1.0000
  H   H132      1.0  0.20056  0.16559  0.64201  1.0000
  H   H133      1.0  0.34755  0.34713  0.42965  1.0000
  C   C183      1.0  0.10755  0.42065  0.61390  1.0000
  H   H134      1.0  0.21698  0.29338  0.40464  1.0000
  H   H135      1.0  0.18288  0.03970  0.35767  1.0000
  C   C184      1.0  0.09704  0.41003  0.64205  1.0000
  H   H136      1.0  0.16226  0.99516  0.61730  1.0000
  H   H137      1.0  0.35838  0.21229  0.58776  1.0000
  H   H138      1.0  0.35102  0.27413  0.43695  1.0000
  H   H139      1.0  0.35948  0.27323  0.48828  1.0000
  H   H140      1.0  0.30033  0.26132  0.51984  1.0000
  H   H141      1.0  0.23196  0.24976  0.50008  1.0000
  H   H142      1.0  0.22283  0.25109  0.44904  1.0000
  H   H143      1.0  0.33733  0.29267  0.35171  1.0000
  H   H144      1.0  0.99710  0.38329  0.51771  1.0000
  H   H145      1.0  0.28376  0.18792  0.41099  1.0000
  C   C185      1.0  0.38411  0.13621  0.56929  1.0000
  C   C186      1.0  0.15992  0.24238  0.38614  1.0000
  C   C187      1.0  0.17297  0.15801  0.65486  1.0000
  C   C188      1.0  0.19492  0.98474  0.58305  1.0000
  C   C189      1.0  0.42357  0.06795  0.54096  1.0000
  H   H146      1.0  0.10831  0.43496  0.65789  1.0000
  H   H147      1.0  0.22841  0.00756  0.36819  1.0000
  Fe  Fe14      1.0  0.98146  0.41775  0.34929  1.0000
  C   C190      1.0  0.29462  0.06675  0.53555  1.0000
  H   H148      1.0  0.14939  0.14966  0.35955  1.0000
  C   C191      1.0  0.09642  0.12591  0.65986  1.0000
  C   C192      1.0  0.08444  0.31298  0.33904  1.0000
  H   H149      1.0  0.43153  0.26031  0.57016  1.0000
  H   H150      1.0  0.96515  0.17151  0.63059  1.0000
  H   H151      1.0  0.04555  0.22608  0.55236  1.0000
  H   H152      1.0  0.00986  0.35617  0.56208  1.0000
  S   S22       1.0  0.31710  0.03485  0.35289  1.0000
  H   H153      1.0  0.41316  0.07746  0.52238  1.0000
  C   C193      1.0  0.21507  0.05453  0.34953  1.0000
  S   S23       1.0  0.31088  0.30127  0.65703  1.0000
  C   C194      1.0  0.28365  0.99832  0.63105  1.0000
  C   C195      1.0  0.40463  0.06565  0.56710  1.0000
  C   C196      1.0  0.44264  0.20831  0.55952  1.0000
  H   H154      1.0  0.20731  0.01675  0.57457  1.0000
  C   C197      1.0  0.29812  0.02370  0.65517  1.0000
  H   H155      1.0  0.29172  0.99487  0.58689  1.0000
  H   H156      1.0  0.35743  0.44489  0.37387  1.0000
  H   H157      1.0  0.36142  0.18802  0.34309  1.0000
  H   H158      1.0  0.04294  0.45595  0.45542  1.0000
  H   H159      1.0  0.06464  0.10894  0.65086  1.0000
  C   C198      1.0  0.09590  0.25469  0.66249  1.0000
  C   C199      1.0  0.96337  0.19287  0.61529  1.0000
  C   C200      1.0  0.96373  0.33922  0.61686  1.0000
  Fe  Fe15      1.0  0.97801  0.25382  0.75224  1.0000
  P   P7        1.0  0.37961  0.44471  0.76580  1.0000
  S   S24       1.0  0.99556  0.25188  0.79874  1.0000
  C   C201      1.0  0.06956  0.14266  0.76019  1.0000
  H   H160      1.0  0.27519  0.30208  0.78138  1.0000
  S   S25       1.0  0.02407  0.29783  0.71991  1.0000
  Fe  Fe16      1.0  0.20099  0.26077  0.95379  1.0000
  H   H161      1.0  0.28710  0.18691  0.68452  1.0000
  S   S26       1.0  0.18523  0.19247  0.96347  1.0000
  Fe  Fe17      1.0  0.19247  0.31662  0.90797  1.0000
  S   S27       1.0  0.21843  0.37332  0.93730  1.0000
  S   S28       1.0  0.17628  0.32315  0.86208  1.0000
  Fe  Fe18      1.0  0.26768  0.35645  0.95212  1.0000
  S   S29       1.0  0.34095  0.40369  0.95292  1.0000
  Fe  Fe19      1.0  0.17392  0.32547  0.96918  1.0000
  C   C202      1.0  0.29616  0.19050  0.97548  1.0000
  S   S30       1.0  0.24506  0.30295  0.92000  1.0000
  S   S31       1.0  0.14660  0.26994  0.93927  1.0000
  S   S32       1.0  0.22908  0.03621  0.71459  1.0000
  H   H162      1.0  0.39333  0.40978  0.81735  1.0000
  H   H163      1.0  0.24439  0.17762  0.80766  1.0000
  H   H164      1.0  0.36969  0.26214  0.84172  1.0000
  H   H165      1.0  0.26510  0.12789  0.71927  1.0000
  H   H166      1.0  0.17958  0.06886  0.80584  1.0000
  C   C203      1.0  0.26276  0.14113  0.90203  1.0000
  C   C204      1.0  0.99847  0.41577  0.99046  1.0000
  C   C205      1.0  0.26719  0.20473  0.96900  1.0000
  C   C206      1.0  0.34838  0.24726  0.82411  1.0000
  P   P8        1.0  0.15034  0.17988  0.73556  1.0000
  C   C207      1.0  0.38273  0.43236  0.97823  1.0000
  H   H167      1.0  0.28895  0.35169  0.74171  1.0000
  C   C208      1.0  0.42551  0.01257  0.75936  1.0000
  H   H168      1.0  0.39639  0.36389  0.99783  1.0000
  H   H169      1.0  0.15391  0.11545  0.82639  1.0000
  H   H170      1.0  0.17314  0.36005  0.66701  1.0000
  C   C209      1.0  0.20304  0.26272  0.71529  1.0000
  C   C210      1.0  0.04636  0.27149  0.81574  1.0000
  C   C211      1.0  0.08526  0.29758  0.80211  1.0000
  C   C212      1.0  0.12446  0.31265  0.81652  1.0000
  C   C213      1.0  0.12560  0.30240  0.84489  1.0000
  C   C214      1.0  0.08676  0.27638  0.85857  1.0000
  C   C215      1.0  0.04759  0.26097  0.84407  1.0000
  H   H171      1.0  0.08521  0.30653  0.78050  1.0000
  H   H172      1.0  0.15412  0.33279  0.80562  1.0000
  H   H173      1.0  0.08686  0.26818  0.88035  1.0000
  H   H174      1.0  0.01806  0.24062  0.85495  1.0000
  H   H175      1.0  0.24294  0.32677  0.69947  1.0000
  S   S33       1.0  0.98506  0.37062  0.68794  1.0000
  C   C216      1.0  0.22329  0.17725  0.97278  1.0000
  H   H176      1.0  0.97941  0.17292  0.95522  1.0000
  C   C217      1.0  0.29982  0.43628  0.68796  1.0000
  C   C218      1.0  0.19137  0.23939  0.84443  1.0000
  C   C219      1.0  0.16112  0.21919  0.86558  1.0000
  C   C220      1.0  0.16758  0.19533  0.88607  1.0000
  C   C221      1.0  0.20390  0.19098  0.88518  1.0000
  C   C222      1.0  0.23410  0.21042  0.86365  1.0000
  C   C223      1.0  0.22809  0.23575  0.84375  1.0000
  P   P9        1.0  0.28215  0.20656  0.86326  1.0000
  C   C224      1.0  0.31962  0.24557  0.88781  1.0000
  C   C225      1.0  0.26854  0.15262  0.87357  1.0000
  C   C226      1.0  0.26352  0.12170  0.85354  1.0000
  C   C227      1.0  0.25297  0.08023  0.86191  1.0000
  C   C228      1.0  0.24760  0.06932  0.89030  1.0000
  H   H177      1.0  0.39888  0.27927  0.79382  1.0000
  C   C229      1.0  0.16033  0.41204  0.89268  1.0000
  H   H178      1.0  0.32314  0.31236  0.98149  1.0000
  C   C230      1.0  0.37525  0.26691  0.92307  1.0000
  C   C231      1.0  0.34758  0.23707  0.90336  1.0000
  C   C232      1.0  0.17850  0.17118  0.68286  1.0000
  H   H179      1.0  0.13341  0.22333  0.86661  1.0000
  H   H180      1.0  0.14504  0.18108  0.90317  1.0000
  H   H181      1.0  0.20852  0.17332  0.90180  1.0000
  H   H182      1.0  0.25200  0.25349  0.82802  1.0000
  H   H183      1.0  0.26786  0.12926  0.83148  1.0000
  H   H184      1.0  0.24916  0.05652  0.84640  1.0000
  H   H185      1.0  0.23971  0.03730  0.89677  1.0000
  C   C233      1.0  0.16079  0.14541  0.75784  1.0000
  H   H186      1.0  0.18281  0.25261  0.69687  1.0000
  H   H187      1.0  0.39587  0.25964  0.93559  1.0000
  H   H188      1.0  0.34773  0.20724  0.90068  1.0000
  C   C234      1.0  0.34867  0.41849  0.71102  1.0000
  H   H189      1.0  0.19374  0.07157  0.75484  1.0000
  H   H190      1.0  0.09748  0.31057  0.67998  1.0000
  H   H191      1.0  0.22605  0.08947  0.99786  1.0000
  C   C235      1.0  0.14946  0.41157  0.92081  1.0000
  C   C236      1.0  0.97280  0.30058  0.87142  1.0000
  C   C237      1.0  0.33287  0.37633  0.83842  1.0000
  H   H192      1.0  0.04031  0.47211  0.96663  1.0000
  C   C238      1.0  0.98421  0.33393  0.89088  1.0000
  C   C239      1.0  0.12825  0.39166  0.87255  1.0000
  C   C240      1.0  0.32320  0.41500  0.68801  1.0000
  H   H193      1.0  0.21057  0.18876  0.69135  1.0000
  C   C241      1.0  0.42553  0.45575  0.96902  1.0000
  H   H194      1.0  0.36700  0.40228  0.71000  1.0000
  H   H195      1.0  0.19361  0.42723  0.88655  1.0000
  H   H196      1.0  0.43812  0.04457  0.75078  1.0000
  C   C242      1.0  0.30465  0.21848  0.82830  1.0000
  H   H197      1.0  0.36194  0.35766  0.75374  1.0000
  H   H198      1.0  0.38378  0.98717  0.97152  1.0000
  C   C243      1.0  0.22114  0.24863  0.76145  1.0000
  H   H199      1.0  0.07279  0.30082  0.93142  1.0000
  H   H200      1.0  0.34566  0.36777  0.85623  1.0000
  C   C244      1.0  0.17571  0.11926  0.74650  1.0000
  C   C245      1.0  0.18267  0.09201  0.76384  1.0000
  C   C246      1.0  0.02938  0.23570  0.94284  1.0000
  C   C247      1.0  0.39687  0.99907  0.78179  1.0000
  C   C248      1.0  0.35979  0.40029  0.81639  1.0000
  C   C249      1.0  0.10294  0.17971  0.74774  1.0000
  H   H201      1.0  0.17425  0.42660  0.93656  1.0000
  C   C250      1.0  0.20880  0.13571  0.98328  1.0000
  C   C251      1.0  0.34369  0.41249  0.79355  1.0000
  C   C252      1.0  0.26300  0.31897  0.74055  1.0000
  H   H202      1.0  0.26632  0.16414  0.91797  1.0000
  H   H203      1.0  0.24884  0.09167  0.93244  1.0000
  C   C253      1.0  0.27334  0.37621  0.81521  1.0000
  H   H204      1.0  0.13675  0.39109  0.85086  1.0000
  H   H205      1.0  0.27415  0.19460  0.75984  1.0000
  C   C254      1.0  0.07417  0.36980  0.90877  1.0000
  H   H206      1.0  0.28665  0.40944  0.77618  1.0000
  C   C255      1.0  0.45101  0.44694  0.67451  1.0000
  C   C256      1.0  0.00702  0.28732  0.93120  1.0000
  H   H207      1.0  0.05199  0.43164  0.92923  1.0000
  C   C257      1.0  0.34899  0.31489  0.91103  1.0000
  C   C258      1.0  0.29487  0.20947  0.77778  1.0000
  C   C259      1.0  0.37570  0.30565  0.92706  1.0000
  H   H208      1.0  0.35133  0.24552  0.75274  1.0000
  H   H209      1.0  0.40222  0.01716  0.68676  1.0000
  C   C260      1.0  0.15346  0.14415  0.78686  1.0000
  H   H210      1.0  0.34925  0.34490  0.91427  1.0000
  H   H211      1.0  0.27873  0.23657  0.96056  1.0000
  H   H212      1.0  0.17491  0.11418  0.98614  1.0000
  C   C261      1.0  0.02887  0.17884  0.76633  1.0000
  H   H213      1.0  0.05707  0.24264  0.74936  1.0000
  H   H214      1.0  0.06111  0.35390  0.86463  1.0000
  C   C262      1.0  0.33836  0.23819  0.77379  1.0000
  H   H215      1.0  0.09887  0.38869  0.95096  1.0000
  C   C263      1.0  0.03953  0.27709  0.93467  1.0000
  H   H216      1.0  0.45917  0.99492  0.72992  1.0000
  C   C264      1.0  0.25260  0.09982  0.91035  1.0000
  C   C265      1.0  0.28963  0.36423  0.83781  1.0000
  C   C266      1.0  0.97806  0.37102  0.99187  1.0000
  H   H217      1.0  0.34194  0.08603  0.67205  1.0000
  H   H218      1.0  0.96846  0.31325  0.97261  1.0000
  H   H219      1.0  0.00744  0.11409  0.77961  1.0000
  C   C267      1.0  0.27810  0.19974  0.80489  1.0000
  H   H220      1.0  0.23980  0.36709  0.81501  1.0000
  C   C268      1.0  0.25514  0.29091  0.76288  1.0000
  H   H221      1.0  0.18160  0.11927  0.72427  1.0000
  C   C269      1.0  0.98704  0.20454  0.94804  1.0000
  C   C270      1.0  0.23701  0.30492  0.71678  1.0000
  H   H222      1.0  0.14230  0.16428  0.79616  1.0000
  C   C271      1.0  0.17466  0.09046  0.79257  1.0000
  C   C272      1.0  0.10659  0.39025  0.92889  1.0000
  H   H223      1.0  0.39657  0.32849  0.94267  1.0000
  H   H224      1.0  0.43229  0.45661  0.94690  1.0000
  S   S34       1.0  0.31879  0.13130  0.99223  1.0000
  C   C273      1.0  0.30021  0.40045  0.79324  1.0000
  C   C274      1.0  0.32124  0.28510  0.89135  1.0000
  H   H225      1.0  0.07380  0.13239  0.69996  1.0000
  C   C275      1.0  0.09785  0.21553  0.74342  1.0000
  H   H226      1.0  0.12190  0.24376  0.73262  1.0000
  C   C276      1.0  0.34996  0.44248  0.73466  1.0000
  H   H227      1.0  0.30055  0.29268  0.87929  1.0000
  C   C277      1.0  0.41418  0.42291  0.75876  1.0000
  H   H228      1.0  0.28006  0.43325  0.67001  1.0000
  H   H229      1.0  0.38744  0.02078  0.79071  1.0000
  C   C278      1.0  0.38932  0.98280  0.68544  1.0000
  H   H230      1.0  0.05452  0.22811  0.94592  1.0000
  S   S35       1.0  0.22500  0.31298  0.98650  1.0000
  H   H231      1.0  0.07170  0.11383  0.76245  1.0000
  H   H232      1.0  0.18690  0.25917  0.82919  1.0000
  C   C279      1.0  0.06099  0.21504  0.75280  1.0000
  C   C280      1.0  0.01111  0.36925  0.94790  1.0000
  C   C281      1.0  0.26090  0.12038  0.69716  1.0000
  C   C282      1.0  0.03293  0.14249  0.76976  1.0000
  C   C283      1.0  0.27352  0.15404  0.67746  1.0000
  C   C284      1.0  0.36509  0.25711  0.79693  1.0000
  C   C285      1.0  0.03141  0.41431  0.94668  1.0000
  H   H233      1.0  0.00054  0.17883  0.77377  1.0000
  C   C286      1.0  0.39627  0.37866  0.75377  1.0000
  C   C287      1.0  0.16006  0.11655  0.80409  1.0000
  C   C288      1.0  0.19493  0.23413  0.73755  1.0000
  C   C289      1.0  0.23776  0.12165  0.99000  1.0000
  H   H234      1.0  0.26875  0.34614  0.85503  1.0000
  H   H235      1.0  0.33000  0.21179  0.97233  1.0000
  P   P10       1.0  0.01914  0.34013  0.91983  1.0000
  Fe  Fe20      1.0  0.99905  0.23940  0.69263  1.0000
  C   C290      1.0  0.24338  0.07722  0.68854  1.0000
  H   H236      1.0  0.21531  0.22762  0.77906  1.0000
  C   C291      1.0  0.98433  0.34777  0.97073  1.0000
  C   C292      1.0  0.14292  0.16192  0.69957  1.0000
  C   C293      1.0  0.08527  0.37049  0.88051  1.0000
  H   H237      1.0  0.34824  0.98510  0.85979  1.0000
  C   C294      1.0  0.10180  0.13929  0.68782  1.0000
  C   C295      1.0  0.28159  0.14885  0.98588  1.0000
  H   H238      1.0  0.21696  0.01453  0.95616  1.0000
  C   C296      1.0  0.32727  0.46479  0.73411  1.0000
  H   H239      1.0  0.32165  0.39583  0.67003  1.0000
  H   H240      1.0  0.97908  0.39009  0.90084  1.0000
  C   C297      1.0  0.96443  0.25549  0.93585  1.0000
  S   S36       1.0  0.29084  0.00886  0.99877  1.0000
  S   S37       1.0  0.13017  0.34297  0.99319  1.0000
  H   H241      1.0  0.98424  0.27812  0.87377  1.0000
  C   C298      1.0  0.11550  0.29829  0.66930  1.0000
  Fe  Fe21      1.0  0.96879  0.30356  0.70256  1.0000
  C   C299      1.0  0.30216  0.46152  0.71090  1.0000
  S   S38       1.0  0.43172  0.39135  0.66943  1.0000
  C   C300      1.0  0.42252  0.36149  0.74761  1.0000
  C   C301      1.0  0.43747  0.98456  0.74763  1.0000
  H   H242      1.0  0.40850  0.32782  0.74230  1.0000
  C   C302      1.0  0.02497  0.43741  0.96783  1.0000
  C   C303      1.0  0.97024  0.36360  0.88656  1.0000
  H   H243      1.0  0.28326  0.01074  0.67525  1.0000
  C   C304      1.0  0.19846  0.98298  0.94673  1.0000
  S   S39       1.0  0.04145  0.21873  0.67024  1.0000
  H   H244      1.0  0.06346  0.35896  0.67167  1.0000
  H   H245      1.0  0.13841  0.98111  0.95179  1.0000
  C   C305      1.0  0.45883  0.44936  0.75865  1.0000
  C   C306      1.0  0.18129  0.92868  0.32279  1.0000
  S   S40       1.0  0.41788  0.50382  0.32695  1.0000
  H   H246      1.0  0.99561  0.50110  0.13962  1.0000
  C   C307      1.0  0.20079  0.70712  0.30340  1.0000
  C   C308      1.0  0.15802  0.91801  0.26625  1.0000
  S   S41       1.0  0.01175  0.73468  0.28642  1.0000
  C   C309      1.0  0.04133  0.64975  0.31552  1.0000
  C   C310      1.0  0.98169  0.66507  0.08407  1.0000
  C   C311      1.0  0.19950  0.94957  0.27411  1.0000
  S   S42       1.0  0.08077  0.72433  0.00639  1.0000
  C   C312      1.0  0.05228  0.75907  0.31302  1.0000
  H   H247      1.0  0.44182  0.56452  0.28079  1.0000
  C   C313      1.0  0.09557  0.78275  0.30496  1.0000
  H   H248      1.0  0.14831  0.91409  0.24448  1.0000
  H   H249      1.0  0.10360  0.78569  0.28295  1.0000
  H   H250      1.0  0.06446  0.53344  0.24880  1.0000
  H   H251      1.0  0.16158  0.82166  0.31821  1.0000
  H   H252      1.0  0.97108  0.55033  0.12336  1.0000
  P   P11       1.0  0.11807  0.64853  0.32059  1.0000
  C   C314      1.0  0.21074  0.95509  0.30261  1.0000
  C   C315      1.0  0.22597  0.91346  0.21915  1.0000
  C   C316      1.0  0.01024  0.62663  0.05887  1.0000
  C   C317      1.0  0.43798  0.89296  0.31131  1.0000
  C   C318      1.0  0.97136  0.53303  0.30639  1.0000
  S   S43       1.0  0.27354  0.97170  0.06365  1.0000
  C   C319      1.0  0.96557  0.75023  0.12731  1.0000
  C   C320      1.0  0.14019  0.89722  0.31478  1.0000
  C   C321      1.0  0.23881  0.74672  0.30365  1.0000
  C   C322      1.0  0.41577  0.91017  0.32549  1.0000
  C   C323      1.0  0.40472  0.96674  0.00750  1.0000
  H   H253      1.0  0.99630  0.77887  0.13073  1.0000
  H   H254      1.0  0.21894  0.85825  0.19667  1.0000
  S   S44       1.0  0.99977  0.47957  0.32574  1.0000
  H   H255      1.0  0.45832  0.63003  0.25393  1.0000
  H   H256      1.0  0.00006  0.74190  0.01141  1.0000
  H   H257      1.0  0.04413  0.64829  0.29307  1.0000
  H   H258      1.0  0.98148  0.64853  0.31195  1.0000
  C   C324      1.0  0.16569  0.70092  0.31962  1.0000
  C   C325      1.0  0.12860  0.89170  0.28651  1.0000
  C   C326      1.0  0.23036  0.89240  0.19580  1.0000
  H   H259      1.0  0.25293  0.89919  0.15323  1.0000
  C   C327      1.0  0.24967  0.91543  0.17138  1.0000
  H   H260      1.0  0.07612  0.58312  0.20927  1.0000
  H   H261      1.0  0.08293  0.56094  0.29671  1.0000
  C   C328      1.0  0.14413  0.80514  0.02241  1.0000
  C   C329      1.0  0.16461  0.85038  0.02359  1.0000
  C   C330      1.0  0.96569  0.48847  0.12835  1.0000
  H   H262      1.0  0.12466  0.68930  0.26656  1.0000
  H   H263      1.0  0.15757  0.78857  0.03368  1.0000
  H   H264      1.0  0.26593  0.75145  0.29124  1.0000
  H   H265      1.0  0.10632  0.66101  0.21842  1.0000
  H   H266      1.0  0.11737  0.87697  0.33050  1.0000
  H   H267      1.0  0.09671  0.86707  0.28039  1.0000
  C   C331      1.0  0.10607  0.62750  0.28529  1.0000
  H   H268      1.0  0.21171  0.89523  0.23803  1.0000
  C   C332      1.0  0.97466  0.58757  0.06664  1.0000
  C   C333      1.0  0.42820  0.94711  0.01620  1.0000
  C   C334      1.0  0.26517  0.95965  0.17044  1.0000
  C   C335      1.0  0.45203  0.47704  0.01692  1.0000
  H   H269      1.0  0.19895  0.68117  0.29080  1.0000
  C   C336      1.0  0.11232  0.65531  0.26286  1.0000
  C   C337      1.0  0.10168  0.63933  0.23555  1.0000
  C   C338      1.0  0.08458  0.59546  0.23042  1.0000
  C   C339      1.0  0.07811  0.56753  0.25262  1.0000
  C   C340      1.0  0.08883  0.58342  0.27994  1.0000
  H   H270      1.0  0.42041  0.94798  0.09780  1.0000
  H   H271      1.0  0.19347  0.86839  0.03580  1.0000
  H   H272      1.0  0.03508  0.62711  0.04587  1.0000
  H   H273      1.0  0.32790  0.88464  0.00318  1.0000
  H   H274      1.0  0.27168  0.81110  0.32043  1.0000
  H   H275      1.0  0.29140  0.96276  0.27856  1.0000
  H   H276      1.0  0.43036  0.94189  0.03826  1.0000
  H   H277      1.0  0.42163  0.85910  0.30623  1.0000
  C   C341      1.0  0.24215  0.78037  0.32013  1.0000
  H   H278      1.0  0.27500  0.90691  0.01447  1.0000
  H   H279      1.0  0.04142  0.69562  0.06157  1.0000
  C   C342      1.0  0.01378  0.66536  0.06763  1.0000
  C   C343      1.0  0.00531  0.64962  0.32620  1.0000
  H   H280      1.0  0.00472  0.55622  0.30321  1.0000
  C   C344      1.0  0.45451  0.96798  0.10135  1.0000
  H   H281      1.0  0.97261  0.55781  0.05993  1.0000
  H   H282      1.0  0.98481  0.69516  0.09106  1.0000
  C   C345      1.0  0.24047  0.95769  0.21806  1.0000
  C   C346      1.0  0.14706  0.87205  0.00949  1.0000
  C   C347      1.0  0.12870  0.80318  0.32502  1.0000
  C   C348      1.0  0.97303  0.74685  0.01404  1.0000
  S   S45       1.0  0.16996  0.92858  0.01116  1.0000
  C   C349      1.0  0.10638  0.78128  0.00681  1.0000
  H   H283      1.0  0.96669  0.72106  0.16654  1.0000
  C   C350      1.0  0.43725  0.95406  0.33178  1.0000
  H   H284      1.0  0.45685  0.86146  0.03600  1.0000
  H   H285      1.0  0.45532  0.93232  0.13736  1.0000
  C   C351      1.0  0.09781  0.54572  0.36855  1.0000
  S   S46       1.0  0.01328  0.64123  0.62754  1.0000
  C   C352      1.0  0.13883  0.55651  0.37731  1.0000
  H   H286      1.0  0.05955  0.56544  0.34550  1.0000
  Fe  Fe22      1.0  0.31062  0.92082  0.42028  1.0000
  S   S47       1.0  0.28177  0.85904  0.39548  1.0000
  S   S48       1.0  0.32843  0.92109  0.46689  1.0000
  Fe  Fe23      1.0  0.32407  0.90015  0.36024  1.0000
  H   H287      1.0  0.98095  0.52910  0.37012  1.0000
  Fe  Fe24      1.0  0.23239  0.87472  0.37908  1.0000
  S   S49       1.0  0.15966  0.82541  0.38020  1.0000
  S   S50       1.0  0.25795  0.93385  0.40672  1.0000
  C   C353      1.0  0.17040  0.88675  0.48541  1.0000
  C   C354      1.0  0.00726  0.71501  0.63346  1.0000
  C   C355      1.0  0.20469  0.95576  0.57014  1.0000
  C   C356      1.0  0.34157  0.93708  0.60235  1.0000
  C   C357      1.0  0.29524  0.92362  0.56229  1.0000
  C   C358      1.0  0.44703  0.48158  0.48347  1.0000
  H   H288      1.0  0.24559  0.85385  0.52196  1.0000
  H   H289      1.0  0.99493  0.55348  0.49324  1.0000
  C   C359      1.0  0.17471  0.88963  0.51460  1.0000
  H   H290      1.0  0.07063  0.51494  0.37424  1.0000
  C   C360      1.0  0.37855  0.93629  0.48348  1.0000
  S   S51       1.0  0.08260  0.83515  0.66548  1.0000
  C   C361      1.0  0.12685  0.80614  0.57635  1.0000
  H   H291      1.0  0.23832  0.84980  0.47055  1.0000
  H   H292      1.0  0.18986  0.86996  0.44694  1.0000
  H   H293      1.0  0.22301  0.81062  0.58298  1.0000
  H   H294      1.0  0.23741  0.87719  0.62138  1.0000
  H   H295      1.0  0.13522  0.92246  0.63739  1.0000
  C   C362      1.0  0.07593  0.77603  0.36176  1.0000
  C   C363      1.0  0.11919  0.80021  0.35366  1.0000
  C   C364      1.0  0.25913  0.89957  0.57917  1.0000
  H   H296      1.0  0.06791  0.77323  0.38375  1.0000
  C   C365      1.0  0.22039  0.86073  0.48290  1.0000
  C   C366      1.0  0.03045  0.69428  0.63916  1.0000
  H   H297      1.0  0.11269  0.82542  0.57059  1.0000
  C   C367      1.0  0.41745  0.93737  0.52617  1.0000
  C   C368      1.0  0.11778  0.73783  0.59163  1.0000
  C   C369      1.0  0.15448  0.93175  0.61850  1.0000
  H   H298      1.0  0.45503  0.87971  0.54317  1.0000
  C   C370      1.0  0.17141  0.82400  0.57645  1.0000
  H   H299      1.0  0.08841  0.70159  0.65706  1.0000
  C   C371      1.0  0.16787  0.62403  0.35229  1.0000
  H   H300      1.0  0.02164  0.53811  0.65065  1.0000
  C   C372      1.0  0.16460  0.90287  0.60584  1.0000
  H   H301      1.0  0.21019  0.80076  0.34888  1.0000
  H   H302      1.0  0.14900  0.89524  0.47502  1.0000
  H   H303      1.0  0.15568  0.89959  0.52652  1.0000
  S   S52       1.0  0.27259  0.91095  0.34185  1.0000
  C   C373      1.0  0.22484  0.86362  0.51205  1.0000
  C   C374      1.0  0.02372  0.75827  0.64146  1.0000
  H   H304      1.0  0.46097  0.49926  0.60883  1.0000
  C   C375      1.0  0.19329  0.87238  0.46957  1.0000
  C   C376      1.0  0.03219  0.65520  0.37323  1.0000
  H   H305      1.0  0.41607  0.90951  0.66328  1.0000
  H   H306      1.0  0.15356  0.87191  0.61567  1.0000
  H   H307      1.0  0.09175  0.65616  0.37694  1.0000
  H   H308      1.0  0.34868  0.90590  0.52236  1.0000
  H   H309      1.0  0.09700  0.70472  0.59791  1.0000
  H   H310      1.0  0.42603  0.52499  0.66168  1.0000
  H   H311      1.0  0.41358  0.87059  0.38681  1.0000
  H   H312      1.0  0.17558  0.73531  0.59705  1.0000
  C   C377      1.0  0.18882  0.79798  0.58348  1.0000
  C   C378      1.0  0.06305  0.78090  0.65561  1.0000
  C   C379      1.0  0.30575  0.91320  0.61915  1.0000
  C   C380      1.0  0.18925  0.91444  0.58126  1.0000
  C   C381      1.0  0.00057  0.65215  0.35502  1.0000
  C   C382      1.0  0.26475  0.89472  0.60774  1.0000
  H   H313      1.0  0.02894  0.65799  0.39551  1.0000
  H   H314      1.0  0.06585  0.74986  0.58470  1.0000
  H   H315      1.0  0.14282  0.73135  0.34870  1.0000
  C   C383      1.0  0.37877  0.92490  0.51169  1.0000
  H   H316      1.0  0.41681  0.92835  0.54784  1.0000
  C   C384      1.0  0.01618  0.56023  0.40751  1.0000
  C   C385      1.0  0.01748  0.58185  0.43227  1.0000
  C   C386      1.0  0.06990  0.71708  0.65309  1.0000
  P   P12       1.0  0.06444  0.60325  0.45422  1.0000
  C   C387      1.0  0.08127  0.56401  0.45880  1.0000
  C   C388      1.0  0.10397  0.65204  0.43725  1.0000
  C   C389      1.0  0.13845  0.65376  0.42250  1.0000
  C   C390      1.0  0.16846  0.69190  0.40938  1.0000
  C   C391      1.0  0.16369  0.72815  0.41030  1.0000
  C   C392      1.0  0.12872  0.72623  0.42409  1.0000
  C   C393      1.0  0.09894  0.68836  0.43748  1.0000
  C   C394      1.0  0.12296  0.57703  0.46791  1.0000
  C   C395      1.0  0.13610  0.54675  0.47156  1.0000
  C   C396      1.0  0.46065  0.90876  0.41803  1.0000
  Fe  Fe25      1.0  0.30019  0.96905  0.37011  1.0000
  C   C397      1.0  0.05223  0.51997  0.45502  1.0000
  C   C398      1.0  0.05357  0.61435  0.48918  1.0000
  C   C399      1.0  0.01701  0.58357  0.50331  1.0000
  H   H317      1.0  0.97705  0.69797  0.62252  1.0000
  C   C400      1.0  0.03696  0.62969  0.54419  1.0000
  C   C401      1.0  0.07396  0.66015  0.53046  1.0000
  C   C402      1.0  0.08252  0.65239  0.50316  1.0000
  H   H318      1.0  0.04191  0.55437  0.40248  1.0000
  C   C403      1.0  0.44699  0.88602  0.39284  1.0000
  H   H319      1.0  0.14196  0.62570  0.42063  1.0000
  H   H320      1.0  0.19525  0.69337  0.39821  1.0000
  H   H321      1.0  0.18676  0.75770  0.40003  1.0000
  H   H322      1.0  0.12477  0.75424  0.42418  1.0000
  H   H323      1.0  0.07189  0.68740  0.44795  1.0000
  H   H324      1.0  0.14529  0.61057  0.47227  1.0000
  H   H325      1.0  0.16844  0.55701  0.47832  1.0000
  C   C404      1.0  0.08608  0.76010  0.66136  1.0000
  H   H326      1.0  0.00983  0.73823  0.34827  1.0000
  C   C405      1.0  0.10744  0.50319  0.46673  1.0000
  P   P13       1.0  0.20564  0.87905  0.56588  1.0000
  H   H327      1.0  0.98023  0.56750  0.54129  1.0000
  H   H328      1.0  0.03029  0.63555  0.56540  1.0000
  H   H329      1.0  0.09615  0.68969  0.54102  1.0000
  H   H330      1.0  0.11190  0.67597  0.49326  1.0000
  S   S53       1.0  0.35481  0.96077  0.38572  1.0000
  C   C406      1.0  0.16203  0.75511  0.59123  1.0000
  C   C407      1.0  0.17384  0.59577  0.36931  1.0000
  C   C408      1.0  0.98171  0.54600  0.38908  1.0000
  C   C409      1.0  0.20277  0.87904  0.52810  1.0000
  H   H331      1.0  0.19557  0.65397  0.34618  1.0000
  C   C410      1.0  0.09164  0.57428  0.35204  1.0000
  H   H332      1.0  0.29195  0.92855  0.54031  1.0000
  H   H333      1.0  0.14347  0.53421  0.39005  1.0000
  C   C411      1.0  0.04278  0.75599  0.34166  1.0000
  C   C412      1.0  0.10019  0.76327  0.58411  1.0000
  H   H334      1.0  0.09235  0.60403  0.65471  1.0000
  H   H335      1.0  0.00577  0.77420  0.63683  1.0000
  C   C413      1.0  0.98407  0.58998  0.43804  1.0000
  H   H336      1.0  0.44431  0.51218  0.52158  1.0000
  C   C414      1.0  0.06788  0.65447  0.36265  1.0000
  C   C415      1.0  0.00869  0.59135  0.53063  1.0000
  H   H337      1.0  0.97242  0.69772  0.42942  1.0000
  H   H338      1.0  0.45159  0.82984  0.58039  1.0000
  H   H339      1.0  0.98459  0.60736  0.45670  1.0000
  C   C416      1.0  0.45674  0.96112  0.51249  1.0000
  C   C417      1.0  0.33631  0.94239  0.57394  1.0000
  H   H340      1.0  0.37336  0.95162  0.61142  1.0000
  H   H341      1.0  0.30961  0.90938  0.64117  1.0000
  H   H342      1.0  0.97280  0.65262  0.36310  1.0000
  H   H343      1.0  0.01918  0.50855  0.44952  1.0000
  H   H344      1.0  0.43761  0.91044  0.43170  1.0000
  S   S54       1.0  0.36138  0.87590  0.33498  1.0000
  C   C418      1.0  0.41786  0.96010  0.46982  1.0000
  C   C419      1.0  0.06547  0.48982  0.45867  1.0000
  H   H345      1.0  0.20575  0.60403  0.37594  1.0000
  H   H346      1.0  0.41849  0.96945  0.44821  1.0000
  C   C420      1.0  0.43535  0.48183  0.51161  1.0000
  H   H347      1.0  0.25780  0.96545  0.63238  1.0000
  H   H348      1.0  0.36421  0.96131  0.56103  1.0000
  H   H349      1.0  0.22500  0.96584  0.55180  1.0000
  C   C421      1.0  0.45656  0.97223  0.48420  1.0000
  C   C422      1.0  0.16928  0.73494  0.33609  1.0000
  H   H350      1.0  0.19028  0.93283  0.34472  1.0000
  C   C423      1.0  0.20744  0.77445  0.33628  1.0000
  H   H351      1.0  0.11754  0.47967  0.46958  1.0000
  C   C424      1.0  0.12663  0.61332  0.34335  1.0000
  H   H352      1.0  0.42064  0.96788  0.34249  1.0000
  C   C425      1.0  0.16968  0.97267  0.60717  1.0000
  H   H353      1.0  0.29128  0.97265  0.49339  1.0000
  H   H354      1.0  0.96399  0.73541  0.38851  1.0000
  C   C426      1.0  0.07274  0.65161  0.33373  1.0000
  Fe  Fe26      1.0  0.13896  0.87098  0.69516  1.0000
  S   S55       1.0  0.16232  0.83937  0.72524  1.0000
  C   C427      1.0  0.37339  0.84227  0.76614  1.0000
  H   H355      1.0  0.38878  0.77654  0.70708  1.0000
  S   S56       1.0  0.23059  0.93706  0.74752  1.0000
  Fe  Fe27      1.0  0.22817  0.89287  0.71335  1.0000
  C   C428      1.0  0.33097  0.91026  0.69418  1.0000
  Fe  Fe28      1.0  0.16288  0.88516  0.75739  1.0000
  S   S57       1.0  0.13941  0.86754  0.80298  1.0000
  H   H356      1.0  0.40453  0.79951  0.86503  1.0000
  S   S58       1.0  0.13540  0.91431  0.72797  1.0000
  Fe  Fe29      1.0  0.02766  0.68469  0.97534  1.0000
  S   S59       1.0  0.00421  0.71455  0.94401  1.0000
  H   H357      1.0  0.00732  0.54359  0.80664  1.0000
  H   H358      1.0  0.06079  0.78545  0.97999  1.0000
  Fe  Fe30      1.0  0.00753  0.66957  0.91296  1.0000
  S   S60       1.0  0.03393  0.68794  0.86810  1.0000
  S   S61       1.0  0.03473  0.64187  0.94377  1.0000
  C   C429      1.0  0.11095  0.81736  0.82097  1.0000
  C   C430      1.0  0.09643  0.81659  0.84849  1.0000
  C   C431      1.0  0.07336  0.77758  0.86343  1.0000
  C   C432      1.0  0.06474  0.73867  0.85108  1.0000
  C   C433      1.0  0.08031  0.73967  0.82387  1.0000
  C   C434      1.0  0.10302  0.77857  0.80888  1.0000
  H   H359      1.0  0.10277  0.84637  0.85828  1.0000
  H   H360      1.0  0.06222  0.77761  0.88445  1.0000
  H   H361      1.0  0.07490  0.71010  0.81434  1.0000
  H   H362      1.0  0.11503  0.77869  0.78814  1.0000
  P   P14       1.0  0.05086  0.65961  0.73698  1.0000
  C   C435      1.0  0.39172  0.87138  0.82537  1.0000
  C   C436      1.0  0.39137  0.92883  0.78046  1.0000
  H   H363      1.0  0.01361  0.76294  0.82144  1.0000
  S   S62       1.0  0.96207  0.63312  0.98919  1.0000
  C   C437      1.0  0.38994  0.83278  0.83317  1.0000
  C   C438      1.0  0.25256  0.90085  0.97196  1.0000
  C   C439      1.0  0.41122  0.51330  0.80402  1.0000
  H   H364      1.0  0.22690  0.92946  0.81773  1.0000
  C   C440      1.0  0.41049  0.50049  0.77611  1.0000
  C   C441      1.0  0.42266  0.86378  0.87782  1.0000
  H   H365      1.0  0.31238  0.94827  0.90342  1.0000
  Fe  Fe31      1.0  0.96684  0.59216  0.95513  1.0000
  H   H366      1.0  0.30297  0.88954  0.76562  1.0000
  C   C442      1.0  0.41480  0.81332  0.74490  1.0000
  C   C443      1.0  0.22394  0.82337  0.81006  1.0000
  C   C444      1.0  0.31388  0.96416  0.86001  1.0000
  C   C445      1.0  0.02958  0.76040  0.72592  1.0000
  C   C446      1.0  0.00408  0.64643  0.78619  1.0000
  C   C447      1.0  0.44867  0.93376  0.99666  1.0000
  C   C448      1.0  0.40975  0.83759  0.76585  1.0000
  H   H367      1.0  0.41460  0.55689  0.97352  1.0000
  C   C449      1.0  0.13103  0.76515  0.93226  1.0000
  C   C450      1.0  0.12980  0.74428  0.90732  1.0000
  C   C451      1.0  0.15584  0.76771  0.88490  1.0000
  C   C452      1.0  0.18311  0.81208  0.88740  1.0000
  C   C453      1.0  0.18410  0.83335  0.91230  1.0000
  C   C454      1.0  0.15825  0.80947  0.93483  1.0000
  P   P15       1.0  0.22146  0.88979  0.91718  1.0000
  C   C455      1.0  0.25712  0.89108  0.94413  1.0000
  C   C456      1.0  0.24884  0.91578  0.88521  1.0000
  C   C457      1.0  0.43449  0.53170  0.75589  1.0000
  C   C458      1.0  0.24643  0.80900  0.82630  1.0000
  C   C459      1.0  0.24557  0.93300  0.83636  1.0000
  C   C460      1.0  0.22501  0.91176  0.86100  1.0000
  C   C461      1.0  0.24450  0.85227  0.78825  1.0000
  H   H368      1.0  0.40982  0.93576  0.83926  1.0000
  C   C462      1.0  0.31238  0.87572  0.95916  1.0000
  C   C463      1.0  0.29342  0.94285  0.88470  1.0000
  C   C464      1.0  0.19464  0.91841  0.92772  1.0000
  C   C465      1.0  0.15022  0.89991  0.92478  1.0000
  H   H369      1.0  0.43656  0.56648  0.83308  1.0000
  C   C466      1.0  0.34759  0.95472  0.69519  1.0000
  C   C467      1.0  0.99140  0.67453  0.70905  1.0000
  H   H370      1.0  0.09571  0.90796  0.93156  1.0000
  H   H371      1.0  0.11109  0.74689  0.94971  1.0000
  H   H372      1.0  0.10839  0.70995  0.90529  1.0000
  H   H373      1.0  0.15416  0.75138  0.86547  1.0000
  H   H374      1.0  0.20333  0.82945  0.86997  1.0000
  H   H375      1.0  0.15959  0.82508  0.95455  1.0000
  H   H376      1.0  0.97705  0.57694  0.72183  1.0000
  H   H377      1.0  0.19043  0.89227  0.86113  1.0000
  C   C468      1.0  0.42047  0.94284  0.75808  1.0000
  H   H378      1.0  0.28973  0.86866  0.91683  1.0000
  H   H379      1.0  0.13099  0.86783  0.91636  1.0000
  H   H380      1.0  0.00371  0.67563  0.78125  1.0000
  C   C469      1.0  0.13009  0.92273  0.93313  1.0000
  C   C470      1.0  0.99519  0.55330  0.68634  1.0000
  C   C471      1.0  0.02396  0.63073  0.76831  1.0000
  C   C472      1.0  0.27822  0.89874  0.99308  1.0000
  H   H381      1.0  0.04052  0.58102  0.76246  1.0000
  H   H382      1.0  0.30636  0.81266  0.83407  1.0000
  H   H383      1.0  0.01980  0.81485  0.78533  1.0000
  H   H384      1.0  0.97178  0.63814  0.82560  1.0000
  C   C473      1.0  0.44892  0.57741  0.97174  1.0000
  H   H385      1.0  0.42954  0.92153  0.74823  1.0000
  C   C474      1.0  0.08947  0.80314  0.99225  1.0000
  C   C475      1.0  0.04688  0.73515  0.73449  1.0000
  H   H386      1.0  0.37568  0.80512  0.81939  1.0000
  H   H387      1.0  0.32857  0.48431  0.75180  1.0000
  H   H388      1.0  0.45567  0.73344  0.93728  1.0000
  H   H389      1.0  0.19053  0.81203  0.81424  1.0000
  H   H390      1.0  0.22882  0.90945  0.97762  1.0000
  C   C476      1.0  0.15414  0.96407  0.94434  1.0000
  H   H391      1.0  0.04515  0.79406  0.73170  1.0000
  H   H392      1.0  0.97363  0.57266  0.83856  1.0000
  H   H393      1.0  0.39274  0.49012  0.82003  1.0000
  C   C477      1.0  0.40572  0.82921  0.85917  1.0000
  H   H394      1.0  0.25305  0.97534  0.94036  1.0000
  C   C478      1.0  0.38439  0.79469  0.72360  1.0000
  H   H395      1.0  0.97658  0.64175  0.70168  1.0000
  H   H396      1.0  0.32848  0.96751  0.70368  1.0000
  C   C479      1.0  0.28994  0.95911  0.83582  1.0000
  H   H397      1.0  0.22670  0.86271  0.77544  1.0000
  S   S63       1.0  0.27848  0.87352  0.70576  1.0000
  C   C480      1.0  0.44581  0.93944  0.96793  1.0000
  H   H398      1.0  0.32558  0.78654  0.70648  1.0000
  C   C481      1.0  0.00263  0.58314  0.70750  1.0000
  C   C482      1.0  0.43600  0.55665  0.81154  1.0000
  C   C483      1.0  0.28675  0.87780  0.93795  1.0000
  C   C484      1.0  0.10736  0.69403  0.74414  1.0000
  C   C485      1.0  0.13354  0.72555  0.72469  1.0000
  C   C486      1.0  0.17712  0.75249  0.73006  1.0000
  C   C487      1.0  0.19480  0.74873  0.75515  1.0000
  C   C488      1.0  0.16895  0.71792  0.77486  1.0000
  C   C489      1.0  0.12543  0.69058  0.76940  1.0000
  H   H399      1.0  0.07509  0.74954  0.74752  1.0000
  C   C490      1.0  0.04253  0.62089  0.70986  1.0000
  H   H400      1.0  0.31593  0.82864  0.74340  1.0000
  C   C491      1.0  0.34327  0.82397  0.74444  1.0000
  C   C492      1.0  0.99090  0.78369  0.78667  1.0000
  H   H401      1.0  0.23039  0.78617  0.84302  1.0000
  H   H402      1.0  0.98050  0.76272  0.70176  1.0000
  H   H403      1.0  0.35736  0.94709  0.80948  1.0000
  S   S64       1.0  0.20462  0.92094  0.68050  1.0000
  C   C493      1.0  0.42202  0.95870  0.95913  1.0000
  C   C494      1.0  0.28971  0.82416  0.82108  1.0000
  C   C495      1.0  0.21872  0.96044  0.93814  1.0000
  H   H404      1.0  0.43447  0.85305  0.78159  1.0000
  H   H405      1.0  0.12016  0.72937  0.70538  1.0000
  H   H406      1.0  0.19715  0.77680  0.71492  1.0000
  H   H407      1.0  0.22849  0.77000  0.75936  1.0000
  H   H408      1.0  0.18260  0.71527  0.79444  1.0000
  H   H409      1.0  0.10614  0.66717  0.78509  1.0000
  H   H410      1.0  0.44274  0.80955  0.74491  1.0000
  C   C496      1.0  0.37990  0.95738  0.79234  1.0000
  C   C497      1.0  0.98694  0.58826  0.81870  1.0000
  H   H411      1.0  0.33576  0.86619  0.95434  1.0000
  Fe  Fe32      1.0  0.20300  0.96272  0.71524  1.0000
  C   C498      1.0  0.31087  0.85380  0.79944  1.0000
  C   C499      1.0  0.34876  0.80020  0.72330  1.0000
  C   C500      1.0  0.28774  0.86741  0.78285  1.0000
  H   H412      1.0  0.10611  0.65645  0.69198  1.0000
  P   P16       1.0  0.36709  0.87412  0.79298  1.0000
  C   C501      1.0  0.40869  0.90593  0.84434  1.0000
  C   C502      1.0  0.07507  0.62789  0.69089  1.0000
  C   C503      1.0  0.02846  0.69221  0.72567  1.0000
  C   C504      1.0  0.42402  0.90204  0.87046  1.0000
  C   C505      1.0  0.98754  0.75433  0.80702  1.0000
  H   H413      1.0  0.34327  0.85992  0.68144  1.0000
  C   C506      1.0  0.98586  0.62527  0.81134  1.0000
  C   C507      1.0  0.00613  0.57210  0.80081  1.0000
  H   H414      1.0  0.41946  0.96342  0.93701  1.0000
  C   C508      1.0  0.40180  0.97240  0.97871  1.0000
  C   C509      1.0  0.30797  0.88605  0.98672  1.0000
  C   C510      1.0  0.35612  0.89423  0.68280  1.0000
  C   C511      1.0  0.02477  0.59334  0.77576  1.0000
  H   H415      1.0  0.44589  0.59972  0.93062  1.0000
  H   H416      1.0  0.45238  0.87032  0.67767  1.0000
  C   C512      1.0  0.99302  0.74269  0.70914  1.0000
  H   H417      1.0  0.43468  0.86092  0.89806  1.0000
  H   H418      1.0  0.99016  0.79037  0.97925  1.0000
  H   H419      1.0  0.43425  0.52262  0.73419  1.0000
  H   H420      1.0  0.09568  0.86468  0.98289  1.0000
  H   H421      1.0  0.11670  0.77750  0.67173  1.0000
  C   C513      1.0  0.96743  0.77415  0.99596  1.0000
  C   C514      1.0  0.39736  0.92228  0.67238  1.0000
  C   C515      1.0  0.41449  0.96675  0.67408  1.0000
  H   H422      1.0  0.43701  0.92865  0.88519  1.0000
  C   C516      1.0  0.10948  0.84818  0.99381  1.0000
  C   C517      1.0  0.97374  0.69968  0.70091  1.0000
  H   H423      1.0  0.44963  0.75202  0.88798  1.0000
  C   C518      1.0  0.44398  0.51039  0.66933  1.0000
  H   H424      1.0  0.28436  0.47840  0.71069  1.0000
  C   C519      1.0  0.06751  0.59799  0.66970  1.0000
  C   C520      1.0  0.02759  0.56081  0.66737  1.0000
  H   H425      1.0  0.96456  0.78604  0.87120  1.0000
  H   H426      1.0  0.96411  0.52457  0.68444  1.0000
  C   C521      1.0  0.45984  0.47785  0.98811  1.0000
  C   C522      1.0  0.46040  0.58738  0.79135  1.0000
  C   C523      1.0  0.45953  0.57489  0.76354  1.0000
  H   H427      1.0  0.30555  0.97582  0.81671  1.0000
  Fe  Fe33      1.0  0.70415  0.02681  0.30701  1.0000
  S   S65       1.0  0.67196  0.04743  0.27555  1.0000
  C   C524      1.0  0.69421  0.07637  0.09116  1.0000
  C   C525      1.0  0.90289  0.42822  0.10818  1.0000
  Fe  Fe34      1.0  0.68057  0.00460  0.24513  1.0000
  S   S66       1.0  0.70820  0.02241  0.20035  1.0000
  C   C526      1.0  0.93628  0.26910  0.15424  1.0000
  Fe  Fe35      1.0  0.80262  0.20581  0.02771  1.0000
  S   S67       1.0  0.82546  0.17388  0.05785  1.0000
  C   C527      1.0  0.94842  0.23003  0.11710  1.0000
  Fe  Fe36      1.0  0.86751  0.29744  0.04738  1.0000
  S   S68       1.0  0.89362  0.27105  0.08006  1.0000
  S   S69       1.0  0.89832  0.37131  0.04771  1.0000
  Fe  Fe37      1.0  0.89143  0.22716  0.04572  1.0000
  Fe  Fe38      1.0  0.82550  0.21983  0.08965  1.0000
  S   S70       1.0  0.79425  0.20125  0.13332  1.0000
  C   C528      1.0  0.49903  0.47307  0.23308  1.0000
  S   S71       1.0  0.79972  0.25007  0.05995  1.0000
  H   H428      1.0  0.92408  0.16256  0.19652  1.0000
  H   H429      1.0  0.88589  0.40824  0.19322  1.0000
  C   C529      1.0  0.68602  0.17403  0.09820  1.0000
  C   C530      1.0  0.76827  0.15029  0.15058  1.0000
  C   C531      1.0  0.74629  0.14604  0.17579  1.0000
  C   C532      1.0  0.72765  0.10731  0.19127  1.0000
  C   C533      1.0  0.73043  0.07201  0.18159  1.0000
  C   C534      1.0  0.75150  0.07594  0.15600  1.0000
  C   C535      1.0  0.77032  0.11473  0.14062  1.0000
  H   H430      1.0  0.74365  0.17293  0.18340  1.0000
  H   H431      1.0  0.71108  0.10470  0.21068  1.0000
  H   H432      1.0  0.75344  0.04879  0.14804  1.0000
  H   H433      1.0  0.78670  0.11716  0.12116  1.0000
  H   H434      1.0  0.85950  0.44241  0.08679  1.0000
  C   C536      1.0  0.91276  0.36753  0.18515  1.0000
  H   H435      1.0  0.72346  0.07637  0.05211  1.0000
  H   H436      1.0  0.75689  0.43930  0.04625  1.0000
  P   P17       1.0  0.95050  0.31850  0.17268  1.0000
  H   H437      1.0  0.81204  0.15304  0.21209  1.0000
  C   C537      1.0  0.85301  0.17874  0.24815  1.0000
  C   C538      1.0  0.70059  0.05673  0.06791  1.0000
  H   H438      1.0  0.89927  0.16409  0.11140  1.0000
  H   H439      1.0  0.87861  0.33341  0.27537  1.0000
  C   C539      1.0  0.54146  0.13127  0.03290  1.0000
  C   C540      1.0  0.51821  0.98491  0.12781  1.0000
  H   H440      1.0  0.58304  0.11262  0.11962  1.0000
  S   S72       1.0  0.71610  0.98674  0.27618  1.0000
  C   C541      1.0  0.79955  0.36028  0.29995  1.0000
  H   H441      1.0  0.89253  0.19565  0.28467  1.0000
  H   H442      1.0  0.71274  0.11096  0.09351  1.0000
  H   H443      1.0  0.56847  0.13557  0.02055  1.0000
  H   H444      1.0  0.75029  0.18230  0.23498  1.0000
  C   C542      1.0  0.67831  0.01195  0.06536  1.0000
  H   H445      1.0  0.87863  0.23115  0.17842  1.0000
  H   H446      1.0  0.53346  0.97784  0.14491  1.0000
  H   H447      1.0  0.57661  0.03871  0.11339  1.0000
  H   H448      1.0  0.61270  0.99601  0.01211  1.0000
  H   H449      1.0  0.85650  0.16450  0.15193  1.0000
  H   H450      1.0  0.53092  0.17458  0.00739  1.0000
  C   C543      1.0  0.88889  0.45588  0.09868  1.0000
  C   C544      1.0  0.61037  0.12557  0.10573  1.0000
  H   H451      1.0  0.55391  0.46687  0.24418  1.0000
  H   H452      1.0  0.81415  0.08531  0.21164  1.0000
  C   C545      1.0  0.92965  0.28842  0.25611  1.0000
  S   S73       1.0  0.55586  0.99886  0.29876  1.0000
  C   C546      1.0  0.90863  0.41151  0.02188  1.0000
  C   C547      1.0  0.54250  0.01978  0.11010  1.0000
  C   C548      1.0  0.92446  0.29697  0.22826  1.0000
  H   H453      1.0  0.93947  0.38529  0.19925  1.0000
  C   C549      1.0  0.84799  0.35829  0.16356  1.0000
  C   C550      1.0  0.78076  0.44212  0.23034  1.0000
  H   H454      1.0  0.85038  0.20740  0.24901  1.0000
  H   H455      1.0  0.80753  0.24025  0.20633  1.0000
  H   H456      1.0  0.83564  0.31631  0.21933  1.0000
  H   H457      1.0  0.72013  0.20081  0.27558  1.0000
  H   H458      1.0  0.82463  0.36849  0.16085  1.0000
  H   H459      1.0  0.95738  0.37331  0.27282  1.0000
  C   C551      1.0  0.51941  0.45128  0.24333  1.0000
  H   H460      1.0  0.71725  0.19751  0.10618  1.0000
  C   C552      1.0  0.87179  0.38695  0.26133  1.0000
  C   C553      1.0  0.89495  0.36641  0.26817  1.0000
  C   C554      1.0  0.93959  0.38885  0.26679  1.0000
  C   C555      1.0  0.76226  0.21575  0.24027  1.0000
  C   C556      1.0  0.76104  0.42241  0.20513  1.0000
  C   C557      1.0  0.89423  0.43032  0.25308  1.0000
  C   C558      1.0  0.47874  0.00271  0.08360  1.0000
  S   S74       1.0  0.86296  0.27478  0.32656  1.0000
  P   P18       1.0  0.81404  0.35806  0.26396  1.0000
  C   C559      1.0  0.79614  0.42222  0.24825  1.0000
  C   C560      1.0  0.52273  0.02948  0.08822  1.0000
  C   C561      1.0  0.79234  0.38252  0.24103  1.0000
  H   H461      1.0  0.81741  0.30574  0.13415  1.0000
  C   C562      1.0  0.55987  0.04743  0.03365  1.0000
  P   P19       1.0  0.90963  0.12406  0.29408  1.0000
  C   C563      1.0  0.68118  0.16174  0.07006  1.0000
  C   C564      1.0  0.91633  0.46276  0.32149  1.0000
  H   H462      1.0  0.85681  0.07289  0.24689  1.0000
  H   H463      1.0  0.76152  0.12927  0.29351  1.0000
  H   H464      1.0  0.63837  0.12218  0.03785  1.0000
  H   H465      1.0  0.81874  0.06709  0.30477  1.0000
  H   H466      1.0  0.88439  0.39418  0.10345  1.0000
  C   C565      1.0  0.74516  0.22619  0.26318  1.0000
  H   H467      1.0  0.74538  0.36830  0.28982  1.0000
  C   C566      1.0  0.79388  0.30223  0.25491  1.0000
  C   C567      1.0  0.58762  0.03070  0.03455  1.0000
  H   H468      1.0  0.76837  0.33202  0.20967  1.0000
  H   H469      1.0  0.81134  0.43806  0.26773  1.0000
  S   S75       1.0  0.94333  0.21008  0.03793  1.0000
  C   C568      1.0  0.91017  0.19298  0.12386  1.0000
  C   C569      1.0  0.81053  0.29143  0.23172  1.0000
  H   H470      1.0  0.51178  0.05159  0.00871  1.0000
  P   P20       1.0  0.55364  0.07303  0.06433  1.0000
  C   C570      1.0  0.65061  0.15600  0.11602  1.0000
  C   C571      1.0  0.90881  0.33209  0.17011  1.0000
  H   H471      1.0  0.46300  0.00872  0.06628  1.0000
  C   C572      1.0  0.88596  0.19330  0.14654  1.0000
  H   H472      1.0  0.60631  0.03437  0.05315  1.0000
  C   C573      1.0  0.79476  0.24838  0.22440  1.0000
  H   H473      1.0  0.65439  0.16579  0.13780  1.0000
  H   H474      1.0  0.74706  0.27637  0.28840  1.0000
  C   C574      1.0  0.83133  0.98227  0.32149  1.0000
  C   C575      1.0  0.78213  0.14806  0.31057  1.0000
  C   C576      1.0  0.60558  0.11204  0.07770  1.0000
  C   C577      1.0  0.76430  0.36530  0.30627  1.0000
  C   C578      1.0  0.88254  0.38068  0.18177  1.0000
  H   H475      1.0  0.66044  0.06677  0.12996  1.0000
  H   H476      1.0  0.70849  0.17580  0.05612  1.0000
  H   H477      1.0  0.49620  0.01447  0.32830  1.0000
  C   C579      1.0  0.77227  0.36279  0.21570  1.0000
  H   H478      1.0  0.87130  0.28388  0.13893  1.0000
  H   H479      1.0  0.61974  0.98783  0.12550  1.0000
  H   H480      1.0  0.90410  0.27971  0.27117  1.0000
  C   C580      1.0  0.48524  0.14809  0.04096  1.0000
  H   H481      1.0  0.48221  0.07899  0.09041  1.0000
  C   C581      1.0  0.66476  0.05140  0.11169  1.0000
  C   C582      1.0  0.84394  0.32307  0.14851  1.0000
  C   C583      1.0  0.52035  0.15349  0.02541  1.0000
  C   C584      1.0  0.53528  0.04134  0.00951  1.0000
  H   H482      1.0  0.94393  0.46377  0.05076  1.0000
  C   C585      1.0  0.79038  0.46250  0.04307  1.0000
  H   H483      1.0  0.80429  0.20886  0.28985  1.0000
  H   H484      1.0  0.74889  0.43780  0.19134  1.0000
  H   H485      1.0  0.94428  0.14181  0.15196  1.0000
  C   C586      1.0  0.89880  0.23119  0.16163  1.0000
  C   C587      1.0  0.87449  0.31036  0.15149  1.0000
  C   C588      1.0  0.83104  0.14792  0.22747  1.0000
  C   C589      1.0  0.83256  0.10988  0.22712  1.0000
  C   C590      1.0  0.85656  0.10290  0.24724  1.0000
  C   C591      1.0  0.87900  0.13384  0.26808  1.0000
  C   C592      1.0  0.87693  0.17184  0.26840  1.0000
  C   C593      1.0  0.80693  0.47210  0.01592  1.0000
  C   C594      1.0  0.59136  0.00900  0.01138  1.0000
  C   C595      1.0  0.49522  0.40891  0.25276  1.0000
  C   C596      1.0  0.93240  0.45527  0.02951  1.0000
  H   H486      1.0  0.74090  0.36721  0.17845  1.0000
  C   C597      1.0  0.80645  0.19317  0.30850  1.0000
  C   C598      1.0  0.75667  0.38270  0.19786  1.0000
  C   C599      1.0  0.83490  0.04894  0.30814  1.0000
  S   S76       1.0  0.86842  0.25537  0.01259  1.0000
  C   C600      1.0  0.52721  0.10301  0.05580  1.0000
  C   C601      1.0  0.64119  0.13091  0.05980  1.0000
  C   C602      1.0  0.76074  0.26922  0.27046  1.0000
  Fe  Fe39      1.0  0.61116  0.98746  0.28874  1.0000
  H   H487      1.0  0.89440  0.29412  0.22199  1.0000
  H   H488      1.0  0.85909  0.14782  0.00348  1.0000
  H   H489      1.0  0.93359  0.05831  0.30653  1.0000
  H   H490      1.0  0.87792  0.44782  0.24849  1.0000
  H   H491      1.0  0.77787  0.11093  0.01073  1.0000
  C   C603      1.0  0.64209  0.00665  0.10916  1.0000
  C   C604      1.0  0.82171  0.35409  0.32194  1.0000
  H   H492      1.0  0.84808  0.34871  0.31776  1.0000
  H   H493      1.0  0.80385  0.47385  0.08699  1.0000
  C   C605      1.0  0.49300  0.09915  0.07200  1.0000
  H   H494      1.0  0.78415  0.47288  0.23618  1.0000
  H   H495      1.0  0.51093  0.39240  0.26116  1.0000
  C   C606      1.0  0.88506  0.47340  0.31415  1.0000
  C   C607      1.0  0.64929  0.98645  0.08623  1.0000
  H   H496      1.0  0.85165  0.45000  0.31689  1.0000
  C   C608      1.0  0.93886  0.45262  0.25184  1.0000
  C   C609      1.0  0.95771  0.30871  0.20885  1.0000
  H   H497      1.0  0.93775  0.11602  0.23749  1.0000
  C   C610      1.0  0.87922  0.06829  0.30427  1.0000
  H   H498      1.0  0.68442  0.99769  0.04728  1.0000
  C   C611      1.0  0.47180  0.12119  0.06435  1.0000
  C   C612      1.0  0.89942  0.04415  0.30911  1.0000
  C   C613      1.0  0.95719  0.17888  0.18985  1.0000
  C   C614      1.0  0.95089  0.20136  0.32367  1.0000
  C   C615      1.0  0.96056  0.13510  0.27997  1.0000
  C   C616      1.0  0.48023  0.98042  0.32376  1.0000
  C   C617      1.0  0.91944  0.15764  0.32461  1.0000
  C   C618      1.0  0.87544  0.00120  0.31754  1.0000
  C   C619      1.0  0.81116  0.00624  0.31695  1.0000
  H   H499      1.0  0.95722  0.35437  0.00940  1.0000
  H   H500      1.0  0.95216  0.42287  0.12982  1.0000
  H   H501      1.0  0.46836  0.16468  0.03491  1.0000
  H   H502      1.0  0.77708  0.99191  0.32046  1.0000
  H   H503      1.0  0.90683  0.43125  0.32958  1.0000
  C   C620      1.0  0.83377  0.21811  0.33031  1.0000
  C   C621      1.0  0.94127  0.44445  0.12291  1.0000
  H   H504      1.0  0.89109  0.98262  0.32119  1.0000
  S   S77       1.0  0.74346  0.16767  0.00086  1.0000
  H   H505      1.0  0.56758  0.99160  0.36723  1.0000
  S   S78       1.0  0.91920  0.38146  0.37203  1.0000
  H   H506      1.0  0.89459  0.15953  0.61477  1.0000
  H   H507      1.0  0.82902  0.45836  0.36487  1.0000
  Fe  Fe40      1.0  0.91766  0.32236  0.35430  1.0000
  H   H508      1.0  0.89172  0.22333  0.47981  1.0000
  C   C622      1.0  0.92166  0.21436  0.58716  1.0000
  S   S79       1.0  0.95149  0.31468  0.39166  1.0000
  C   C623      1.0  0.93965  0.20908  0.37281  1.0000
  Fe  Fe41      1.0  0.60191  0.01553  0.61789  1.0000
  S   S80       1.0  0.67331  0.06954  0.61879  1.0000
  S   S81       1.0  0.55138  0.03137  0.60405  1.0000
  C   C624      1.0  0.81184  0.15241  0.35660  1.0000
  C   C625      1.0  0.74326  0.21240  0.60064  1.0000
  C   C626      1.0  0.71869  0.09001  0.64200  1.0000
  C   C627      1.0  0.93727  0.42811  0.47069  1.0000
  C   C628      1.0  0.95925  0.24961  0.57710  1.0000
  H   H509      1.0  0.72557  0.37003  0.33884  1.0000
  H   H510      1.0  0.46948  0.05789  0.51823  1.0000
  C   C629      1.0  0.59382  0.00430  0.46203  1.0000
  H   H511      1.0  0.82351  0.38762  0.49989  1.0000
  C   C630      1.0  0.53121  0.33693  0.51679  1.0000
  C   C631      1.0  0.46978  0.04518  0.56219  1.0000
  H   H512      1.0  0.87297  0.10684  0.35133  1.0000
  C   C632      1.0  0.78995  0.24585  0.64036  1.0000
  S   S82       1.0  0.85873  0.43462  0.64490  1.0000
  C   C633      1.0  0.78472  0.12745  0.33469  1.0000
  C   C634      1.0  0.77521  0.36022  0.35586  1.0000
  C   C635      1.0  0.83646  0.19753  0.35439  1.0000
  S   S83       1.0  0.95185  0.39226  0.45409  1.0000
  H   H513      1.0  0.52652  0.45647  0.43022  1.0000
  H   H514      1.0  0.85713  0.21636  0.37142  1.0000
  C   C636      1.0  0.53768  0.45824  0.47469  1.0000
  H   H515      1.0  0.72513  0.19341  0.64351  1.0000
  Fe  Fe42      1.0  0.50882  0.98496  0.63718  1.0000
  C   C637      1.0  0.66173  0.03409  0.40338  1.0000
  C   C638      1.0  0.75029  0.21529  0.62954  1.0000
  C   C639      1.0  0.75693  0.12757  0.63455  1.0000
  H   H516      1.0  0.84166  0.17963  0.51764  1.0000
  C   C640      1.0  0.62379  0.05139  0.35806  1.0000
  C   C641      1.0  0.48607  0.45761  0.59925  1.0000
  H   H517      1.0  0.80964  0.42841  0.53630  1.0000
  H   H518      1.0  0.95154  0.47461  0.64517  1.0000
  C   C642      1.0  0.50991  0.44828  0.58044  1.0000
  C   C643      1.0  0.93839  0.44296  0.65416  1.0000
  H   H519      1.0  0.82130  0.17583  0.64684  1.0000
  C   C644      1.0  0.46357  0.33414  0.52379  1.0000
  C   C645      1.0  0.90819  0.16576  0.37391  1.0000
  C   C646      1.0  0.92429  0.31588  0.60347  1.0000
  C   C647      1.0  0.52994  0.40225  0.52803  1.0000
  C   C648      1.0  0.55289  0.38127  0.52180  1.0000
  C   C649      1.0  0.75259  0.36583  0.33413  1.0000
  C   C650      1.0  0.80951  0.35402  0.34974  1.0000
  H   H520      1.0  0.85098  0.46728  0.41479  1.0000
  H   H521      1.0  0.92680  0.30290  0.48132  1.0000
  H   H522      1.0  0.76980  0.23779  0.56021  1.0000
  C   C651      1.0  0.82271  0.27342  0.62232  1.0000
  H   H523      1.0  0.81335  0.41289  0.58678  1.0000
  H   H524      1.0  0.54903  0.32089  0.51186  1.0000
  H   H525      1.0  0.71245  0.18848  0.59236  1.0000
  H   H526      1.0  0.67706  0.02767  0.42070  1.0000
  H   H527      1.0  0.46971  0.27923  0.51337  1.0000
  C   C652      1.0  0.66636  0.08007  0.36493  1.0000
  C   C653      1.0  0.88511  0.23892  0.49695  1.0000
  H   H528      1.0  0.75868  0.14249  0.61459  1.0000
  H   H529      1.0  0.85255  0.29772  0.63136  1.0000
  H   H530      1.0  0.47184  0.43746  0.61746  1.0000
  C   C654      1.0  0.92323  0.45223  0.45564  1.0000
  H   H531      1.0  0.46673  0.39401  0.53286  1.0000
  H   H532      1.0  0.90532  0.28162  0.60708  1.0000
  H   H533      1.0  0.83486  0.36108  0.60065  1.0000
  H   H534      1.0  0.59411  0.04124  0.49772  1.0000
  H   H535      1.0  0.82637  0.34852  0.36653  1.0000
  H   H536      1.0  0.58739  0.39908  0.52047  1.0000
  H   H537      1.0  0.51379  0.42079  0.58448  1.0000
  H   H538      1.0  0.89083  0.20912  0.58042  1.0000
  H   H539      1.0  0.82647  0.21476  0.55659  1.0000
  H   H540      1.0  0.94763  0.22889  0.39142  1.0000
  H   H541      1.0  0.58477  0.02165  0.44760  1.0000
  P   P21       1.0  0.55698  0.45998  0.53166  1.0000
  C   C655      1.0  0.90494  0.28368  0.49783  1.0000
  C   C656      1.0  0.59942  0.01576  0.49033  1.0000
  S   S84       1.0  0.75530  0.07075  0.33822  1.0000
  C   C657      1.0  0.61924  0.00446  0.39613  1.0000
  C   C658      1.0  0.93966  0.43226  0.50014  1.0000
  H   H542      1.0  0.84181  0.33284  0.51336  1.0000
  H   H543      1.0  0.92320  0.39856  0.56913  1.0000
  H   H544      1.0  0.47488  0.22931  0.55214  1.0000
  C   C659      1.0  0.93413  0.38146  0.58227  1.0000
  H   H545      1.0  0.71853  0.09348  0.39258  1.0000
  H   H546      1.0  0.76581  0.36005  0.37743  1.0000
  C   C660      1.0  0.85679  0.21435  0.51819  1.0000
  C   C661      1.0  0.79277  0.14646  0.65277  1.0000
  S   S85       1.0  0.46781  0.00327  0.66377  1.0000
  C   C662      1.0  0.68524  0.07155  0.38769  1.0000
  H   H547      1.0  0.91241  0.33859  0.52035  1.0000
  C   C663      1.0  0.89640  0.30386  0.51987  1.0000
  H   H548      1.0  0.81378  0.13672  0.37539  1.0000
  C   C664      1.0  0.82513  0.38098  0.52185  1.0000
  C   C665      1.0  0.81728  0.40397  0.54235  1.0000
  C   C666      1.0  0.81991  0.39581  0.57066  1.0000
  C   C667      1.0  0.83179  0.36592  0.57853  1.0000
  C   C668      1.0  0.84032  0.34314  0.55813  1.0000
  C   C669      1.0  0.83619  0.35028  0.52965  1.0000
  P   P22       1.0  0.85764  0.30652  0.56955  1.0000
  C   C670      1.0  0.90880  0.33694  0.58653  1.0000
  C   C671      1.0  0.81634  0.26992  0.59317  1.0000
  C   C672      1.0  0.52769  0.47362  0.55641  1.0000
  C   C673      1.0  0.92370  0.18621  0.60642  1.0000
  S   S86       1.0  0.50680  0.97724  0.52946  1.0000
  H   H549      1.0  0.92149  0.45001  0.43302  1.0000
  C   C674      1.0  0.77599  0.23991  0.58252  1.0000
  H   H550      1.0  0.49483  0.03722  0.56027  1.0000
  H   H551      1.0  0.51483  0.42441  0.47714  1.0000
  H   H552      1.0  0.95669  0.27116  0.56249  1.0000
  H   H553      1.0  0.89134  0.15208  0.39331  1.0000
  C   C675      1.0  0.89785  0.14015  0.34990  1.0000
  C   C676      1.0  0.86703  0.27946  0.54087  1.0000
  C   C677      1.0  0.84786  0.23448  0.54015  1.0000
  Fe  Fe43      1.0  0.95830  0.37777  0.40745  1.0000
  C   C678      1.0  0.48514  0.37837  0.52877  1.0000
  C   C679      1.0  0.48656  0.31341  0.51769  1.0000
  C   C680      1.0  0.61045  0.99347  0.50937  1.0000
  H   H554      1.0  0.60921  0.05799  0.34035  1.0000
  C   C681      1.0  0.89408  0.41645  0.65574  1.0000
  H   H555      1.0  0.48661  0.99070  0.47333  1.0000
  H   H556      1.0  0.95089  0.41450  0.51219  1.0000
  C   C682      1.0  0.60024  0.01358  0.37347  1.0000
  H   H557      1.0  0.68499  0.10852  0.35232  1.0000
  H   H558      1.0  0.79535  0.24814  0.66280  1.0000
  H   H559      1.0  0.59339  0.47135  0.58848  1.0000
  C   C683      1.0  0.92761  0.45920  0.51433  1.0000
  H   H560      1.0  0.61412  0.00215  0.53136  1.0000
  H   H561      1.0  0.92938  0.46150  0.53694  1.0000
  C   C684      1.0  0.96074  0.22695  0.34767  1.0000
  H   H562      1.0  0.46281  0.03413  0.60668  1.0000
  C   C685      1.0  0.90434  0.43438  0.97439  1.0000
  H   H563      1.0  0.74118  0.16196  0.88506  1.0000
  C   C686      1.0  0.84725  0.10495  0.92745  1.0000
  H   H564      1.0  0.51938  0.45262  0.75235  1.0000
  Fe  Fe44      1.0  0.90436  0.20750  0.70737  1.0000
  S   S87       1.0  0.83470  0.15059  0.70359  1.0000
  S   S88       1.0  0.92385  0.26368  0.73713  1.0000
  C   C687      1.0  0.89482  0.40134  0.99407  1.0000
  H   H565      1.0  0.89078  0.31251  0.91474  1.0000
  H   H566      1.0  0.93960  0.27148  0.83294  1.0000
  C   C688      1.0  0.69787  0.04148  0.90133  1.0000
  C   C689      1.0  0.72942  0.12844  0.88985  1.0000
  H   H567      1.0  0.59518  0.00370  0.79801  1.0000
  C   C690      1.0  0.68637  0.09850  0.88490  1.0000
  H   H568      1.0  0.77293  0.24560  0.96036  1.0000
  C   C691      1.0  0.69522  0.05654  0.76153  1.0000
  C   C692      1.0  0.69692  0.02798  0.97466  1.0000
  C   C693      1.0  0.83402  0.13467  0.93383  1.0000
  C   C694      1.0  0.66430  0.01374  0.76667  1.0000
  H   H569      1.0  0.82716  0.17174  0.96738  1.0000
  C   C695      1.0  0.71788  0.07034  0.66747  1.0000
  H   H570      1.0  0.64516  0.03094  0.95470  1.0000
  H   H571      1.0  0.56272  0.99776  0.84430  1.0000
  C   C696      1.0  0.93320  0.32593  0.84429  1.0000
  C   C697      1.0  0.95469  0.21452  0.94455  1.0000
  C   C698      1.0  0.69001  0.07871  0.73927  1.0000
  H   H572      1.0  0.57046  0.98750  0.96910  1.0000
  C   C699      1.0  0.62788  0.99276  0.74954  1.0000
  H   H573      1.0  0.84406  0.09256  0.90635  1.0000
  C   C700      1.0  0.68819  0.09083  0.97543  1.0000
  H   H574      1.0  0.82735  0.15546  0.80316  1.0000
  H   H575      1.0  0.89133  0.32796  0.68498  1.0000
  H   H576      1.0  0.68952  0.04074  0.67324  1.0000
  C   C701      1.0  0.62361  0.01489  0.72666  1.0000
  H   H577      1.0  0.76124  0.17665  0.94186  1.0000
  C   C702      1.0  0.88698  0.17416  0.82386  1.0000
  H   H578      1.0  0.52188  0.01708  0.96727  1.0000
  H   H579      1.0  0.87443  0.06772  0.94330  1.0000
  C   C703      1.0  0.94742  0.29666  0.84825  1.0000
  H   H580      1.0  0.76081  0.05997  0.91553  1.0000
  H   H581      1.0  0.90463  0.17963  0.80445  1.0000
  C   C704      1.0  0.85545  0.13560  0.98227  1.0000
  H   H582      1.0  0.87978  0.24380  0.89603  1.0000
  H   H583      1.0  0.92214  0.19064  0.94892  1.0000
  C   C705      1.0  0.46687  0.38810  0.74720  1.0000
  C   C706      1.0  0.90799  0.18114  0.84954  1.0000
  C   C707      1.0  0.79139  0.12752  0.67870  1.0000
  S   S89       1.0  0.95469  0.19453  0.72548  1.0000
  C   C708      1.0  0.82077  0.15398  0.84819  1.0000
  H   H584      1.0  0.71439  0.11164  0.73491  1.0000
  H   H585      1.0  0.90258  0.18101  0.89423  1.0000
  C   C709      1.0  0.67372  0.04805  0.96725  1.0000
  C   C710      1.0  0.84343  0.16061  0.82318  1.0000
  C   C711      1.0  0.84161  0.16084  0.87414  1.0000
  C   C712      1.0  0.86874  0.10625  0.97570  1.0000
  H   H586      1.0  0.93887  0.26261  0.93328  1.0000
  H   H587      1.0  0.78714  0.14375  0.84706  1.0000
  H   H588      1.0  0.66517  0.10904  0.87673  1.0000
  H   H589      1.0  0.83772  0.31386  0.94692  1.0000
  C   C713      1.0  0.86445  0.09077  0.94833  1.0000
  C   C714      1.0  0.94457  0.35936  0.86345  1.0000
  H   H590      1.0  0.63719  0.03176  0.88710  1.0000
  H   H591      1.0  0.84307  0.35403  0.66810  1.0000
  H   H592      1.0  0.67014  0.10617  0.96949  1.0000
  C   C715      1.0  0.56781  0.00437  0.98710  1.0000
  H   H593      1.0  0.89333  0.42597  0.95302  1.0000
  H   H594      1.0  0.87687  0.36804  0.98771  1.0000
  H   H595      1.0  0.66876  0.99692  0.78400  1.0000
  C   C716      1.0  0.65428  0.05786  0.72184  1.0000
  C   C717      1.0  0.88553  0.17473  0.87459  1.0000
  H   H596      1.0  0.72357  0.07243  0.77452  1.0000
  H   H597      1.0  0.65104  0.07467  0.70398  1.0000
  H   H598      1.0  0.93396  0.38239  0.86019  1.0000
  C   C718      1.0  0.79583  0.24527  0.94584  1.0000
  C   C719      1.0  0.83241  0.28359  0.93841  1.0000
  C   C720      1.0  0.86234  0.28278  0.92029  1.0000
  C   C721      1.0  0.85587  0.24363  0.90971  1.0000
  C   C722      1.0  0.81917  0.20493  0.91715  1.0000
  C   C723      1.0  0.78922  0.20613  0.93525  1.0000
  P   P23       1.0  0.81288  0.15377  0.90659  1.0000
  H   H599      1.0  0.75263  0.07309  0.70506  1.0000
  C   C724      1.0  0.75698  0.11513  0.90088  1.0000
  C   C725      1.0  0.74078  0.07136  0.90664  1.0000
  H   H600      1.0  0.94188  0.19204  0.84984  1.0000
  H   H601      1.0  0.50760  0.45744  0.69631  1.0000
  C   C726      1.0  0.75389  0.08886  0.68553  1.0000
  C   C727      1.0  0.83770  0.14944  0.96154  1.0000
  H   H602      1.0  0.48715  0.37499  0.74171  1.0000
  C   C728      1.0  0.48960  0.47210  0.68896  1.0000
  H   H603      1.0  0.68552  0.00783  0.90622  1.0000
  H   H604      1.0  0.91401  0.32308  0.82608  1.0000
  S   S90       1.0  0.94748  0.24821  0.67235  1.0000
  C   C729      1.0  0.54033  0.02107  0.98606  1.0000
  H   H605      1.0  0.59726  0.99927  0.71218  1.0000
  C   C730      1.0  0.67060  0.05501  0.89064  1.0000
  C   C731      1.0  0.94898  0.38704  0.67563  1.0000
  H   H606      1.0  0.88236  0.09561  0.99189  1.0000
  C   C732      1.0  0.90461  0.36001  0.67650  1.0000
  C   C733      1.0  0.72590  0.11382  0.99113  1.0000
  C   C734      1.0  0.48501  0.43187  0.75311  1.0000
  C   C735      1.0  0.73480  0.05113  0.99012  1.0000
  H   H607      1.0  0.78639  0.45641  0.99807  1.0000
  H   H608      1.0  0.75319  0.03602  0.99575  1.0000
  C   C736      1.0  0.74905  0.09372  0.99848  1.0000
  C   C737      1.0  0.87733  0.37484  0.66683  1.0000
  Fe  Fe45      1.0  0.87041  0.59330  0.28521  1.0000
  H   H609      1.0  0.90988  0.54525  0.03069  1.0000
  C   C738      1.0  0.50793  0.91448  0.05836  1.0000
  Fe  Fe46      1.0  0.86030  0.65182  0.24267  1.0000
  S   S91       1.0  0.88938  0.70741  0.27306  1.0000
  S   S92       1.0  0.84023  0.66250  0.19879  1.0000
  Fe  Fe47      1.0  0.93841  0.68845  0.28463  1.0000
  Fe  Fe48      1.0  0.84674  0.65874  0.30500  1.0000
  H   H610      1.0  0.87556  0.76347  0.02266  1.0000
  S   S93       1.0  0.91305  0.63658  0.25116  1.0000
  S   S94       1.0  0.81581  0.60438  0.27427  1.0000
  Fe  Fe49      1.0  0.63829  0.64341  0.03659  1.0000
  C   C739      1.0  0.49906  0.62234  0.22431  1.0000
  H   H611      1.0  0.83175  0.56709  0.02003  1.0000
  Fe  Fe50      1.0  0.64559  0.58961  0.08413  1.0000
  S   S95       1.0  0.61486  0.52998  0.05710  1.0000
  S   S96       1.0  0.66397  0.58398  0.12969  1.0000
  Fe  Fe51      1.0  0.65826  0.57294  0.02296  1.0000
  H   H612      1.0  0.67432  0.88812  0.09774  1.0000
  Fe  Fe52      1.0  0.56759  0.54957  0.04220  1.0000
  C   C740      1.0  0.60906  0.87691  0.17476  1.0000
  S   S97       1.0  0.69095  0.63106  0.05058  1.0000
  S   S98       1.0  0.59482  0.60621  0.07222  1.0000
  Fe  Fe53      1.0  0.65232  0.93088  0.28957  1.0000
  S   S99       1.0  0.61718  0.94547  0.25584  1.0000
  S   S100      1.0  0.65022  0.86602  0.29663  1.0000
  H   H613      1.0  0.53971  0.60664  0.00858  1.0000
  C   C741      1.0  0.69353  0.87484  0.05833  1.0000
  C   C742      1.0  0.95177  0.51628  0.11895  1.0000
  C   C743      1.0  0.62087  0.72847  0.01459  1.0000
  H   H614      1.0  0.56309  0.96210  0.08028  1.0000
  S   S101      1.0  0.65797  0.71155  0.02309  1.0000
  C   C744      1.0  0.47161  0.61028  0.24735  1.0000
  C   C745      1.0  0.55389  0.67249  0.28835  1.0000
  H   H615      1.0  0.46714  0.91953  0.00378  1.0000
  C   C746      1.0  0.62030  0.81997  0.31865  1.0000
  C   C747      1.0  0.85011  0.50184  0.01177  1.0000
  H   H616      1.0  0.94822  0.70418  0.04896  1.0000
  C   C748      1.0  0.94903  0.71767  0.14743  1.0000
  C   C749      1.0  0.89672  0.51390  0.30302  1.0000
  C   C750      1.0  0.47419  0.95916  0.12353  1.0000
  C   C751      1.0  0.85586  0.55036  0.17007  1.0000
  S   S102      1.0  0.49400  0.50437  0.04234  1.0000
  H   H617      1.0  0.79804  0.69963  0.03814  1.0000
  C   C752      1.0  0.71343  0.60646  0.14846  1.0000
  C   C753      1.0  0.71473  0.58830  0.17433  1.0000
  C   C754      1.0  0.75288  0.60520  0.19019  1.0000
  C   C755      1.0  0.79056  0.64045  0.18027  1.0000
  C   C756      1.0  0.78917  0.65882  0.15448  1.0000
  C   C757      1.0  0.75086  0.64231  0.13886  1.0000
  H   H618      1.0  0.68597  0.56083  0.18218  1.0000
  H   H619      1.0  0.75314  0.59076  0.21000  1.0000
  H   H620      1.0  0.81780  0.68656  0.14676  1.0000
  H   H621      1.0  0.75003  0.65781  0.11967  1.0000
  P   P24       1.0  0.89541  0.53642  0.09209  1.0000
  S   S103      1.0  0.60920  0.58827  0.00603  1.0000
  H   H622      1.0  0.48275  0.52892  0.12289  1.0000
  C   C758      1.0  0.94350  0.72545  0.03536  1.0000
  C   C759      1.0  0.87675  0.52224  0.03471  1.0000
  H   H623      1.0  0.65942  0.79234  0.30801  1.0000
  H   H624      1.0  0.49802  0.90562  0.29287  1.0000
  S   S104      1.0  0.85608  0.52494  0.29289  1.0000
  C   C760      1.0  0.64994  0.92994  0.13936  1.0000
  C   C761      1.0  0.94172  0.58702  0.08258  1.0000
  C   C762      1.0  0.87687  0.54215  0.14839  1.0000
  C   C763      1.0  0.65928  0.59851  0.23504  1.0000
  H   H625      1.0  0.87174  0.76135  0.11248  1.0000
  H   H626      1.0  0.55568  0.53434  0.27865  1.0000
  H   H627      1.0  0.53083  0.65972  0.30528  1.0000
  H   H628      1.0  0.47283  0.52018  0.26696  1.0000
  H   H629      1.0  0.75009  0.70283  0.28001  1.0000
  C   C764      1.0  0.82467  0.56121  0.16388  1.0000
  C   C765      1.0  0.90915  0.68108  0.14323  1.0000
  C   C766      1.0  0.57769  0.70427  0.02186  1.0000
  C   C767      1.0  0.86671  0.54464  0.12029  1.0000
  H   H630      1.0  0.55497  0.85106  0.11305  1.0000
  C   C768      1.0  0.55924  0.51050  0.17040  1.0000
  C   C769      1.0  0.66147  0.59598  0.26416  1.0000
  C   C770      1.0  0.53271  0.51313  0.12424  1.0000
  H   H631      1.0  0.61878  0.58021  0.19887  1.0000
  S   S105      1.0  0.64312  0.97013  0.32270  1.0000
  H   H632      1.0  0.48047  0.53622  0.17421  1.0000
  H   H633      1.0  0.62555  0.57104  0.30226  1.0000
  H   H634      1.0  0.86405  0.54887  0.19174  1.0000
  C   C771      1.0  0.47983  0.54806  0.25440  1.0000
  H   H635      1.0  0.56538  0.84788  0.05475  1.0000
  C   C772      1.0  0.57664  0.85400  0.15521  1.0000
  C   C773      1.0  0.61711  0.90761  0.11969  1.0000
  H   H636      1.0  0.68837  0.61694  0.22308  1.0000
  H   H637      1.0  0.68965  0.71463  0.27049  1.0000
  C   C774      1.0  0.56976  0.90731  0.06923  1.0000
  C   C775      1.0  0.94004  0.54380  0.29924  1.0000
  C   C776      1.0  0.67105  0.89702  0.01695  1.0000
  H   H638      1.0  0.80881  0.56809  0.18071  1.0000
  C   C777      1.0  0.76877  0.70791  0.23674  1.0000
  C   C778      1.0  0.90258  0.75857  0.02061  1.0000
  C   C779      1.0  0.81461  0.56417  0.13603  1.0000
  C   C780      1.0  0.74311  0.70779  0.25866  1.0000
  H   H639      1.0  0.53327  0.50958  0.10168  1.0000
  C   C781      1.0  0.50634  0.55920  0.23071  1.0000
  H   H640      1.0  0.70970  0.85945  0.06773  1.0000
  C   C782      1.0  0.67330  0.89112  0.07526  1.0000
  C   C783      1.0  0.90810  0.73119  0.03894  1.0000
  H   H641      1.0  0.90120  0.53428  0.15374  1.0000
  H   H642      1.0  0.82391  0.78971  0.12280  1.0000
  C   C784      1.0  0.53183  0.52306  0.18261  1.0000
  H   H643      1.0  0.79078  0.57322  0.13135  1.0000
  C   C785      1.0  0.60385  0.63976  0.15378  1.0000
  C   C786      1.0  0.57445  0.64936  0.14170  1.0000
  C   C787      1.0  0.56958  0.68277  0.15255  1.0000
  C   C788      1.0  0.59438  0.70680  0.17537  1.0000
  C   C789      1.0  0.62494  0.69818  0.18713  1.0000
  C   C790      1.0  0.62886  0.66385  0.17650  1.0000
  P   P25       1.0  0.65426  0.72757  0.21787  1.0000
  C   C791      1.0  0.61540  0.70679  0.24572  1.0000
  C   C792      1.0  0.69917  0.72003  0.22542  1.0000
  C   C793      1.0  0.70863  0.71417  0.25310  1.0000
  H   H644      1.0  0.92090  0.62666  0.10367  1.0000
  H   H645      1.0  0.79535  0.70270  0.24099  1.0000
  C   C794      1.0  0.76049  0.71524  0.20932  1.0000
  C   C795      1.0  0.72610  0.72166  0.20367  1.0000
  C   C796      1.0  0.59495  0.72908  0.25498  1.0000
  C   C797      1.0  0.56445  0.71199  0.27632  1.0000
  C   C798      1.0  0.86057  0.51250  0.06213  1.0000
  C   C799      1.0  0.57301  0.64952  0.27848  1.0000
  C   C800      1.0  0.60341  0.66644  0.25716  1.0000
  C   C801      1.0  0.67611  0.78474  0.21364  1.0000
  C   C802      1.0  0.68118  0.80304  0.18692  1.0000
  C   C803      1.0  0.69676  0.84720  0.18411  1.0000
  C   C804      1.0  0.70796  0.87341  0.20788  1.0000
  C   C805      1.0  0.70412  0.85559  0.23444  1.0000
  C   C806      1.0  0.68866  0.81153  0.23732  1.0000
  H   H646      1.0  0.60718  0.61347  0.14551  1.0000
  H   H647      1.0  0.55536  0.63075  0.12396  1.0000
  H   H648      1.0  0.54652  0.68997  0.14326  1.0000
  H   H649      1.0  0.58968  0.73208  0.18390  1.0000
  H   H650      1.0  0.65093  0.65529  0.18566  1.0000
  C   C807      1.0  0.62400  0.57284  0.27967  1.0000
  C   C808      1.0  0.94556  0.62611  0.09127  1.0000
  H   H651      1.0  0.78089  0.71595  0.19247  1.0000
  H   H652      1.0  0.72036  0.72752  0.18229  1.0000
  H   H653      1.0  0.60253  0.75976  0.24607  1.0000
  H   H654      1.0  0.54976  0.72991  0.28411  1.0000
  H   H655      1.0  0.63390  0.92755  0.02380  1.0000
  H   H656      1.0  0.61765  0.64809  0.24968  1.0000
  H   H657      1.0  0.67312  0.78337  0.16825  1.0000
  H   H658      1.0  0.70004  0.86114  0.16352  1.0000
  H   H659      1.0  0.71967  0.90756  0.20583  1.0000
  H   H660      1.0  0.71259  0.87584  0.25292  1.0000
  H   H661      1.0  0.68575  0.79833  0.25813  1.0000
  H   H662      1.0  0.85420  0.64920  0.11667  1.0000
  C   C809      1.0  0.58059  0.86922  0.12776  1.0000
  C   C810      1.0  0.64568  0.91479  0.16680  1.0000
  H   H663      1.0  0.76288  0.77322  0.09124  1.0000
  C   C811      1.0  0.50261  0.96324  0.30985  1.0000
  H   H664      1.0  0.51592  0.69999  0.02054  1.0000
  H   H665      1.0  0.75635  0.58482  0.32822  1.0000
  C   C812      1.0  0.54847  0.93094  0.07035  1.0000
  C   C813      1.0  0.82200  0.58318  0.03492  1.0000
  C   C814      1.0  0.78080  0.56161  0.04614  1.0000
  C   C815      1.0  0.76766  0.58297  0.06449  1.0000
  C   C816      1.0  0.79550  0.62601  0.07125  1.0000
  C   C817      1.0  0.83646  0.64840  0.05930  1.0000
  C   C818      1.0  0.84980  0.62633  0.04145  1.0000
  P   P26       1.0  0.87150  0.70454  0.06758  1.0000
  H   H666      1.0  0.49192  0.93313  0.05887  1.0000
  C   C819      1.0  0.83883  0.72868  0.07428  1.0000
  C   C820      1.0  0.80445  0.71985  0.05643  1.0000
  C   C821      1.0  0.77734  0.73609  0.06255  1.0000
  C   C822      1.0  0.78435  0.76126  0.08641  1.0000
  C   C823      1.0  0.81866  0.77047  0.10415  1.0000
  C   C824      1.0  0.84584  0.75431  0.09815  1.0000
  H   H667      1.0  0.69216  0.61199  0.27477  1.0000
  C   C825      1.0  0.48818  0.87416  0.04542  1.0000
  H   H668      1.0  0.67049  0.93297  0.18209  1.0000
  H   H669      1.0  0.60571  0.86562  0.19619  1.0000
  C   C826      1.0  0.63229  0.78821  0.32003  1.0000
  C   C827      1.0  0.90224  0.70921  0.09854  1.0000
  C   C828      1.0  0.88559  0.67706  0.11905  1.0000
  C   C829      1.0  0.94220  0.48826  0.00976  1.0000
  H   H670      1.0  0.82875  0.56028  0.09287  1.0000
  S   S106      1.0  0.89752  0.64375  0.31898  1.0000
  H   H671      1.0  0.58020  0.50424  0.18327  1.0000
  C   C830      1.0  0.50438  0.52429  0.13625  1.0000
  H   H672      1.0  0.75863  0.52878  0.03995  1.0000
  C   C831      1.0  0.50909  0.85039  0.04428  1.0000
  H   H673      1.0  0.78458  0.64200  0.08529  1.0000
  H   H674      1.0  0.88086  0.64245  0.03159  1.0000
  H   H675      1.0  0.56625  0.67447  0.03314  1.0000
  C   C832      1.0  0.48137  0.91921  0.30385  1.0000
  C   C833      1.0  0.58191  0.55360  0.23687  1.0000
  C   C834      1.0  0.50358  0.52884  0.16533  1.0000
  C   C835      1.0  0.65136  0.91010  0.06308  1.0000
  H   H676      1.0  0.49419  0.81942  0.03378  1.0000
  C   C836      1.0  0.51667  0.59711  0.21617  1.0000
  C   C837      1.0  0.54971  0.86684  0.05609  1.0000
  H   H677      1.0  0.73546  0.56652  0.07290  1.0000
  P   P27       1.0  0.62227  0.92836  0.08448  1.0000
  H   H678      1.0  0.56411  0.61839  0.28717  1.0000
  C   C838      1.0  0.61965  0.57747  0.22138  1.0000
  C   C839      1.0  0.83597  0.55654  0.11430  1.0000
  H   H679      1.0  0.89602  0.65622  0.15908  1.0000
  H   H680      1.0  0.53856  0.60730  0.19866  1.0000
  H   H681      1.0  0.54816  0.82469  0.16144  1.0000
  H   H682      1.0  0.50724  0.65160  0.21307  1.0000
  C   C840      1.0  0.69233  0.87772  0.02920  1.0000
  H   H683      1.0  0.74939  0.64289  0.00142  1.0000
  H   H684      1.0  0.75020  0.72841  0.04917  1.0000
  C   C841      1.0  0.65064  0.91316  0.03377  1.0000
  C   C842      1.0  0.81708  0.48241  0.06610  1.0000
  P   P28       1.0  0.52999  0.52741  0.22027  1.0000
  C   C843      1.0  0.91327  0.50022  0.10396  1.0000
  C   C844      1.0  0.58440  0.55189  0.26616  1.0000
  C   C845      1.0  0.94227  0.74611  0.10295  1.0000
  H   H685      1.0  0.95531  0.77196  0.08778  1.0000
  C   C846      1.0  0.55990  0.50598  0.14133  1.0000
  H   H686      1.0  0.58187  0.49730  0.13195  1.0000
  H   H687      1.0  0.81274  0.94909  0.32818  1.0000
  H   H688      1.0  0.70755  0.86469  0.01606  1.0000
  H   H689      1.0  0.67862  0.95951  0.13373  1.0000
  C   C847      1.0  0.54929  0.71903  0.01491  1.0000
  H   H690      1.0  0.95589  0.48655  0.24679  1.0000
  H   H691      1.0  0.94932  0.57487  0.29030  1.0000
  C   C848      1.0  0.95964  0.49241  0.31747  1.0000
  C   C849      1.0  0.63546  0.76784  0.00075  1.0000
  H   H692      1.0  0.74046  0.73397  0.00038  1.0000
  C   C850      1.0  0.46229  0.57337  0.26249  1.0000
  H   H693      1.0  0.96114  0.52158  0.01582  1.0000
  H   H694      1.0  0.46156  0.56085  0.01260  1.0000
  C   C851      1.0  0.56384  0.75826  0.00085  1.0000
  Fe  Fe54      1.0  0.89621  0.53398  0.56303  1.0000
  C   C852      1.0  0.56408  0.78387  0.50499  1.0000
  H   H695      1.0  0.66498  0.64094  0.36493  1.0000
  S   S107      1.0  0.89050  0.55986  0.64288  1.0000
  Fe  Fe55      1.0  0.87991  0.49834  0.62275  1.0000
  H   H696      1.0  0.50618  0.74538  0.44465  1.0000
  Fe  Fe56      1.0  0.85154  0.56434  0.60739  1.0000
  S   S108      1.0  0.79683  0.58075  0.60966  1.0000
  S   S109      1.0  0.90832  0.59918  0.57812  1.0000
  C   C853      1.0  0.64856  0.87337  0.52528  1.0000
  S   S110      1.0  0.47992  0.92856  0.60796  1.0000
  H   H697      1.0  0.79683  0.63316  0.55152  1.0000
  H   H698      1.0  0.69949  0.82015  0.61262  1.0000
  H   H699      1.0  0.62421  0.94239  0.51511  1.0000
  Fe  Fe57      1.0  0.53511  0.92003  0.62139  1.0000
  S   S111      1.0  0.51813  0.85149  0.63088  1.0000
  H   H700      1.0  0.68045  0.53460  0.34031  1.0000
  C   C854      1.0  0.80799  0.53758  0.38283  1.0000
  S   S112      1.0  0.49960  0.50796  0.38610  1.0000
  Fe  Fe58      1.0  0.53414  0.63046  0.37856  1.0000
  S   S113      1.0  0.56526  0.60646  0.40930  1.0000
  S   S114      1.0  0.54590  0.69995  0.37577  1.0000
  Fe  Fe59      1.0  0.56359  0.56424  0.37390  1.0000
  S   S115      1.0  0.61448  0.54704  0.36337  1.0000
  Fe  Fe60      1.0  0.49894  0.55139  0.41970  1.0000
  C   C855      1.0  0.50544  0.69690  0.58256  1.0000
  H   H701      1.0  0.50714  0.78203  0.48853  1.0000
  C   C856      1.0  0.94966  0.57586  0.41941  1.0000
  H   H702      1.0  0.66483  0.58791  0.41628  1.0000
  C   C857      1.0  0.57443  0.74497  0.35272  1.0000
  C   C858      1.0  0.47653  0.88362  0.37520  1.0000
  C   C859      1.0  0.64652  0.93222  0.39144  1.0000
  C   C860      1.0  0.53395  0.92813  0.40743  1.0000
  C   C861      1.0  0.66753  0.58436  0.35345  1.0000
  C   C862      1.0  0.69414  0.58721  0.41960  1.0000
  C   C863      1.0  0.63576  0.86008  0.39245  1.0000
  C   C864      1.0  0.47230  0.83629  0.56246  1.0000
  C   C865      1.0  0.60936  0.91880  0.40747  1.0000
  C   C866      1.0  0.55581  0.83847  0.64424  1.0000
  C   C867      1.0  0.59958  0.86823  0.64432  1.0000
  H   H703      1.0  0.66510  0.96490  0.38402  1.0000
  H   H704      1.0  0.68721  0.91302  0.37060  1.0000
  H   H705      1.0  0.61091  0.90060  0.63696  1.0000
  C   C868      1.0  0.54144  0.79669  0.65416  1.0000
  H   H706      1.0  0.64555  0.85697  0.50570  1.0000
  C   C869      1.0  0.68644  0.91186  0.53074  1.0000
  C   C870      1.0  0.77435  0.60006  0.63581  1.0000
  C   C871      1.0  0.73667  0.60114  0.62963  1.0000
  C   C872      1.0  0.84256  0.61290  0.48668  1.0000
  H   H707      1.0  0.72146  0.58952  0.60952  1.0000
  P   P29       1.0  0.56471  0.80893  0.53798  1.0000
  H   H708      1.0  0.66277  0.87846  0.65244  1.0000
  Fe  Fe61      1.0  0.94617  0.59197  0.61305  1.0000
  C   C873      1.0  0.55295  0.76858  0.56441  1.0000
  C   C874      1.0  0.59891  0.97014  0.45256  1.0000
  C   C875      1.0  0.49753  0.51785  0.57062  1.0000
  H   H709      1.0  0.66010  0.93732  0.59349  1.0000
  H   H710      1.0  0.78049  0.49818  0.51814  1.0000
  C   C876      1.0  0.58300  0.77443  0.58516  1.0000
  C   C877      1.0  0.61493  0.85724  0.54474  1.0000
  Fe  Fe62      1.0  0.47283  0.53834  0.35765  1.0000
  C   C878      1.0  0.65710  0.91927  0.57456  1.0000
  C   C879      1.0  0.61930  0.88079  0.56922  1.0000
  S   S116      1.0  0.47815  0.53197  0.46571  1.0000
  H   H711      1.0  0.54239  0.90358  0.36788  1.0000
  C   C880      1.0  0.71853  0.61738  0.64910  1.0000
  C   C881      1.0  0.56162  0.74085  0.45521  1.0000
  S   S117      1.0  0.46801  0.57884  0.39185  1.0000
  H   H712      1.0  0.61307  0.80417  0.58687  1.0000
  H   H713      1.0  0.86058  0.63419  0.52936  1.0000
  C   C882      1.0  0.79752  0.53021  0.50930  1.0000
  H   H714      1.0  0.59318  0.86957  0.58409  1.0000
  C   C883      1.0  0.56343  0.58959  0.62505  1.0000
  C   C884      1.0  0.57028  0.55553  0.63108  1.0000
  C   C885      1.0  0.60254  0.55218  0.61735  1.0000
  C   C886      1.0  0.62756  0.58243  0.59711  1.0000
  C   C887      1.0  0.62132  0.61718  0.59121  1.0000
  C   C888      1.0  0.58915  0.62062  0.60543  1.0000
  P   P30       1.0  0.65356  0.65687  0.56534  1.0000
  C   C889      1.0  0.66900  0.70917  0.57983  1.0000
  C   C890      1.0  0.70083  0.65286  0.55913  1.0000
  C   C891      1.0  0.73570  0.67232  0.57765  1.0000
  C   C892      1.0  0.77039  0.66565  0.57454  1.0000
  C   C893      1.0  0.77057  0.63942  0.55306  1.0000
  C   C894      1.0  0.73638  0.62037  0.53427  1.0000
  C   C895      1.0  0.70143  0.62669  0.53742  1.0000
  C   C896      1.0  0.67003  0.74183  0.56309  1.0000
  C   C897      1.0  0.68136  0.78187  0.57481  1.0000
  C   C898      1.0  0.69151  0.78949  0.60327  1.0000
  C   C899      1.0  0.69076  0.75726  0.61995  1.0000
  C   C900      1.0  0.67942  0.71726  0.60837  1.0000
  C   C901      1.0  0.62320  0.64810  0.53344  1.0000
  C   C902      1.0  0.57836  0.62388  0.53378  1.0000
  C   C903      1.0  0.55496  0.61787  0.50926  1.0000
  C   C904      1.0  0.57597  0.63616  0.48421  1.0000
  C   C905      1.0  0.62058  0.66030  0.48354  1.0000
  C   C906      1.0  0.64418  0.66637  0.50808  1.0000
  H   H715      1.0  0.53850  0.59221  0.63589  1.0000
  H   H716      1.0  0.55058  0.53164  0.64638  1.0000
  H   H717      1.0  0.60832  0.52630  0.62272  1.0000
  H   H718      1.0  0.65213  0.57889  0.58661  1.0000
  H   H719      1.0  0.58387  0.64725  0.60136  1.0000
  H   H720      1.0  0.73585  0.69148  0.59514  1.0000
  H   H721      1.0  0.79712  0.55780  0.37328  1.0000
  H   H722      1.0  0.73662  0.59995  0.51766  1.0000
  H   H723      1.0  0.67455  0.61028  0.52335  1.0000
  H   H724      1.0  0.66191  0.73657  0.54112  1.0000
  H   H725      1.0  0.68189  0.80695  0.56196  1.0000
  H   H726      1.0  0.67872  0.69263  0.62182  1.0000
  H   H727      1.0  0.56108  0.60949  0.55282  1.0000
  H   H728      1.0  0.52032  0.59871  0.50952  1.0000
  H   H729      1.0  0.55732  0.63131  0.46537  1.0000
  H   H730      1.0  0.63671  0.67422  0.46394  1.0000
  H   H731      1.0  0.67873  0.68552  0.50735  1.0000
  C   C907      1.0  0.47443  0.86458  0.54163  1.0000
  C   C908      1.0  0.69448  0.54882  0.41596  1.0000
  C   C909      1.0  0.60962  0.75106  0.33686  1.0000
  H   H732      1.0  0.47524  0.66700  0.58174  1.0000
  C   C910      1.0  0.77065  0.58587  0.42587  1.0000
  C   C911      1.0  0.76992  0.62422  0.42980  1.0000
  H   H733      1.0  0.60587  0.54832  0.51130  1.0000
  H   H734      1.0  0.73168  0.65484  0.42846  1.0000
  C   C912      1.0  0.86509  0.63381  0.41881  1.0000
  C   C913      1.0  0.86092  0.65480  0.39525  1.0000
  C   C914      1.0  0.62885  0.85564  0.65317  1.0000
  S   S118      1.0  0.93845  0.52979  0.59589  1.0000
  H   H735      1.0  0.49079  0.72416  0.54716  1.0000
  C   C915      1.0  0.90564  0.64924  0.43090  1.0000
  C   C916      1.0  0.53098  0.75294  0.46010  1.0000
  H   H736      1.0  0.79884  0.65373  0.43515  1.0000
  C   C917      1.0  0.68472  0.62864  0.35683  1.0000
  H   H737      1.0  0.66528  0.51998  0.40989  1.0000
  H   H738      1.0  0.83036  0.64276  0.38481  1.0000
  C   C918      1.0  0.53552  0.70297  0.60312  1.0000
  C   C919      1.0  0.58869  0.52794  0.49373  1.0000
  H   H739      1.0  0.92224  0.54363  0.38023  1.0000
  H   H740      1.0  0.90992  0.63288  0.44855  1.0000
  C   C920      1.0  0.73184  0.62491  0.42642  1.0000
  H   H741      1.0  0.80262  0.50399  0.34424  1.0000
  C   C921      1.0  0.49837  0.81786  0.56095  1.0000
  C   C922      1.0  0.54425  0.47624  0.44795  1.0000
  C   C923      1.0  0.82022  0.56557  0.52692  1.0000
  H   H742      1.0  0.85927  0.64528  0.47846  1.0000
  H   H743      1.0  0.49756  0.79769  0.57804  1.0000
  C   C924      1.0  0.51423  0.72944  0.56314  1.0000
  H   H744      1.0  0.49177  0.54415  0.56657  1.0000
  C   C925      1.0  0.61901  0.48183  0.57346  1.0000
  C   C926      1.0  0.79728  0.53610  0.48036  1.0000
  H   H745      1.0  0.59765  0.74631  0.62027  1.0000
  P   P31       1.0  0.81956  0.58495  0.43138  1.0000
  H   H746      1.0  0.61643  0.73966  0.47157  1.0000
  C   C927      1.0  0.66083  0.49804  0.58327  1.0000
  H   H747      1.0  0.63907  0.48861  0.50331  1.0000
  H   H748      1.0  0.61796  0.77615  0.51590  1.0000
  H   H749      1.0  0.53294  0.52755  0.53280  1.0000
  H   H750      1.0  0.61691  0.57977  0.46385  1.0000
  C   C928      1.0  0.52660  0.82743  0.53840  1.0000
  C   C929      1.0  0.61025  0.94797  0.47181  1.0000
  H   H751      1.0  0.56063  0.72431  0.43592  1.0000
  H   H752      1.0  0.79646  0.67946  0.58953  1.0000
  C   C930      1.0  0.59402  0.77051  0.50023  1.0000
  C   C931      1.0  0.65945  0.90286  0.38386  1.0000
  C   C932      1.0  0.73655  0.59722  0.33605  1.0000
  C   C933      1.0  0.73255  0.54802  0.41921  1.0000
  C   C934      1.0  0.50266  0.87450  0.51922  1.0000
  C   C935      1.0  0.79321  0.61512  0.66212  1.0000
  H   H753      1.0  0.61469  0.92174  0.46515  1.0000
  C   C936      1.0  0.57440  0.74154  0.60422  1.0000
  C   C937      1.0  0.52118  0.50845  0.55159  1.0000
  C   C938      1.0  0.75409  0.64140  0.34009  1.0000
  S   S119      1.0  0.83664  0.50009  0.58931  1.0000
  S   S120      1.0  0.89644  0.51688  0.51614  1.0000
  C   C939      1.0  0.81971  0.54246  0.41123  1.0000
  C   C940      1.0  0.51985  0.90486  0.38227  1.0000
  H   H754      1.0  0.82035  0.56096  0.54936  1.0000
  C   C941      1.0  0.57339  0.51981  0.44401  1.0000
  C   C942      1.0  0.52876  0.85613  0.51764  1.0000
  H   H755      1.0  0.50762  0.77347  0.65411  1.0000
  H   H756      1.0  0.53562  0.77283  0.36365  1.0000
  H   H757      1.0  0.71235  0.92430  0.51571  1.0000
  H   H758      1.0  0.71990  0.96475  0.55956  1.0000
  H   H759      1.0  0.73215  0.51795  0.41634  1.0000
  C   C943      1.0  0.81110  0.50713  0.36628  1.0000
  H   H760      1.0  0.69847  0.76316  0.64207  1.0000
  C   C944      1.0  0.61599  0.95970  0.50014  1.0000
  C   C945      1.0  0.53195  0.77412  0.48495  1.0000
  C   C946      1.0  0.58552  0.87559  0.41581  1.0000
  H   H761      1.0  0.50506  0.89746  0.50356  1.0000
  C   C947      1.0  0.59880  0.84644  0.40839  1.0000
  H   H762      1.0  0.57869  0.53339  0.42317  1.0000
  C   C948      1.0  0.83587  0.51735  0.42255  1.0000
  C   C949      1.0  0.47986  0.49237  0.59436  1.0000
  C   C950      1.0  0.59306  0.74955  0.47530  1.0000
  H   H763      1.0  0.57979  0.81291  0.41416  1.0000
  H   H764      1.0  0.51350  0.94685  0.44507  1.0000
  C   C951      1.0  0.69453  0.51110  0.56435  1.0000
  C   C952      1.0  0.84279  0.60687  0.51561  1.0000
  H   H765      1.0  0.55622  0.86430  0.42760  1.0000
  H   H766      1.0  0.64518  0.83712  0.38587  1.0000
  H   H767      1.0  0.68984  0.61813  0.64380  1.0000
  C   C953      1.0  0.82080  0.57741  0.46873  1.0000
  H   H768      1.0  0.77895  0.50836  0.46708  1.0000
  H   H769      1.0  0.66729  0.50049  0.60560  1.0000
  H   H770      1.0  0.55127  0.86503  0.50057  1.0000
  H   H771      1.0  0.84736  0.52195  0.44394  1.0000
  C   C954      1.0  0.56254  0.77680  0.35142  1.0000
  C   C955      1.0  0.59517  0.54581  0.46693  1.0000
  C   C956      1.0  0.69073  0.93474  0.55539  1.0000
  H   H772      1.0  0.89274  0.70756  0.36644  1.0000
  H   H773      1.0  0.74143  0.69116  0.35367  1.0000
  H   H774      1.0  0.52858  0.67802  0.61841  1.0000
  P   P32       1.0  0.59022  0.95534  0.41597  1.0000
  C   C957      1.0  0.56051  0.48382  0.49773  1.0000
  H   H775      1.0  0.92388  0.58195  0.42385  1.0000
  H   H776      1.0  0.72689  0.52373  0.57206  1.0000
  C   C958      1.0  0.68639  0.50745  0.53558  1.0000
  C   C959      1.0  0.89642  0.69149  0.38459  1.0000
  C   C960      1.0  0.50393  0.92960  0.42543  1.0000
  C   C961      1.0  0.82613  0.48151  0.37787  1.0000
  C   C962      1.0  0.83845  0.48656  0.40600  1.0000
  S   S121      1.0  0.53663  0.59111  0.34266  1.0000
  C   C963      1.0  0.94853  0.55401  0.39491  1.0000
  C   C964      1.0  0.72802  0.65700  0.35047  1.0000
  C   C965      1.0  0.64469  0.49151  0.52570  1.0000
  H   H777      1.0  0.71246  0.51704  0.52093  1.0000
  C   C966      1.0  0.61068  0.47925  0.54459  1.0000
  C   C967      1.0  0.94119  0.68581  0.42003  1.0000
  C   C968      1.0  0.57060  0.78451  0.66386  1.0000
  S   S122      1.0  0.57816  0.96075  0.58661  1.0000
  H   H778      1.0  0.61959  0.72729  0.33765  1.0000
  C   C969      1.0  0.69355  0.56883  0.34293  1.0000
  H   H779      1.0  0.90041  0.49748  0.45790  1.0000
  Fe  Fe63      1.0  0.52463  0.97365  0.57546  1.0000
  C   C970      1.0  0.91112  0.47914  0.46985  1.0000
  C   C971      1.0  0.93654  0.70704  0.39696  1.0000
  H   H780      1.0  0.46590  0.86581  0.35576  1.0000
  C   C972      1.0  0.61449  0.81370  0.66286  1.0000
  C   C973      1.0  0.91275  0.48260  0.49933  1.0000
  S   S123      1.0  0.56104  0.97342  0.65332  1.0000
  C   C974      1.0  0.58505  0.81383  0.33446  1.0000
  S   S124      1.0  0.80878  0.67773  0.33362  1.0000
  H   H781      1.0  0.57527  0.83777  0.33382  1.0000
  Fe  Fe64      1.0  0.66196  0.66974  0.70711  1.0000
  S   S125      1.0  0.60658  0.63357  0.73721  1.0000
  S   S126      1.0  0.71619  0.65334  0.70129  1.0000
  Fe  Fe65      1.0  0.63170  0.73463  0.69379  1.0000
  S   S127      1.0  0.57393  0.70199  0.72128  1.0000
  H   H782      1.0  0.79010  0.64259  0.70182  1.0000
  Fe  Fe66      1.0  0.61772  0.69812  0.75284  1.0000
  S   S128      1.0  0.61768  0.71516  0.79946  1.0000
  Fe  Fe67      1.0  0.56688  0.64053  0.70354  1.0000
  C   C975      1.0  0.50219  0.55070  0.86542  1.0000
  S   S129      1.0  0.67659  0.73358  0.72605  1.0000
  H   H783      1.0  0.87375  0.65316  0.89564  1.0000
  Fe  Fe68      1.0  0.56093  0.86075  0.90359  1.0000
  S   S130      1.0  0.50217  0.83168  0.93085  1.0000
  S   S131      1.0  0.55578  0.83589  0.85837  1.0000
  Fe  Fe69      1.0  0.61397  0.92506  0.95016  1.0000
  S   S132      1.0  0.55934  0.89888  0.98070  1.0000
  Fe  Fe70      1.0  0.54654  0.83426  0.96502  1.0000
  H   H784      1.0  0.82595  0.56061  0.81092  1.0000
  Fe  Fe71      1.0  0.51975  0.89889  0.94417  1.0000
  C   C976      1.0  0.75141  0.62498  0.76376  1.0000
  S   S133      1.0  0.60401  0.86019  0.93722  1.0000
  S   S134      1.0  0.57573  0.92843  0.91407  1.0000
  C   C977      1.0  0.55356  0.63969  0.86013  1.0000
  C   C978      1.0  0.92057  0.73201  0.76933  1.0000
  C   C979      1.0  0.48805  0.92044  0.70784  1.0000
  S   S135      1.0  0.88837  0.67808  0.96254  1.0000
  H   H785      1.0  0.51252  0.92625  0.86412  1.0000
  H   H786      1.0  0.91580  0.78692  0.83490  1.0000
  Fe  Fe72      1.0  0.93898  0.65968  0.95516  1.0000
  H   H787      1.0  0.82219  0.61493  0.66728  1.0000
  C   C980      1.0  0.83495  0.64174  0.97189  1.0000
  C   C981      1.0  0.81610  0.59762  0.96686  1.0000
  H   H788      1.0  0.52381  0.54741  0.82387  1.0000
  C   C982      1.0  0.73750  0.63251  0.67541  1.0000
  H   H789      1.0  0.83466  0.58488  0.95742  1.0000
  C   C983      1.0  0.66447  0.72062  0.91540  1.0000
  H   H790      1.0  0.66691  0.68949  0.83346  1.0000
  H   H791      1.0  0.76837  0.81798  0.84951  1.0000
  C   C984      1.0  0.47717  0.88243  0.69352  1.0000
  H   H792      1.0  0.70349  0.66051  0.86193  1.0000
  C   C985      1.0  0.78696  0.62097  0.77036  1.0000
  H   H793      1.0  0.48617  0.56309  0.90611  1.0000
  H   H794      1.0  0.68934  0.71319  0.91105  1.0000
  C   C986      1.0  0.60041  0.74906  0.81540  1.0000
  C   C987      1.0  0.61093  0.76156  0.84365  1.0000
  C   C988      1.0  0.59746  0.78779  0.85718  1.0000
  C   C989      1.0  0.57307  0.80191  0.84271  1.0000
  C   C990      1.0  0.56214  0.78901  0.81460  1.0000
  C   C991      1.0  0.57582  0.76300  0.80100  1.0000
  H   H795      1.0  0.62980  0.75108  0.85521  1.0000
  H   H796      1.0  0.60606  0.79723  0.87878  1.0000
  H   H797      1.0  0.54338  0.79967  0.80308  1.0000
  H   H798      1.0  0.56735  0.75382  0.77933  1.0000
  C   C992      1.0  0.64323  0.77188  0.92925  1.0000
  C   C993      1.0  0.50456  0.68516  0.90465  1.0000
  S   S136      1.0  0.50031  0.59067  0.68905  1.0000
  H   H799      1.0  0.73930  0.55203  0.91756  1.0000
  H   H800      1.0  0.61134  0.89567  0.80198  1.0000
  H   H801      1.0  0.49339  0.86036  0.83686  1.0000
  C   C994      1.0  0.55460  0.96901  0.83239  1.0000
  H   H802      1.0  0.49235  0.49553  0.98051  1.0000
  C   C995      1.0  0.77303  0.56993  0.97411  1.0000
  H   H803      1.0  0.69920  0.76800  0.82698  1.0000
  H   H804      1.0  0.76711  0.62839  0.92821  1.0000
  H   H805      1.0  0.80605  0.78971  0.87793  1.0000
  H   H806      1.0  0.74142  0.57817  0.82952  1.0000
  C   C996      1.0  0.65345  0.87880  0.73110  1.0000
  C   C997      1.0  0.83047  0.56268  0.85575  1.0000
  C   C998      1.0  0.84395  0.58866  0.87964  1.0000
  C   C999      1.0  0.86389  0.63323  0.87697  1.0000
  C   C1000     1.0  0.87124  0.65194  0.85039  1.0000
  C   C1001     1.0  0.85968  0.62624  0.82619  1.0000
  C   C1002     1.0  0.83755  0.58132  0.82914  1.0000
  P   P33       1.0  0.86894  0.65038  0.79176  1.0000
  C   C1003     1.0  0.87717  0.61895  0.76551  1.0000
  C   C1004     1.0  0.86862  0.62217  0.73717  1.0000
  C   C1005     1.0  0.65905  0.86123  0.75571  1.0000
  C   C1006     1.0  0.91413  0.75079  0.90096  1.0000
  C   C1007     1.0  0.50424  0.57764  0.88728  1.0000
  C   C1008     1.0  0.89428  0.59282  0.77290  1.0000
  C   C1009     1.0  0.82251  0.65482  0.78373  1.0000
  C   C1010     1.0  0.75072  0.66232  0.77095  1.0000
  C   C1011     1.0  0.78550  0.69567  0.78491  1.0000
  C   C1012     1.0  0.82126  0.69192  0.79134  1.0000
  C   C1013     1.0  0.77491  0.63100  0.68168  1.0000
  H   H807      1.0  0.86835  0.60032  0.69502  1.0000
  C   C1014     1.0  0.51138  0.62754  0.94490  1.0000
  H   H808      1.0  0.88625  0.68642  0.84881  1.0000
  C   C1015     1.0  0.57326  0.97214  0.80619  1.0000
  S   S137      1.0  0.62117  0.67380  0.67288  1.0000
  H   H809      1.0  0.61886  0.81311  0.98341  1.0000
  C   C1016     1.0  0.48074  0.71933  0.87090  1.0000
  H   H810      1.0  0.90241  0.59077  0.79440  1.0000
  H   H811      1.0  0.72351  0.66569  0.76510  1.0000
  H   H812      1.0  0.78486  0.72467  0.79024  1.0000
  H   H813      1.0  0.84811  0.71815  0.80191  1.0000
  C   C1017     1.0  0.91663  0.70266  0.79017  1.0000
  C   C1018     1.0  0.58910  0.69857  0.91777  1.0000
  H   H814      1.0  0.85779  0.71499  0.92597  1.0000
  C   C1019     1.0  0.90302  0.77154  0.85489  1.0000
  H   H815      1.0  0.52598  0.86535  0.79062  1.0000
  H   H816      1.0  0.55917  0.75211  0.67119  1.0000
  C   C1020     1.0  0.87027  0.73110  0.90621  1.0000
  C   C1021     1.0  0.84247  0.73167  0.88601  1.0000
  C   C1022     1.0  0.85903  0.75151  0.86009  1.0000
  P   P34       1.0  0.78566  0.70260  0.89242  1.0000
  C   C1023     1.0  0.76772  0.64690  0.88491  1.0000
  C   C1024     1.0  0.77326  0.71072  0.92775  1.0000
  C   C1025     1.0  0.73358  0.68154  0.93962  1.0000
  C   C1026     1.0  0.52977  0.62251  0.88476  1.0000
  H   H817      1.0  0.89610  0.55246  0.70867  1.0000
  C   C1027     1.0  0.80100  0.74845  0.94245  1.0000
  C   C1028     1.0  0.76163  0.63249  0.85705  1.0000
  C   C1029     1.0  0.74654  0.58915  0.85106  1.0000
  C   C1030     1.0  0.73797  0.56003  0.87287  1.0000
  C   C1031     1.0  0.74544  0.57444  0.90060  1.0000
  C   C1032     1.0  0.76083  0.61782  0.90661  1.0000
  C   C1033     1.0  0.75871  0.72292  0.87088  1.0000
  C   C1034     1.0  0.71880  0.69487  0.85879  1.0000
  C   C1035     1.0  0.69764  0.71116  0.84289  1.0000
  C   C1036     1.0  0.71574  0.75547  0.83932  1.0000
  C   C1037     1.0  0.75482  0.78361  0.85196  1.0000
  C   C1038     1.0  0.77613  0.76745  0.86786  1.0000
  C   C1039     1.0  0.52561  0.56822  0.84090  1.0000
  C   C1040     1.0  0.81049  0.65795  0.98400  1.0000
  C   C1041     1.0  0.53773  0.62940  0.96710  1.0000
  C   C1042     1.0  0.48248  0.53554  0.68378  1.0000
  H   H818      1.0  0.83806  0.75136  0.84387  1.0000
  H   H819      1.0  0.71108  0.65273  0.92847  1.0000
  H   H820      1.0  0.85663  0.64308  0.73073  1.0000
  H   H821      1.0  0.83122  0.77209  0.93349  1.0000
  H   H822      1.0  0.76802  0.65463  0.83998  1.0000
  C   C1043     1.0  0.63256  0.90267  0.73184  1.0000
  H   H823      1.0  0.54796  0.85837  0.72289  1.0000
  H   H824      1.0  0.89530  0.72360  0.75414  1.0000
  H   H825      1.0  0.47833  0.59867  0.74779  1.0000
  C   C1044     1.0  0.50093  0.69570  0.87685  1.0000
  C   C1045     1.0  0.93057  0.77110  0.87532  1.0000
  C   C1046     1.0  0.95089  0.71379  0.80862  1.0000
  H   H826      1.0  0.47171  0.93799  0.70306  1.0000
  C   C1047     1.0  0.46410  0.73264  0.89258  1.0000
  C   C1048     1.0  0.62272  0.89127  0.78197  1.0000
  C   C1049     1.0  0.49865  0.86012  0.69943  1.0000
  H   H827      1.0  0.93518  0.74966  0.91674  1.0000
  C   C1050     1.0  0.72199  0.68992  0.96580  1.0000
  H   H828      1.0  0.78690  0.59182  0.76453  1.0000
  H   H829      1.0  0.48248  0.51617  0.86758  1.0000
  C   C1051     1.0  0.53199  0.87647  0.71889  1.0000
  H   H830      1.0  0.83853  0.57433  0.90029  1.0000
  H   H831      1.0  0.72471  0.59970  0.75230  1.0000
  S   S138      1.0  0.93987  0.61654  0.92153  1.0000
  C   C1052     1.0  0.46755  0.72228  0.92029  1.0000
  H   H832      1.0  0.75855  0.53579  0.97029  1.0000
  H   H833      1.0  0.81087  0.78559  0.98007  1.0000
  C   C1053     1.0  0.46681  0.60154  0.94747  1.0000
  H   H834      1.0  0.51467  0.68708  0.85972  1.0000
  C   C1054     1.0  0.61600  0.90811  0.75717  1.0000
  C   C1055     1.0  0.64430  0.86805  0.78117  1.0000
  H   H835      1.0  0.62853  0.91610  0.71252  1.0000
  C   C1056     1.0  0.54434  0.91564  0.73253  1.0000
  C   C1057     1.0  0.60026  0.74019  0.92661  1.0000
  C   C1058     1.0  0.53382  0.89455  0.80193  1.0000
  C   C1059     1.0  0.90103  0.56890  0.75250  1.0000
  H   H836      1.0  0.64896  0.85467  0.80029  1.0000
  H   H837      1.0  0.70858  0.78667  0.92584  1.0000
  C   C1060     1.0  0.78946  0.75647  0.96877  1.0000
  C   C1061     1.0  0.48794  0.69895  0.92634  1.0000
  C   C1062     1.0  0.52093  0.93657  0.72769  1.0000
  C   C1063     1.0  0.76777  0.63019  0.99176  1.0000
  H   H838      1.0  0.47374  0.48355  0.76233  1.0000
  C   C1064     1.0  0.55124  0.61270  0.83827  1.0000
  C   C1065     1.0  0.62156  0.68876  0.91276  1.0000
  H   H839      1.0  0.48003  0.62090  0.79722  1.0000
  C   C1066     1.0  0.56368  0.93481  0.79104  1.0000
  H   H840      1.0  0.72605  0.52638  0.86830  1.0000
  H   H841      1.0  0.57214  0.64954  0.96593  1.0000
  C   C1067     1.0  0.50520  0.51621  0.69379  1.0000
  C   C1068     1.0  0.74989  0.72735  0.98032  1.0000
  S   S139      1.0  0.93854  0.51843  0.95621  1.0000
  H   H842      1.0  0.94970  0.69139  0.82420  1.0000
  H   H843      1.0  0.94603  0.68626  0.68730  1.0000
  H   H844      1.0  0.67473  0.84224  0.75500  1.0000
  C   C1069     1.0  0.87538  0.59816  0.71682  1.0000
  H   H845      1.0  0.65151  0.80396  0.93589  1.0000
  C   C1070     1.0  0.51503  0.89161  0.82803  1.0000
  H   H846      1.0  0.57606  0.74856  0.93142  1.0000
  C   C1071     1.0  0.51958  0.60530  0.99139  1.0000
  H   H847      1.0  0.49193  0.69304  0.94811  1.0000
  H   H848      1.0  0.81433  0.52806  0.85792  1.0000
  H   H849      1.0  0.66507  0.87358  0.71138  1.0000
  P   P35       1.0  0.53370  0.65791  0.91314  1.0000
  H   H850      1.0  0.61375  0.65664  0.90661  1.0000
  C   C1072     1.0  0.89125  0.57129  0.72449  1.0000
  C   C1073     1.0  0.67533  0.76214  0.92362  1.0000
  H   H851      1.0  0.53489  0.53528  0.70499  1.0000
  C   C1074     1.0  0.74880  0.58607  0.98678  1.0000
  H   H852      1.0  0.49005  0.83052  0.68839  1.0000
  C   C1075     1.0  0.95743  0.77250  0.76777  1.0000
  H   H853      1.0  0.57402  0.67403  0.85777  1.0000
  S   S140      1.0  0.47234  0.92449  0.94225  1.0000
  H   H854      1.0  0.56938  0.62641  0.81923  1.0000
  H   H855      1.0  0.91381  0.54844  0.75844  1.0000
  H   H856      1.0  0.69118  0.66758  0.97484  1.0000
  P   P36       1.0  0.58789  0.93792  0.75742  1.0000
  C   C1076     1.0  0.60714  0.78269  0.99392  1.0000
  C   C1077     1.0  0.52588  0.92874  0.84344  1.0000
  S   S141      1.0  0.69497  0.55032  0.99587  1.0000
  C   C1078     1.0  0.47532  0.57948  0.99374  1.0000
  S   S142      1.0  0.52725  0.77605  0.99280  1.0000
  H   H857      1.0  0.92757  0.80058  0.98488  1.0000
  S   S143      1.0  0.65228  0.79829  0.67210  1.0000
  H   H858      1.0  0.86312  0.50911  0.99071  1.0000
  C   C1079     1.0  0.92787  0.47812  0.98207  1.0000
  H   H859      1.0  0.52893  0.96609  0.73862  1.0000
  H   H860      1.0  0.82476  0.69209  0.98766  1.0000
  S   S144      1.0  0.68093  0.97481  0.96417  1.0000
  H   H861      1.0  0.96036  0.79501  0.75163  1.0000
  H   H862      1.0  0.66999  0.89916  0.99435  1.0000
  H   H863      1.0  0.47938  0.72868  0.84952  1.0000
  H   H864      1.0  0.66882  0.78686  0.99514  1.0000
  C   C1080     1.0  0.93216  0.77991  0.99919  1.0000
