data_image0
_chemical_formula_structural       FeS2FeSHCHS2FeS2FeHFeSHSHSCS2C7SH4C2H4C6H4C6H3CHSC2H3C4HCPH2CH4C2H3C2HCPSCHC3HC3HC2PCHCHCH4CH2FeHC3HCPHCHC2H3CHC3SFeCH2C3H3CHFeC6SHC3HC4H2C2HCFeC2HC2HC3PC3HCHC8HCH7C4HCH4SC7H2C6H2CH7C2H2C2HC2HCHCH2C2HCHCHCHSCHC2H2FeS2FeSC2HS2FeS2FeHFeSHSFeSPS2CHC6H4C3H3C6H4C6H2SC3HC2HC3HCH2C3H2CHC6PC4SC2H3C2HCHCH9FeCH3CHCHCH2CHPCH6C2HC2H3C3H2CHC3FeHC2HC4HC2HC2HC2SHCPCHC2H2C5H2C4FeH2CHC5HC2HC3SHCH5PCH3C2H3CH2CHC3H2CHCSFeSCSFeS2FeS2FeSFeS3HS2CHFeSHSC6H4C6H4C6H4CHCHCHCHC3HCH2C2H4C3HC4FeC3HCHC2H2CH3C4FeC5HC10FePHCHCH2CH2CHSH3SH5C4H3CH2C3HC2H2C3SHC2H5CH3CH2C2FeC3H3CH3C2H3C6PC2HCH3C4H3CPCH7CHCHC2H2C3H4C2HC2HCHC2HS2FeSFeSFeS2FeS2FeSFeS3CS2H2FeSHSC6H4C6H4C6H5C5HC4H3C4PH3C2HC4HC2H3CH2C3H2C2H4CHC3HCH6CHC4HC2H2C3H2C6HC2H3CHC3H4CHCH2C7PC13HC3H6C2HFeH6CH2C3H2CH6CHC2H3CHCPC4PCHCH2CH2C3HCFeHSC3S2FeS2FeSFeCSCFeS2FeS2FeSFeS3FeS2FeS2FeSFeS3FeSCSCHC3H3C7H4C2HC6H4C6H4C5H4C7H5PHCHC2HCH2CH5PC2HCH2C3HC3H4CPC3HC4PHC10H3CHC2SC3H4CH2C2HC2H3C2H2C4H3CHC2H2CHCH3CH2PC5H2CH2CHC2H2PHCHCHC3H7C9H3C7HSCH3C6PC18H20CSC12H2C2H7CHC4PCH3CHCH2CH2CHC2H3C4SC2HC6H3C4H2C3H4CH2CHC2H2C2SCH2C2HC5HFeC4HCHCHC3H2CH2CH2CHC2H2CH3CFeC2HCH3FeHSCSHS2FeS2FeSFeCSHFeS2FeS2FeSFeS3FeS2FeSCFeSFeS3FeS3C3H6C6H4C2HC6H4C6H4C6H3C7H4CHC4HCH2C6H2CPH3C2HC4SCH2CHC4FeCH2CHC3H2CHC7PC7H12C2HSH2CHCH4C2SHC6PC18H6C2H13CPHC2HC3HCH3C2H5C4H2C8HC2HC2H3SC3HCH2PH2CHC3HFeH4C2SC2HC4HC2HCHCHC2HC2H2CH3C2H2CHCHC2H2C4H2CHCHC2PHCH2CHC7HC2H2C2H4C2HCHCPHCPHC2HC2HC2HC2HC6HC2HPCHCHC3HC3H2CH3CHC2HCHCH4C3H2CHCHC2HCH3C3HCHCHC2H5CHCSCSFeSPFeHC4HCH6CHC6HC2HC5HC4H2CHSHC2HC4H3SCHCHC2HCH2CHCH3FeCPH6C5H3C2HCSHC2HC6H2C2HCH2C2HC3HSH2CSCSFeS2FePC3H2CHCH3CH4CHSH3C4H2C3HCH2SCHCHC6PCHCHCHC5H2C2PC3H3CH2CHCH2C3HSC3HC3H5CHCHCHC3H4C2FeCHC2H2C4HC4HCHCHFeHCH4C2HC3HC2SFeSCSC2H2CHCHC6H6CH2CHC2HCH2C2H4CH2CH2C2HCH3S2C8HCHCHCH5C7Fe2SH2CH3CHC4H2CH2C3HCH2C2H3C3SCHCS2FeSFeSCHC3H3C6H6CHC2SHC5HC3H2CH2C3H2CHC3H2CHCHC3HCHCSC2H2CHC2H2FeH2CH2PHC3H2C3H4C2HC2H2C2H5C4H2C2PC2HC2H3C2HCSHCHCHC7HCSC2H4FeS2FeS2FeHFeS3CHSFePFeS2FeS2FeSFeS3FeS2FeCHFeSCS3FeSCSHSHC8H4C6H4C6H4CHFeC2HCHC3H3C3H2C2H4C6H5C4H2PC4H2C5H4C6HCH6C6PC11H3CH9C4H2CSCHC3HCHSC2HCPCH2C5HCHC2HCHC4HCFeHC4H2C3HCH2CHC4PH2C2HC4H2CH2PHC2H2C2H3SH3C2HC3HC3HC3HC2HC4HCH2CHCH2CH3C3H2C6HC2HC2HCHC2HCH3C2HCH3CHCHC2H3C4HCH2C2H3CH7C3HCHCHCH4SC4H2C3HC2FeS2FeS2FeHFeS3C2SCPFeS2FeS2FeSFeS3FeS2FeHCFeSCS3FeSCH2SHCHC6H4C6H4C6H4CHCHCH2CHC3H2C4HC2H4C6H5CH3CSHCHCH2SHC3PC7HC2H2C7H4C6PC15H2CH7C2H17C4FeC2HC2HCH4C5HCH5C4H3C3HCH4C3HC5HC3H2C3HCHPC4H2CHSPH2CHC3H2CH2CH2PC2H3C2HCH2C4HCH2CHCHC2H3CHC2PCH2CPCHCHC2HC2H2C4HCHCH3FeC5HC2HC2SCH2C4HC4HC6HCHC2SH3C2HC2H2C2FeCHC3HSHSFeSFeS2FeS2FeSFeS3CH2S2FeSHSC6H4C6H4C6H4CHCH2CH2CH2C2HCHC6HCHC2SHCH3CHC3H2CHCH3CHCHC6H4C2HCHC2HC3H2C4H2CHPHC2H2CH5CHFeC3H3CHCH2CHCHC3HFeHC4H4C7HPCSC2HPC10HC2HC3HC3H7C2H3C5PHC4HCFeSH2C2HSCSFeSFeS2FeS2FeSFeS3C3S2FeSCSC6H4C6H4C6H4CH2CH2CH3C3H8C2HCHCHC2HC2H3C4H3C6H3C2HPC8H3C7H7CH4C7PC8HC8H4C2H4C3H4CHCH3CHC2HCHCH4CHCH4CHCH3SCFeHC2HFeHPH2FeH2CHCSCH2CH3C2HCHFeS2CS2FeCFeSCSFeS2FeSHSFeSH2CSCH2CH2C4H4C6H4C6H5C2HCHPC12H11C5HPH2C4PH2C4HCH2CH4CHC4H4FeC6PC14HC3H17CH2C4SHSHC7HC2H2C3HCH2SH5CH3C2H4CH3CHCHC3HC4H2C4H3SFeC2HCHCSCHCH3CH2CPC7HSHCFeS2HS2FeHFeSHSFeS2FeSFeSFeSC2HSC2SHCHC5H3C6H4C6H5C2H3C6PC15HC2H15CH3CHSH2CHC5H2CH3C2HSC3H2C5H3PSHC2H2C3HCHC2H3C5H9C2HC6H2C2HC3H5CHPC3HC3H2CPC2SCPC3HC6H2C2HCHFeSHCHCH4C2HC2H2C2HCFeHC6H4CH2
_chemical_formula_sum              "Fe144 S288 H1728 C2160 P72"
_cell_length_a       65.9224
_cell_length_b       65.1632
_cell_length_c       40.8465
_cell_angle_alpha    90.5785
_cell_angle_beta     89.1453
_cell_angle_gamma    117.255

_space_group_name_H-M_alt    "P 1"
_space_group_IT_number       1

loop_
  _space_group_symop_operation_xyz
  'x, y, z'

loop_
  _atom_site_type_symbol
  _atom_site_label
  _atom_site_symmetry_multiplicity
  _atom_site_fract_x
  _atom_site_fract_y
  _atom_site_fract_z
  _atom_site_occupancy
  Fe  Fe1       1.0  0.19338  0.32067  0.31305  1.0000
  S   S1        1.0  0.17229  0.28549  0.29082  1.0000
  S   S2        1.0  0.18320  0.33707  0.35629  1.0000
  Fe  Fe2       1.0  0.18494  0.30355  0.24221  1.0000
  S   S3        1.0  0.16207  0.29098  0.19686  1.0000
  H   H1        1.0  0.12734  0.33129  0.34149  1.0000
  C   C1        1.0  0.06665  0.34018  0.31704  1.0000
  H   H2        1.0  0.20302  0.19677  0.19286  1.0000
  S   S4        1.0  0.09223  0.33701  0.01757  1.0000
  S   S5        1.0  0.09732  0.28847  0.45353  1.0000
  Fe  Fe3       1.0  0.03726  0.28029  0.03970  1.0000
  S   S6        1.0  0.04852  0.31309  0.06818  1.0000
  S   S7        1.0  0.00180  0.24962  0.04538  1.0000
  Fe  Fe4       1.0  0.05551  0.33061  0.01914  1.0000
  H   H3        1.0  0.14454  0.29085  0.35783  1.0000
  Fe  Fe5       1.0  0.08404  0.31624  0.06460  1.0000
  S   S8        1.0  0.10709  0.33000  0.10971  1.0000
  H   H4        1.0  0.11135  0.27251  0.39592  1.0000
  S   S9        1.0  0.07230  0.28190  0.03907  1.0000
  H   H5        1.0  0.17343  0.24820  0.11022  1.0000
  S   S10       1.0  0.02876  0.39420  0.37794  1.0000
  C   C2        1.0  0.06998  0.32695  0.18408  1.0000
  S   S11       1.0  0.99261  0.44667  0.26995  1.0000
  S   S12       1.0  0.00069  0.43932  0.36622  1.0000
  C   C3        1.0  0.14480  0.32272  0.03724  1.0000
  C   C4        1.0  0.02593  0.25720  0.38324  1.0000
  C   C5        1.0  0.97638  0.28432  0.00526  1.0000
  C   C6        1.0  0.04722  0.36210  0.44760  1.0000
  C   C7        1.0  0.03741  0.36645  0.41978  1.0000
  C   C8        1.0  0.03660  0.38749  0.41620  1.0000
  C   C9        1.0  0.04545  0.40408  0.44108  1.0000
  S   S13       1.0  0.03812  0.35371  0.01422  1.0000
  H   H6        1.0  0.04797  0.34596  0.44970  1.0000
  H   H7        1.0  0.03087  0.35369  0.40056  1.0000
  H   H8        1.0  0.04560  0.42063  0.43820  1.0000
  H   H9        1.0  0.05317  0.41982  0.21718  1.0000
  C   C10       1.0  0.98308  0.24567  0.07919  1.0000
  C   C11       1.0  0.99126  0.25578  0.10968  1.0000
  H   H10       1.0  0.00709  0.28987  0.46090  1.0000
  H   H11       1.0  0.00933  0.26689  0.11272  1.0000
  H   H12       1.0  0.98300  0.25736  0.16064  1.0000
  H   H13       1.0  0.12348  0.36758  0.33867  1.0000
  C   C12       1.0  0.14689  0.30224  0.17311  1.0000
  C   C13       1.0  0.14756  0.32366  0.17980  1.0000
  C   C14       1.0  0.13531  0.33180  0.16014  1.0000
  C   C15       1.0  0.12217  0.31871  0.13359  1.0000
  C   C16       1.0  0.12137  0.29725  0.12703  1.0000
  C   C17       1.0  0.13371  0.28914  0.14658  1.0000
  H   H14       1.0  0.15761  0.33401  0.20000  1.0000
  H   H15       1.0  0.13610  0.34844  0.16549  1.0000
  H   H16       1.0  0.11112  0.28686  0.10704  1.0000
  H   H17       1.0  0.13298  0.27253  0.14116  1.0000
  C   C18       1.0  0.15860  0.32369  0.38214  1.0000
  C   C19       1.0  0.15526  0.33647  0.40783  1.0000
  C   C20       1.0  0.13649  0.32614  0.42967  1.0000
  C   C21       1.0  0.12072  0.30289  0.42591  1.0000
  C   C22       1.0  0.12365  0.29035  0.39957  1.0000
  C   C23       1.0  0.14246  0.30066  0.37788  1.0000
  H   H18       1.0  0.16728  0.35446  0.41089  1.0000
  H   H19       1.0  0.13429  0.33614  0.44943  1.0000
  H   H20       1.0  0.97715  0.32348  0.05753  1.0000
  C   C24       1.0  0.18117  0.30737  0.07881  1.0000
  H   H21       1.0  0.04496  0.35577  0.14694  1.0000
  S   S14       1.0  0.04293  0.29760  0.99078  1.0000
  C   C25       1.0  0.05862  0.29862  0.35544  1.0000
  C   C26       1.0  0.98859  0.37727  0.47804  1.0000
  H   H22       1.0  0.08231  0.29490  0.38782  1.0000
  H   H23       1.0  0.99605  0.30172  0.08046  1.0000
  H   H24       1.0  0.08178  0.22207  0.31095  1.0000
  C   C27       1.0  0.01142  0.40160  0.12500  1.0000
  C   C28       1.0  0.98349  0.46529  0.25018  1.0000
  C   C29       1.0  0.03463  0.46153  0.03014  1.0000
  C   C30       1.0  0.12321  0.30496  0.26803  1.0000
  H   H25       1.0  0.00126  0.29777  0.40330  1.0000
  C   C31       1.0  0.08740  0.30484  0.28266  1.0000
  P   P1        1.0  0.15787  0.28901  0.02016  1.0000
  H   H26       1.0  0.13329  0.20473  0.47843  1.0000
  H   H27       1.0  0.02034  0.42615  0.23531  1.0000
  C   C32       1.0  0.16805  0.26640  0.07019  1.0000
  H   H28       1.0  0.05608  0.30434  0.22532  1.0000
  H   H29       1.0  0.97737  0.42323  0.48314  1.0000
  H   H30       1.0  0.21583  0.23592  0.21670  1.0000
  H   H31       1.0  0.13276  0.31014  0.05409  1.0000
  C   C33       1.0  0.03599  0.28840  0.34446  1.0000
  C   C34       1.0  0.12187  0.21235  0.48160  1.0000
  H   H32       1.0  0.03941  0.38902  0.06352  1.0000
  H   H33       1.0  0.09224  0.35589  0.45205  1.0000
  H   H34       1.0  0.06974  0.29977  0.27714  1.0000
  C   C35       1.0  0.03455  0.31967  0.21191  1.0000
  C   C36       1.0  0.11968  0.32269  0.31886  1.0000
  H   H35       1.0  0.20754  0.37513  0.42581  1.0000
  C   C37       1.0  0.02878  0.39558  0.07567  1.0000
  P   P2        1.0  0.00510  0.33695  0.19064  1.0000
  S   S15       1.0  0.20469  0.33915  0.26430  1.0000
  C   C38       1.0  0.99869  0.30039  0.45566  1.0000
  H   H36       1.0  0.98118  0.39417  0.23310  1.0000
  C   C39       1.0  0.98393  0.31783  0.41675  1.0000
  C   C40       1.0  0.05692  0.37908  0.47179  1.0000
  C   C41       1.0  0.09378  0.24221  0.05132  1.0000
  H   H37       1.0  0.03087  0.29619  0.32509  1.0000
  C   C42       1.0  0.03985  0.35626  0.31755  1.0000
  C   C43       1.0  0.04997  0.34435  0.33325  1.0000
  C   C44       1.0  0.99541  0.39130  0.22476  1.0000
  H   H38       1.0  0.04697  0.38157  0.19749  1.0000
  C   C45       1.0  0.99214  0.31302  0.09615  1.0000
  C   C46       1.0  0.09709  0.31738  0.31133  1.0000
  P   P3        1.0  0.07994  0.32544  0.33843  1.0000
  C   C47       1.0  0.01875  0.40647  0.05738  1.0000
  H   H39       1.0  0.05353  0.25895  0.41293  1.0000
  C   C48       1.0  0.16301  0.19130  0.38561  1.0000
  H   H40       1.0  0.14773  0.25462  0.35475  1.0000
  C   C49       1.0  0.20566  0.15935  0.32980  1.0000
  H   H41       1.0  0.14449  0.27510  0.46243  1.0000
  H   H42       1.0  0.99272  0.33973  0.25986  1.0000
  H   H43       1.0  0.15935  0.25091  0.05550  1.0000
  H   H44       1.0  0.16015  0.18001  0.36468  1.0000
  C   C50       1.0  0.97638  0.32695  0.44257  1.0000
  H   H45       1.0  0.19151  0.28298  0.14563  1.0000
  H   H46       1.0  0.97803  0.35353  0.15159  1.0000
  Fe  Fe6       1.0  0.98159  0.42678  0.31855  1.0000
  H   H47       1.0  0.00752  0.47252  0.21022  1.0000
  C   C51       1.0  0.12810  0.26764  0.02086  1.0000
  C   C52       1.0  0.14650  0.34490  0.03666  1.0000
  C   C53       1.0  0.98134  0.32517  0.08325  1.0000
  H   H48       1.0  0.09313  0.28960  0.23846  1.0000
  C   C54       1.0  0.11582  0.23969  0.33002  1.0000
  P   P4        1.0  0.99123  0.42801  0.04815  1.0000
  H   H49       1.0  0.00690  0.30628  0.13840  1.0000
  C   C55       1.0  0.18896  0.30564  0.10982  1.0000
  H   H50       1.0  0.00091  0.37259  0.46692  1.0000
  C   C56       1.0  0.05386  0.31604  0.20891  1.0000
  C   C57       1.0  0.04649  0.36433  0.28567  1.0000
  H   H51       1.0  0.17535  0.23381  0.45849  1.0000
  H   H52       1.0  0.97433  0.35567  0.21294  1.0000
  H   H53       1.0  0.06534  0.19953  0.36167  1.0000
  C   C58       1.0  0.17599  0.26478  0.10114  1.0000
  H   H54       1.0  0.20594  0.14655  0.37818  1.0000
  C   C59       1.0  0.99392  0.33085  0.14943  1.0000
  C   C60       1.0  0.13272  0.31668  0.29710  1.0000
  C   C61       1.0  0.99413  0.47590  0.22051  1.0000
  S   S16       1.0  0.05386  0.30922  0.48812  1.0000
  Fe  Fe7       1.0  0.07912  0.30239  0.99212  1.0000
  C   C62       1.0  0.05556  0.39988  0.46869  1.0000
  H   H55       1.0  0.06368  0.22295  0.02262  1.0000
  H   H56       1.0  0.07911  0.34955  0.14248  1.0000
  C   C63       1.0  0.17046  0.28769  0.05878  1.0000
  C   C64       1.0  0.15886  0.31710  0.01681  1.0000
  C   C65       1.0  0.99135  0.30966  0.48152  1.0000
  H   H57       1.0  0.18295  0.32397  0.07121  1.0000
  H   H58       1.0  0.03885  0.37391  0.27389  1.0000
  H   H59       1.0  0.00881  0.40000  0.15128  1.0000
  C   C66       1.0  0.01970  0.26779  0.35845  1.0000
  H   H60       1.0  0.06312  0.41316  0.48716  1.0000
  Fe  Fe8       1.0  0.20472  0.28177  0.29159  1.0000
  C   C67       1.0  0.04748  0.34505  0.16489  1.0000
  C   C68       1.0  0.04854  0.26703  0.39369  1.0000
  C   C69       1.0  0.98224  0.32241  0.25086  1.0000
  C   C70       1.0  0.01013  0.36561  0.20343  1.0000
  C   C71       1.0  0.07354  0.34869  0.28517  1.0000
  C   C72       1.0  0.98212  0.34218  0.13655  1.0000
  S   S17       1.0  0.20869  0.24919  0.29972  1.0000
  H   H61       1.0  0.98009  0.38123  0.02378  1.0000
  C   C73       1.0  0.11679  0.25855  0.05077  1.0000
  C   C74       1.0  0.98475  0.31604  0.21861  1.0000
  C   C75       1.0  0.03236  0.38397  0.20468  1.0000
  H   H62       1.0  0.08702  0.34659  0.27252  1.0000
  C   C76       1.0  0.09617  0.34489  0.37087  1.0000
  C   C77       1.0  0.06682  0.34153  0.16219  1.0000
  C   C78       1.0  0.06485  0.28749  0.37956  1.0000
  C   C79       1.0  0.18473  0.21017  0.43375  1.0000
  H   H63       1.0  0.02216  0.31078  0.23106  1.0000
  H   H64       1.0  0.06880  0.36719  0.24497  1.0000
  C   C80       1.0  0.01755  0.40938  0.22610  1.0000
  C   C81       1.0  0.06336  0.36059  0.26950  1.0000
  H   H65       1.0  0.97373  0.28750  0.18439  1.0000
  C   C82       1.0  0.18631  0.28437  0.12103  1.0000
  Fe  Fe9       1.0  0.00073  0.40466  0.36868  1.0000
  C   C83       1.0  0.09258  0.22427  0.33180  1.0000
  C   C84       1.0  0.03113  0.33409  0.18971  1.0000
  H   H66       1.0  0.07079  0.32797  0.40916  1.0000
  C   C85       1.0  0.99079  0.39933  0.47250  1.0000
  C   C86       1.0  0.17602  0.30296  0.44690  1.0000
  H   H67       1.0  0.18541  0.36510  0.47770  1.0000
  C   C87       1.0  0.10526  0.23639  0.46277  1.0000
  C   C88       1.0  0.12067  0.22723  0.45793  1.0000
  C   C89       1.0  0.08168  0.23510  0.02213  1.0000
  P   P5        1.0  0.13841  0.23476  0.42136  1.0000
  C   C90       1.0  0.16034  0.26439  0.42345  1.0000
  C   C91       1.0  0.15363  0.21782  0.41690  1.0000
  C   C92       1.0  0.17143  0.22161  0.43846  1.0000
  H   H68       1.0  0.19622  0.32061  0.12581  1.0000
  C   C93       1.0  0.12981  0.24267  0.35691  1.0000
  H   H69       1.0  0.04502  0.33864  0.35822  1.0000
  C   C94       1.0  0.02517  0.39319  0.10949  1.0000
  C   C95       1.0  0.15896  0.28008  0.44609  1.0000
  C   C96       1.0  0.97147  0.29313  0.20852  1.0000
  C   C97       1.0  0.00103  0.41214  0.10669  1.0000
  C   C98       1.0  0.19617  0.29481  0.40285  1.0000
  C   C99       1.0  0.17932  0.27188  0.40222  1.0000
  C   C100      1.0  0.12058  0.23048  0.38606  1.0000
  C   C101      1.0  0.09728  0.21459  0.38734  1.0000
  H   H70       1.0  0.17435  0.31519  0.46345  1.0000
  C   C102      1.0  0.08334  0.21163  0.36039  1.0000
  H   H71       1.0  0.08473  0.32382  0.18124  1.0000
  H   H72       1.0  0.02213  0.40855  0.03125  1.0000
  H   H73       1.0  0.12928  0.38937  0.43913  1.0000
  H   H74       1.0  0.10397  0.24783  0.44480  1.0000
  H   H75       1.0  0.21009  0.17284  0.28131  1.0000
  H   H76       1.0  0.01331  0.24134  0.39428  1.0000
  H   H77       1.0  0.14488  0.39517  0.38231  1.0000
  C   C103      1.0  0.99291  0.46888  0.07412  1.0000
  C   C104      1.0  0.99829  0.31571  0.12911  1.0000
  C   C105      1.0  0.99519  0.30464  0.42328  1.0000
  C   C106      1.0  0.14945  0.20250  0.39045  1.0000
  H   H78       1.0  0.12301  0.24941  0.30777  1.0000
  C   C107      1.0  0.10049  0.29889  0.26091  1.0000
  H   H79       1.0  0.13618  0.19958  0.37303  1.0000
  H   H80       1.0  0.18083  0.26009  0.38462  1.0000
  H   H81       1.0  0.08978  0.20447  0.40914  1.0000
  H   H82       1.0  0.12548  0.26431  0.07383  1.0000
  S   S18       1.0  0.98525  0.39403  0.31888  1.0000
  C   C108      1.0  0.03600  0.40574  0.21594  1.0000
  C   C109      1.0  0.16179  0.36146  0.01516  1.0000
  C   C110      1.0  0.12888  0.38024  0.38813  1.0000
  C   C111      1.0  0.12014  0.37699  0.42010  1.0000
  C   C112      1.0  0.09927  0.35803  0.42742  1.0000
  C   C113      1.0  0.08721  0.34213  0.40293  1.0000
  C   C114      1.0  0.11678  0.36446  0.36350  1.0000
  H   H83       1.0  0.03837  0.46319  0.05605  1.0000
  H   H84       1.0  0.18935  0.15935  0.33341  1.0000
  C   C115      1.0  0.19447  0.31035  0.42505  1.0000
  C   C116      1.0  0.18800  0.27438  0.99078  1.0000
  C   C117      1.0  0.00456  0.41461  0.07263  1.0000
  C   C118      1.0  0.21499  0.15215  0.35502  1.0000
  C   C119      1.0  0.98043  0.32329  0.47515  1.0000
  C   C120      1.0  0.18067  0.19518  0.40720  1.0000
  H   H85       1.0  0.15026  0.32117  0.30282  1.0000
  H   H86       1.0  0.13589  0.34923  0.05293  1.0000
  C   C121      1.0  0.11563  0.26064  0.99174  1.0000
  H   H87       1.0  0.00421  0.41118  0.45647  1.0000
  H   H88       1.0  0.19161  0.18702  0.40305  1.0000
  H   H89       1.0  0.02722  0.35974  0.33043  1.0000
  H   H90       1.0  0.08512  0.23553  0.07448  1.0000
  H   H91       1.0  0.13342  0.30047  0.25110  1.0000
  H   H92       1.0  0.99061  0.41857  0.11942  1.0000
  H   H93       1.0  0.03304  0.38484  0.12360  1.0000
  C   C122      1.0  0.01272  0.44626  0.01910  1.0000
  C   C123      1.0  0.97596  0.33941  0.10355  1.0000
  H   H94       1.0  0.00723  0.47842  0.05788  1.0000
  H   H95       1.0  0.16272  0.37849  0.01443  1.0000
  C   C124      1.0  0.98148  0.44463  0.07385  1.0000
  C   C125      1.0  0.99166  0.36954  0.21337  1.0000
  H   H96       1.0  0.00223  0.25999  0.35002  1.0000
  C   C126      1.0  0.97626  0.25039  0.13682  1.0000
  C   C127      1.0  0.05189  0.47468  0.00777  1.0000
  H   H97       1.0  0.98727  0.27609  0.00797  1.0000
  C   C128      1.0  0.09257  0.24447  0.99241  1.0000
  H   H98       1.0  0.19168  0.27065  0.01499  1.0000
  C   C129      1.0  0.98617  0.47841  0.45233  1.0000
  H   H99       1.0  0.19874  0.21346  0.45006  1.0000
  H   H100      1.0  0.03247  0.47720  0.30535  1.0000
  C   C130      1.0  0.21758  0.16703  0.30015  1.0000
  C   C131      1.0  0.17456  0.33404  0.99573  1.0000
  H   H101      1.0  0.98129  0.32131  0.39168  1.0000
  C   C132      1.0  0.98575  0.48130  0.09541  1.0000
  H   H102      1.0  0.00834  0.37306  0.99975  1.0000
  C   C133      1.0  0.20227  0.36604  0.47703  1.0000
  H   H103      1.0  0.21029  0.30074  0.38557  1.0000
  C   C134      1.0  0.17580  0.35602  0.99466  1.0000
  H   H104      1.0  0.20706  0.32826  0.42439  1.0000
  S   S19       1.0  0.21560  0.29678  0.24140  1.0000
  C   C135      1.0  0.21729  0.20375  0.20949  1.0000
  H   H105      1.0  0.99627  0.47733  0.43190  1.0000
  C   C136      1.0  0.97562  0.40611  0.48746  1.0000
  C   C137      1.0  0.21471  0.37169  0.44759  1.0000
  H   H106      1.0  0.21420  0.32510  0.02244  1.0000
  H   H107      1.0  0.21834  0.26920  0.36519  1.0000
  Fe  Fe10      1.0  0.19508  0.31493  0.81091  1.0000
  S   S20       1.0  0.17474  0.28093  0.78474  1.0000
  S   S21       1.0  0.18378  0.32919  0.85597  1.0000
  Fe  Fe11      1.0  0.19035  0.30129  0.73835  1.0000
  S   S22       1.0  0.17488  0.29460  0.68671  1.0000
  C   C138      1.0  0.17264  0.28354  0.98589  1.0000
  C   C139      1.0  0.99869  0.25913  0.92840  1.0000
  H   H108      1.0  0.19336  0.05750  0.72835  1.0000
  S   S23       1.0  0.10487  0.33770  0.52078  1.0000
  S   S24       1.0  0.09264  0.29191  0.94567  1.0000
  Fe  Fe12      1.0  0.04113  0.29218  0.53720  1.0000
  S   S25       1.0  0.05889  0.32531  0.56518  1.0000
  S   S26       1.0  0.00218  0.27103  0.54017  1.0000
  Fe  Fe13      1.0  0.07281  0.34185  0.51654  1.0000
  H   H109      1.0  0.13989  0.28655  0.85439  1.0000
  Fe  Fe14      1.0  0.08913  0.31789  0.56726  1.0000
  S   S27       1.0  0.10757  0.32650  0.61654  1.0000
  H   H110      1.0  0.10516  0.27287  0.88978  1.0000
  S   S28       1.0  0.07037  0.28329  0.54214  1.0000
  Fe  Fe15      1.0  0.99564  0.40892  0.87498  1.0000
  S   S29       1.0  0.02522  0.40110  0.88579  1.0000
  P   P6        1.0  0.19535  0.35449  0.54322  1.0000
  S   S30       1.0  0.99388  0.45962  0.78359  1.0000
  S   S31       1.0  0.99707  0.44417  0.87410  1.0000
  C   C140      1.0  0.13759  0.29457  0.52390  1.0000
  H   H111      1.0  0.05166  0.46698  0.57004  1.0000
  C   C141      1.0  0.21624  0.34898  0.63520  1.0000
  C   C142      1.0  0.04719  0.36808  0.94944  1.0000
  C   C143      1.0  0.04431  0.37903  0.92158  1.0000
  C   C144      1.0  0.02841  0.38783  0.92170  1.0000
  C   C145      1.0  0.01540  0.38564  0.95008  1.0000
  C   C146      1.0  0.01101  0.35521  0.82433  1.0000
  H   H112      1.0  0.05984  0.36187  0.94928  1.0000
  H   H113      1.0  0.05468  0.38095  0.89994  1.0000
  H   H114      1.0  0.00319  0.39243  0.95058  1.0000
  H   H115      1.0  0.01007  0.42654  0.75590  1.0000
  C   C147      1.0  0.98505  0.25987  0.57605  1.0000
  C   C148      1.0  0.99382  0.25587  0.60491  1.0000
  C   C149      1.0  0.97914  0.24498  0.63172  1.0000
  H   H116      1.0  0.01175  0.26035  0.60615  1.0000
  H   H117      1.0  0.98598  0.24121  0.65346  1.0000
  H   H118      1.0  0.04424  0.34312  0.75410  1.0000
  C   C150      1.0  0.15590  0.30343  0.66787  1.0000
  C   C151      1.0  0.14929  0.31881  0.68299  1.0000
  C   C152      1.0  0.13454  0.32561  0.66686  1.0000
  C   C153      1.0  0.12611  0.31713  0.63547  1.0000
  C   C154      1.0  0.13286  0.30186  0.62019  1.0000
  C   C155      1.0  0.14765  0.29508  0.63631  1.0000
  H   H119      1.0  0.15550  0.32545  0.70716  1.0000
  H   H120      1.0  0.12952  0.33746  0.67892  1.0000
  H   H121      1.0  0.12656  0.29518  0.59610  1.0000
  H   H122      1.0  0.15265  0.28321  0.62431  1.0000
  C   C156      1.0  0.15813  0.31858  0.88038  1.0000
  C   C157      1.0  0.15683  0.33200  0.90692  1.0000
  C   C158      1.0  0.13707  0.32425  0.92715  1.0000
  C   C159      1.0  0.11822  0.30286  0.92120  1.0000
  C   C160      1.0  0.11955  0.28943  0.89475  1.0000
  C   C161      1.0  0.13929  0.29717  0.87453  1.0000
  H   H123      1.0  0.17122  0.34857  0.91182  1.0000
  H   H124      1.0  0.13639  0.33483  0.94729  1.0000
  S   S32       1.0  0.07175  0.37552  0.50544  1.0000
  C   C162      1.0  0.97811  0.33915  0.57562  1.0000
  C   C163      1.0  0.17821  0.40750  0.53969  1.0000
  C   C164      1.0  0.05966  0.35059  0.66770  1.0000
  H   H125      1.0  0.99172  0.43270  0.97590  1.0000
  C   C165      1.0  0.98561  0.32448  0.71316  1.0000
  C   C166      1.0  0.01638  0.35107  0.76606  1.0000
  H   H126      1.0  0.16986  0.27070  0.55358  1.0000
  C   C167      1.0  0.16869  0.28824  0.95374  1.0000
  C   C168      1.0  0.01839  0.37477  0.97793  1.0000
  C   C169      1.0  0.02582  0.45716  0.96304  1.0000
  H   H127      1.0  0.07111  0.40593  0.65154  1.0000
  C   C170      1.0  0.03951  0.43378  0.54703  1.0000
  H   H128      1.0  0.02358  0.39888  0.52882  1.0000
  H   H129      1.0  0.20374  0.12748  0.72861  1.0000
  C   C171      1.0  0.03293  0.36060  0.69704  1.0000
  C   C172      1.0  0.19495  0.27484  0.93232  1.0000
  C   C173      1.0  0.06271  0.38882  0.66214  1.0000
  H   H130      1.0  0.08491  0.37723  0.63764  1.0000
  H   H131      1.0  0.00184  0.24108  0.97048  1.0000
  C   C174      1.0  0.18959  0.39407  0.53506  1.0000
  H   H132      1.0  0.14951  0.40960  0.56259  1.0000
  C   C175      1.0  0.05986  0.32211  0.90911  1.0000
  C   C176      1.0  0.07327  0.32108  0.88303  1.0000
  C   C177      1.0  0.06296  0.30991  0.85403  1.0000
  C   C178      1.0  0.03919  0.29952  0.85121  1.0000
  C   C179      1.0  0.02546  0.30028  0.87746  1.0000
  C   C180      1.0  0.03610  0.31179  0.90642  1.0000
  P   P7        1.0  0.99457  0.28417  0.87556  1.0000
  C   C181      1.0  0.98659  0.26879  0.83696  1.0000
  C   C182      1.0  0.97249  0.23320  0.80537  1.0000
  C   C183      1.0  0.21890  0.01309  0.57289  1.0000
  C   C184      1.0  0.09277  0.21621  0.51432  1.0000
  S   S33       1.0  0.20964  0.33565  0.76410  1.0000
  C   C185      1.0  0.15846  0.39931  0.55915  1.0000
  C   C186      1.0  0.00124  0.41993  0.58824  1.0000
  H   H133      1.0  0.18469  0.42428  0.52824  1.0000
  H   H134      1.0  0.00149  0.31272  0.97751  1.0000
  H   H135      1.0  0.00233  0.35945  0.84395  1.0000
  C   C187      1.0  0.01550  0.35367  0.59970  1.0000
  C   C188      1.0  0.98142  0.26920  0.77813  1.0000
  H   H136      1.0  0.98437  0.34396  0.62738  1.0000
  C   C189      1.0  0.98938  0.32275  0.89663  1.0000
  H   H137      1.0  0.97683  0.33179  0.97116  1.0000
  C   C190      1.0  0.02526  0.35601  0.56851  1.0000
  H   H138      1.0  0.97318  0.41758  0.73065  1.0000
  H   H139      1.0  0.07232  0.44578  0.68142  1.0000
  H   H140      1.0  0.06794  0.33016  0.93191  1.0000
  H   H141      1.0  0.09163  0.32838  0.88570  1.0000
  H   H142      1.0  0.07343  0.30876  0.83409  1.0000
  H   H143      1.0  0.03176  0.29039  0.82880  1.0000
  H   H144      1.0  0.02609  0.31177  0.92766  1.0000
  H   H145      1.0  0.20268  0.99826  0.56799  1.0000
  H   H146      1.0  0.01843  0.48096  0.55410  1.0000
  Fe  Fe16      1.0  0.08472  0.30361  0.49535  1.0000
  C   C191      1.0  0.98041  0.30232  0.87800  1.0000
  H   H147      1.0  0.01682  0.26683  0.92315  1.0000
  H   H148      1.0  0.98497  0.35218  0.91226  1.0000
  H   H149      1.0  0.17782  0.08572  0.72652  1.0000
  C   C192      1.0  0.97654  0.43821  0.65430  1.0000
  H   H150      1.0  0.18545  0.33242  0.60775  1.0000
  C   C193      1.0  0.99023  0.24418  0.95510  1.0000
  H   H151      1.0  0.00525  0.32866  0.90949  1.0000
  C   C194      1.0  0.97791  0.33624  0.89848  1.0000
  H   H152      1.0  0.98959  0.38665  0.56524  1.0000
  H   H153      1.0  0.02600  0.39892  0.75188  1.0000
  C   C195      1.0  0.03461  0.34634  0.77327  1.0000
  H   H154      1.0  0.17678  0.28785  0.90248  1.0000
  P   P8        1.0  0.01741  0.46276  0.61976  1.0000
  C   C196      1.0  0.98545  0.31454  0.68237  1.0000
  H   H155      1.0  0.14843  0.33077  0.51832  1.0000
  H   H156      1.0  0.02248  0.45531  0.93703  1.0000
  H   H157      1.0  0.12075  0.28965  0.51423  1.0000
  H   H158      1.0  0.05430  0.43910  0.53100  1.0000
  H   H159      1.0  0.03817  0.39557  0.68876  1.0000
  H   H160      1.0  0.99898  0.32312  0.66463  1.0000
  C   C197      1.0  0.05418  0.45856  0.71299  1.0000
  C   C198      1.0  0.98140  0.47213  0.75695  1.0000
  H   H161      1.0  0.02622  0.35830  0.62102  1.0000
  C   C199      1.0  0.97047  0.31570  0.98448  1.0000
  C   C200      1.0  0.04751  0.47243  0.97422  1.0000
  H   H162      1.0  0.04358  0.36277  0.56567  1.0000
  H   H163      1.0  0.08203  0.21203  0.53610  1.0000
  H   H164      1.0  0.19787  0.31182  0.55801  1.0000
  C   C201      1.0  0.21251  0.35921  0.57931  1.0000
  C   C202      1.0  0.01866  0.44275  0.58981  1.0000
  C   C203      1.0  0.97359  0.24533  0.77680  1.0000
  H   H165      1.0  0.12327  0.26798  0.96843  1.0000
  H   H166      1.0  0.06574  0.33808  0.66141  1.0000
  C   C204      1.0  0.03784  0.44955  0.56902  1.0000
  H   H167      1.0  0.07986  0.23847  0.49443  1.0000
  C   C205      1.0  0.97898  0.24484  0.83538  1.0000
  C   C206      1.0  0.01148  0.34967  0.54082  1.0000
  C   C207      1.0  0.98796  0.28092  0.80804  1.0000
  Fe  Fe17      1.0  0.97898  0.43349  0.82559  1.0000
  H   H168      1.0  0.98247  0.27857  0.75587  1.0000
  C   C208      1.0  0.17986  0.28401  0.92717  1.0000
  C   C209      1.0  0.04398  0.38283  0.68337  1.0000
  H   H169      1.0  0.05550  0.34325  0.81114  1.0000
  C   C210      1.0  0.04866  0.45329  0.65437  1.0000
  C   C211      1.0  0.04103  0.34457  0.68905  1.0000
  C   C212      1.0  0.18099  0.37211  0.54939  1.0000
  C   C213      1.0  0.98386  0.26393  0.90915  1.0000
  H   H170      1.0  0.05317  0.44810  0.63130  1.0000
  C   C214      1.0  0.15330  0.31790  0.52651  1.0000
  C   C215      1.0  0.17492  0.32441  0.53985  1.0000
  H   H171      1.0  0.20507  0.40089  0.52037  1.0000
  C   C216      1.0  0.02217  0.41109  0.54579  1.0000
  C   C217      1.0  0.01007  0.39490  0.73983  1.0000
  H   H172      1.0  0.20903  0.20108  0.67338  1.0000
  C   C218      1.0  0.18107  0.30723  0.54859  1.0000
  C   C219      1.0  0.02700  0.46808  0.68645  1.0000
  S   S34       1.0  0.98079  0.39966  0.82448  1.0000
  H   H173      1.0  0.13511  0.37160  0.58979  1.0000
  C   C220      1.0  0.00428  0.35493  0.79203  1.0000
  P   P9        1.0  0.00840  0.35239  0.72418  1.0000
  C   C221      1.0  0.99802  0.37375  0.72338  1.0000
  H   H174      1.0  0.98997  0.35838  0.78747  1.0000
  C   C222      1.0  0.03435  0.36608  0.97784  1.0000
  C   C223      1.0  0.00115  0.41063  0.74212  1.0000
  H   H175      1.0  0.03476  0.35153  0.85635  1.0000
  H   H176      1.0  0.03282  0.32728  0.69910  1.0000
  C   C224      1.0  0.02939  0.35092  0.83125  1.0000
  C   C225      1.0  0.98776  0.34086  0.54422  1.0000
  C   C226      1.0  0.97714  0.36885  0.70866  1.0000
  C   C227      1.0  0.07051  0.37270  0.65427  1.0000
  C   C228      1.0  0.16155  0.36434  0.56973  1.0000
  H   H177      1.0  0.97813  0.23513  0.85715  1.0000
  H   H178      1.0  0.98631  0.41420  0.60396  1.0000
  C   C229      1.0  0.05957  0.45190  0.68279  1.0000
  C   C230      1.0  0.19608  0.09177  0.72773  1.0000
  C   C231      1.0  0.04107  0.34632  0.80575  1.0000
  C   C232      1.0  0.03794  0.46670  0.71477  1.0000
  Fe  Fe18      1.0  0.20677  0.27658  0.78849  1.0000
  H   H179      1.0  0.15496  0.34780  0.58194  1.0000
  H   H180      1.0  0.20451  0.28512  0.61940  1.0000
  C   C233      1.0  0.98716  0.48001  0.96037  1.0000
  H   H181      1.0  0.99612  0.47754  0.93954  1.0000
  C   C234      1.0  0.98829  0.45557  0.63109  1.0000
  C   C235      1.0  0.16530  0.28390  0.54593  1.0000
  C   C236      1.0  0.97768  0.46825  0.61864  1.0000
  C   C237      1.0  0.97091  0.36163  0.49813  1.0000
  C   C238      1.0  0.00305  0.40420  0.56634  1.0000
  H   H182      1.0  0.99410  0.30605  0.50644  1.0000
  C   C239      1.0  0.14351  0.27759  0.53389  1.0000
  C   C240      1.0  0.15029  0.37786  0.57440  1.0000
  H   H183      1.0  0.13120  0.25956  0.53223  1.0000
  C   C241      1.0  0.19909  0.27007  0.96408  1.0000
  C   C242      1.0  0.98437  0.30493  0.98788  1.0000
  C   C243      1.0  0.09147  0.23101  0.49087  1.0000
  S   S35       1.0  0.21184  0.24470  0.79715  1.0000
  H   H184      1.0  0.18583  0.33043  0.97996  1.0000
  C   C244      1.0  0.99194  0.34542  0.60326  1.0000
  H   H185      1.0  0.01941  0.35186  0.51682  1.0000
  H   H186      1.0  0.20332  0.27134  0.91159  1.0000
  H   H187      1.0  0.99403  0.29946  0.80866  1.0000
  H   H188      1.0  0.18755  0.36883  0.97781  1.0000
  H   H189      1.0  0.01442  0.47439  0.68828  1.0000
  P   P10       1.0  0.97011  0.33443  0.50853  1.0000
  C   C245      1.0  0.10795  0.20688  0.50968  1.0000
  H   H190      1.0  0.97313  0.47478  0.84476  1.0000
  H   H191      1.0  0.08300  0.23977  0.96985  1.0000
  H   H192      1.0  0.98443  0.42834  0.66440  1.0000
  C   C246      1.0  0.20308  0.34556  0.60726  1.0000
  C   C247      1.0  0.98024  0.40551  0.72792  1.0000
  H   H193      1.0  0.03367  0.47179  0.73822  1.0000
  H   H194      1.0  0.15720  0.29552  0.94906  1.0000
  H   H195      1.0  0.20878  0.33832  0.65665  1.0000
  C   C248      1.0  0.20480  0.07586  0.72880  1.0000
  H   H196      1.0  0.10886  0.19533  0.52785  1.0000
  H   H197      1.0  0.21011  0.01681  0.62289  1.0000
  C   C249      1.0  0.21088  0.11547  0.72866  1.0000
  H   H198      1.0  0.06259  0.45749  0.73505  1.0000
  C   C250      1.0  0.00840  0.44423  0.98533  1.0000
  C   C251      1.0  0.03218  0.46132  0.65602  1.0000
  C   C252      1.0  0.21153  0.36161  0.50527  1.0000
  H   H199      1.0  0.21192  0.16894  0.64398  1.0000
  H   H200      1.0  0.21079  0.26288  0.96792  1.0000
  C   C253      1.0  0.21795  0.19248  0.68436  1.0000
  H   H201      1.0  0.98619  0.48188  0.60095  1.0000
  C   C254      1.0  0.10681  0.80031  0.48135  1.0000
  S   S36       1.0  0.00743  0.55144  0.12482  1.0000
  Fe  Fe19      1.0  0.00168  0.58296  0.12088  1.0000
  S   S37       1.0  0.02533  0.62168  0.12693  1.0000
  C   C255      1.0  0.00922  0.55055  0.37275  1.0000
  S   S38       1.0  0.00217  0.52683  0.03485  1.0000
  Fe  Fe20      1.0  0.04362  0.73750  0.29351  1.0000
  S   S39       1.0  0.06343  0.72168  0.31734  1.0000
  S   S40       1.0  0.00461  0.71870  0.30006  1.0000
  Fe  Fe21      1.0  0.08598  0.76885  0.25040  1.0000
  S   S41       1.0  0.10748  0.75380  0.27185  1.0000
  S   S42       1.0  0.09900  0.79789  0.21213  1.0000
  Fe  Fe22      1.0  0.07589  0.71938  0.26657  1.0000
  S   S43       1.0  0.07323  0.68429  0.25163  1.0000
  Fe  Fe23      1.0  0.09270  0.75779  0.32044  1.0000
  S   S44       1.0  0.11293  0.76819  0.36849  1.0000
  S   S45       1.0  0.05540  0.73423  0.24233  1.0000
  S   S46       1.0  0.07202  0.77399  0.29932  1.0000
  H   H202      1.0  0.09310  0.75237  0.43501  1.0000
  S   S47       1.0  0.20366  0.85083  0.01556  1.0000
  S   S48       1.0  0.17323  0.86460  0.44197  1.0000
  C   C256      1.0  0.21245  0.92235  0.21825  1.0000
  H   H203      1.0  0.01856  0.72339  0.01044  1.0000
  Fe  Fe24      1.0  0.19224  0.85851  0.06478  1.0000
  S   S49       1.0  0.17941  0.83024  0.10419  1.0000
  H   H204      1.0  0.07844  0.70976  0.09019  1.0000
  S   S50       1.0  0.17253  0.87547  0.04308  1.0000
  C   C257      1.0  0.12098  0.80603  0.18156  1.0000
  C   C258      1.0  0.12460  0.82418  0.16002  1.0000
  C   C259      1.0  0.14218  0.83170  0.13602  1.0000
  C   C260      1.0  0.15648  0.82119  0.13330  1.0000
  C   C261      1.0  0.15278  0.80296  0.15472  1.0000
  C   C262      1.0  0.13519  0.79542  0.17867  1.0000
  H   H205      1.0  0.11382  0.83260  0.16205  1.0000
  H   H206      1.0  0.14476  0.84572  0.11979  1.0000
  H   H207      1.0  0.16369  0.79465  0.15288  1.0000
  H   H208      1.0  0.13281  0.78156  0.19509  1.0000
  C   C263      1.0  0.13001  0.79537  0.38787  1.0000
  C   C264      1.0  0.14149  0.79578  0.41688  1.0000
  C   C265      1.0  0.15485  0.81668  0.43364  1.0000
  C   C266      1.0  0.15701  0.83763  0.42153  1.0000
  C   C267      1.0  0.14568  0.83726  0.39235  1.0000
  C   C268      1.0  0.13223  0.81632  0.37568  1.0000
  H   H209      1.0  0.13996  0.77974  0.42646  1.0000
  H   H210      1.0  0.16319  0.81652  0.45615  1.0000
  H   H211      1.0  0.14711  0.85328  0.38274  1.0000
  H   H212      1.0  0.12339  0.81635  0.35360  1.0000
  C   C269      1.0  0.03601  0.63775  0.16364  1.0000
  C   C270      1.0  0.04332  0.62914  0.18974  1.0000
  C   C271      1.0  0.05463  0.64362  0.21643  1.0000
  C   C272      1.0  0.05817  0.66662  0.21787  1.0000
  C   C273      1.0  0.04991  0.67488  0.19245  1.0000
  C   C274      1.0  0.03927  0.66064  0.16527  1.0000
  H   H213      1.0  0.04129  0.61171  0.18861  1.0000
  H   H214      1.0  0.06094  0.63703  0.23591  1.0000
  H   H215      1.0  0.05231  0.69243  0.19327  1.0000
  H   H216      1.0  0.03382  0.66748  0.14516  1.0000
  C   C275      1.0  0.17562  0.89171  0.17452  1.0000
  H   H217      1.0  0.00183  0.54740  0.45583  1.0000
  C   C276      1.0  0.02322  0.57448  0.37012  1.0000
  H   H218      1.0  0.00294  0.49029  0.30936  1.0000
  C   C277      1.0  0.00322  0.54751  0.30002  1.0000
  H   H219      1.0  0.03525  0.70150  0.11890  1.0000
  C   C278      1.0  0.98753  0.64836  0.43561  1.0000
  H   H220      1.0  0.02012  0.72142  0.42987  1.0000
  C   C279      1.0  0.98672  0.71333  0.33545  1.0000
  C   C280      1.0  0.99373  0.72734  0.36340  1.0000
  C   C281      1.0  0.11386  0.77270  0.07966  1.0000
  H   H221      1.0  0.01088  0.74139  0.36443  1.0000
  C   C282      1.0  0.03190  0.70651  0.09518  1.0000
  H   H222      1.0  0.02891  0.62032  0.32305  1.0000
  H   H223      1.0  0.15331  0.82897  0.30624  1.0000
  C   C283      1.0  0.98694  0.62843  0.36207  1.0000
  C   C284      1.0  0.03947  0.74749  0.15600  1.0000
  H   H224      1.0  0.00144  0.64437  0.42999  1.0000
  H   H225      1.0  0.18096  0.86939  0.31936  1.0000
  H   H226      1.0  0.98353  0.73541  0.41035  1.0000
  H   H227      1.0  0.17907  0.76963  0.47641  1.0000
  C   C285      1.0  0.11417  0.72846  0.47114  1.0000
  C   C286      1.0  0.16183  0.84119  0.28669  1.0000
  C   C287      1.0  0.18176  0.89958  0.14225  1.0000
  H   H228      1.0  0.16307  0.84442  0.20377  1.0000
  C   C288      1.0  0.16771  0.84998  0.22879  1.0000
  C   C289      1.0  0.97511  0.50771  0.34169  1.0000
  C   C290      1.0  0.04147  0.73415  0.05123  1.0000
  C   C291      1.0  0.19828  0.92834  0.36719  1.0000
  Fe  Fe25      1.0  0.97263  0.53408  0.14902  1.0000
  C   C292      1.0  0.00788  0.69704  0.04744  1.0000
  C   C293      1.0  0.97100  0.62532  0.13436  1.0000
  C   C294      1.0  0.08190  0.73381  0.12934  1.0000
  H   H229      1.0  0.01392  0.54814  0.21796  1.0000
  C   C295      1.0  0.13672  0.88448  0.16377  1.0000
  H   H230      1.0  0.08845  0.75514  0.17287  1.0000
  C   C296      1.0  0.02099  0.57882  0.42885  1.0000
  C   C297      1.0  0.09179  0.77093  0.08124  1.0000
  H   H231      1.0  0.98369  0.62624  0.15166  1.0000
  H   H232      1.0  0.10469  0.73396  0.20381  1.0000
  C   C298      1.0  0.97343  0.67186  0.46472  1.0000
  H   H233      1.0  0.99146  0.52248  0.40706  1.0000
  H   H234      1.0  0.14433  0.81673  0.24839  1.0000
  H   H235      1.0  0.05123  0.55312  0.35625  1.0000
  C   C299      1.0  0.13089  0.78976  0.06052  1.0000
  C   C300      1.0  0.05683  0.73657  0.42893  1.0000
  C   C301      1.0  0.99999  0.61743  0.35196  1.0000
  C   C302      1.0  0.08731  0.78688  0.06374  1.0000
  Fe  Fe26      1.0  0.20568  0.90860  0.04614  1.0000
  C   C303      1.0  0.00925  0.55303  0.24125  1.0000
  C   C304      1.0  0.98709  0.50255  0.00888  1.0000
  C   C305      1.0  0.05771  0.64081  0.02593  1.0000
  C   C306      1.0  0.06351  0.52894  0.34276  1.0000
  C   C307      1.0  0.05833  0.50754  0.32853  1.0000
  H   H236      1.0  0.97615  0.68590  0.48128  1.0000
  C   C308      1.0  0.01971  0.50121  0.31899  1.0000
  C   C309      1.0  0.02461  0.52246  0.33385  1.0000
  C   C310      1.0  0.04678  0.53646  0.34527  1.0000
  C   C311      1.0  0.99514  0.56410  0.30078  1.0000
  C   C312      1.0  0.16552  0.90006  0.12107  1.0000
  C   C313      1.0  0.15689  0.83425  0.25409  1.0000
  C   C314      1.0  0.03581  0.66101  0.01323  1.0000
  C   C315      1.0  0.03648  0.49375  0.31655  1.0000
  C   C316      1.0  0.01168  0.66201  0.32979  1.0000
  C   C317      1.0  0.03403  0.72828  0.47864  1.0000
  Fe  Fe27      1.0  0.98783  0.53963  0.07737  1.0000
  P   P11       1.0  0.00299  0.53221  0.33687  1.0000
  H   H237      1.0  0.99600  0.60041  0.36072  1.0000
  C   C318      1.0  0.03548  0.72801  0.44443  1.0000
  H   H238      1.0  0.03963  0.60700  0.39583  1.0000
  C   C319      1.0  0.99458  0.49846  0.47225  1.0000
  H   H239      1.0  0.19617  0.91896  0.41814  1.0000
  H   H240      1.0  0.98886  0.56794  0.32342  1.0000
  C   C320      1.0  0.12617  0.80529  0.04288  1.0000
  H   H241      1.0  0.00172  0.67424  0.08834  1.0000
  H   H242      1.0  0.06254  0.63132  0.04323  1.0000
  C   C321      1.0  0.12988  0.72224  0.45651  1.0000
  H   H243      1.0  0.01115  0.51264  0.46680  1.0000
  S   S51       1.0  0.98492  0.57258  0.07148  1.0000
  H   H244      1.0  0.19666  0.84946  0.18072  1.0000
  H   H245      1.0  0.19098  0.93522  0.19537  1.0000
  H   H246      1.0  0.02327  0.68025  0.25801  1.0000
  S   S52       1.0  0.21673  0.90427  0.99514  1.0000
  H   H247      1.0  0.98493  0.74463  0.26401  1.0000
  H   H248      1.0  0.98666  0.48851  0.37300  1.0000
  H   H249      1.0  0.09487  0.79076  0.46239  1.0000
  H   H250      1.0  0.06613  0.70912  0.00703  1.0000
  H   H251      1.0  0.06873  0.48650  0.01643  1.0000
  C   C322      1.0  0.01874  0.62870  0.33080  1.0000
  C   C323      1.0  0.11648  0.82438  0.48095  1.0000
  C   C324      1.0  0.02884  0.58857  0.39802  1.0000
  C   C325      1.0  0.99292  0.65080  0.35077  1.0000
  H   H252      1.0  0.00743  0.67550  0.46946  1.0000
  H   H253      1.0  0.03023  0.58223  0.34663  1.0000
  H   H254      1.0  0.19991  0.89724  0.27505  1.0000
  C   C326      1.0  0.99343  0.67763  0.23361  1.0000
  H   H255      1.0  0.11925  0.87849  0.17205  1.0000
  H   H256      1.0  0.02548  0.58962  0.45058  1.0000
  C   C327      1.0  0.02231  0.71857  0.03405  1.0000
  C   C328      1.0  0.03058  0.75706  0.17945  1.0000
  C   C329      1.0  0.00169  0.54089  0.40393  1.0000
  H   H257      1.0  0.05217  0.75059  0.04010  1.0000
  C   C330      1.0  0.00764  0.55499  0.43180  1.0000
  C   C331      1.0  0.12171  0.74983  0.48725  1.0000
  H   H258      1.0  0.07122  0.50162  0.32668  1.0000
  H   H259      1.0  0.09390  0.75029  0.01140  1.0000
  C   C332      1.0  0.99458  0.57537  0.27206  1.0000
  C   C333      1.0  0.04209  0.64875  0.03539  1.0000
  C   C334      1.0  0.17744  0.86396  0.29401  1.0000
  S   S53       1.0  0.20873  0.94397  0.06071  1.0000
  H   H260      1.0  0.16541  0.73236  0.44669  1.0000
  C   C335      1.0  0.01280  0.69094  0.07788  1.0000
  C   C336      1.0  0.21240  0.86376  0.17268  1.0000
  H   H261      1.0  0.17050  0.90658  0.09641  1.0000
  H   H262      1.0  0.01621  0.67934  0.32137  1.0000
  H   H263      1.0  0.03934  0.65988  0.30381  1.0000
  H   H264      1.0  0.08051  0.53969  0.35187  1.0000
  H   H265      1.0  0.99594  0.49880  0.18118  1.0000
  C   C337      1.0  0.07669  0.74538  0.44755  1.0000
  H   H266      1.0  0.10746  0.70061  0.17885  1.0000
  H   H267      1.0  0.13956  0.81872  0.02849  1.0000
  H   H268      1.0  0.02395  0.66728  0.02119  1.0000
  C   C338      1.0  0.14299  0.89236  0.13171  1.0000
  H   H269      1.0  0.99240  0.62775  0.09263  1.0000
  H   H270      1.0  0.06588  0.81389  0.16607  1.0000
  C   C339      1.0  0.21737  0.88666  0.18005  1.0000
  C   C340      1.0  0.97229  0.48874  0.36075  1.0000
  Fe  Fe28      1.0  0.18538  0.86939  0.99409  1.0000
  C   C341      1.0  0.02464  0.65102  0.31987  1.0000
  C   C342      1.0  0.08402  0.71519  0.11499  1.0000
  C   C343      1.0  0.09325  0.70328  0.13278  1.0000
  H   H271      1.0  0.14784  0.87851  0.21011  1.0000
  H   H272      1.0  0.13045  0.89262  0.11509  1.0000
  H   H273      1.0  0.18587  0.93486  0.36969  1.0000
  C   C344      1.0  0.18833  0.87970  0.26870  1.0000
  H   H274      1.0  0.10092  0.81620  0.03122  1.0000
  H   H275      1.0  0.00079  0.57813  0.21984  1.0000
  H   H276      1.0  0.14804  0.79142  0.06010  1.0000
  C   C345      1.0  0.10439  0.80385  0.04450  1.0000
  C   C346      1.0  0.05769  0.76181  0.13543  1.0000
  H   H277      1.0  0.03257  0.72894  0.15475  1.0000
  H   H278      1.0  0.99471  0.50000  0.09556  1.0000
  H   H279      1.0  0.08211  0.79741  0.12561  1.0000
  C   C347      1.0  0.00998  0.54185  0.26993  1.0000
  C   C348      1.0  0.20411  0.91948  0.39449  1.0000
  C   C349      1.0  0.05800  0.79537  0.16250  1.0000
  C   C350      1.0  0.06713  0.78586  0.13932  1.0000
  C   C351      1.0  0.03980  0.78099  0.18264  1.0000
  C   C352      1.0  0.98348  0.63179  0.22094  1.0000
  P   P12       1.0  0.06974  0.74903  0.10650  1.0000
  C   C353      1.0  0.08965  0.74069  0.16136  1.0000
  C   C354      1.0  0.10075  0.71011  0.16474  1.0000
  H   H280      1.0  0.05811  0.73671  0.40239  1.0000
  C   C355      1.0  0.09904  0.72885  0.17893  1.0000
  H   H281      1.0  0.07074  0.78650  0.06545  1.0000
  H   H282      1.0  0.03341  0.78843  0.20146  1.0000
  H   H283      1.0  0.09434  0.68854  0.12203  1.0000
  C   C356      1.0  0.00280  0.64604  0.23883  1.0000
  C   C357      1.0  0.00787  0.66900  0.24497  1.0000
  C   C358      1.0  0.15299  0.88432  0.18522  1.0000
  C   C359      1.0  0.20846  0.92877  0.33676  1.0000
  H   H284      1.0  0.01423  0.63949  0.24721  1.0000
  H   H285      1.0  0.03495  0.64543  0.06005  1.0000
  H   H286      1.0  0.11828  0.76135  0.09365  1.0000
  C   C360      1.0  0.04631  0.72840  0.08222  1.0000
  P   P13       1.0  0.19711  0.89316  0.20265  1.0000
  C   C361      1.0  0.18380  0.87279  0.23578  1.0000
  H   H287      1.0  0.19911  0.90566  0.13345  1.0000
  H   H288      1.0  0.01699  0.74593  0.19584  1.0000
  H   H289      1.0  0.99292  0.68510  0.03418  1.0000
  H   H290      1.0  0.21612  0.85179  0.33584  1.0000
  H   H291      1.0  0.98317  0.65972  0.35832  1.0000
  H   H292      1.0  0.01528  0.52840  0.26826  1.0000
  H   H293      1.0  0.20750  0.83159  0.28288  1.0000
  C   C362      1.0  0.98759  0.49084  0.20395  1.0000
  H   H294      1.0  0.20455  0.83726  0.43564  1.0000
  C   C363      1.0  0.00164  0.56982  0.24229  1.0000
  H   H295      1.0  0.98836  0.58814  0.27269  1.0000
  C   C364      1.0  0.20587  0.93933  0.21011  1.0000
  C   C365      1.0  0.15325  0.73709  0.45831  1.0000
  H   H296      1.0  0.20416  0.93589  0.31565  1.0000
  H   H297      1.0  0.12394  0.70597  0.44349  1.0000
  C   C366      1.0  0.97369  0.66324  0.21653  1.0000
  C   C367      1.0  0.99102  0.66610  0.45784  1.0000
  C   C368      1.0  0.06717  0.64524  0.99435  1.0000
  H   H298      1.0  0.21462  0.97553  0.21221  1.0000
  H   H299      1.0  0.09614  0.71669  0.46950  1.0000
  H   H300      1.0  0.20901  0.86391  0.39093  1.0000
  H   H301      1.0  0.99769  0.69555  0.23812  1.0000
  C   C369      1.0  0.16094  0.75809  0.47501  1.0000
  C   C370      1.0  0.97814  0.72392  0.38942  1.0000
  H   H302      1.0  0.01084  0.57144  0.00312  1.0000
  C   C371      1.0  0.07540  0.74566  0.48192  1.0000
  C   C372      1.0  0.97610  0.62626  0.10085  1.0000
  H   H303      1.0  0.11209  0.83298  0.46179  1.0000
  C   C373      1.0  0.97027  0.49537  0.21689  1.0000
  H   H304      1.0  0.98047  0.61434  0.21526  1.0000
  C   C374      1.0  0.08420  0.74375  0.98917  1.0000
  C   C375      1.0  0.21913  0.96226  0.21985  1.0000
  H   H305      1.0  0.96931  0.60322  0.45755  1.0000
  S   S54       1.0  0.98280  0.57332  0.56980  1.0000
  S   S55       1.0  0.00083  0.54527  0.61754  1.0000
  Fe  Fe29      1.0  0.99924  0.57935  0.61931  1.0000
  S   S56       1.0  0.02620  0.61699  0.62629  1.0000
  Fe  Fe30      1.0  0.98127  0.53796  0.56997  1.0000
  S   S57       1.0  0.99315  0.52642  0.52281  1.0000
  Fe  Fe31      1.0  0.04162  0.73918  0.78645  1.0000
  S   S58       1.0  0.05902  0.72240  0.81420  1.0000
  S   S59       1.0  0.00311  0.72681  0.79055  1.0000
  Fe  Fe32      1.0  0.08361  0.76415  0.74004  1.0000
  S   S60       1.0  0.10320  0.74811  0.76502  1.0000
  S   S61       1.0  0.09254  0.78628  0.69338  1.0000
  Fe  Fe33      1.0  0.06997  0.71497  0.76487  1.0000
  S   S62       1.0  0.06264  0.67737  0.75680  1.0000
  Fe  Fe34      1.0  0.09046  0.75708  0.81236  1.0000
  S   S63       1.0  0.11347  0.76861  0.85793  1.0000
  S   S64       1.0  0.05143  0.73045  0.73721  1.0000
  S   S65       1.0  0.07223  0.77463  0.78727  1.0000
  C   C376      1.0  0.05390  0.73706  0.49737  1.0000
  S   S66       1.0  0.20557  0.84983  0.51513  1.0000
  S   S67       1.0  0.16195  0.85890  0.94908  1.0000
  H   H306      1.0  0.01340  0.71018  0.94703  1.0000
  H   H307      1.0  0.21076  0.88613  0.66096  1.0000
  Fe  Fe35      1.0  0.19747  0.86363  0.56188  1.0000
  S   S68       1.0  0.18406  0.84078  0.60773  1.0000
  H   H308      1.0  0.97816  0.69504  0.54066  1.0000
  S   S69       1.0  0.18440  0.88579  0.53614  1.0000
  C   C377      1.0  0.11812  0.80078  0.66962  1.0000
  C   C378      1.0  0.11768  0.81264  0.64121  1.0000
  C   C379      1.0  0.13743  0.82452  0.62159  1.0000
  C   C380      1.0  0.15806  0.82485  0.63021  1.0000
  C   C381      1.0  0.15848  0.81297  0.65863  1.0000
  C   C382      1.0  0.13868  0.80098  0.67818  1.0000
  H   H309      1.0  0.10192  0.81271  0.63437  1.0000
  H   H310      1.0  0.13668  0.83367  0.60015  1.0000
  H   H311      1.0  0.17426  0.81303  0.66562  1.0000
  H   H312      1.0  0.13936  0.79194  0.69988  1.0000
  C   C383      1.0  0.12574  0.79343  0.88414  1.0000
  C   C384      1.0  0.14064  0.79418  0.90905  1.0000
  C   C385      1.0  0.15141  0.81371  0.92969  1.0000
  C   C386      1.0  0.14765  0.83299  0.92544  1.0000
  C   C387      1.0  0.13241  0.83206  0.90095  1.0000
  C   C388      1.0  0.12132  0.81236  0.88073  1.0000
  H   H313      1.0  0.14406  0.77960  0.91222  1.0000
  H   H314      1.0  0.16292  0.81399  0.94847  1.0000
  H   H315      1.0  0.12922  0.84676  0.89747  1.0000
  H   H316      1.0  0.10968  0.81201  0.86210  1.0000
  C   C389      1.0  0.03478  0.63338  0.66318  1.0000
  C   C390      1.0  0.03121  0.62296  0.69395  1.0000
  C   C391      1.0  0.03986  0.63664  0.72231  1.0000
  C   C392      1.0  0.05150  0.66089  0.72046  1.0000
  C   C393      1.0  0.05473  0.67132  0.68976  1.0000
  C   C394      1.0  0.04657  0.65764  0.66129  1.0000
  H   H317      1.0  0.02245  0.60434  0.69579  1.0000
  H   H318      1.0  0.03770  0.62837  0.74575  1.0000
  H   H319      1.0  0.06432  0.68987  0.68791  1.0000
  H   H320      1.0  0.04975  0.66589  0.63761  1.0000
  H   H321      1.0  0.13484  0.79426  0.54730  1.0000
  C   C395      1.0  0.04205  0.66112  0.84532  1.0000
  C   C396      1.0  0.98179  0.50032  0.49912  1.0000
  C   C397      1.0  0.03094  0.49168  0.60337  1.0000
  C   C398      1.0  0.19436  0.85987  0.73541  1.0000
  C   C399      1.0  0.11316  0.78907  0.50532  1.0000
  H   H322      1.0  0.99810  0.51424  0.69810  1.0000
  C   C400      1.0  0.97105  0.62711  0.52407  1.0000
  C   C401      1.0  0.98578  0.71801  0.82650  1.0000
  C   C402      1.0  0.99473  0.72582  0.85760  1.0000
  C   C403      1.0  0.97852  0.68866  0.96034  1.0000
  H   H323      1.0  0.01286  0.73675  0.86025  1.0000
  H   H324      1.0  0.99096  0.71997  0.59362  1.0000
  H   H325      1.0  0.08526  0.76308  0.62358  1.0000
  C   C404      1.0  0.20293  0.92210  0.76699  1.0000
  C   C405      1.0  0.00134  0.65069  0.57439  1.0000
  C   C406      1.0  0.98135  0.65311  0.57097  1.0000
  C   C407      1.0  0.97919  0.63100  0.76642  1.0000
  P   P14       1.0  0.10126  0.75794  0.50569  1.0000
  H   H326      1.0  0.03424  0.52049  0.53259  1.0000
  H   H327      1.0  0.05927  0.54797  0.62791  1.0000
  H   H328      1.0  0.01527  0.68442  0.71221  1.0000
  C   C408      1.0  0.98371  0.50111  0.88216  1.0000
  C   C409      1.0  0.00783  0.57001  0.81134  1.0000
  H   H329      1.0  0.04395  0.50858  0.64994  1.0000
  C   C410      1.0  0.00225  0.71674  0.60922  1.0000
  C   C411      1.0  0.09103  0.76024  0.57200  1.0000
  C   C412      1.0  0.06160  0.67659  0.86173  1.0000
  C   C413      1.0  0.21803  0.85930  0.67832  1.0000
  H   H330      1.0  0.99436  0.61340  0.51159  1.0000
  C   C414      1.0  0.00122  0.69321  0.95540  1.0000
  C   C415      1.0  0.00606  0.63658  0.55282  1.0000
  H   H331      1.0  0.05055  0.72091  0.90860  1.0000
  H   H332      1.0  0.01751  0.72192  0.49060  1.0000
  H   H333      1.0  0.00274  0.64954  0.90606  1.0000
  C   C416      1.0  0.21233  0.90575  0.89650  1.0000
  H   H334      1.0  0.21224  0.94136  0.60658  1.0000
  H   H335      1.0  0.01265  0.62285  0.79336  1.0000
  C   C417      1.0  0.05623  0.71174  0.95739  1.0000
  C   C418      1.0  0.03692  0.51778  0.55798  1.0000
  C   C419      1.0  0.13265  0.83745  0.50422  1.0000
  H   H336      1.0  0.99640  0.64528  0.68717  1.0000
  H   H337      1.0  0.20741  0.82830  0.95138  1.0000
  C   C420      1.0  0.00354  0.67224  0.76088  1.0000
  C   C421      1.0  0.98407  0.55721  0.81191  1.0000
  H   H338      1.0  0.98706  0.72772  0.90869  1.0000
  H   H339      1.0  0.01301  0.65891  0.59417  1.0000
  H   H340      1.0  0.02324  0.75309  0.61842  1.0000
  H   H341      1.0  0.00104  0.50335  0.88263  1.0000
  C   C422      1.0  0.00442  0.60457  0.79884  1.0000
  H   H342      1.0  0.99057  0.65573  0.80666  1.0000
  C   C423      1.0  0.07554  0.75031  0.93410  1.0000
  C   C424      1.0  0.99578  0.49048  0.73650  1.0000
  C   C425      1.0  0.09135  0.71878  0.58803  1.0000
  H   H343      1.0  0.00609  0.60931  0.92048  1.0000
  C   C426      1.0  0.05095  0.53324  0.61172  1.0000
  H   H344      1.0  0.15176  0.78082  0.50212  1.0000
  H   H345      1.0  0.00582  0.63937  0.84887  1.0000
  H   H346      1.0  0.05444  0.55407  0.56929  1.0000
  H   H347      1.0  0.07547  0.69463  0.90656  1.0000
  H   H348      1.0  0.10040  0.77669  0.96463  1.0000
  H   H349      1.0  0.08541  0.72629  0.63778  1.0000
  C   C427      1.0  0.98054  0.59185  0.79930  1.0000
  H   H350      1.0  0.19520  0.82867  0.84101  1.0000
  C   C428      1.0  0.98261  0.55282  0.97099  1.0000
  C   C429      1.0  0.00209  0.57234  0.98130  1.0000
  C   C430      1.0  0.03504  0.73233  0.64482  1.0000
  C   C431      1.0  0.08785  0.75867  0.96291  1.0000
  H   H351      1.0  0.19647  0.89043  0.90180  1.0000
  C   C432      1.0  0.08784  0.73199  0.61251  1.0000
  C   C433      1.0  0.03894  0.67271  0.91100  1.0000
  H   H352      1.0  0.20133  0.83250  0.75207  1.0000
  H   H353      1.0  0.01632  0.51067  0.97742  1.0000
  C   C434      1.0  0.00510  0.66955  0.72716  1.0000
  C   C435      1.0  0.99119  0.65374  0.97010  1.0000
  C   C436      1.0  0.19338  0.86105  0.84194  1.0000
  H   H354      1.0  0.09143  0.70269  0.59434  1.0000
  H   H355      1.0  0.06843  0.66068  0.94778  1.0000
  C   C437      1.0  0.01936  0.65704  0.89431  1.0000
  C   C438      1.0  0.17979  0.87181  0.83463  1.0000
  C   C439      1.0  0.15803  0.85893  0.82158  1.0000
  C   C440      1.0  0.14987  0.83537  0.81525  1.0000
  C   C441      1.0  0.16329  0.82455  0.82251  1.0000
  C   C442      1.0  0.18499  0.83733  0.83572  1.0000
  H   H356      1.0  0.07785  0.68457  0.84872  1.0000
  C   C443      1.0  0.01799  0.59368  0.80483  1.0000
  C   C444      1.0  0.13915  0.82645  0.52804  1.0000
  H   H357      1.0  0.01026  0.67378  0.64432  1.0000
  H   H358      1.0  0.09064  0.77626  0.56638  1.0000
  H   H359      1.0  0.01837  0.56151  0.81547  1.0000
  C   C445      1.0  0.06012  0.68231  0.89446  1.0000
  H   H360      1.0  0.15777  0.91491  0.59005  1.0000
  C   C446      1.0  0.99439  0.64759  0.71310  1.0000
  C   C447      1.0  0.99841  0.69412  0.61612  1.0000
  C   C448      1.0  0.01037  0.59278  0.96336  1.0000
  H   H361      1.0  0.18596  0.89009  0.83888  1.0000
  H   H362      1.0  0.14734  0.86710  0.81672  1.0000
  H   H363      1.0  0.13288  0.82526  0.80562  1.0000
  H   H364      1.0  0.15658  0.80610  0.81856  1.0000
  C   C449      1.0  0.99854  0.49884  0.98186  1.0000
  H   H365      1.0  0.01254  0.68920  0.77192  1.0000
  C   C450      1.0  0.20355  0.84439  0.73236  1.0000
  H   H366      1.0  0.03644  0.60356  0.80386  1.0000
  H   H367      1.0  0.97413  0.61155  0.72114  1.0000
  C   C451      1.0  0.21899  0.94231  0.78211  1.0000
  C   C452      1.0  0.12094  0.84383  0.74432  1.0000
  C   C453      1.0  0.11229  0.85639  0.76251  1.0000
  C   C454      1.0  0.12523  0.88030  0.76591  1.0000
  C   C455      1.0  0.14698  0.89161  0.75149  1.0000
  C   C456      1.0  0.15615  0.87896  0.73426  1.0000
  C   C457      1.0  0.14264  0.85507  0.72993  1.0000
  P   P15       1.0  0.18314  0.89355  0.71282  1.0000
  C   C458      1.0  0.17582  0.90070  0.67369  1.0000
  C   C459      1.0  0.20388  0.91921  0.73301  1.0000
  C   C460      1.0  0.06080  0.65737  0.97203  1.0000
  C   C461      1.0  0.05971  0.72701  0.93136  1.0000
  C   C462      1.0  0.98166  0.62836  0.73264  1.0000
  C   C463      1.0  0.12939  0.80239  0.52874  1.0000
  C   C464      1.0  0.99089  0.65307  0.78054  1.0000
  C   C465      1.0  0.16816  0.88423  0.64853  1.0000
  C   C466      1.0  0.16177  0.88937  0.61846  1.0000
  C   C467      1.0  0.16251  0.91088  0.61352  1.0000
  C   C468      1.0  0.16935  0.92714  0.63889  1.0000
  C   C469      1.0  0.17585  0.92204  0.66898  1.0000
  C   C470      1.0  0.19634  0.87469  0.70946  1.0000
  H   H368      1.0  0.20534  0.92634  0.93210  1.0000
  C   C471      1.0  0.98002  0.72061  0.88508  1.0000
  C   C472      1.0  0.02098  0.65122  0.86168  1.0000
  C   C473      1.0  0.99935  0.59362  0.93481  1.0000
  H   H369      1.0  0.98952  0.52622  0.91981  1.0000
  H   H370      1.0  0.11062  0.82538  0.74075  1.0000
  H   H371      1.0  0.09535  0.84760  0.77338  1.0000
  H   H372      1.0  0.11823  0.89009  0.77930  1.0000
  H   H373      1.0  0.15641  0.91023  0.75330  1.0000
  H   H374      1.0  0.14860  0.84507  0.71488  1.0000
  C   C474      1.0  0.21377  0.84864  0.90767  1.0000
  C   C475      1.0  0.98679  0.50026  0.71377  1.0000
  H   H375      1.0  0.21718  0.96493  0.65712  1.0000
  Fe  Fe36      1.0  0.19405  0.87300  0.48937  1.0000
  H   H376      1.0  0.18983  0.90883  0.78180  1.0000
  H   H377      1.0  0.16707  0.86737  0.65223  1.0000
  H   H378      1.0  0.15622  0.87659  0.59904  1.0000
  H   H379      1.0  0.16986  0.94381  0.63512  1.0000
  H   H380      1.0  0.18084  0.93475  0.68846  1.0000
  H   H381      1.0  0.18530  0.85989  0.75774  1.0000
  C   C476      1.0  0.04224  0.51082  0.62410  1.0000
  H   H382      1.0  0.04330  0.65715  0.81975  1.0000
  H   H383      1.0  0.15204  0.83650  0.54572  1.0000
  C   C477      1.0  0.04827  0.53671  0.57869  1.0000
  C   C478      1.0  0.01313  0.69096  0.63772  1.0000
  C   C479      1.0  0.97706  0.51408  0.90320  1.0000
  H   H384      1.0  0.97625  0.53877  0.81642  1.0000
  H   H385      1.0  0.02105  0.63409  0.55651  1.0000
  C   C480      1.0  0.21523  0.84398  0.70372  1.0000
  H   H386      1.0  0.02550  0.60780  0.97140  1.0000
  H   H387      1.0  0.07863  0.76183  0.91352  1.0000
  H   H388      1.0  0.07945  0.63923  0.98717  1.0000
  H   H389      1.0  0.09821  0.71619  0.53708  1.0000
  H   H390      1.0  0.01407  0.49722  0.73821  1.0000
  H   H391      1.0  0.04269  0.70747  0.66837  1.0000
  C   C481      1.0  0.00785  0.67591  0.96088  1.0000
  H   H392      1.0  0.05246  0.73737  0.52378  1.0000
  C   C482      1.0  0.09518  0.72650  0.55558  1.0000
  C   C483      1.0  0.99096  0.62483  0.52763  1.0000
  H   H393      1.0  0.97347  0.70207  0.95625  1.0000
  H   H394      1.0  0.14056  0.85611  0.50309  1.0000
  H   H395      1.0  0.19610  0.84513  0.90575  1.0000
  C   C484      1.0  0.03145  0.70999  0.65167  1.0000
  H   H396      1.0  0.04890  0.74701  0.65648  1.0000
  C   C485      1.0  0.02809  0.49536  0.57027  1.0000
  P   P16       1.0  0.03690  0.68127  0.95272  1.0000
  C   C486      1.0  0.08767  0.75270  0.60448  1.0000
  C   C487      1.0  0.20879  0.87476  0.68125  1.0000
  C   C488      1.0  0.09535  0.74747  0.54737  1.0000
  C   C489      1.0  0.02052  0.73572  0.62345  1.0000
  P   P17       1.0  0.97359  0.66927  0.60051  1.0000
  C   C490      1.0  0.97984  0.57408  0.92449  1.0000
  H   H397      1.0  0.99565  0.63981  0.97322  1.0000
  C   C491      1.0  0.04490  0.66518  0.98121  1.0000
  H   H398      1.0  0.97664  0.53704  0.98495  1.0000
  H   H399      1.0  0.21798  0.94469  0.80829  1.0000
  C   C492      1.0  0.21740  0.92609  0.91392  1.0000
  H   H400      1.0  0.97176  0.57481  0.90207  1.0000
  H   H401      1.0  0.20548  0.97825  0.97554  1.0000
  C   C493      1.0  0.14528  0.76439  0.48960  1.0000
  C   C494      1.0  0.06846  0.72036  0.98649  1.0000
  C   C495      1.0  0.97104  0.55368  0.94292  1.0000
  H   H402      1.0  0.06092  0.48243  0.95683  1.0000
  C   C496      1.0  0.97046  0.56808  0.80590  1.0000
  Fe  Fe37      1.0  0.23456  0.33096  0.26644  1.0000
  H   H403      1.0  0.22629  0.21680  0.31069  1.0000
  S   S70       1.0  0.27342  0.35106  0.26026  1.0000
  C   C497      1.0  0.30989  0.31456  0.06778  1.0000
  C   C498      1.0  0.24127  0.29631  0.46233  1.0000
  C   C499      1.0  0.36729  0.29607  0.00092  1.0000
  S   S71       1.0  0.33072  0.21357  0.46525  1.0000
  S   S72       1.0  0.28333  0.17185  0.02874  1.0000
  Fe  Fe38      1.0  0.27520  0.21557  0.43714  1.0000
  S   S73       1.0  0.30900  0.23524  0.41213  1.0000
  S   S74       1.0  0.24469  0.22226  0.42773  1.0000
  Fe  Fe39      1.0  0.31263  0.20256  0.41643  1.0000
  S   S75       1.0  0.32788  0.19128  0.37294  1.0000
  Fe  Fe40      1.0  0.32378  0.24458  0.46285  1.0000
  C   C500      1.0  0.40998  0.01880  0.17040  1.0000
  S   S76       1.0  0.27756  0.18206  0.43860  1.0000
  C   C501      1.0  0.39006  0.43882  0.26885  1.0000
  Fe  Fe41      1.0  0.29830  0.09149  0.23303  1.0000
  S   S77       1.0  0.33317  0.11132  0.21033  1.0000
  S   S78       1.0  0.28383  0.10352  0.27663  1.0000
  Fe  Fe42      1.0  0.28614  0.04954  0.18598  1.0000
  S   S79       1.0  0.32016  0.06738  0.16052  1.0000
  S   S80       1.0  0.26453  0.01051  0.17862  1.0000
  Fe  Fe43      1.0  0.33493  0.07752  0.21076  1.0000
  S   S81       1.0  0.36663  0.07321  0.22149  1.0000
  Fe  Fe44      1.0  0.31511  0.09937  0.16204  1.0000
  S   S82       1.0  0.32831  0.12404  0.11843  1.0000
  S   S83       1.0  0.30129  0.05845  0.23652  1.0000
  S   S84       1.0  0.27980  0.08093  0.18453  1.0000
  Fe  Fe45      1.0  0.39809  0.37952  0.10240  1.0000
  S   S85       1.0  0.38296  0.39992  0.07807  1.0000
  S   S86       1.0  0.38387  0.34055  0.09453  1.0000
  Fe  Fe46      1.0  0.42406  0.41893  0.15260  1.0000
  S   S87       1.0  0.40983  0.44134  0.13119  1.0000
  S   S88       1.0  0.44627  0.42528  0.19830  1.0000
  Fe  Fe47      1.0  0.37619  0.40880  0.12912  1.0000
  S   S89       1.0  0.34032  0.40433  0.14092  1.0000
  Fe  Fe48      1.0  0.41800  0.43041  0.08188  1.0000
  S   S90       1.0  0.43020  0.45652  0.03946  1.0000
  S   S91       1.0  0.38986  0.38731  0.15328  1.0000
  S   S92       1.0  0.43381  0.40926  0.10337  1.0000
  Fe  Fe49      1.0  0.39561  0.00390  0.35943  1.0000
  S   S93       1.0  0.37477  0.02318  0.35028  1.0000
  C   C502      1.0  0.40181  0.37064  0.32378  1.0000
  S   S94       1.0  0.43289  0.01254  0.35565  1.0000
  C   C503      1.0  0.38274  0.20538  0.04704  1.0000
  H   H404      1.0  0.35620  0.41721  0.47246  1.0000
  C   C504      1.0  0.25189  0.13661  0.24234  1.0000
  C   C505      1.0  0.46548  0.99764  0.47239  1.0000
  C   C506      1.0  0.40254  0.98910  0.22322  1.0000
  H   H405      1.0  0.38311  0.02636  0.06861  1.0000
  H   H406      1.0  0.43137  0.01098  0.02122  1.0000
  H   H407      1.0  0.34866  0.03563  0.17312  1.0000
  C   C507      1.0  0.34205  0.06247  0.46467  1.0000
  C   C508      1.0  0.36795  0.05743  0.25590  1.0000
  C   C509      1.0  0.38767  0.05474  0.26098  1.0000
  C   C510      1.0  0.38967  0.04332  0.28900  1.0000
  C   C511      1.0  0.37202  0.03468  0.31234  1.0000
  C   C512      1.0  0.35211  0.03685  0.30673  1.0000
  C   C513      1.0  0.35003  0.04808  0.27871  1.0000
  H   H408      1.0  0.40166  0.06195  0.24353  1.0000
  H   H409      1.0  0.40517  0.04191  0.29307  1.0000
  H   H410      1.0  0.33824  0.02989  0.32425  1.0000
  H   H411      1.0  0.33476  0.04997  0.27519  1.0000
  C   C514      1.0  0.33109  0.05202  0.01406  1.0000
  C   C515      1.0  0.24064  0.00047  0.11993  1.0000
  H   H412      1.0  0.24198  0.01763  0.12142  1.0000
  C   C516      1.0  0.29624  0.15884  0.05346  1.0000
  C   C517      1.0  0.31895  0.16328  0.04891  1.0000
  C   C518      1.0  0.32841  0.15251  0.06912  1.0000
  C   C519      1.0  0.31539  0.13724  0.09411  1.0000
  C   C520      1.0  0.29274  0.13298  0.09890  1.0000
  C   C521      1.0  0.28328  0.14380  0.07876  1.0000
  H   H413      1.0  0.32918  0.17490  0.02973  1.0000
  H   H414      1.0  0.34593  0.15590  0.06520  1.0000
  H   H415      1.0  0.28248  0.12119  0.11788  1.0000
  H   H416      1.0  0.26569  0.14023  0.08242  1.0000
  C   C522      1.0  0.31537  0.16668  0.34647  1.0000
  C   C523      1.0  0.29307  0.14921  0.35116  1.0000
  C   C524      1.0  0.28385  0.13004  0.32970  1.0000
  C   C525      1.0  0.29675  0.12795  0.30326  1.0000
  C   C526      1.0  0.31917  0.14526  0.29876  1.0000
  C   C527      1.0  0.32838  0.16445  0.32026  1.0000
  H   H417      1.0  0.28297  0.15045  0.37144  1.0000
  H   H418      1.0  0.26655  0.11672  0.33360  1.0000
  H   H419      1.0  0.32941  0.14390  0.27874  1.0000
  H   H420      1.0  0.34574  0.17768  0.31656  1.0000
  C   C528      1.0  0.25360  0.15754  0.23060  1.0000
  C   C529      1.0  0.35336  0.28829  0.02885  1.0000
  C   C530      1.0  0.35844  0.30241  0.05693  1.0000
  C   C531      1.0  0.37668  0.32486  0.05707  1.0000
  C   C532      1.0  0.38986  0.33315  0.02853  1.0000
  H   H421      1.0  0.39619  0.35629  0.34067  1.0000
  H   H422      1.0  0.33910  0.27114  0.02916  1.0000
  H   H423      1.0  0.34833  0.29587  0.07887  1.0000
  H   H424      1.0  0.40415  0.35028  0.02838  1.0000
  C   C533      1.0  0.32783  0.19326  0.13952  1.0000
  C   C534      1.0  0.32161  0.38805  0.17327  1.0000
  C   C535      1.0  0.29893  0.38470  0.17358  1.0000
  C   C536      1.0  0.28363  0.37251  0.19919  1.0000
  C   C537      1.0  0.29099  0.36394  0.22525  1.0000
  C   C538      1.0  0.31360  0.36704  0.22473  1.0000
  C   C539      1.0  0.32875  0.37875  0.19874  1.0000
  H   H425      1.0  0.29323  0.39185  0.15406  1.0000
  H   H426      1.0  0.26641  0.37051  0.19937  1.0000
  H   H427      1.0  0.31950  0.36050  0.24467  1.0000
  H   H428      1.0  0.34604  0.38100  0.19879  1.0000
  H   H429      1.0  0.45004  0.05468  0.12590  1.0000
  P   P18       1.0  0.27966  0.30720  0.01696  1.0000
  H   H430      1.0  0.34001  0.99316  0.44997  1.0000
  C   C540      1.0  0.23862  0.23219  0.39064  1.0000
  H   H431      1.0  0.46507  0.45129  0.44405  1.0000
  C   C541      1.0  0.26303  0.32129  0.00399  1.0000
  C   C542      1.0  0.36916  0.40010  0.43893  1.0000
  H   H432      1.0  0.22058  0.17254  0.21045  1.0000
  C   C543      1.0  0.32551  0.32784  0.09161  1.0000
  H   H433      1.0  0.23135  0.25749  0.41515  1.0000
  H   H434      1.0  0.36706  0.25738  0.17647  1.0000
  C   C544      1.0  0.33567  0.07204  0.43868  1.0000
  H   H435      1.0  0.38349  0.42745  0.37906  1.0000
  H   H436      1.0  0.33392  0.32041  0.10648  1.0000
  H   H437      1.0  0.36358  0.03192  0.42099  1.0000
  H   H438      1.0  0.24718  0.25111  0.25668  1.0000
  H   H439      1.0  0.31739  0.20984  0.06775  1.0000
  P   P19       1.0  0.35607  0.23600  0.11097  1.0000
  C   C545      1.0  0.41685  0.40801  0.28079  1.0000
  C   C546      1.0  0.42580  0.39233  0.27832  1.0000
  H   H440      1.0  0.23137  0.98506  0.02199  1.0000
  C   C547      1.0  0.40014  0.40502  0.30450  1.0000
  H   H441      1.0  0.24568  0.37661  0.42292  1.0000
  H   H442      1.0  0.25480  0.01310  0.30294  1.0000
  C   C548      1.0  0.40594  0.44598  0.33881  1.0000
  C   C549      1.0  0.30858  0.07286  0.04907  1.0000
  C   C550      1.0  0.25448  0.12435  0.18686  1.0000
  H   H443      1.0  0.30008  0.08119  0.06264  1.0000
  C   C551      1.0  0.25300  0.22122  0.25420  1.0000
  C   C552      1.0  0.40668  0.30290  0.11401  1.0000
  C   C553      1.0  0.35906  0.41137  0.31872  1.0000
  H   H444      1.0  0.42308  0.42256  0.26423  1.0000
  H   H445      1.0  0.43868  0.39489  0.25970  1.0000
  H   H446      1.0  0.33441  0.08094  0.08549  1.0000
  H   H447      1.0  0.39312  0.35795  0.45201  1.0000
  C   C554      1.0  0.33091  0.35106  0.09577  1.0000
  P   P20       1.0  0.44268  0.00798  0.14048  1.0000
  C   C555      1.0  0.39908  0.44234  0.37186  1.0000
  C   C556      1.0  0.31162  0.05220  0.00076  1.0000
  C   C557      1.0  0.28270  0.98454  0.06494  1.0000
  H   H448      1.0  0.23242  0.29241  0.43920  1.0000
  C   C558      1.0  0.33107  0.98624  0.47289  1.0000
  C   C559      1.0  0.44513  0.04474  0.10338  1.0000
  C   C560      1.0  0.44858  0.40431  0.47277  1.0000
  C   C561      1.0  0.35188  0.04782  0.45843  1.0000
  P   P21       1.0  0.43236  0.40249  0.43666  1.0000
  H   H449      1.0  0.43312  0.46755  0.30536  1.0000
  C   C562      1.0  0.42349  0.37361  0.42120  1.0000
  C   C563      1.0  0.43755  0.36900  0.39932  1.0000
  C   C564      1.0  0.43114  0.34641  0.38865  1.0000
  C   C565      1.0  0.41094  0.32820  0.40038  1.0000
  C   C566      1.0  0.39723  0.33256  0.42295  1.0000
  C   C567      1.0  0.40355  0.35512  0.43355  1.0000
  C   C568      1.0  0.37405  0.99091  0.99380  1.0000
  C   C569      1.0  0.37068  0.41442  0.46550  1.0000
  C   C570      1.0  0.34642  0.01223  0.13403  1.0000
  C   C571      1.0  0.27589  0.04208  0.45695  1.0000
  H   H450      1.0  0.25711  0.99320  0.41054  1.0000
  H   H451      1.0  0.24348  0.14699  0.37011  1.0000
  H   H452      1.0  0.29323  0.38313  0.33218  1.0000
  C   C572      1.0  0.33916  0.06217  0.04464  1.0000
  H   H453      1.0  0.38018  0.00231  0.24240  1.0000
  C   C573      1.0  0.43492  0.00916  0.07335  1.0000
  C   C574      1.0  0.32800  0.07272  0.06201  1.0000
  S   S95       1.0  0.28961  0.22601  0.48759  1.0000
  C   C575      1.0  0.34892  0.42399  0.33357  1.0000
  C   C576      1.0  0.43924  0.04338  0.04483  1.0000
  C   C577      1.0  0.37527  0.02809  0.09123  1.0000
  H   H454      1.0  0.44211  0.34294  0.37190  1.0000
  H   H455      1.0  0.40615  0.31062  0.39267  1.0000
  H   H456      1.0  0.38195  0.31833  0.43287  1.0000
  H   H457      1.0  0.31078  0.36095  0.30539  1.0000
  C   C578      1.0  0.36515  0.21441  0.16367  1.0000
  H   H458      1.0  0.37844  0.40675  0.24164  1.0000
  H   H459      1.0  0.31122  0.00266  0.09583  1.0000
  C   C579      1.0  0.31163  0.39091  0.32913  1.0000
  C   C580      1.0  0.24515  0.36712  0.47353  1.0000
  H   H460      1.0  0.38663  0.38572  0.40906  1.0000
  C   C581      1.0  0.36794  0.10762  0.28798  1.0000
  C   C582      1.0  0.41753  0.99028  0.19789  1.0000
  H   H461      1.0  0.27853  0.00047  0.33564  1.0000
  H   H462      1.0  0.34313  0.36137  0.11415  1.0000
  H   H463      1.0  0.26603  0.22801  0.27257  1.0000
  C   C583      1.0  0.25664  0.14528  0.17498  1.0000
  C   C584      1.0  0.27024  0.02799  0.42905  1.0000
  H   H464      1.0  0.35416  0.06203  0.05488  1.0000
  H   H465      1.0  0.33148  0.99802  0.14468  1.0000
  C   C585      1.0  0.29938  0.32444  0.04813  1.0000
  C   C586      1.0  0.22358  0.25578  0.36387  1.0000
  C   C587      1.0  0.44449  0.05565  0.07436  1.0000
  C   C588      1.0  0.46356  0.44714  0.41819  1.0000
  H   H466      1.0  0.38049  0.38418  0.34542  1.0000
  H   H467      1.0  0.27226  0.03557  0.40500  1.0000
  H   H468      1.0  0.40279  0.11612  0.27617  1.0000
  C   C589      1.0  0.38960  0.11008  0.29498  1.0000
  H   H469      1.0  0.33844  0.20192  0.25224  1.0000
  C   C590      1.0  0.22143  0.24390  0.33446  1.0000
  C   C591      1.0  0.24250  0.31710  0.02005  1.0000
  H   H470      1.0  0.25488  0.11153  0.17008  1.0000
  H   H471      1.0  0.32489  0.37909  0.07961  1.0000
  C   C592      1.0  0.35548  0.04285  0.42616  1.0000
  H   H472      1.0  0.38288  0.06845  0.15013  1.0000
  C   C593      1.0  0.44002  0.02131  0.10322  1.0000
  H   H473      1.0  0.26326  0.28121  0.44824  1.0000
  H   H474      1.0  0.23578  0.22185  0.01533  1.0000
  H   H475      1.0  0.27389  0.99404  0.07399  1.0000
  C   C594      1.0  0.39097  0.42530  0.48300  1.0000
  H   H476      1.0  0.43923  0.05187  0.02215  1.0000
  H   H477      1.0  0.31749  0.42366  0.34981  1.0000
  P   P22       1.0  0.33156  0.07981  0.37222  1.0000
  C   C595      1.0  0.26123  0.27924  0.03438  1.0000
  C   C596      1.0  0.33878  0.17671  0.18462  1.0000
  C   C597      1.0  0.26898  0.02558  0.31698  1.0000
  C   C598      1.0  0.24555  0.19884  0.24166  1.0000
  C   C599      1.0  0.38339  0.42503  0.24053  1.0000
  H   H478      1.0  0.28244  0.06049  0.45389  1.0000
  H   H479      1.0  0.30643  0.29678  0.06411  1.0000
  C   C600      1.0  0.24809  0.16010  0.32090  1.0000
  H   H480      1.0  0.25084  0.13311  0.26832  1.0000
  H   H481      1.0  0.44861  0.07376  0.07465  1.0000
  C   C601      1.0  0.25082  0.99316  0.14390  1.0000
  H   H482      1.0  0.41916  0.32580  0.15534  1.0000
  C   C602      1.0  0.25636  0.16187  0.19675  1.0000
  C   C603      1.0  0.37742  0.26383  0.12549  1.0000
  H   H483      1.0  0.22215  0.31275  0.48298  1.0000
  H   H484      1.0  0.38651  0.02843  0.19553  1.0000
  P   P23       1.0  0.25596  0.18004  0.25895  1.0000
  H   H485      1.0  0.29917  0.18316  0.23191  1.0000
  C   C604      1.0  0.24033  0.23744  0.02969  1.0000
  H   H486      1.0  0.35917  0.44198  0.34007  1.0000
  C   C605      1.0  0.32276  0.17519  0.16152  1.0000
  H   H487      1.0  0.33905  0.26877  0.13246  1.0000
  C   C606      1.0  0.31480  0.22353  0.07926  1.0000
  C   C607      1.0  0.29540  0.22590  0.07150  1.0000
  C   C608      1.0  0.29206  0.24387  0.08509  1.0000
  H   H488      1.0  0.42533  0.36154  0.29779  1.0000
  H   H489      1.0  0.31550  0.19114  0.12093  1.0000
  H   H490      1.0  0.30676  0.15952  0.15980  1.0000
  H   H491      1.0  0.33502  0.16233  0.20093  1.0000
  H   H492      1.0  0.39084  0.27731  0.07715  1.0000
  H   H493      1.0  0.28312  0.21391  0.05445  1.0000
  H   H494      1.0  0.27732  0.24596  0.07835  1.0000
  C   C609      1.0  0.39497  0.01756  0.19583  1.0000
  C   C610      1.0  0.34918  0.05245  0.40022  1.0000
  C   C611      1.0  0.22456  0.22584  0.22270  1.0000
  C   C612      1.0  0.39402  0.10422  0.32590  1.0000
  C   C613      1.0  0.40819  0.40712  0.44785  1.0000
  C   C614      1.0  0.37670  0.09560  0.34970  1.0000
  C   C615      1.0  0.32703  0.25659  0.11549  1.0000
  C   C616      1.0  0.33931  0.06720  0.40615  1.0000
  C   C617      1.0  0.33076  0.23881  0.10142  1.0000
  H   H495      1.0  0.41256  0.03049  0.15043  1.0000
  H   H496      1.0  0.37424  0.20266  0.09808  1.0000
  H   H497      1.0  0.25876  0.14867  0.14888  1.0000
  C   C618      1.0  0.36654  0.23812  0.04425  1.0000
  C   C619      1.0  0.38793  0.39662  0.42992  1.0000
  C   C620      1.0  0.37835  0.26970  0.15886  1.0000
  C   C621      1.0  0.33051  0.21752  0.29390  1.0000
  C   C622      1.0  0.31338  0.22003  0.31129  1.0000
  C   C623      1.0  0.29095  0.20933  0.30008  1.0000
  C   C624      1.0  0.23906  0.16770  0.29558  1.0000
  H   H498      1.0  0.41079  0.10598  0.33122  1.0000
  S   S96       1.0  0.39154  0.98909  0.41016  1.0000
  C   C625      1.0  0.24240  0.23452  0.24503  1.0000
  H   H499      1.0  0.34764  0.22490  0.30361  1.0000
  H   H500      1.0  0.31734  0.22931  0.33440  1.0000
  H   H501      1.0  0.27776  0.21066  0.31477  1.0000
  C   C626      1.0  0.28586  0.32845  0.15155  1.0000
  C   C627      1.0  0.26210  0.31696  0.15375  1.0000
  C   C628      1.0  0.25136  0.29797  0.17441  1.0000
  C   C629      1.0  0.26440  0.29072  0.19329  1.0000
  C   C630      1.0  0.28836  0.30211  0.19119  1.0000
  C   C631      1.0  0.29899  0.32105  0.16998  1.0000
  P   P24       1.0  0.30509  0.29262  0.21598  1.0000
  C   C632      1.0  0.29496  0.28857  0.25799  1.0000
  C   C633      1.0  0.30315  0.26556  0.20090  1.0000
  C   C634      1.0  0.32037  0.25932  0.20817  1.0000
  C   C635      1.0  0.31839  0.23790  0.19815  1.0000
  C   C636      1.0  0.29939  0.22266  0.18052  1.0000
  C   C637      1.0  0.28225  0.22873  0.17303  1.0000
  C   C638      1.0  0.28406  0.25005  0.18323  1.0000
  C   C639      1.0  0.29971  0.27449  0.27921  1.0000
  C   C640      1.0  0.29169  0.27128  0.31161  1.0000
  C   C641      1.0  0.27914  0.28230  0.32318  1.0000
  C   C642      1.0  0.27474  0.29668  0.30244  1.0000
  C   C643      1.0  0.28272  0.29992  0.27007  1.0000
  C   C644      1.0  0.33462  0.31433  0.21542  1.0000
  C   C645      1.0  0.34347  0.33038  0.24115  1.0000
  C   C646      1.0  0.36625  0.34735  0.24026  1.0000
  C   C647      1.0  0.38030  0.34850  0.21368  1.0000
  C   C648      1.0  0.37153  0.33280  0.18779  1.0000
  C   C649      1.0  0.34880  0.31577  0.18859  1.0000
  H   H502      1.0  0.29415  0.34372  0.13645  1.0000
  H   H503      1.0  0.25207  0.32323  0.14016  1.0000
  H   H504      1.0  0.23292  0.28936  0.17664  1.0000
  H   H505      1.0  0.25577  0.27657  0.21009  1.0000
  H   H506      1.0  0.31738  0.33074  0.16829  1.0000
  H   H507      1.0  0.33517  0.27085  0.22205  1.0000
  H   H508      1.0  0.33149  0.23297  0.20425  1.0000
  H   H509      1.0  0.29799  0.20618  0.17257  1.0000
  H   H510      1.0  0.26758  0.21696  0.15914  1.0000
  H   H511      1.0  0.27046  0.25416  0.17727  1.0000
  H   H512      1.0  0.30945  0.26582  0.27091  1.0000
  H   H513      1.0  0.29508  0.26017  0.32785  1.0000
  H   H514      1.0  0.32680  0.13062  0.48564  1.0000
  H   H515      1.0  0.26501  0.30526  0.31133  1.0000
  H   H516      1.0  0.27926  0.31128  0.25458  1.0000
  H   H517      1.0  0.33277  0.33008  0.26169  1.0000
  H   H518      1.0  0.37298  0.35990  0.25986  1.0000
  H   H519      1.0  0.39784  0.36199  0.21266  1.0000
  H   H520      1.0  0.38222  0.33429  0.16658  1.0000
  H   H521      1.0  0.34222  0.30411  0.16795  1.0000
  C   C650      1.0  0.30285  0.19376  0.25372  1.0000
  S   S97       1.0  0.22485  0.31555  0.31695  1.0000
  C   C651      1.0  0.30659  0.05832  0.35169  1.0000
  C   C652      1.0  0.29292  0.06519  0.33330  1.0000
  C   C653      1.0  0.27420  0.04889  0.31613  1.0000
  C   C654      1.0  0.30399  0.98927  0.07751  1.0000
  C   C655      1.0  0.28235  0.01850  0.33538  1.0000
  C   C656      1.0  0.30103  0.03477  0.35275  1.0000
  C   C657      1.0  0.32584  0.10279  0.38746  1.0000
  C   C658      1.0  0.34334  0.12561  0.38848  1.0000
  C   C659      1.0  0.33900  0.14323  0.40124  1.0000
  C   C660      1.0  0.31729  0.13820  0.41325  1.0000
  C   C661      1.0  0.29978  0.11556  0.41225  1.0000
  C   C662      1.0  0.30403  0.09788  0.39957  1.0000
  H   H522      1.0  0.29691  0.08324  0.33164  1.0000
  H   H523      1.0  0.26413  0.05454  0.30139  1.0000
  C   C663      1.0  0.35455  0.09209  0.34238  1.0000
  C   C664      1.0  0.32530  0.41372  0.33897  1.0000
  H   H524      1.0  0.31117  0.02882  0.36647  1.0000
  H   H525      1.0  0.33377  0.09662  0.30516  1.0000
  H   H526      1.0  0.36453  0.11193  0.26383  1.0000
  H   H527      1.0  0.35233  0.16096  0.40119  1.0000
  H   H528      1.0  0.31394  0.15203  0.42252  1.0000
  H   H529      1.0  0.28286  0.11181  0.42106  1.0000
  H   H530      1.0  0.29028  0.08046  0.39901  1.0000
  C   C665      1.0  0.23621  0.37242  0.44590  1.0000
  H   H531      1.0  0.35222  0.37908  0.29463  1.0000
  C   C666      1.0  0.30483  0.34779  0.05254  1.0000
  C   C667      1.0  0.36000  0.19629  0.18564  1.0000
  C   C668      1.0  0.39355  0.29185  0.16968  1.0000
  C   C669      1.0  0.30028  0.06247  0.01872  1.0000
  P   P25       1.0  0.38898  0.42558  0.30786  1.0000
  C   C670      1.0  0.39163  0.28075  0.10314  1.0000
  H   H532      1.0  0.38209  0.22889  0.16383  1.0000
  H   H533      1.0  0.37595  0.24122  0.99320  1.0000
  H   H534      1.0  0.37272  0.19705  0.20280  1.0000
  C   C671      1.0  0.39134  0.00281  0.22229  1.0000
  H   H535      1.0  0.43424  0.40365  0.36439  1.0000
  C   C672      1.0  0.32528  0.20448  0.26507  1.0000
  H   H536      1.0  0.29719  0.35597  0.03764  1.0000
  H   H537      1.0  0.43184  0.99138  0.07199  1.0000
  C   C673      1.0  0.45493  0.46835  0.01338  1.0000
  H   H538      1.0  0.27275  0.27964  0.34819  1.0000
  H   H539      1.0  0.25849  0.17810  0.18712  1.0000
  C   C674      1.0  0.34890  0.21329  0.14087  1.0000
  H   H540      1.0  0.25717  0.29322  0.08098  1.0000
  C   C675      1.0  0.35567  0.00945  0.10408  1.0000
  C   C676      1.0  0.28545  0.19605  0.27119  1.0000
  H   H541      1.0  0.37741  0.42394  0.18876  1.0000
  H   H542      1.0  0.28510  0.06263  0.00916  1.0000
  H   H543      1.0  0.25094  0.10398  0.22976  1.0000
  C   C677      1.0  0.39292  0.38643  0.32637  1.0000
  C   C678      1.0  0.25859  0.28999  0.46739  1.0000
  C   C679      1.0  0.37543  0.05202  0.13722  1.0000
  C   C680      1.0  0.32057  0.36101  0.07628  1.0000
  S   S98       1.0  0.45147  0.00994  0.44825  1.0000
  C   C681      1.0  0.38509  0.04930  0.10781  1.0000
  C   C682      1.0  0.26163  0.00410  0.43216  1.0000
  H   H544      1.0  0.32830  0.08349  0.44411  1.0000
  C   C683      1.0  0.36615  0.22764  0.07425  1.0000
  C   C684      1.0  0.22997  0.32832  0.00993  1.0000
  C   C685      1.0  0.40770  0.30845  0.14723  1.0000
  C   C686      1.0  0.36073  0.99182  0.02015  1.0000
  C   C687      1.0  0.25255  0.27775  0.06640  1.0000
  C   C688      1.0  0.34511  0.38866  0.30820  1.0000
  H   H545      1.0  0.36024  0.25072  0.04259  1.0000
  H   H546      1.0  0.39414  0.29634  0.19538  1.0000
  H   H547      1.0  0.38076  0.09154  0.37353  1.0000
  C   C689      1.0  0.41826  0.37361  0.29974  1.0000
  C   C690      1.0  0.23147  0.24947  0.39199  1.0000
  C   C691      1.0  0.35611  0.03349  0.15027  1.0000
  C   C692      1.0  0.25213  0.12004  0.22049  1.0000
  H   H548      1.0  0.30533  0.27323  0.11758  1.0000
  H   H549      1.0  0.26464  0.16062  0.31795  1.0000
  C   C693      1.0  0.38328  0.21613  0.01738  1.0000
  C   C694      1.0  0.23615  0.15241  0.35049  1.0000
  C   C695      1.0  0.26139  0.00897  0.99573  1.0000
  H   H550      1.0  0.40018  0.06367  0.09788  1.0000
  H   H551      1.0  0.23070  0.25533  0.10422  1.0000
  H   H552      1.0  0.45371  0.38276  0.39102  1.0000
  H   H553      1.0  0.36029  0.12990  0.37929  1.0000
  C   C696      1.0  0.37441  0.21122  0.07545  1.0000
  H   H554      1.0  0.38872  0.19243  0.04802  1.0000
  H   H555      1.0  0.41707  0.31605  0.09646  1.0000
  C   C697      1.0  0.44874  0.42479  0.40732  1.0000
  H   H556      1.0  0.35252  0.04877  0.37542  1.0000
  C   C698      1.0  0.30786  0.25922  0.10709  1.0000
  C   C699      1.0  0.35045  0.09864  0.31148  1.0000
  H   H557      1.0  0.24217  0.20713  0.35960  1.0000
  H   H558      1.0  0.42517  0.41149  0.00108  1.0000
  C   C700      1.0  0.44625  0.42036  0.37350  1.0000
  C   C701      1.0  0.22752  0.19016  0.21923  1.0000
  S   S99       1.0  0.34371  0.28377  0.47136  1.0000
  C   C702      1.0  0.32156  0.37837  0.31393  1.0000
  H   H559      1.0  0.46721  0.44397  0.02540  1.0000
  H   H560      1.0  0.27240  0.01158  0.01641  1.0000
  C   C703      1.0  0.25852  0.99427  0.46322  1.0000
  C   C704      1.0  0.22774  0.98516  0.09487  1.0000
  H   H561      1.0  0.38973  0.21162  0.99536  1.0000
  C   C705      1.0  0.42164  0.00536  0.17143  1.0000
  C   C706      1.0  0.45269  0.46765  0.22466  1.0000
  C   C707      1.0  0.43461  0.02022  0.04433  1.0000
  C   C708      1.0  0.38278  0.43469  0.21044  1.0000
  C   C709      1.0  0.37538  0.23266  0.01609  1.0000
  H   H562      1.0  0.35065  0.00095  0.01734  1.0000
  Fe  Fe50      1.0  0.42764  0.99410  0.40444  1.0000
  C   C710      1.0  0.38535  0.31869  0.00076  1.0000
  C   C711      1.0  0.40970  0.42177  0.47411  1.0000
  C   C712      1.0  0.25523  0.25885  0.01632  1.0000
  C   C713      1.0  0.23136  0.23615  0.06125  1.0000
  H   H563      1.0  0.35348  0.39178  0.42521  1.0000
  C   C714      1.0  0.23756  0.25630  0.07968  1.0000
  H   H564      1.0  0.46125  0.02204  0.20747  1.0000
  C   C715      1.0  0.45924  0.45003  0.22448  1.0000
  H   H565      1.0  0.26162  0.36721  0.47201  1.0000
  C   C716      1.0  0.23812  0.99386  0.99902  1.0000
  C   C717      1.0  0.22841  0.22648  0.33307  1.0000
  C   C718      1.0  0.23743  0.22097  0.36080  1.0000
  H   H566      1.0  0.32840  0.31865  0.00529  1.0000
  H   H567      1.0  0.23607  0.30528  0.04039  1.0000
  C   C719      1.0  0.42678  0.46494  0.33040  1.0000
  H   H568      1.0  0.26194  0.25919  0.99191  1.0000
  H   H569      1.0  0.35702  0.04058  0.47855  1.0000
  C   C720      1.0  0.23552  0.30779  0.48702  1.0000
  H   H570      1.0  0.43991  0.46689  0.20772  1.0000
  H   H571      1.0  0.34010  0.04411  0.00096  1.0000
  C   C721      1.0  0.39547  0.46228  0.26669  1.0000
  H   H572      1.0  0.24963  0.98638  0.24413  1.0000
  C   C722      1.0  0.38888  0.45817  0.20826  1.0000
  C   C723      1.0  0.45944  0.43758  0.35105  1.0000
  H   H573      1.0  0.29471  0.14051  0.48747  1.0000
  H   H574      1.0  0.45766  0.43413  0.32495  1.0000
  C   C724      1.0  0.41244  0.45792  0.39592  1.0000
  H   H575      1.0  0.40719  0.45505  0.42142  1.0000
  H   H576      1.0  0.38850  0.46557  0.18475  1.0000
  H   H577      1.0  0.39970  0.47315  0.28825  1.0000
  C   C725      1.0  0.39522  0.47197  0.23638  1.0000
  Fe  Fe51      1.0  0.29529  0.19442  0.48727  1.0000
  C   C726      1.0  0.43270  0.47724  0.38715  1.0000
  C   C727      1.0  0.27282  0.03235  0.48831  1.0000
  H   H578      1.0  0.29897  0.98300  0.45590  1.0000
  C   C728      1.0  0.43980  0.48077  0.35439  1.0000
  H   H579      1.0  0.42535  0.43051  0.48779  1.0000
  H   H580      1.0  0.21933  0.99083  0.07720  1.0000
  H   H581      1.0  0.21972  0.21950  0.07140  1.0000
  Fe  Fe52      1.0  0.23864  0.32632  0.76798  1.0000
  H   H582      1.0  0.24890  0.21050  0.86632  1.0000
  S   S100      1.0  0.27757  0.34396  0.76161  1.0000
  C   C729      1.0  0.31228  0.03509  0.53857  1.0000
  S   S101      1.0  0.22613  0.30914  0.81689  1.0000
  H   H583      1.0  0.40753  0.04189  0.59413  1.0000
  S   S102      1.0  0.33259  0.20840  0.95967  1.0000
  S   S103      1.0  0.28265  0.17090  0.53259  1.0000
  Fe  Fe53      1.0  0.28259  0.22147  0.93607  1.0000
  S   S104      1.0  0.31605  0.23646  0.90899  1.0000
  S   S105      1.0  0.25627  0.23451  0.92945  1.0000
  Fe  Fe54      1.0  0.31360  0.20081  0.91188  1.0000
  S   S106      1.0  0.32735  0.18942  0.86709  1.0000
  Fe  Fe55      1.0  0.33225  0.24288  0.95859  1.0000
  C   C730      1.0  0.39240  0.40743  0.85468  1.0000
  S   S107      1.0  0.27869  0.18522  0.93589  1.0000
  H   H584      1.0  0.26698  0.18227  0.86633  1.0000
  Fe  Fe56      1.0  0.29859  0.08620  0.73469  1.0000
  S   S108      1.0  0.33325  0.10279  0.71002  1.0000
  S   S109      1.0  0.28527  0.09699  0.78056  1.0000
  Fe  Fe57      1.0  0.27986  0.04593  0.68489  1.0000
  S   S110      1.0  0.31279  0.06017  0.65677  1.0000
  S   S111      1.0  0.24991  0.01051  0.67568  1.0000
  Fe  Fe58      1.0  0.32954  0.06656  0.70603  1.0000
  S   S112      1.0  0.35475  0.05169  0.71010  1.0000
  Fe  Fe59      1.0  0.31342  0.09494  0.66274  1.0000
  S   S113      1.0  0.32671  0.12068  0.62011  1.0000
  S   S114      1.0  0.29641  0.05060  0.73388  1.0000
  S   S115      1.0  0.27895  0.08017  0.68763  1.0000
  Fe  Fe60      1.0  0.40637  0.38329  0.60486  1.0000
  S   S116      1.0  0.38852  0.40116  0.58097  1.0000
  S   S117      1.0  0.40253  0.34793  0.58921  1.0000
  Fe  Fe61      1.0  0.42749  0.42145  0.65783  1.0000
  S   S118      1.0  0.41070  0.44161  0.63689  1.0000
  C   C731      1.0  0.23686  0.29651  0.59387  1.0000
  Fe  Fe62      1.0  0.37933  0.40719  0.63235  1.0000
  S   S119      1.0  0.34314  0.40168  0.64388  1.0000
  Fe  Fe63      1.0  0.42159  0.43373  0.58746  1.0000
  S   S120      1.0  0.43344  0.46084  0.54666  1.0000
  S   S121      1.0  0.39534  0.38742  0.65595  1.0000
  S   S122      1.0  0.44026  0.41547  0.60868  1.0000
  Fe  Fe64      1.0  0.40462  0.01256  0.85679  1.0000
  S   S123      1.0  0.39777  0.04286  0.84501  1.0000
  S   S124      1.0  0.44633  0.00387  0.95384  1.0000
  S   S125      1.0  0.43795  0.01073  0.85937  1.0000
  C   C732      1.0  0.30997  0.11776  0.49328  1.0000
  C   C733      1.0  0.22294  0.29474  0.62099  1.0000
  C   C734      1.0  0.41675  0.42116  0.80661  1.0000
  H   H585      1.0  0.27857  0.38854  0.77807  1.0000
  H   H586      1.0  0.33414  0.16238  0.66761  1.0000
  H   H587      1.0  0.32729  0.15147  0.72623  1.0000
  H   H588      1.0  0.45684  0.47702  0.69065  1.0000
  H   H589      1.0  0.29328  0.14949  0.75499  1.0000
  H   H590      1.0  0.27284  0.16954  0.66590  1.0000
  C   C735      1.0  0.36618  0.04912  0.74804  1.0000
  C   C736      1.0  0.37767  0.03555  0.74966  1.0000
  C   C737      1.0  0.38706  0.03311  0.77926  1.0000
  C   C738      1.0  0.38577  0.04497  0.80734  1.0000
  C   C739      1.0  0.37467  0.05892  0.80557  1.0000
  C   C740      1.0  0.36458  0.06069  0.77622  1.0000
  H   H591      1.0  0.37938  0.02693  0.72790  1.0000
  H   H592      1.0  0.39558  0.02236  0.78025  1.0000
  H   H593      1.0  0.37365  0.06821  0.82711  1.0000
  H   H594      1.0  0.35596  0.07136  0.77526  1.0000
  C   C741      1.0  0.24786  0.99388  0.64011  1.0000
  C   C742      1.0  0.33643  0.36922  0.52950  1.0000
  H   H595      1.0  0.27807  0.01948  0.61626  1.0000
  C   C743      1.0  0.29532  0.15725  0.55678  1.0000
  C   C744      1.0  0.31819  0.16205  0.55294  1.0000
  C   C745      1.0  0.32737  0.15061  0.57244  1.0000
  C   C746      1.0  0.31391  0.13428  0.59611  1.0000
  C   C747      1.0  0.29103  0.12947  0.59998  1.0000
  C   C748      1.0  0.28187  0.14097  0.58054  1.0000
  H   H596      1.0  0.32880  0.17450  0.53485  1.0000
  H   H597      1.0  0.34507  0.15447  0.56917  1.0000
  H   H598      1.0  0.28045  0.11699  0.61806  1.0000
  H   H599      1.0  0.26415  0.13707  0.58374  1.0000
  C   C749      1.0  0.31556  0.16307  0.84438  1.0000
  C   C750      1.0  0.29344  0.14552  0.85009  1.0000
  C   C751      1.0  0.28452  0.12544  0.83038  1.0000
  C   C752      1.0  0.29766  0.12245  0.80505  1.0000
  C   C753      1.0  0.31999  0.13973  0.79988  1.0000
  C   C754      1.0  0.32879  0.15995  0.81927  1.0000
  H   H600      1.0  0.28310  0.14750  0.86945  1.0000
  H   H601      1.0  0.26726  0.11215  0.83475  1.0000
  H   H602      1.0  0.33048  0.13750  0.78098  1.0000
  H   H603      1.0  0.34606  0.17318  0.81494  1.0000
  C   C755      1.0  0.35889  0.30071  0.50559  1.0000
  C   C756      1.0  0.36875  0.29254  0.52890  1.0000
  C   C757      1.0  0.38214  0.30727  0.55415  1.0000
  C   C758      1.0  0.38538  0.33012  0.55695  1.0000
  C   C759      1.0  0.37519  0.33818  0.53398  1.0000
  C   C760      1.0  0.36229  0.32364  0.50825  1.0000
  H   H604      1.0  0.36659  0.27509  0.52692  1.0000
  H   H605      1.0  0.39007  0.30089  0.57163  1.0000
  H   H606      1.0  0.37764  0.35573  0.53568  1.0000
  C   C761      1.0  0.26377  0.00244  0.61443  1.0000
  C   C762      1.0  0.32500  0.38481  0.67620  1.0000
  C   C763      1.0  0.30233  0.38144  0.67775  1.0000
  C   C764      1.0  0.28750  0.36873  0.70346  1.0000
  C   C765      1.0  0.29521  0.35931  0.72799  1.0000
  C   C766      1.0  0.31788  0.36269  0.72652  1.0000
  C   C767      1.0  0.33266  0.37521  0.70064  1.0000
  H   H607      1.0  0.29628  0.38889  0.65907  1.0000
  H   H608      1.0  0.27021  0.36649  0.70463  1.0000
  H   H609      1.0  0.32403  0.35556  0.74549  1.0000
  H   H610      1.0  0.35003  0.37764  0.69980  1.0000
  C   C768      1.0  0.45114  0.48151  0.89236  1.0000
  H   H611      1.0  0.29248  0.01619  0.79469  1.0000
  C   C769      1.0  0.23676  0.25389  0.88965  1.0000
  C   C770      1.0  0.24495  0.23750  0.89181  1.0000
  C   C771      1.0  0.24301  0.22344  0.86472  1.0000
  C   C772      1.0  0.45767  0.02529  0.68802  1.0000
  H   H612      1.0  0.35252  0.36544  0.92829  1.0000
  C   C773      1.0  0.45963  0.99090  0.97809  1.0000
  H   H613      1.0  0.30712  0.17195  0.63806  1.0000
  H   H614      1.0  0.34646  0.01102  0.84571  1.0000
  C   C774      1.0  0.23280  0.36160  0.50306  1.0000
  C   C775      1.0  0.22742  0.19920  0.71540  1.0000
  C   C776      1.0  0.31002  0.23725  0.67064  1.0000
  C   C777      1.0  0.32384  0.28717  0.58061  1.0000
  C   C778      1.0  0.31403  0.30206  0.57783  1.0000
  C   C779      1.0  0.29143  0.29355  0.56720  1.0000
  H   H615      1.0  0.41500  0.44888  0.70924  1.0000
  H   H616      1.0  0.34276  0.98296  0.92205  1.0000
  C   C780      1.0  0.26070  0.30953  0.59594  1.0000
  P   P26       1.0  0.27894  0.31271  0.56085  1.0000
  H   H617      1.0  0.34781  0.98469  0.80355  1.0000
  H   H618      1.0  0.23199  0.01318  0.52480  1.0000
  H   H619      1.0  0.23062  0.21423  0.81537  1.0000
  C   C781      1.0  0.22831  0.08365  0.73091  1.0000
  C   C782      1.0  0.36453  0.43639  0.74753  1.0000
  H   H620      1.0  0.26121  0.11273  0.73379  1.0000
  C   C783      1.0  0.46272  0.41766  0.83286  1.0000
  C   C784      1.0  0.31930  0.01522  0.82302  1.0000
  C   C785      1.0  0.25644  0.31711  0.65338  1.0000
  C   C786      1.0  0.27042  0.31928  0.62619  1.0000
  S   S126      1.0  0.22025  0.29346  0.74009  1.0000
  C   C787      1.0  0.43317  0.42764  0.90856  1.0000
  H   H621      1.0  0.34152  0.29391  0.58750  1.0000
  H   H622      1.0  0.32435  0.32021  0.58323  1.0000
  C   C788      1.0  0.29963  0.36052  0.57185  1.0000
  H   H623      1.0  0.34402  0.01976  0.64649  1.0000
  C   C789      1.0  0.46287  0.45642  0.72634  1.0000
  C   C790      1.0  0.26391  0.30589  0.52249  1.0000
  C   C791      1.0  0.37347  0.39569  0.83454  1.0000
  C   C792      1.0  0.35421  0.01656  0.62791  1.0000
  Fe  Fe65      1.0  0.42462  0.99187  0.90737  1.0000
  C   C793      1.0  0.30641  0.09577  0.50259  1.0000
  H   H624      1.0  0.28879  0.32868  0.62876  1.0000
  H   H625      1.0  0.33721  0.02344  0.54944  1.0000
  C   C794      1.0  0.33042  0.30903  0.95566  1.0000
  H   H626      1.0  0.39081  0.00658  0.56034  1.0000
  C   C795      1.0  0.23488  0.37728  0.58054  1.0000
  C   C796      1.0  0.43464  0.01746  0.53111  1.0000
  C   C797      1.0  0.44180  0.01304  0.56107  1.0000
  H   H627      1.0  0.40235  0.48214  0.79226  1.0000
  H   H628      1.0  0.22077  0.99847  0.92275  1.0000
  C   C798      1.0  0.22351  0.99000  0.97274  1.0000
  H   H629      1.0  0.23516  0.07139  0.73241  1.0000
  C   C799      1.0  0.44362  0.47720  0.83422  1.0000
  C   C800      1.0  0.33622  0.23772  0.79489  1.0000
  C   C801      1.0  0.34140  0.21975  0.78700  1.0000
  C   C802      1.0  0.34015  0.21229  0.75459  1.0000
  C   C803      1.0  0.33367  0.22278  0.72994  1.0000
  C   C804      1.0  0.32850  0.24096  0.73764  1.0000
  C   C805      1.0  0.33006  0.24850  0.77032  1.0000
  P   P27       1.0  0.32149  0.25581  0.70602  1.0000
  C   C806      1.0  0.30062  0.26395  0.72278  1.0000
  C   C807      1.0  0.28268  0.24821  0.74244  1.0000
  C   C808      1.0  0.26649  0.25421  0.75581  1.0000
  C   C809      1.0  0.26804  0.27593  0.74974  1.0000
  C   C810      1.0  0.28592  0.29178  0.73048  1.0000
  C   C811      1.0  0.30220  0.28589  0.71705  1.0000
  C   C812      1.0  0.32486  0.23366  0.64892  1.0000
  H   H630      1.0  0.33702  0.24321  0.82020  1.0000
  H   H631      1.0  0.34630  0.21151  0.80609  1.0000
  H   H632      1.0  0.34410  0.19825  0.74869  1.0000
  H   H633      1.0  0.33273  0.21655  0.70510  1.0000
  H   H634      1.0  0.32651  0.26270  0.77685  1.0000
  H   H635      1.0  0.25267  0.24210  0.77101  1.0000
  H   H636      1.0  0.25551  0.28055  0.76038  1.0000
  H   H637      1.0  0.28711  0.30869  0.72610  1.0000
  H   H638      1.0  0.31588  0.29860  0.70243  1.0000
  H   H639      1.0  0.32778  0.21646  0.60494  1.0000
  H   H640      1.0  0.34307  0.24181  0.65327  1.0000
  H   H641      1.0  0.23191  0.14754  0.85006  1.0000
  C   C813      1.0  0.44902  0.03016  0.71691  1.0000
  C   C814      1.0  0.26999  0.29490  0.49722  1.0000
  H   H642      1.0  0.31064  0.42648  0.76531  1.0000
  S   S127      1.0  0.44754  0.42941  0.70583  1.0000
  H   H643      1.0  0.42176  0.05857  0.68485  1.0000
  H   H644      1.0  0.38614  0.99725  0.66571  1.0000
  C   C815      1.0  0.44500  0.41665  0.92252  1.0000
  H   H645      1.0  0.44634  0.40381  0.82613  1.0000
  C   C816      1.0  0.44186  0.41057  0.95565  1.0000
  H   H646      1.0  0.36055  0.98727  0.49580  1.0000
  H   H647      1.0  0.31700  0.99872  0.70352  1.0000
  H   H648      1.0  0.38980  0.40627  0.88089  1.0000
  H   H649      1.0  0.35667  0.38583  0.84531  1.0000
  C   C817      1.0  0.34470  0.01688  0.92079  1.0000
  C   C818      1.0  0.29528  0.30451  0.98179  1.0000
  S   S128      1.0  0.29898  0.23012  0.98559  1.0000
  H   H650      1.0  0.45717  0.41333  0.90831  1.0000
  C   C819      1.0  0.29915  0.31253  0.81852  1.0000
  C   C820      1.0  0.28552  0.28930  0.82599  1.0000
  C   C821      1.0  0.29559  0.27562  0.83572  1.0000
  C   C822      1.0  0.31929  0.28522  0.83842  1.0000
  C   C823      1.0  0.33316  0.30863  0.83102  1.0000
  C   C824      1.0  0.32286  0.32218  0.82088  1.0000
  P   P28       1.0  0.36380  0.32163  0.83564  1.0000
  C   C825      1.0  0.37228  0.33938  0.87227  1.0000
  C   C826      1.0  0.37252  0.29922  0.84009  1.0000
  C   C827      1.0  0.36974  0.28817  0.87043  1.0000
  C   C828      1.0  0.37594  0.27048  0.87395  1.0000
  C   C829      1.0  0.38510  0.26375  0.84735  1.0000
  C   C830      1.0  0.38814  0.27479  0.81716  1.0000
  C   C831      1.0  0.38176  0.29238  0.81343  1.0000
  C   C832      1.0  0.39310  0.34436  0.88724  1.0000
  C   C833      1.0  0.39917  0.35679  0.91663  1.0000
  C   C834      1.0  0.38456  0.36440  0.93135  1.0000
  C   C835      1.0  0.36398  0.35983  0.91649  1.0000
  C   C836      1.0  0.35780  0.34735  0.88713  1.0000
  C   C837      1.0  0.37780  0.33865  0.79977  1.0000
  C   C838      1.0  0.36628  0.33438  0.76978  1.0000
  C   C839      1.0  0.37724  0.34744  0.74207  1.0000
  C   C840      1.0  0.39998  0.36427  0.74371  1.0000
  C   C841      1.0  0.41173  0.36822  0.77313  1.0000
  C   C842      1.0  0.40068  0.35562  0.80115  1.0000
  H   H651      1.0  0.29121  0.32301  0.81087  1.0000
  H   H652      1.0  0.26715  0.28192  0.82402  1.0000
  H   H653      1.0  0.28495  0.25761  0.84161  1.0000
  H   H654      1.0  0.32651  0.27427  0.84662  1.0000
  H   H655      1.0  0.33312  0.34025  0.81500  1.0000
  H   H656      1.0  0.36268  0.29304  0.89149  1.0000
  C   C843      1.0  0.23216  0.00133  0.94305  1.0000
  C   C844      1.0  0.46411  0.43627  0.85200  1.0000
  H   H657      1.0  0.39518  0.26945  0.79657  1.0000
  H   H658      1.0  0.38400  0.30049  0.78976  1.0000
  H   H659      1.0  0.40445  0.33813  0.87670  1.0000
  H   H660      1.0  0.41501  0.36012  0.92845  1.0000
  H   H661      1.0  0.28685  0.34097  0.96551  1.0000
  H   H662      1.0  0.42659  0.98554  0.64899  1.0000
  H   H663      1.0  0.34147  0.34351  0.87681  1.0000
  H   H664      1.0  0.34889  0.32094  0.76753  1.0000
  H   H665      1.0  0.36819  0.34434  0.71913  1.0000
  H   H666      1.0  0.40857  0.37435  0.72221  1.0000
  H   H667      1.0  0.42939  0.38133  0.77414  1.0000
  H   H668      1.0  0.41008  0.35910  0.82371  1.0000
  H   H669      1.0  0.27864  0.36788  0.82839  1.0000
  C   C845      1.0  0.34116  0.47360  0.78083  1.0000
  P   P29       1.0  0.27993  0.05057  0.52452  1.0000
  H   H670      1.0  0.31047  0.46061  0.81095  1.0000
  C   C846      1.0  0.30536  0.05238  0.54355  1.0000
  C   C847      1.0  0.23273  0.30518  0.65059  1.0000
  H   H671      1.0  0.23988  0.35726  0.52401  1.0000
  C   C848      1.0  0.34513  0.05593  0.57297  1.0000
  C   C849      1.0  0.33839  0.07314  0.57813  1.0000
  C   C850      1.0  0.31860  0.07136  0.56361  1.0000
  H   H672      1.0  0.26391  0.32463  0.67670  1.0000
  C   C851      1.0  0.25738  0.03993  0.55519  1.0000
  H   H673      1.0  0.22559  0.21284  0.72853  1.0000
  H   H674      1.0  0.26543  0.39435  0.60927  1.0000
  H   H675      1.0  0.26416  0.35999  0.94732  1.0000
  C   C852      1.0  0.24394  0.04261  0.61008  1.0000
  C   C853      1.0  0.26107  0.05078  0.58600  1.0000
  H   H676      1.0  0.32679  0.98431  0.61246  1.0000
  H   H677      1.0  0.34655  0.42467  0.74506  1.0000
  H   H678      1.0  0.36045  0.05739  0.58439  1.0000
  H   H679      1.0  0.34832  0.08784  0.59376  1.0000
  H   H680      1.0  0.31379  0.08497  0.56810  1.0000
  C   C854      1.0  0.33533  0.38743  0.54645  1.0000
  C   C855      1.0  0.45009  0.05787  0.54550  1.0000
  C   C856      1.0  0.41494  0.42603  0.96139  1.0000
  C   C857      1.0  0.22299  0.02359  0.60371  1.0000
  H   H681      1.0  0.24713  0.05058  0.63411  1.0000
  H   H682      1.0  0.27718  0.06545  0.59174  1.0000
  C   C858      1.0  0.31568  0.15609  0.71347  1.0000
  C   C859      1.0  0.31957  0.16228  0.68050  1.0000
  C   C860      1.0  0.30426  0.16758  0.66382  1.0000
  C   C861      1.0  0.28473  0.16615  0.67982  1.0000
  C   C862      1.0  0.28053  0.15968  0.71291  1.0000
  C   C863      1.0  0.29637  0.15499  0.72969  1.0000
  C   C864      1.0  0.23586  0.02142  0.54854  1.0000
  C   C865      1.0  0.37986  0.43500  0.72469  1.0000
  H   H683      1.0  0.28122  0.23130  0.74748  1.0000
  C   C866      1.0  0.43189  0.04935  0.68560  1.0000
  C   C867      1.0  0.29268  0.39643  0.79492  1.0000
  H   H684      1.0  0.43410  0.04330  0.49936  1.0000
  C   C868      1.0  0.31631  0.21939  0.62147  1.0000
  C   C869      1.0  0.29275  0.38475  0.82335  1.0000
  H   H685      1.0  0.32039  0.33267  0.52066  1.0000
  H   H686      1.0  0.38438  0.04815  0.63826  1.0000
  H   H687      1.0  0.33977  0.06674  0.48967  1.0000
  S   S129      1.0  0.36304  0.27811  0.96598  1.0000
  C   C870      1.0  0.24702  0.31286  0.51684  1.0000
  C   C871      1.0  0.46458  0.47707  0.71384  1.0000
  C   C872      1.0  0.26663  0.08498  0.51410  1.0000
  H   H688      1.0  0.24894  0.36889  0.65742  1.0000
  C   C873      1.0  0.21957  0.17438  0.66786  1.0000
  H   H689      1.0  0.31619  0.11633  0.92073  1.0000
  H   H690      1.0  0.46716  0.01543  0.68948  1.0000
  P   P30       1.0  0.25371  0.15407  0.73269  1.0000
  H   H691      1.0  0.32754  0.29661  0.90620  1.0000
  H   H692      1.0  0.29107  0.19207  0.76689  1.0000
  C   C874      1.0  0.30094  0.34204  0.55561  1.0000
  H   H693      1.0  0.22068  0.26910  0.85926  1.0000
  C   C875      1.0  0.41797  0.43210  0.92829  1.0000
  C   C876      1.0  0.43883  0.03986  0.52326  1.0000
  C   C877      1.0  0.27807  0.18219  0.78476  1.0000
  H   H694      1.0  0.33056  0.28665  0.65059  1.0000
  Fe  Fe66      1.0  0.29788  0.19501  0.98369  1.0000
  H   H695      1.0  0.44011  0.46740  0.81177  1.0000
  H   H696      1.0  0.40009  0.41006  0.76023  1.0000
  H   H697      1.0  0.45210  0.02435  0.74025  1.0000
  H   H698      1.0  0.31636  0.39718  0.58114  1.0000
  C   C878      1.0  0.29296  0.20894  0.61509  1.0000
  C   C879      1.0  0.34685  0.28099  0.69273  1.0000
  S   S130      1.0  0.39315  0.99723  0.90672  1.0000
  C   C880      1.0  0.31294  0.09892  0.91416  1.0000
  C   C881      1.0  0.26411  0.00831  0.49111  1.0000
  H   H699      1.0  0.43728  0.05058  0.63385  1.0000
  C   C882      1.0  0.22457  0.24214  0.83373  1.0000
  C   C883      1.0  0.29188  0.12334  0.49424  1.0000
  C   C884      1.0  0.28654  0.22668  0.66401  1.0000
  C   C885      1.0  0.34619  0.29259  0.66432  1.0000
  H   H700      1.0  0.28640  0.19797  0.59364  1.0000
  C   C886      1.0  0.28826  0.25491  0.56468  1.0000
  C   C887      1.0  0.31923  0.34663  0.53386  1.0000
  H   H701      1.0  0.34894  0.40488  0.54379  1.0000
  C   C888      1.0  0.31113  0.26371  0.57349  1.0000
  H   H702      1.0  0.31910  0.25244  0.57435  1.0000
  C   C889      1.0  0.27836  0.26974  0.56179  1.0000
  H   H703      1.0  0.35084  0.37257  0.51344  1.0000
  C   C890      1.0  0.28372  0.29537  0.95241  1.0000
  C   C891      1.0  0.30992  0.08283  0.93862  1.0000
  H   H704      1.0  0.37435  0.99943  0.97108  1.0000
  C   C892      1.0  0.28477  0.07929  0.51349  1.0000
  C   C893      1.0  0.27812  0.21271  0.63622  1.0000
  H   H705      1.0  0.36850  0.28026  0.73177  1.0000
  H   H706      1.0  0.24207  0.38897  0.56011  1.0000
  C   C894      1.0  0.40315  0.45008  0.72684  1.0000
  H   H707      1.0  0.26126  0.00026  0.51489  1.0000
  H   H708      1.0  0.34854  0.31431  0.95677  1.0000
  H   H709      1.0  0.24537  0.19319  0.75427  1.0000
  C   C895      1.0  0.33490  0.99365  0.92980  1.0000
  C   C896      1.0  0.23073  0.16304  0.68233  1.0000
  H   H710      1.0  0.29657  0.20410  0.82514  1.0000
  H   H711      1.0  0.40901  0.44093  0.91843  1.0000
  C   C897      1.0  0.41424  0.42053  0.84088  1.0000
  H   H712      1.0  0.22795  0.35226  0.97564  1.0000
  C   C898      1.0  0.31091  0.41795  0.78782  1.0000
  H   H713      1.0  0.45166  0.40292  0.96664  1.0000
  C   C899      1.0  0.36738  0.28898  0.71000  1.0000
  C   C900      1.0  0.24315  0.10730  0.73165  1.0000
  H   H714      1.0  0.22621  0.13478  0.79248  1.0000
  H   H715      1.0  0.26074  0.26272  0.55430  1.0000
  C   C901      1.0  0.41113  0.46677  0.75156  1.0000
  C   C902      1.0  0.42690  0.41532  0.97508  1.0000
  C   C903      1.0  0.25547  0.01640  0.93958  1.0000
  C   C904      1.0  0.27031  0.02033  0.96593  1.0000
  H   H716      1.0  0.27465  0.22925  0.67994  1.0000
  H   H717      1.0  0.26169  0.02490  0.91635  1.0000
  C   C905      1.0  0.23883  0.36627  0.63568  1.0000
  H   H718      1.0  0.31395  0.10512  0.86226  1.0000
  C   C906      1.0  0.36564  0.31208  0.65359  1.0000
  H   H719      1.0  0.26007  0.20478  0.63096  1.0000
  C   C907      1.0  0.30552  0.06020  0.93023  1.0000
  C   C908      1.0  0.31171  0.09264  0.88117  1.0000
  P   P31       1.0  0.30069  0.03881  0.96152  1.0000
  H   H720      1.0  0.27841  0.23668  0.55921  1.0000
  C   C909      1.0  0.23771  0.34366  0.98362  1.0000
  H   H721      1.0  0.38902  0.37349  0.95458  1.0000
  H   H722      1.0  0.36503  0.32112  0.63179  1.0000
  C   C910      1.0  0.28111  0.18927  0.81753  1.0000
  H   H723      1.0  0.23142  0.14872  0.66951  1.0000
  C   C911      1.0  0.24810  0.38054  0.60846  1.0000
  C   C912      1.0  0.33461  0.00603  0.82554  1.0000
  C   C913      1.0  0.44079  0.04478  0.65666  1.0000
  C   C914      1.0  0.38692  0.30830  0.69886  1.0000
  C   C915      1.0  0.30753  0.07026  0.87254  1.0000
  C   C916      1.0  0.30447  0.05411  0.89692  1.0000
  C   C917      1.0  0.38054  0.00898  0.57948  1.0000
  H   H724      1.0  0.28551  0.35769  0.58814  1.0000
  C   C918      1.0  0.38605  0.31984  0.67067  1.0000
  C   C919      1.0  0.25816  0.34803  0.96766  1.0000
  H   H725      1.0  0.34246  0.04866  0.92365  1.0000
  H   H726      1.0  0.40282  0.31435  0.71198  1.0000
  C   C920      1.0  0.31399  0.02105  0.94894  1.0000
  C   C921      1.0  0.25833  0.16243  0.77530  1.0000
  H   H727      1.0  0.30103  0.03679  0.88979  1.0000
  H   H728      1.0  0.30657  0.06552  0.84687  1.0000
  H   H729      1.0  0.43334  0.43083  0.79515  1.0000
  H   H730      1.0  0.40119  0.33476  0.66182  1.0000
  C   C922      1.0  0.24054  0.16983  0.71339  1.0000
  C   C923      1.0  0.23460  0.12345  0.73028  1.0000
  H   H731      1.0  0.32064  0.09182  0.50172  1.0000
  C   C924      1.0  0.31883  0.31148  0.98317  1.0000
  H   H732      1.0  0.38969  0.24988  0.85018  1.0000
  C   C925      1.0  0.37243  0.45312  0.77254  1.0000
  P   P32       1.0  0.46504  0.02586  0.62048  1.0000
  H   H733      1.0  0.36151  0.38780  0.78485  1.0000
  C   C926      1.0  0.32920  0.42828  0.80958  1.0000
  P   P33       1.0  0.35250  0.45633  0.80035  1.0000
  H   H734      1.0  0.22891  0.28756  0.57157  1.0000
  C   C927      1.0  0.45394  0.03284  0.65760  1.0000
  C   C928      1.0  0.39783  0.40942  0.78662  1.0000
  H   H735      1.0  0.37356  0.26194  0.89743  1.0000
  C   C929      1.0  0.33550  0.99121  0.80127  1.0000
  C   C930      1.0  0.23262  0.22558  0.83590  1.0000
  H   H736      1.0  0.45395  0.07536  0.53892  1.0000
  C   C931      1.0  0.29536  0.29271  0.92515  1.0000
  C   C932      1.0  0.30465  0.99784  0.95871  1.0000
  H   H737      1.0  0.43960  0.99585  0.56557  1.0000
  C   C933      1.0  0.24164  0.15001  0.79904  1.0000
  C   C934      1.0  0.26444  0.17686  0.84094  1.0000
  H   H738      1.0  0.42935  0.04584  0.73814  1.0000
  C   C935      1.0  0.37703  0.03267  0.62319  1.0000
  C   C936      1.0  0.24473  0.15724  0.83174  1.0000
  C   C937      1.0  0.31865  0.29930  0.92690  1.0000
  C   C938      1.0  0.33443  0.03062  0.93057  1.0000
  C   C939      1.0  0.32928  0.41632  0.83800  1.0000
  C   C940      1.0  0.44940  0.39317  0.52918  1.0000
  H   H739      1.0  0.36032  0.02426  0.90618  1.0000
  C   C941      1.0  0.39007  0.02906  0.59861  1.0000
  C   C942      1.0  0.23868  0.18796  0.72990  1.0000
  H   H740      1.0  0.34318  0.42366  0.85508  1.0000
  P   P34       1.0  0.43865  0.43744  0.86643  1.0000
  C   C943      1.0  0.35789  0.99230  0.58493  1.0000
  H   H741      1.0  0.27301  0.99617  0.56602  1.0000
  C   C944      1.0  0.36649  0.47046  0.83783  1.0000
  H   H742      1.0  0.31105  0.38550  0.86684  1.0000
  C   C945      1.0  0.34459  0.99652  0.60870  1.0000
  C   C946      1.0  0.31108  0.39463  0.84483  1.0000
  C   C947      1.0  0.33206  0.03687  0.55327  1.0000
  H   H743      1.0  0.29381  0.99548  0.65529  1.0000
  C   C948      1.0  0.37616  0.39678  0.80052  1.0000
  C   C949      1.0  0.31505  0.98422  0.94907  1.0000
  C   C950      1.0  0.43613  0.04218  0.71571  1.0000
  H   H744      1.0  0.44040  0.38436  0.55122  1.0000
  H   H745      1.0  0.25645  0.11166  0.50613  1.0000
  C   C951      1.0  0.39584  0.46850  0.77409  1.0000
  H   H746      1.0  0.24973  0.07256  0.52214  1.0000
  H   H747      1.0  0.39615  0.32494  0.97922  1.0000
  H   H748      1.0  0.39236  0.43659  0.50350  1.0000
  C   C952      1.0  0.31690  0.38308  0.56748  1.0000
  H   H749      1.0  0.42683  0.00369  0.51321  1.0000
  C   C953      1.0  0.45733  0.05349  0.57551  1.0000
  C   C954      1.0  0.45797  0.47147  0.52039  1.0000
  H   H750      1.0  0.41863  0.38428  0.50280  1.0000
  C   C955      1.0  0.27087  0.33706  0.97792  1.0000
  H   H751      1.0  0.26555  0.28973  0.95083  1.0000
  C   C956      1.0  0.30422  0.00887  0.79682  1.0000
  H   H752      1.0  0.31948  0.02757  0.84107  1.0000
  H   H753      1.0  0.37367  0.42237  0.70503  1.0000
  H   H754      1.0  0.28611  0.28483  0.90302  1.0000
  H   H755      1.0  0.24269  0.32211  0.53556  1.0000
  C   C957      1.0  0.43711  0.39319  0.50161  1.0000
  C   C958      1.0  0.45830  0.99572  0.62222  1.0000
  C   C959      1.0  0.22689  0.25641  0.86065  1.0000
  H   H756      1.0  0.40515  0.47092  0.89274  1.0000
  H   H757      1.0  0.28935  0.99013  0.97372  1.0000
  C   C960      1.0  0.39301  0.47539  0.88150  1.0000
  H   H758      1.0  0.40407  0.43051  0.97699  1.0000
  C   C961      1.0  0.26077  0.98922  0.58579  1.0000
  H   H759      1.0  0.28362  0.29016  0.50026  1.0000
  C   C962      1.0  0.45300  0.03095  0.58373  1.0000
  C   C963      1.0  0.38216  0.46447  0.85259  1.0000
  H   H760      1.0  0.30262  0.02024  0.52335  1.0000
  C   C964      1.0  0.30456  0.99343  0.77302  1.0000
  H   H761      1.0  0.23797  0.26464  0.91056  1.0000
  H   H762      1.0  0.34722  0.98744  0.68451  1.0000
  H   H763      1.0  0.38606  0.45144  0.84169  1.0000
  C   C965      1.0  0.27026  0.10700  0.50472  1.0000
  C   C966      1.0  0.44436  0.46735  0.86437  1.0000
  C   C967      1.0  0.35789  0.98329  0.70001  1.0000
  H   H764      1.0  0.22185  0.30381  0.67145  1.0000
  C   C968      1.0  0.38004  0.98885  0.68913  1.0000
  H   H765      1.0  0.42918  0.47861  0.75297  1.0000
  C   C969      1.0  0.32063  0.98487  0.77460  1.0000
  H   H766      1.0  0.31102  0.08826  0.96389  1.0000
  C   C970      1.0  0.32010  0.47209  0.79121  1.0000
  C   C971      1.0  0.39444  0.98392  0.70873  1.0000
  H   H767      1.0  0.46705  0.06780  0.59179  1.0000
  H   H768      1.0  0.45347  0.47497  0.91550  1.0000
  H   H769      1.0  0.41158  0.98816  0.70063  1.0000
  H   H770      1.0  0.29230  0.98842  0.75355  1.0000
  H   H771      1.0  0.35497  0.33022  0.49016  1.0000
  C   C972      1.0  0.34259  0.98254  0.49884  1.0000
  H   H772      1.0  0.26833  0.94689  0.37900  1.0000
  C   C973      1.0  0.46640  0.95851  0.99341  1.0000
  S   S131      1.0  0.41713  0.95896  0.38192  1.0000
  C   C974      1.0  0.31514  0.89140  0.48055  1.0000
  S   S132      1.0  0.43118  0.96719  0.28389  1.0000
  Fe  Fe67      1.0  0.38133  0.95526  0.38507  1.0000
  S   S133      1.0  0.34859  0.92287  0.39789  1.0000
  P   P35       1.0  0.24953  0.89866  0.35577  1.0000
  Fe  Fe68      1.0  0.23422  0.88610  0.01943  1.0000
  H   H773      1.0  0.26930  0.91210  0.28930  1.0000
  C   C975      1.0  0.33165  0.91717  0.43409  1.0000
  C   C976      1.0  0.31402  0.92363  0.43706  1.0000
  C   C977      1.0  0.29666  0.91347  0.46123  1.0000
  C   C978      1.0  0.45893  0.97610  0.12500  1.0000
  H   H774      1.0  0.30538  0.90272  0.12912  1.0000
  C   C979      1.0  0.33216  0.90124  0.45633  1.0000
  H   H775      1.0  0.31298  0.93532  0.41941  1.0000
  H   H776      1.0  0.45089  0.96452  0.44842  1.0000
  H   H777      1.0  0.37365  0.96059  0.07520  1.0000
  H   H778      1.0  0.34512  0.89548  0.45372  1.0000
  H   H779      1.0  0.26121  0.95657  0.25954  1.0000
  H   H780      1.0  0.22436  0.90435  0.41297  1.0000
  C   C980      1.0  0.22139  0.84808  0.42560  1.0000
  H   H781      1.0  0.30887  0.93265  0.09007  1.0000
  C   C981      1.0  0.46258  0.48626  0.24701  1.0000
  C   C982      1.0  0.45757  0.97800  0.26163  1.0000
  C   C983      1.0  0.24375  0.88341  0.31696  1.0000
  C   C984      1.0  0.29653  0.91953  0.34352  1.0000
  C   C985      1.0  0.21989  0.91079  0.39134  1.0000
  C   C986      1.0  0.23609  0.95548  0.11623  1.0000
  H   H782      1.0  0.23802  0.91602  0.24215  1.0000
  C   C987      1.0  0.26208  0.86096  0.42533  1.0000
  C   C988      1.0  0.33471  0.92538  0.15711  1.0000
  H   H783      1.0  0.25608  0.96469  0.16040  1.0000
  C   C989      1.0  0.31903  0.92014  0.13181  1.0000
  C   C990      1.0  0.24595  0.87822  0.38787  1.0000
  C   C991      1.0  0.29685  0.89674  0.48246  1.0000
  C   C992      1.0  0.22407  0.86344  0.40031  1.0000
  C   C993      1.0  0.27247  0.96722  0.04145  1.0000
  H   H784      1.0  0.23844  0.83543  0.45838  1.0000
  C   C994      1.0  0.25110  0.88268  0.25845  1.0000
  C   C995      1.0  0.23364  0.86007  0.25643  1.0000
  C   C996      1.0  0.46219  0.97504  0.46750  1.0000
  C   C997      1.0  0.45813  0.96818  0.23093  1.0000
  H   H785      1.0  0.28202  0.88757  0.39155  1.0000
  H   H786      1.0  0.44269  0.95411  0.22163  1.0000
  C   C998      1.0  0.35257  0.94773  0.16019  1.0000
  H   H787      1.0  0.33314  0.91209  0.17420  1.0000
  S   S134      1.0  0.22455  0.89201  0.07064  1.0000
  H   H788      1.0  0.27575  0.94143  0.01184  1.0000
  C   C999      1.0  0.30795  0.98042  0.47617  1.0000
  C   C1000     1.0  0.43446  0.93592  0.11209  1.0000
  H   H789      1.0  0.32063  0.91563  0.00228  1.0000
  C   C1001     1.0  0.24840  0.97056  0.14189  1.0000
  C   C1002     1.0  0.22931  0.91007  0.36054  1.0000
  C   C1003     1.0  0.31850  0.93804  0.34296  1.0000
  C   C1004     1.0  0.23739  0.90467  0.16684  1.0000
  H   H790      1.0  0.26746  0.91381  0.13690  1.0000
  H   H791      1.0  0.37958  0.93504  0.47726  1.0000
  H   H792      1.0  0.42653  0.97999  0.19960  1.0000
  S   S135      1.0  0.27197  0.89548  0.01112  1.0000
  C   C1005     1.0  0.27809  0.92249  0.35605  1.0000
  H   H793      1.0  0.25563  0.96306  0.03247  1.0000
  C   C1006     1.0  0.35473  0.96484  0.13802  1.0000
  H   H794      1.0  0.44316  0.48929  0.40574  1.0000
  C   C1007     1.0  0.24552  0.95162  0.24632  1.0000
  C   C1008     1.0  0.31531  0.97661  0.06666  1.0000
  H   H795      1.0  0.27684  0.86013  0.43526  1.0000
  C   C1009     1.0  0.43969  0.97955  0.13132  1.0000
  H   H796      1.0  0.44765  0.49537  0.99598  1.0000
  H   H797      1.0  0.23471  0.93832  0.11478  1.0000
  C   C1010     1.0  0.24738  0.87695  0.14078  1.0000
  H   H798      1.0  0.43255  0.91915  0.10452  1.0000
  C   C1011     1.0  0.28378  0.95494  0.02994  1.0000
  H   H799      1.0  0.39833  0.92485  0.11568  1.0000
  H   H800      1.0  0.26076  0.89114  0.23662  1.0000
  H   H801      1.0  0.39982  0.49016  0.23467  1.0000
  Fe  Fe69      1.0  0.42066  0.97700  0.33336  1.0000
  C   C1012     1.0  0.28210  0.94421  0.36852  1.0000
  P   P36       1.0  0.34260  0.98183  0.08330  1.0000
  H   H802      1.0  0.36483  0.95177  0.17970  1.0000
  H   H803      1.0  0.40276  0.96331  0.13197  1.0000
  H   H804      1.0  0.33948  0.97385  0.35490  1.0000
  H   H805      1.0  0.29405  0.90284  0.33456  1.0000
  H   H806      1.0  0.33276  0.93547  0.33404  1.0000
  H   H807      1.0  0.25849  0.87314  0.12478  1.0000
  C   C1013     1.0  0.41522  0.93918  0.11833  1.0000
  C   C1014     1.0  0.30414  0.96273  0.36781  1.0000
  C   C1015     1.0  0.26491  0.87664  0.40042  1.0000
  C   C1016     1.0  0.32232  0.95964  0.35500  1.0000
  C   C1017     1.0  0.36036  0.98092  0.04979  1.0000
  H   H808      1.0  0.28258  0.91767  0.46231  1.0000
  H   H809      1.0  0.23198  0.92047  0.30992  1.0000
  H   H810      1.0  0.24118  0.92252  0.17046  1.0000
  C   C1018     1.0  0.32107  0.93725  0.10967  1.0000
  C   C1019     1.0  0.25601  0.89443  0.28848  1.0000
  H   H811      1.0  0.40014  0.97799  0.24410  1.0000
  C   C1020     1.0  0.37355  0.96914  0.05268  1.0000
  S   S136      1.0  0.38374  0.96969  0.33469  1.0000
  H   H812      1.0  0.45575  0.49554  0.34763  1.0000
  C   C1021     1.0  0.41780  0.96095  0.12773  1.0000
  C   C1022     1.0  0.22405  0.91982  0.33351  1.0000
  H   H813      1.0  0.31341  0.94961  0.03338  1.0000
  C   C1023     1.0  0.24040  0.84695  0.43827  1.0000
  C   C1024     1.0  0.33880  0.95983  0.11284  1.0000
  C   C1025     1.0  0.22618  0.86067  0.31460  1.0000
  C   C1026     1.0  0.22739  0.85896  0.15330  1.0000
  C   C1027     1.0  0.22117  0.84909  0.28448  1.0000
  C   C1028     1.0  0.45894  0.48752  0.99374  1.0000
  H   H814      1.0  0.25150  0.97569  0.46589  1.0000
  H   H815      1.0  0.39683  0.95895  0.02825  1.0000
  C   C1029     1.0  0.30513  0.95963  0.04236  1.0000
  C   C1030     1.0  0.25239  0.89982  0.14759  1.0000
  H   H816      1.0  0.45731  0.49973  0.24684  1.0000
  C   C1031     1.0  0.22536  0.96257  0.09280  1.0000
  H   H817      1.0  0.30731  0.97945  0.37749  1.0000
  H   H818      1.0  0.22974  0.85102  0.23315  1.0000
  C   C1032     1.0  0.23895  0.96841  0.23786  1.0000
  C   C1033     1.0  0.45626  0.95436  0.11542  1.0000
  H   H819      1.0  0.22291  0.84124  0.14675  1.0000
  C   C1034     1.0  0.23237  0.92871  0.23645  1.0000
  C   C1035     1.0  0.38670  0.96810  0.02611  1.0000
  C   C1036     1.0  0.38694  0.97895  0.99668  1.0000
  H   H820      1.0  0.36892  0.98193  0.14050  1.0000
  S   S137      1.0  0.22934  0.90327  0.48791  1.0000
  H   H821      1.0  0.46295  0.94074  0.98974  1.0000
  H   H822      1.0  0.25158  0.91322  0.74668  1.0000
  C   C1037     1.0  0.28995  0.90987  0.97707  1.0000
  S   S138      1.0  0.40667  0.95636  0.88445  1.0000
  C   C1038     1.0  0.32354  0.50059  0.75096  1.0000
  S   S139      1.0  0.43052  0.96155  0.79204  1.0000
  Fe  Fe70      1.0  0.37585  0.96301  0.88133  1.0000
  S   S140      1.0  0.33700  0.94095  0.88681  1.0000
  S   S141      1.0  0.23330  0.89280  0.56562  1.0000
  Fe  Fe71      1.0  0.24017  0.88115  0.51668  1.0000
  P   P37       1.0  0.22257  0.87789  0.85442  1.0000
  C   C1039     1.0  0.31963  0.93034  0.92265  1.0000
  C   C1040     1.0  0.29599  0.92287  0.92041  1.0000
  C   C1041     1.0  0.28125  0.91297  0.94751  1.0000
  H   H823      1.0  0.30539  0.88363  0.81565  1.0000
  H   H824      1.0  0.24227  0.85043  0.82263  1.0000
  C   C1042     1.0  0.32847  0.92827  0.95266  1.0000
  H   H825      1.0  0.28900  0.92455  0.89747  1.0000
  C   C1043     1.0  0.25960  0.85939  0.91593  1.0000
  H   H826      1.0  0.44738  0.49314  0.49345  1.0000
  H   H827      1.0  0.34659  0.93390  0.95484  1.0000
  H   H828      1.0  0.27064  0.95986  0.88329  1.0000
  C   C1044     1.0  0.23630  0.95950  0.76347  1.0000
  H   H829      1.0  0.26307  0.90699  0.94519  1.0000
  H   H830      1.0  0.31909  0.88821  0.75799  1.0000
  H   H831      1.0  0.45257  0.50474  0.59411  1.0000
  H   H832      1.0  0.45828  0.53212  0.85917  1.0000
  C   C1045     1.0  0.36447  0.94803  0.51389  1.0000
  H   H833      1.0  0.34992  0.94463  0.49870  1.0000
  S   S142      1.0  0.38622  0.97875  0.83118  1.0000
  H   H834      1.0  0.39805  0.96984  0.75441  1.0000
  H   H835      1.0  0.44871  0.50811  0.80895  1.0000
  H   H836      1.0  0.24851  0.97533  0.77503  1.0000
  C   C1046     1.0  0.23831  0.94565  0.90896  1.0000
  C   C1047     1.0  0.24198  0.96728  0.58252  1.0000
  C   C1048     1.0  0.24309  0.84480  0.93814  1.0000
  C   C1049     1.0  0.30673  0.89813  0.80133  1.0000
  H   H837      1.0  0.31547  0.87849  0.49669  1.0000
  H   H838      1.0  0.36923  0.51152  0.89276  1.0000
  C   C1050     1.0  0.34456  0.50229  0.74062  1.0000
  C   C1051     1.0  0.25686  0.88327  0.75385  1.0000
  C   C1052     1.0  0.25427  0.86567  0.77540  1.0000
  H   H839      1.0  0.44385  0.95758  0.95472  1.0000
  C   C1053     1.0  0.27542  0.93829  0.66949  1.0000
  H   H840      1.0  0.28675  0.92434  0.70827  1.0000
  H   H841      1.0  0.27839  0.96631  0.50800  1.0000
  S   S143      1.0  0.23704  0.95288  0.54420  1.0000
  C   C1054     1.0  0.45469  0.97524  0.76527  1.0000
  H   H842      1.0  0.26397  0.92151  0.65949  1.0000
  C   C1055     1.0  0.43253  0.95642  0.63883  1.0000
  H   H843      1.0  0.28780  0.88906  0.63894  1.0000
  C   C1056     1.0  0.31718  0.92265  0.63836  1.0000
  C   C1057     1.0  0.29857  0.90399  0.62432  1.0000
  C   C1058     1.0  0.29417  0.90428  0.59103  1.0000
  C   C1059     1.0  0.30822  0.92326  0.57177  1.0000
  C   C1060     1.0  0.32647  0.94239  0.58589  1.0000
  C   C1061     1.0  0.33121  0.94170  0.61919  1.0000
  P   P38       1.0  0.34553  0.96619  0.56064  1.0000
  C   C1062     1.0  0.36668  0.95803  0.54514  1.0000
  H   H844      1.0  0.22179  0.83155  0.70095  1.0000
  C   C1063     1.0  0.33082  0.97212  0.52789  1.0000
  H   H845      1.0  0.44413  0.94525  0.73414  1.0000
  C   C1064     1.0  0.43807  0.97984  0.63773  1.0000
  H   H846      1.0  0.29504  0.48423  0.78432  1.0000
  C   C1065     1.0  0.40099  0.95365  0.55322  1.0000
  C   C1066     1.0  0.46652  0.96416  0.60713  1.0000
  C   C1067     1.0  0.45553  0.96802  0.97346  1.0000
  C   C1068     1.0  0.22666  0.95826  0.60879  1.0000
  C   C1069     1.0  0.24484  0.86460  0.80663  1.0000
  H   H847      1.0  0.44264  0.93047  0.62433  1.0000
  H   H848      1.0  0.39699  0.50087  0.91826  1.0000
  C   C1070     1.0  0.25003  0.89982  0.76352  1.0000
  C   C1071     1.0  0.44680  0.94859  0.62355  1.0000
  P   P39       1.0  0.32105  0.96427  0.74479  1.0000
  C   C1072     1.0  0.29231  0.97994  0.66686  1.0000
  C   C1073     1.0  0.23774  0.95639  0.72977  1.0000
  C   C1074     1.0  0.23021  0.86304  0.88500  1.0000
  H   H849      1.0  0.28011  0.88956  0.57983  1.0000
  H   H850      1.0  0.30496  0.92279  0.54577  1.0000
  H   H851      1.0  0.34591  0.95569  0.63030  1.0000
  C   C1075     1.0  0.25322  0.86858  0.88951  1.0000
  H   H852      1.0  0.27747  0.86429  0.91995  1.0000
  H   H853      1.0  0.26384  0.88382  0.72953  1.0000
  C   C1076     1.0  0.36475  0.96806  0.75011  1.0000
  H   H854      1.0  0.24245  0.96116  0.92321  1.0000
  C   C1077     1.0  0.44841  0.50039  0.83246  1.0000
  H   H855      1.0  0.30002  0.94645  0.80993  1.0000
  H   H856      1.0  0.41488  0.95518  0.56861  1.0000
  C   C1078     1.0  0.24903  0.92464  0.86877  1.0000
  C   C1079     1.0  0.25413  0.94493  0.88639  1.0000
  C   C1080     1.0  0.22176  0.93622  0.71464  1.0000
  H   H857      1.0  0.35913  0.95968  0.77360  1.0000
  S   S144      1.0  0.27409  0.88040  0.51000  1.0000
  C   C1081     1.0  0.30123  0.91451  0.81563  1.0000
  C   C1082     1.0  0.38682  0.97359  0.73918  1.0000
  C   C1083     1.0  0.23815  0.88130  0.81659  1.0000
  H   H858      1.0  0.26188  0.92410  0.85250  1.0000
  C   C1084     1.0  0.39942  0.94509  0.52136  1.0000
  C   C1085     1.0  0.45402  0.51400  0.86070  1.0000
  C   C1086     1.0  0.31729  0.92010  0.75100  1.0000
  H   H859      1.0  0.32099  0.92221  0.66394  1.0000
  H   H860      1.0  0.46064  0.51543  0.91225  1.0000
  H   H861      1.0  0.41725  0.94433  0.65158  1.0000
  H   H862      1.0  0.29599  0.91285  0.84113  1.0000
  H   H863      1.0  0.38631  0.96692  0.58978  1.0000
  C   C1087     1.0  0.30329  0.96170  0.71004  1.0000
  H   H864      1.0  0.26636  0.88061  0.87339  1.0000
  C   C1088     1.0  0.22950  0.97162  0.63734  1.0000
  H   H865      1.0  0.24814  0.83825  0.95916  1.0000
  C   C1089     1.0  0.31234  0.93699  0.76547  1.0000
  H   H866      1.0  0.36974  0.49057  0.74716  1.0000
  C   C1090     1.0  0.30775  0.96699  0.53137  1.0000
  C   C1091     1.0  0.31445  0.90074  0.76886  1.0000
  C   C1092     1.0  0.22017  0.83929  0.93385  1.0000
  H   H867      1.0  0.26752  0.95694  0.63275  1.0000
  H   H868      1.0  0.34987  0.49250  0.84205  1.0000
  H   H869      1.0  0.25099  0.96985  0.71518  1.0000
  H   H870      1.0  0.32449  0.92250  0.72650  1.0000
  C   C1093     1.0  0.31133  0.48551  0.77626  1.0000
  C   C1094     1.0  0.45542  0.50457  0.89061  1.0000
  Fe  Fe72      1.0  0.41866  0.97562  0.83623  1.0000
  C   C1095     1.0  0.38841  0.49235  0.89593  1.0000
  H   H871      1.0  0.25933  0.85269  0.76776  1.0000
  C   C1096     1.0  0.30377  0.93374  0.79776  1.0000
  C   C1097     1.0  0.22797  0.90498  0.87346  1.0000
  H   H872      1.0  0.31672  0.51098  0.73938  1.0000
  H   H873      1.0  0.29834  0.95954  0.55378  1.0000
  C   C1098     1.0  0.28834  0.93998  0.69720  1.0000
  C   C1099     1.0  0.35339  0.48890  0.75551  1.0000
  C   C1100     1.0  0.27745  0.95826  0.65430  1.0000
  C   C1101     1.0  0.35004  0.97289  0.73074  1.0000
  H   H874      1.0  0.35404  0.51402  0.72103  1.0000
  C   C1102     1.0  0.24066  0.89879  0.79474  1.0000
  C   C1103     1.0  0.36184  0.48746  0.85263  1.0000
  C   C1104     1.0  0.29637  0.97100  0.50549  1.0000
  C   C1105     1.0  0.45703  0.96281  0.73827  1.0000
  H   H875      1.0  0.23489  0.91132  0.80162  1.0000
  C   C1106     1.0  0.38478  0.96025  0.56507  1.0000
  H   H876      1.0  0.41227  0.94048  0.51190  1.0000
  C   C1107     1.0  0.31367  0.91786  0.97955  1.0000
  H   H877      1.0  0.30775  0.96629  0.95651  1.0000
  Fe  Fe73      1.0  0.22092  0.91382  0.53691  1.0000
  H   H878      1.0  0.45903  0.54529  0.58973  1.0000
  C   C1108     1.0  0.37280  0.49835  0.88152  1.0000
  H   H879      1.0  0.46487  0.95753  0.83618  1.0000
  H   H880      1.0  0.45729  0.96602  0.89313  1.0000
  H   H881      1.0  0.22318  0.93409  0.68848  1.0000
  H   H882      1.0  0.22648  0.85855  0.65568  1.0000
  C   C1109     1.0  0.38107  0.94212  0.50180  1.0000
  C   C1110     1.0  0.46050  0.48769  0.49611  1.0000
  H   H883      1.0  0.39725  0.97822  0.97618  1.0000
  C   C1111     1.0  0.30529  0.98169  0.69443  1.0000
  C   C1112     1.0  0.46905  0.51822  0.58620  1.0000
  C   C1113     1.0  0.65728  0.07858  0.00237  1.0000
  H   H884      1.0  0.63976  0.05324  0.10303  1.0000
  C   C1114     1.0  0.48952  0.03598  0.13388  1.0000
  C   C1115     1.0  0.47493  0.02982  0.18967  1.0000
  S   S145      1.0  0.53225  0.01082  0.10312  1.0000
  Fe  Fe74      1.0  0.56841  0.01667  0.09391  1.0000
  S   S146      1.0  0.59481  0.05078  0.07243  1.0000
  C   C1116     1.0  0.69479  0.98884  0.33889  1.0000
  S   S147      1.0  0.52490  0.00547  0.20133  1.0000
  C   C1117     1.0  0.56789  0.00848  0.26757  1.0000
  C   C1118     1.0  0.71393  0.99582  0.39135  1.0000
  H   H885      1.0  0.47605  0.99001  0.12731  1.0000
  H   H886      1.0  0.49741  0.00502  0.04147  1.0000
  C   C1119     1.0  0.49821  0.00387  0.25484  1.0000
  H   H887      1.0  0.51508  0.99714  0.44718  1.0000
  C   C1120     1.0  0.47098  0.02599  0.15592  1.0000
  H   H888      1.0  0.67058  0.05353  0.34827  1.0000
  C   C1121     1.0  0.61125  0.99942  0.41264  1.0000
  C   C1122     1.0  0.62801  0.08291  0.03445  1.0000
  C   C1123     1.0  0.61856  0.06000  0.04495  1.0000
  C   C1124     1.0  0.62857  0.04610  0.03394  1.0000
  C   C1125     1.0  0.64812  0.05549  0.01291  1.0000
  C   C1126     1.0  0.65217  0.06946  0.11340  1.0000
  H   H889      1.0  0.62058  0.09384  0.04276  1.0000
  H   H890      1.0  0.62150  0.02837  0.04196  1.0000
  H   H891      1.0  0.48186  0.42245  0.44930  1.0000
  H   H892      1.0  0.48702  0.03291  0.10779  1.0000
  H   H893      1.0  0.69481  0.05457  0.22349  1.0000
  H   H894      1.0  0.66847  0.01682  0.40975  1.0000
  C   C1127     1.0  0.63383  0.00845  0.42313  1.0000
  H   H895      1.0  0.53261  0.06249  0.18812  1.0000
  H   H896      1.0  0.52597  0.05621  0.12847  1.0000
  C   C1128     1.0  0.48579  0.47005  0.26925  1.0000
  H   H897      1.0  0.68083  0.06609  0.09403  1.0000
  C   C1129     1.0  0.62312  0.99366  0.35835  1.0000
  C   C1130     1.0  0.46992  0.45863  0.01046  1.0000
  H   H898      1.0  0.63809  0.01434  0.44817  1.0000
  C   C1131     1.0  0.58776  0.02073  0.28562  1.0000
  H   H899      1.0  0.69604  0.12862  0.14817  1.0000
  H   H900      1.0  0.48083  0.43773  0.24747  1.0000
  C   C1132     1.0  0.47493  0.45946  0.36220  1.0000
  C   C1133     1.0  0.64562  0.00240  0.36909  1.0000
  H   H901      1.0  0.68678  0.09613  0.35017  1.0000
  H   H902      1.0  0.47831  0.02188  0.00645  1.0000
  H   H903      1.0  0.68821  0.03511  0.31256  1.0000
  H   H904      1.0  0.66504  0.98507  0.02791  1.0000
  C   C1134     1.0  0.51164  0.04926  0.14546  1.0000
  H   H905      1.0  0.70629  0.06251  0.14469  1.0000
  H   H906      1.0  0.62650  0.07795  0.13305  1.0000
  C   C1135     1.0  0.65101  0.00997  0.40140  1.0000
  H   H907      1.0  0.66157  0.02407  0.19524  1.0000
  H   H908      1.0  0.47772  0.00367  0.29701  1.0000
  C   C1136     1.0  0.49870  0.99420  0.22401  1.0000
  C   C1137     1.0  0.56629  0.02134  0.99409  1.0000
  H   H909      1.0  0.68809  0.99492  0.31937  1.0000
  C   C1138     1.0  0.54925  0.01085  0.42727  1.0000
  H   H910      1.0  0.65886  0.00312  0.35246  1.0000
  H   H911      1.0  0.48511  0.47288  0.34485  1.0000
  H   H912      1.0  0.59820  0.99775  0.43025  1.0000
  S   S148      1.0  0.71452  0.06636  0.40772  1.0000
  S   S149      1.0  0.66806  0.06446  0.46423  1.0000
  C   C1139     1.0  0.69101  0.03666  0.22649  1.0000
  C   C1140     1.0  0.67214  0.01946  0.21057  1.0000
  C   C1141     1.0  0.66647  0.99621  0.21508  1.0000
  C   C1142     1.0  0.48577  0.99462  0.02264  1.0000
  C   C1143     1.0  0.69160  0.09775  0.12219  1.0000
  C   C1144     1.0  0.68394  0.11187  0.13892  1.0000
  C   C1145     1.0  0.66054  0.10467  0.14316  1.0000
  C   C1146     1.0  0.64467  0.08344  0.13044  1.0000
  H   H913      1.0  0.60589  0.02200  0.32941  1.0000
  C   C1147     1.0  0.67551  0.07671  0.10876  1.0000
  H   H914      1.0  0.71519  0.03019  0.13312  1.0000
  C   C1148     1.0  0.59065  0.01199  0.31541  1.0000
  H   H915      1.0  0.51373  0.01770  0.26434  1.0000
  C   C1149     1.0  0.68504  0.06407  0.33271  1.0000
  H   H916      1.0  0.60080  0.03712  0.27661  1.0000
  H   H917      1.0  0.70489  0.01987  0.36804  1.0000
  H   H918      1.0  0.65466  0.11568  0.15579  1.0000
  H   H919      1.0  0.56549  0.01527  0.24459  1.0000
  H   H920      1.0  0.55469  0.02774  0.43829  1.0000
  C   C1150     1.0  0.70464  0.03079  0.24669  1.0000
  C   C1151     1.0  0.49704  0.04338  0.20107  1.0000
  C   C1152     1.0  0.47779  0.99596  0.27345  1.0000
  C   C1153     1.0  0.51539  0.05290  0.17905  1.0000
  C   C1154     1.0  0.56441  0.00645  0.40763  1.0000
  C   C1155     1.0  0.57376  0.99070  0.32706  1.0000
  C   C1156     1.0  0.64691  0.09198  0.01323  1.0000
  Fe  Fe75      1.0  0.70621  0.07580  0.45764  1.0000
  Fe  Fe76      1.0  0.53392  0.99506  0.15142  1.0000
  S   S150      1.0  0.57122  0.00461  0.14407  1.0000
  H   H921      1.0  0.57418  0.01873  0.01568  1.0000
  H   H922      1.0  0.53338  0.99299  0.00462  1.0000
  C   C1157     1.0  0.70432  0.00304  0.36649  1.0000
  H   H923      1.0  0.58140  0.02028  0.40312  1.0000
  H   H924      1.0  0.50006  0.04575  0.22716  1.0000
  H   H925      1.0  0.65589  0.04489  0.00462  1.0000
  C   C1158     1.0  0.71433  0.06737  0.29316  1.0000
  H   H926      1.0  0.65370  0.10973  0.00534  1.0000
  C   C1159     1.0  0.47567  0.45127  0.24719  1.0000
  C   C1160     1.0  0.69412  0.08808  0.33374  1.0000
  C   C1161     1.0  0.47254  0.41462  0.47158  1.0000
  C   C1162     1.0  0.69510  0.05373  0.31253  1.0000
  H   H927      1.0  0.70803  0.00195  0.26762  1.0000
  H   H928      1.0  0.48848  0.48143  0.40423  1.0000
  C   C1163     1.0  0.67972  0.99019  0.23545  1.0000
  H   H929      1.0  0.49864  0.47086  0.28609  1.0000
  H   H930      1.0  0.61919  0.98757  0.33333  1.0000
  C   C1164     1.0  0.69868  0.00734  0.25124  1.0000
  C   C1165     1.0  0.47679  0.46430  0.39572  1.0000
  C   C1166     1.0  0.60579  0.99246  0.37991  1.0000
  H   H931      1.0  0.51087  0.07644  0.99075  1.0000
  C   C1167     1.0  0.47486  0.00412  0.00275  1.0000
  H   H932      1.0  0.71252  0.10136  0.04468  1.0000
  H   H933      1.0  0.62060  0.03616  0.47838  1.0000
  C   C1168     1.0  0.52690  0.99364  0.43222  1.0000
  C   C1169     1.0  0.71317  0.10175  0.31443  1.0000
  H   H934      1.0  0.71135  0.10550  0.18589  1.0000
  H   H935      1.0  0.59978  0.98887  0.99847  1.0000
  H   H936      1.0  0.65155  0.98282  0.20333  1.0000
  C   C1170     1.0  0.71782  0.06394  0.12467  1.0000
  C   C1171     1.0  0.55755  0.98450  0.39366  1.0000
  C   C1172     1.0  0.55085  0.98752  0.27930  1.0000
  S   S151      1.0  0.55800  0.98235  0.07017  1.0000
  C   C1173     1.0  0.51691  0.47749  0.59498  1.0000
  H   H937      1.0  0.48507  0.46423  0.62190  1.0000
  C   C1174     1.0  0.53476  0.48094  0.75140  1.0000
  S   S152      1.0  0.56801  0.00217  0.65353  1.0000
  S   S153      1.0  0.53821  0.01620  0.60345  1.0000
  Fe  Fe77      1.0  0.57330  0.01817  0.60357  1.0000
  S   S154      1.0  0.60787  0.04948  0.59434  1.0000
  Fe  Fe78      1.0  0.71023  0.08599  0.95537  1.0000
  S   S155      1.0  0.51724  0.00920  0.69517  1.0000
  C   C1175     1.0  0.63506  0.03388  0.66325  1.0000
  H   H938      1.0  0.49661  0.04521  0.56435  1.0000
  C   C1176     1.0  0.50725  0.06886  0.96647  1.0000
  C   C1177     1.0  0.51567  0.04884  0.92188  1.0000
  C   C1178     1.0  0.49055  0.00790  0.74859  1.0000
  H   H939      1.0  0.47835  0.07537  0.95955  1.0000
  H   H940      1.0  0.50350  0.02543  0.75277  1.0000
  H   H941      1.0  0.68939  0.00996  0.76770  1.0000
  C   C1179     1.0  0.58587  0.08205  0.83017  1.0000
  C   C1180     1.0  0.61488  0.04111  0.52936  1.0000
  C   C1181     1.0  0.62455  0.05307  0.55824  1.0000
  C   C1182     1.0  0.64796  0.06881  0.55827  1.0000
  C   C1183     1.0  0.66169  0.07207  0.53001  1.0000
  C   C1184     1.0  0.50928  0.04955  0.64560  1.0000
  H   H942      1.0  0.59683  0.02932  0.52886  1.0000
  H   H943      1.0  0.65555  0.07847  0.58025  1.0000
  H   H944      1.0  0.67966  0.08413  0.53041  1.0000
  H   H945      1.0  0.48775  0.99940  0.59371  1.0000
  H   H946      1.0  0.50328  0.42314  0.49841  1.0000
  H   H947      1.0  0.62909  0.00716  0.60523  1.0000
  C   C1185     1.0  0.70062  0.99383  0.88636  1.0000
  H   H948      1.0  0.63127  0.01472  0.80226  1.0000
  C   C1186     1.0  0.49569  0.04351  0.61751  1.0000
  C   C1187     1.0  0.69525  0.00910  0.71530  1.0000
  S   S156      1.0  0.68080  0.09209  0.97471  1.0000
  H   H949      1.0  0.60009  0.99548  0.50129  1.0000
  C   C1188     1.0  0.50292  0.47692  0.62137  1.0000
  C   C1189     1.0  0.50542  0.45217  0.85188  1.0000
  C   C1190     1.0  0.48898  0.06833  0.94890  1.0000
  C   C1191     1.0  0.55317  0.05383  0.87623  1.0000
  C   C1192     1.0  0.52060  0.05921  0.95303  1.0000
  H   H950      1.0  0.57103  0.03302  0.87385  1.0000
  C   C1193     1.0  0.65342  0.05370  0.65099  1.0000
  C   C1194     1.0  0.67960  0.04016  0.67091  1.0000
  C   C1195     1.0  0.64239  0.04158  0.92592  1.0000
  H   H951      1.0  0.47228  0.44123  0.76625  1.0000
  H   H952      1.0  0.65023  0.06648  0.63835  1.0000
  C   C1196     1.0  0.70182  0.01335  0.74824  1.0000
  H   H953      1.0  0.59845  0.09293  0.81233  1.0000
  H   H954      1.0  0.51505  0.99931  0.95645  1.0000
  C   C1197     1.0  0.66118  0.02004  0.68305  1.0000
  C   C1198     1.0  0.48417  0.05834  0.91773  1.0000
  C   C1199     1.0  0.64818  0.02467  0.93664  1.0000
  H   H955      1.0  0.65532  0.00148  0.49278  1.0000
  H   H956      1.0  0.61538  0.04891  0.91051  1.0000
  C   C1200     1.0  0.63536  0.00530  0.58130  1.0000
  H   H957      1.0  0.53448  0.05960  0.96730  1.0000
  C   C1201     1.0  0.48561  0.45339  0.86179  1.0000
  C   C1202     1.0  0.60295  0.01267  0.92079  1.0000
  C   C1203     1.0  0.53300  0.01046  0.96024  1.0000
  H   H958      1.0  0.62431  0.00164  0.68813  1.0000
  H   H959      1.0  0.50332  0.01260  0.53585  1.0000
  C   C1204     1.0  0.48480  0.41483  0.49936  1.0000
  H   H960      1.0  0.61781  0.03145  0.65987  1.0000
  C   C1205     1.0  0.49299  0.99540  0.72175  1.0000
  H   H961      1.0  0.48302  0.02852  0.50138  1.0000
  C   C1206     1.0  0.54564  0.02871  0.93874  1.0000
  C   C1207     1.0  0.53004  0.06387  0.58416  1.0000
  C   C1208     1.0  0.54334  0.07011  0.61233  1.0000
  H   H962      1.0  0.50194  0.04371  0.66959  1.0000
  C   C1209     1.0  0.54332  0.00685  0.98779  1.0000
  H   H963      1.0  0.58555  0.00858  0.91508  1.0000
  C   C1210     1.0  0.50638  0.05043  0.58666  1.0000
  S   S157      1.0  0.70340  0.01117  0.92168  1.0000
  C   C1211     1.0  0.51167  0.00919  0.88399  1.0000
  C   C1212     1.0  0.49044  0.99514  0.89872  1.0000
  H   H964      1.0  0.66555  0.03800  0.58352  1.0000
  H   H965      1.0  0.50993  0.46529  0.57497  1.0000
  C   C1213     1.0  0.53296  0.06279  0.64299  1.0000
  H   H966      1.0  0.47017  0.00772  0.79088  1.0000
  C   C1214     1.0  0.49746  0.04867  0.90421  1.0000
  C   C1215     1.0  0.56863  0.04359  0.94583  1.0000
  H   H967      1.0  0.65544  0.05937  0.92398  1.0000
  H   H968      1.0  0.52191  0.46526  0.86004  1.0000
  Fe  Fe79      1.0  0.53172  0.99704  0.65150  1.0000
  H   H969      1.0  0.69807  0.06297  0.75398  1.0000
  H   H970      1.0  0.51939  0.43320  0.82427  1.0000
  C   C1216     1.0  0.57037  0.04833  0.86504  1.0000
  H   H971      1.0  0.53818  0.06888  0.56030  1.0000
  H   H972      1.0  0.56176  0.07985  0.61031  1.0000
  P   P40       1.0  0.53182  0.03498  0.90500  1.0000
  H   H973      1.0  0.49319  0.04065  0.88024  1.0000
  C   C1217     1.0  0.63885  0.01708  0.67918  1.0000
  C   C1218     1.0  0.65194  0.06020  0.50106  1.0000
  C   C1219     1.0  0.49175  0.00200  0.51712  1.0000
  H   H974      1.0  0.48151  0.40250  0.80739  1.0000
  H   H975      1.0  0.68990  0.07230  0.64525  1.0000
  C   C1220     1.0  0.61979  0.03562  0.91820  1.0000
  C   C1221     1.0  0.56872  0.08755  0.84100  1.0000
  C   C1222     1.0  0.47323  0.40417  0.52818  1.0000
  H   H976      1.0  0.65518  0.02516  0.75212  1.0000
  H   H977      1.0  0.49939  0.45962  0.98513  1.0000
  H   H978      1.0  0.66574  0.02939  0.94277  1.0000
  H   H979      1.0  0.48642  0.99917  0.92292  1.0000
  C   C1223     1.0  0.50396  0.43400  0.83197  1.0000
  C   C1224     1.0  0.65580  0.02270  0.56897  1.0000
  H   H980      1.0  0.54332  0.06671  0.66474  1.0000
  C   C1225     1.0  0.47511  0.46463  0.52350  1.0000
  C   C1226     1.0  0.62842  0.04497  0.50081  1.0000
  H   H981      1.0  0.59660  0.05135  0.97872  1.0000
  H   H982      1.0  0.69695  0.04311  0.67379  1.0000
  C   C1227     1.0  0.67569  0.05688  0.65485  1.0000
  C   C1228     1.0  0.55237  0.07348  0.86389  1.0000
  H   H983      1.0  0.57857  0.05862  0.93096  1.0000
  H   H984      1.0  0.53919  0.07800  0.87175  1.0000
  H   H985      1.0  0.56801  0.10268  0.83151  1.0000
  H   H986      1.0  0.52360  0.46273  0.75511  1.0000
  H   H987      1.0  0.70709  0.00899  0.66561  1.0000
  C   C1229     1.0  0.64596  0.00720  0.75914  1.0000
  C   C1230     1.0  0.71189  0.01278  0.69105  1.0000
  C   C1231     1.0  0.63136  0.00178  0.93966  1.0000
  C   C1232     1.0  0.64985  0.00174  0.51777  1.0000
  H   H988      1.0  0.53158  0.01501  0.83898  1.0000
  H   H989      1.0  0.59990  0.05812  0.83360  1.0000
  C   C1233     1.0  0.57893  0.03974  0.97317  1.0000
  C   C1234     1.0  0.48261  0.41671  0.82252  1.0000
  P   P41       1.0  0.66568  0.99809  0.70389  1.0000
  C   C1235     1.0  0.66297  0.02098  0.53717  1.0000
  C   C1236     1.0  0.49477  0.47440  0.50320  1.0000
  H   H990      1.0  0.50803  0.46918  0.50606  1.0000
  C   C1237     1.0  0.58669  0.06245  0.84219  1.0000
  C   C1238     1.0  0.48027  0.01100  0.49741  1.0000
  H   H991      1.0  0.48718  0.46755  0.87754  1.0000
  H   H992      1.0  0.49246  0.47796  0.79749  1.0000
  H   H993      1.0  0.67826  0.03501  0.52701  1.0000
  C   C1239     1.0  0.64761  0.98996  0.74000  1.0000
  C   C1240     1.0  0.47323  0.45700  0.75647  1.0000
  H   H994      1.0  0.56339  0.99563  0.49101  1.0000
  C   C1241     1.0  0.63247  0.00136  0.78760  1.0000
  S   S158      1.0  0.71008  0.07230  0.90469  1.0000
  H   H995      1.0  0.48270  0.40415  0.54963  1.0000
  C   C1242     1.0  0.71654  0.07184  0.75396  1.0000
  H   H996      1.0  0.47331  0.45201  0.54179  1.0000
  C   C1243     1.0  0.62251  0.98576  0.56236  1.0000
  H   H997      1.0  0.63970  0.98240  0.64216  1.0000
  C   C1244     1.0  0.51581  0.00423  0.85168  1.0000
  C   C1245     1.0  0.48476  0.47782  0.77423  1.0000
  C   C1246     1.0  0.71471  0.98638  0.83439  1.0000
  C   C1247     1.0  0.71659  0.00140  0.86064  1.0000
  C   C1248     1.0  0.47160  0.99792  0.77023  1.0000
  C   C1249     1.0  0.60866  0.99551  0.93128  1.0000
  C   C1250     1.0  0.47238  0.98767  0.60659  1.0000
  H   H998      1.0  0.63618  0.98900  0.94844  1.0000
  C   C1251     1.0  0.62983  0.98360  0.53058  1.0000
  S   S159      1.0  0.56217  0.98474  0.57682  1.0000
  C   C1252     1.0  0.48818  0.46756  0.98753  1.0000
  C   C1253     1.0  0.49906  0.98553  0.83470  1.0000
  H   H999      1.0  0.52135  0.48113  0.70432  1.0000
  H   H1000     1.0  0.71902  0.06369  0.80438  1.0000
  H   H1001     1.0  0.71913  0.08402  0.70480  1.0000
  H   H1002     1.0  0.46973  0.05751  0.90436  1.0000
  Fe  Fe80      1.0  0.54029  0.57148  0.37900  1.0000
  S   S160      1.0  0.56188  0.55913  0.40571  1.0000
  S   S161      1.0  0.54339  0.60756  0.38667  1.0000
  Fe  Fe81      1.0  0.51910  0.52729  0.33595  1.0000
  S   S162      1.0  0.54064  0.51289  0.35980  1.0000
  S   S163      1.0  0.49077  0.51160  0.29729  1.0000
  Fe  Fe82      1.0  0.53087  0.52440  0.40742  1.0000
  H   H1003     1.0  0.66587  0.92011  0.04038  1.0000
  Fe  Fe83      1.0  0.56993  0.54929  0.35590  1.0000
  S   S164      1.0  0.60889  0.56444  0.34941  1.0000
  S   S165      1.0  0.50839  0.53741  0.38392  1.0000
  S   S166      1.0  0.54900  0.56274  0.32914  1.0000
  C   C1254     1.0  0.66363  0.56476  0.40712  1.0000
  H   H1004     1.0  0.65488  0.67464  0.42471  1.0000
  S   S167      1.0  0.67430  0.59502  0.22241  1.0000
  Fe  Fe84      1.0  0.52198  0.97553  0.08201  1.0000
  P   P42       1.0  0.69122  0.79357  0.30976  1.0000
  Fe  Fe85      1.0  0.66303  0.91275  0.29054  1.0000
  S   S168      1.0  0.62824  0.89529  0.31383  1.0000
  S   S169      1.0  0.68553  0.95150  0.29865  1.0000
  Fe  Fe86      1.0  0.65178  0.87127  0.24296  1.0000
  S   S170      1.0  0.61611  0.85186  0.26335  1.0000
  S   S171      1.0  0.66787  0.85880  0.20185  1.0000
  Fe  Fe87      1.0  0.61523  0.88617  0.26247  1.0000
  S   S172      1.0  0.58483  0.89195  0.24844  1.0000
  Fe  Fe88      1.0  0.63261  0.86286  0.31293  1.0000
  S   S173      1.0  0.61850  0.83757  0.35600  1.0000
  S   S174      1.0  0.64970  0.90475  0.23898  1.0000
  S   S175      1.0  0.66859  0.88093  0.29275  1.0000
  Fe  Fe89      1.0  0.63923  0.76567  0.05038  1.0000
  S   S176      1.0  0.67417  0.78045  0.02666  1.0000
  S   S177      1.0  0.62527  0.78203  0.08908  1.0000
  Fe  Fe90      1.0  0.62210  0.72002  0.01008  1.0000
  C   C1255     1.0  0.58634  0.58901  0.00315  1.0000
  H   H1005     1.0  0.52864  0.95093  0.38579  1.0000
  Fe  Fe91      1.0  0.67161  0.74485  0.03291  1.0000
  S   S178      1.0  0.69887  0.73360  0.04402  1.0000
  C   C1256     1.0  0.63687  0.70188  0.34253  1.0000
  S   S179      1.0  0.66182  0.78617  0.44190  1.0000
  S   S180      1.0  0.63820  0.73116  0.05968  1.0000
  S   S181      1.0  0.61999  0.75336  0.00278  1.0000
  Fe  Fe92      1.0  0.55906  0.96960  0.12109  1.0000
  S   S182      1.0  0.58202  0.95214  0.12795  1.0000
  C   C1257     1.0  0.54484  0.95883  0.48455  1.0000
  S   S183      1.0  0.49459  0.95860  0.04275  1.0000
  H   H1006     1.0  0.47100  0.94857  0.48307  1.0000
  S   S184      1.0  0.52172  0.95907  0.13097  1.0000
  H   H1007     1.0  0.70247  0.65111  0.02493  1.0000
  C   C1258     1.0  0.66695  0.95299  0.03105  1.0000
  C   C1259     1.0  0.71471  0.69094  0.46003  1.0000
  C   C1260     1.0  0.58539  0.91112  0.21729  1.0000
  C   C1261     1.0  0.56563  0.91360  0.21159  1.0000
  C   C1262     1.0  0.56470  0.92704  0.18531  1.0000
  C   C1263     1.0  0.58349  0.93797  0.16420  1.0000
  C   C1264     1.0  0.60352  0.93614  0.17060  1.0000
  C   C1265     1.0  0.60455  0.92294  0.19709  1.0000
  H   H1008     1.0  0.55074  0.90460  0.22709  1.0000
  H   H1009     1.0  0.54915  0.92823  0.18070  1.0000
  H   H1010     1.0  0.61825  0.94476  0.15480  1.0000
  H   H1011     1.0  0.61987  0.92124  0.20118  1.0000
  C   C1266     1.0  0.65525  0.83851  0.16936  1.0000
  C   C1267     1.0  0.63196  0.82301  0.16887  1.0000
  C   C1268     1.0  0.62314  0.80606  0.14396  1.0000
  C   C1269     1.0  0.63739  0.80433  0.11919  1.0000
  C   C1270     1.0  0.66050  0.82040  0.11894  1.0000
  C   C1271     1.0  0.66938  0.83720  0.14402  1.0000
  H   H1012     1.0  0.62081  0.82376  0.18803  1.0000
  H   H1013     1.0  0.60515  0.79396  0.14419  1.0000
  H   H1014     1.0  0.67167  0.81948  0.09994  1.0000
  H   H1015     1.0  0.68743  0.84894  0.14419  1.0000
  C   C1272     1.0  0.63125  0.82424  0.38046  1.0000
  C   C1273     1.0  0.61751  0.80723  0.40313  1.0000
  C   C1274     1.0  0.62665  0.79581  0.42272  1.0000
  C   C1275     1.0  0.64971  0.80123  0.41978  1.0000
  C   C1276     1.0  0.66354  0.81844  0.39737  1.0000
  C   C1277     1.0  0.65439  0.82989  0.37783  1.0000
  H   H1016     1.0  0.59956  0.80264  0.40522  1.0000
  H   H1017     1.0  0.61579  0.78256  0.43971  1.0000
  H   H1018     1.0  0.68145  0.82296  0.39502  1.0000
  H   H1019     1.0  0.66519  0.84300  0.36066  1.0000
  C   C1278     1.0  0.69416  0.96701  0.33617  1.0000
  H   H1020     1.0  0.61654  0.87667  0.15686  1.0000
  Fe  Fe93      1.0  0.64913  0.76198  0.48626  1.0000
  C   C1279     1.0  0.62289  0.85308  0.07805  1.0000
  C   C1280     1.0  0.61753  0.85880  0.48542  1.0000
  H   H1021     1.0  0.67362  0.68937  0.19525  1.0000
  C   C1281     1.0  0.49735  0.49071  0.47901  1.0000
  H   H1022     1.0  0.70467  0.62304  0.35879  1.0000
  C   C1282     1.0  0.70183  0.72211  0.08183  1.0000
  C   C1283     1.0  0.68313  0.67313  0.35749  1.0000
  C   C1284     1.0  0.47363  0.96604  0.48724  1.0000
  H   H1023     1.0  0.55833  0.88549  0.35589  1.0000
  H   H1024     1.0  0.63563  0.97468  0.07199  1.0000
  H   H1025     1.0  0.54971  0.55902  0.48198  1.0000
  C   C1285     1.0  0.68516  0.56665  0.41374  1.0000
  C   C1286     1.0  0.56094  0.62680  0.41727  1.0000
  C   C1287     1.0  0.57248  0.62009  0.43986  1.0000
  H   H1026     1.0  0.47118  0.95187  0.11026  1.0000
  H   H1027     1.0  0.60070  0.89422  0.42513  1.0000
  C   C1288     1.0  0.57444  0.66390  0.44595  1.0000
  C   C1289     1.0  0.56234  0.64895  0.42011  1.0000
  H   H1028     1.0  0.57150  0.60312  0.43814  1.0000
  H   H1029     1.0  0.68920  0.75529  0.20399  1.0000
  H   H1030     1.0  0.57452  0.68046  0.44867  1.0000
  H   H1031     1.0  0.55338  0.65426  0.40286  1.0000
  C   C1290     1.0  0.62629  0.57447  0.31339  1.0000
  C   C1291     1.0  0.61794  0.56612  0.28218  1.0000
  C   C1292     1.0  0.63279  0.57297  0.25468  1.0000
  C   C1293     1.0  0.65612  0.58855  0.25777  1.0000
  C   C1294     1.0  0.66432  0.59754  0.28884  1.0000
  C   C1295     1.0  0.64956  0.59036  0.31646  1.0000
  H   H1032     1.0  0.60018  0.55377  0.27934  1.0000
  H   H1033     1.0  0.62622  0.56580  0.23086  1.0000
  H   H1034     1.0  0.68217  0.60938  0.29171  1.0000
  H   H1035     1.0  0.65628  0.59696  0.34039  1.0000
  H   H1036     1.0  0.71438  0.87549  0.33730  1.0000
  C   C1296     1.0  0.64527  0.65599  0.42440  1.0000
  C   C1297     1.0  0.60294  0.87911  0.14589  1.0000
  C   C1298     1.0  0.63328  0.94104  0.07987  1.0000
  C   C1299     1.0  0.68794  0.68169  0.29009  1.0000
  H   H1037     1.0  0.70463  0.91913  0.18143  1.0000
  H   H1038     1.0  0.68174  0.66978  0.38349  1.0000
  P   P43       1.0  0.57660  0.97956  0.36608  1.0000
  C   C1300     1.0  0.70310  0.79086  0.27075  1.0000
  C   C1301     1.0  0.64935  0.95334  0.41144  1.0000
  C   C1302     1.0  0.68502  0.75568  0.39220  1.0000
  C   C1303     1.0  0.50426  0.57223  0.45946  1.0000
  H   H1039     1.0  0.68026  0.95784  0.01246  1.0000
  H   H1040     1.0  0.52861  0.95896  0.48117  1.0000
  C   C1304     1.0  0.51964  0.97206  0.41732  1.0000
  C   C1305     1.0  0.67803  0.67779  0.99998  1.0000
  C   C1306     1.0  0.65154  0.66579  0.11417  1.0000
  C   C1307     1.0  0.63821  0.67669  0.10687  1.0000
  C   C1308     1.0  0.62879  0.67417  0.07580  1.0000
  H   H1041     1.0  0.65931  0.66810  0.13798  1.0000
  H   H1042     1.0  0.63549  0.68738  0.12503  1.0000
  H   H1043     1.0  0.61842  0.68254  0.06996  1.0000
  H   H1044     1.0  0.64624  0.59228  0.99208  1.0000
  C   C1309     1.0  0.61424  0.64143  0.33090  1.0000
  C   C1310     1.0  0.61832  0.62699  0.30885  1.0000
  C   C1311     1.0  0.60126  0.61264  0.28744  1.0000
  C   C1312     1.0  0.57990  0.61227  0.28827  1.0000
  C   C1313     1.0  0.57550  0.62604  0.31084  1.0000
  C   C1314     1.0  0.59256  0.64054  0.33214  1.0000
  H   H1045     1.0  0.64319  0.69996  0.31874  1.0000
  C   C1315     1.0  0.56711  0.88479  0.11882  1.0000
  H   H1046     1.0  0.65213  0.67170  0.29067  1.0000
  H   H1047     1.0  0.63447  0.62639  0.30857  1.0000
  H   H1048     1.0  0.60439  0.60129  0.27081  1.0000
  H   H1049     1.0  0.56646  0.60061  0.27235  1.0000
  H   H1050     1.0  0.55855  0.62481  0.31276  1.0000
  H   H1051     1.0  0.58851  0.65045  0.35019  1.0000
  C   C1316     1.0  0.65710  0.68786  0.20266  1.0000
  C   C1317     1.0  0.64227  0.66909  0.22157  1.0000
  C   C1318     1.0  0.62091  0.66697  0.23086  1.0000
  C   C1319     1.0  0.61428  0.68349  0.22092  1.0000
  C   C1320     1.0  0.62907  0.70240  0.20178  1.0000
  C   C1321     1.0  0.65049  0.70435  0.19255  1.0000
  P   P44       1.0  0.61956  0.72267  0.18713  1.0000
  C   C1322     1.0  0.60239  0.71115  0.15099  1.0000
  C   C1323     1.0  0.60353  0.72819  0.21926  1.0000
  C   C1324     1.0  0.58552  0.73314  0.21168  1.0000
  C   C1325     1.0  0.57380  0.73829  0.23664  1.0000
  C   C1326     1.0  0.57994  0.73855  0.26929  1.0000
  C   C1327     1.0  0.59943  0.72617  0.12940  1.0000
  C   C1328     1.0  0.58745  0.71782  0.10031  1.0000
  C   C1329     1.0  0.57833  0.69439  0.09246  1.0000
  C   C1330     1.0  0.58081  0.67921  0.11407  1.0000
  C   C1331     1.0  0.59274  0.68750  0.14328  1.0000
  C   C1332     1.0  0.54601  0.93796  0.48420  1.0000
  H   H1052     1.0  0.64724  0.65603  0.22870  1.0000
  H   H1053     1.0  0.60931  0.65230  0.24529  1.0000
  H   H1054     1.0  0.59742  0.68124  0.22766  1.0000
  C   C1333     1.0  0.60980  0.72879  0.25214  1.0000
  H   H1055     1.0  0.58057  0.73325  0.18657  1.0000
  H   H1056     1.0  0.61361  0.61029  0.37463  1.0000
  H   H1057     1.0  0.57084  0.74258  0.28858  1.0000
  H   H1058     1.0  0.60675  0.74448  0.13470  1.0000
  H   H1059     1.0  0.58580  0.72969  0.08340  1.0000
  H   H1060     1.0  0.56964  0.68805  0.06938  1.0000
  H   H1061     1.0  0.57383  0.66107  0.10775  1.0000
  H   H1062     1.0  0.59469  0.67543  0.15929  1.0000
  H   H1063     1.0  0.65070  0.73629  0.13073  1.0000
  C   C1334     1.0  0.68727  0.89930  0.13902  1.0000
  C   C1335     1.0  0.66018  0.80218  0.27439  1.0000
  C   C1336     1.0  0.67738  0.92650  0.16681  1.0000
  C   C1337     1.0  0.65932  0.92092  0.14526  1.0000
  H   H1064     1.0  0.54878  0.86972  0.16359  1.0000
  H   H1065     1.0  0.58021  0.86398  0.18703  1.0000
  C   C1338     1.0  0.64622  0.78348  0.32671  1.0000
  S   S185      1.0  0.52253  0.50236  0.45409  1.0000
  C   C1339     1.0  0.71279  0.97375  0.38904  1.0000
  H   H1066     1.0  0.64850  0.92931  0.14815  1.0000
  C   C1340     1.0  0.70452  0.68103  0.34224  1.0000
  C   C1341     1.0  0.56861  0.91745  0.33024  1.0000
  C   C1342     1.0  0.70020  0.60811  0.42112  1.0000
  H   H1067     1.0  0.70274  0.94274  0.35986  1.0000
  C   C1343     1.0  0.69793  0.85403  0.48510  1.0000
  H   H1068     1.0  0.61069  0.58924  0.42520  1.0000
  S   S186      1.0  0.59537  0.68204  0.00788  1.0000
  C   C1344     1.0  0.56222  0.93511  0.39007  1.0000
  C   C1345     1.0  0.53483  0.96752  0.39791  1.0000
  H   H1069     1.0  0.52635  0.62991  0.47363  1.0000
  C   C1346     1.0  0.71289  0.70784  0.14133  1.0000
  P   P45       1.0  0.63622  0.66002  0.35862  1.0000
  C   C1347     1.0  0.62041  0.60789  0.42507  1.0000
  H   H1070     1.0  0.67560  0.62114  0.41406  1.0000
  H   H1071     1.0  0.64007  0.76961  0.21657  1.0000
  C   C1348     1.0  0.62619  0.72468  0.37961  1.0000
  C   C1349     1.0  0.61350  0.83566  0.02412  1.0000
  C   C1350     1.0  0.67842  0.60602  0.41472  1.0000
  C   C1351     1.0  0.70929  0.82120  0.32833  1.0000
  C   C1352     1.0  0.56137  0.90328  0.35783  1.0000
  H   H1072     1.0  0.48163  0.50961  0.45690  1.0000
  C   C1353     1.0  0.65508  0.90442  0.12046  1.0000
  H   H1073     1.0  0.58488  0.93262  0.06359  1.0000
  C   C1354     1.0  0.66660  0.67418  0.30535  1.0000
  C   C1355     1.0  0.65863  0.93159  0.04669  1.0000
  H   H1074     1.0  0.62664  0.66063  0.02730  1.0000
  C   C1356     1.0  0.65533  0.65224  0.09049  1.0000
  H   H1075     1.0  0.66608  0.64441  0.09682  1.0000
  C   C1357     1.0  0.56446  0.87472  0.14966  1.0000
  C   C1358     1.0  0.58223  0.87157  0.16294  1.0000
  C   C1359     1.0  0.66357  0.79214  0.30275  1.0000
  C   C1360     1.0  0.59384  0.96243  0.03354  1.0000
  H   H1076     1.0  0.60865  0.82070  0.00832  1.0000
  C   C1361     1.0  0.63173  0.68503  0.36680  1.0000
  Fe  Fe94      1.0  0.71040  0.62315  0.20978  1.0000
  H   H1077     1.0  0.68982  0.68468  0.26386  1.0000
  C   C1362     1.0  0.59791  0.73376  0.27704  1.0000
  C   C1363     1.0  0.63311  0.66125  0.05175  1.0000
  C   C1364     1.0  0.66932  0.89380  0.11725  1.0000
  C   C1365     1.0  0.65557  0.75127  0.14642  1.0000
  H   H1078     1.0  0.62398  0.72558  0.25854  1.0000
  H   H1079     1.0  0.62459  0.74021  0.38504  1.0000
  C   C1366     1.0  0.62962  0.59160  0.99536  1.0000
  C   C1367     1.0  0.64598  0.64969  0.05905  1.0000
  C   C1368     1.0  0.69232  0.87223  0.48393  1.0000
  H   H1080     1.0  0.69778  0.89053  0.13727  1.0000
  C   C1369     1.0  0.60589  0.88969  0.11518  1.0000
  H   H1081     1.0  0.55261  0.90109  0.40912  1.0000
  H   H1082     1.0  0.60267  0.73407  0.30237  1.0000
  C   C1370     1.0  0.62586  0.78482  0.32228  1.0000
  H   H1083     1.0  0.50211  0.95896  0.42060  1.0000
  C   C1371     1.0  0.64350  0.74979  0.17567  1.0000
  C   C1372     1.0  0.66027  0.58441  0.40772  1.0000
  C   C1373     1.0  0.58760  0.89181  0.10132  1.0000
  C   C1374     1.0  0.70906  0.62788  0.05464  1.0000
  P   P46       1.0  0.63215  0.89834  0.09242  1.0000
  H   H1084     1.0  0.66652  0.88112  0.09838  1.0000
  H   H1085     1.0  0.67859  0.68462  0.02439  1.0000
  C   C1375     1.0  0.55372  0.97865  0.30897  1.0000
  C   C1376     1.0  0.64325  0.64382  0.45328  1.0000
  H   H1086     1.0  0.65087  0.65312  0.47559  1.0000
  C   C1377     1.0  0.64184  0.96252  0.06450  1.0000
  C   C1378     1.0  0.55817  0.91210  0.38775  1.0000
  C   C1379     1.0  0.66424  0.83608  0.02041  1.0000
  C   C1380     1.0  0.64133  0.92522  0.07068  1.0000
  H   H1087     1.0  0.55337  0.88742  0.10874  1.0000
  H   H1088     1.0  0.67935  0.96438  0.44101  1.0000
  C   C1381     1.0  0.67369  0.85892  0.03139  1.0000
  H   H1089     1.0  0.59280  0.81485  0.46143  1.0000
  H   H1090     1.0  0.66049  0.82216  0.03759  1.0000
  P   P47       1.0  0.65254  0.63409  0.02711  1.0000
  H   H1091     1.0  0.59795  0.97408  0.05435  1.0000
  C   C1382     1.0  0.59770  0.88156  0.47453  1.0000
  C   C1383     1.0  0.59102  0.80355  0.48166  1.0000
  H   H1092     1.0  0.54020  0.96249  0.31786  1.0000
  H   H1093     1.0  0.56952  0.58798  0.00614  1.0000
  C   C1384     1.0  0.52237  0.61203  0.47751  1.0000
  C   C1385     1.0  0.63433  0.64422  0.39575  1.0000
  H   H1094     1.0  0.56437  0.77401  0.45801  1.0000
  H   H1095     1.0  0.69727  0.75126  0.30005  1.0000
  H   H1096     1.0  0.64957  0.54815  0.40093  1.0000
  S   S187      1.0  0.65365  0.72969  0.48512  1.0000
  H   H1097     1.0  0.58923  0.89904  0.07717  1.0000
  H   H1098     1.0  0.69610  0.72202  0.33820  1.0000
  H   H1099     1.0  0.57444  0.63270  0.00189  1.0000
  C   C1386     1.0  0.58655  0.93896  0.03876  1.0000
  C   C1387     1.0  0.50898  0.59520  0.45493  1.0000
  H   H1100     1.0  0.47856  0.96854  0.18863  1.0000
  C   C1388     1.0  0.67111  0.62348  0.04398  1.0000
  C   C1389     1.0  0.61520  0.94925  0.43986  1.0000
  C   C1390     1.0  0.69487  0.63556  0.03946  1.0000
  H   H1101     1.0  0.71492  0.85678  0.47823  1.0000
  C   C1391     1.0  0.47997  0.49715  0.47540  1.0000
  C   C1392     1.0  0.71503  0.65427  0.44943  1.0000
  C   C1393     1.0  0.63984  0.80354  0.27006  1.0000
  H   H1102     1.0  0.50277  0.60008  0.43342  1.0000
  C   C1394     1.0  0.66180  0.60379  0.06397  1.0000
  C   C1395     1.0  0.69967  0.60831  0.07452  1.0000
  C   C1396     1.0  0.57475  0.78035  0.47966  1.0000
  H   H1103     1.0  0.62416  0.89169  0.02132  1.0000
  C   C1397     1.0  0.62214  0.62000  0.39624  1.0000
  C   C1398     1.0  0.68025  0.79178  0.15654  1.0000
  H   H1104     1.0  0.55997  0.74219  0.23061  1.0000
  C   C1399     1.0  0.70280  0.95933  0.36176  1.0000
  C   C1400     1.0  0.65028  0.96102  0.46971  1.0000
  C   C1401     1.0  0.62452  0.86109  0.45238  1.0000
  C   C1402     1.0  0.67606  0.59627  0.07918  1.0000
  H   H1105     1.0  0.57512  0.54184  0.46989  1.0000
  C   C1403     1.0  0.62626  0.94792  0.41101  1.0000
  H   H1106     1.0  0.67216  0.80633  0.19906  1.0000
  H   H1107     1.0  0.66885  0.58138  0.09518  1.0000
  C   C1404     1.0  0.62658  0.87442  0.06511  1.0000
  H   H1108     1.0  0.62067  0.93707  0.09921  1.0000
  C   C1405     1.0  0.70458  0.84003  0.32476  1.0000
  H   H1109     1.0  0.63857  0.73472  0.33035  1.0000
  H   H1110     1.0  0.61290  0.77900  0.34143  1.0000
  C   C1406     1.0  0.68993  0.77259  0.24957  1.0000
  H   H1111     1.0  0.62463  0.85116  0.10406  1.0000
  H   H1112     1.0  0.64865  0.77668  0.34951  1.0000
  H   H1113     1.0  0.59745  0.94530  0.43872  1.0000
  C   C1407     1.0  0.61851  0.87388  0.43083  1.0000
  C   C1408     1.0  0.62285  0.87592  0.03161  1.0000
  C   C1409     1.0  0.71539  0.69836  0.11157  1.0000
  H   H1114     1.0  0.67252  0.76055  0.25607  1.0000
  H   H1115     1.0  0.57129  0.91065  0.30707  1.0000
  C   C1410     1.0  0.69304  0.73603  0.34724  1.0000
  C   C1411     1.0  0.62273  0.79498  0.29410  1.0000
  C   C1412     1.0  0.70419  0.72390  0.14124  1.0000
  C   C1413     1.0  0.63412  0.72161  0.34894  1.0000
  C   C1414     1.0  0.47932  0.48774  0.26933  1.0000
  C   C1415     1.0  0.61646  0.83383  0.05757  1.0000
  H   H1116     1.0  0.68796  0.72433  0.39733  1.0000
  C   C1416     1.0  0.69119  0.91549  0.16393  1.0000
  C   C1417     1.0  0.68861  0.73740  0.38052  1.0000
  H   H1117     1.0  0.57514  0.90551  0.01635  1.0000
  C   C1418     1.0  0.62272  0.68776  0.39696  1.0000
  C   C1419     1.0  0.66661  0.65392  0.99391  1.0000
  H   H1118     1.0  0.49403  0.55925  0.44175  1.0000
  C   C1420     1.0  0.66394  0.66965  0.33915  1.0000
  H   H1119     1.0  0.69248  0.74363  0.11180  1.0000
  C   C1421     1.0  0.58546  0.65690  0.46905  1.0000
  C   C1422     1.0  0.68972  0.77112  0.33704  1.0000
  H   H1120     1.0  0.70501  0.88921  0.47626  1.0000
  C   C1423     1.0  0.58459  0.63503  0.46559  1.0000
  H   H1121     1.0  0.65802  0.95264  0.38899  1.0000
  H   H1122     1.0  0.68033  0.93892  0.18631  1.0000
  H   H1123     1.0  0.53066  0.92195  0.48018  1.0000
  C   C1424     1.0  0.62731  0.60943  0.01203  1.0000
  C   C1425     1.0  0.69353  0.75273  0.32553  1.0000
  H   H1124     1.0  0.64356  0.59460  0.06851  1.0000
  C   C1426     1.0  0.67380  0.77222  0.13688  1.0000
  H   H1125     1.0  0.62389  0.87541  0.40533  1.0000
  H   H1126     1.0  0.68259  0.77348  0.11378  1.0000
  H   H1127     1.0  0.67737  0.86258  0.05711  1.0000
  C   C1427     1.0  0.56922  0.94936  0.36235  1.0000
  H   H1128     1.0  0.56012  0.94186  0.41351  1.0000
  C   C1428     1.0  0.69930  0.76950  0.22013  1.0000
  H   H1129     1.0  0.66202  0.71827  0.17712  1.0000
  C   C1429     1.0  0.57262  0.94043  0.33246  1.0000
  C   C1430     1.0  0.47848  0.97627  0.21215  1.0000
  H   H1130     1.0  0.71281  0.69892  0.05898  1.0000
  H   H1131     1.0  0.53532  0.97829  0.26539  1.0000
  H   H1132     1.0  0.67373  0.81009  0.25640  1.0000
  C   C1431     1.0  0.60530  0.88431  0.44195  1.0000
  C   C1432     1.0  0.48153  0.97167  0.01820  1.0000
  C   C1433     1.0  0.69840  0.73075  0.11170  1.0000
  C   C1434     1.0  0.58099  0.92376  0.01217  1.0000
  H   H1133     1.0  0.59308  0.62944  0.48317  1.0000
  C   C1435     1.0  0.62717  0.95607  0.46946  1.0000
  H   H1134     1.0  0.63771  0.81207  0.24862  1.0000
  H   H1135     1.0  0.63445  0.85280  0.44307  1.0000
  C   C1436     1.0  0.64955  0.76983  0.19466  1.0000
  C   C1437     1.0  0.59501  0.97073  0.00180  1.0000
  H   H1136     1.0  0.71073  0.60271  0.08683  1.0000
  H   H1137     1.0  0.69021  0.83857  0.31067  1.0000
  H   H1138     1.0  0.61395  0.70988  0.42721  1.0000
  C   C1438     1.0  0.65847  0.96841  0.03984  1.0000
  H   H1139     1.0  0.68168  0.75687  0.41806  1.0000
  H   H1140     1.0  0.62907  0.61035  0.47606  1.0000
  H   H1141     1.0  0.69645  0.62755  0.48507  1.0000
  H   H1142     1.0  0.70257  0.73157  0.16407  1.0000
  H   H1143     1.0  0.61361  0.81740  0.06768  1.0000
  H   H1144     1.0  0.64368  0.58288  0.40168  1.0000
  H   H1145     1.0  0.68327  0.78678  0.38025  1.0000
  C   C1439     1.0  0.68569  0.77252  0.37062  1.0000
  C   C1440     1.0  0.62034  0.70767  0.40349  1.0000
  C   C1441     1.0  0.66787  0.79072  0.18503  1.0000
  H   H1146     1.0  0.61738  0.67458  0.41556  1.0000
  C   C1442     1.0  0.63085  0.61977  0.45361  1.0000
  H   H1147     1.0  0.68779  0.55141  0.41292  1.0000
  C   C1443     1.0  0.66134  0.95989  0.44077  1.0000
  H   H1148     1.0  0.60735  0.79693  0.29144  1.0000
  C   C1444     1.0  0.70344  0.58826  0.42054  1.0000
  H   H1149     1.0  0.61704  0.94300  0.38815  1.0000
  H   H1150     1.0  0.67501  0.97213  0.23970  1.0000
  H   H1151     1.0  0.68506  0.89432  0.01844  1.0000
  H   H1152     1.0  0.69423  0.80806  0.14894  1.0000
  S   S188      1.0  0.71359  0.63832  0.15940  1.0000
  C   C1445     1.0  0.61673  0.85670  0.01112  1.0000
  C   C1446     1.0  0.70690  0.68513  0.30854  1.0000
  C   C1447     1.0  0.67823  0.87684  0.00926  1.0000
  C   C1448     1.0  0.60545  0.60795  0.01576  1.0000
  H   H1153     1.0  0.57865  0.95119  0.31087  1.0000
  H   H1154     1.0  0.60282  0.62111  0.02852  1.0000
  C   C1449     1.0  0.71014  0.70572  0.08194  1.0000
  C   C1450     1.0  0.70157  0.64521  0.47774  1.0000
  C   C1451     1.0  0.51302  0.56608  0.48649  1.0000
  H   H1155     1.0  0.58713  0.88931  0.48304  1.0000
  C   C1452     1.0  0.71831  0.86115  0.33991  1.0000
  C   C1453     1.0  0.70170  0.68191  0.48846  1.0000
  Fe  Fe95      1.0  0.54603  0.57614  0.87832  1.0000
  S   S189      1.0  0.56283  0.55792  0.90445  1.0000
  S   S190      1.0  0.55460  0.61415  0.88529  1.0000
  Fe  Fe96      1.0  0.52245  0.53557  0.82909  1.0000
  S   S191      1.0  0.53870  0.51556  0.85170  1.0000
  S   S192      1.0  0.49937  0.52500  0.78394  1.0000
  Fe  Fe97      1.0  0.52892  0.52576  0.90024  1.0000
  H   H1156     1.0  0.65160  0.81333  0.97898  1.0000
  Fe  Fe98      1.0  0.57092  0.54939  0.85392  1.0000
  S   S193      1.0  0.60732  0.55485  0.84485  1.0000
  S   S194      1.0  0.51136  0.54468  0.87738  1.0000
  S   S195      1.0  0.55547  0.56875  0.82785  1.0000
  C   C1454     1.0  0.51182  0.49291  0.64690  1.0000
  C   C1455     1.0  0.69352  0.90273  0.88072  1.0000
  S   S196      1.0  0.66841  0.59954  0.71761  1.0000
  C   C1456     1.0  0.60039  0.58954  0.64869  1.0000
  P   P48       1.0  0.68077  0.89494  0.94634  1.0000
  Fe  Fe99      1.0  0.66625  0.91023  0.78691  1.0000
  S   S197      1.0  0.63294  0.89487  0.81399  1.0000
  S   S198      1.0  0.69567  0.94544  0.79990  1.0000
  Fe  Fe100     1.0  0.64885  0.87048  0.73543  1.0000
  S   S199      1.0  0.61407  0.85287  0.75950  1.0000
  S   S200      1.0  0.66104  0.85962  0.68813  1.0000
  Fe  Fe101     1.0  0.61685  0.88861  0.76430  1.0000
  S   S201      1.0  0.58851  0.89913  0.75976  1.0000
  Fe  Fe102     1.0  0.63331  0.86071  0.80718  1.0000
  S   S202      1.0  0.61984  0.83550  0.85010  1.0000
  S   S203      1.0  0.65025  0.90583  0.73734  1.0000
  S   S204      1.0  0.66805  0.87640  0.78301  1.0000
  Fe  Fe103     1.0  0.63269  0.75470  0.55730  1.0000
  S   S205      1.0  0.66761  0.77399  0.53433  1.0000
  S   S206      1.0  0.61856  0.76688  0.60113  1.0000
  Fe  Fe104     1.0  0.61985  0.71233  0.51112  1.0000
  H   H1157     1.0  0.66853  0.92653  0.66951  1.0000
  C   C1457     1.0  0.65907  0.83109  0.98736  1.0000
  Fe  Fe105     1.0  0.66879  0.73989  0.53523  1.0000
  S   S207      1.0  0.69888  0.73251  0.54411  1.0000
  C   C1458     1.0  0.65361  0.84645  0.50201  1.0000
  S   S208      1.0  0.66791  0.78697  0.93183  1.0000
  S   S209      1.0  0.63525  0.72143  0.56136  1.0000
  S   S210      1.0  0.61394  0.74389  0.50903  1.0000
  Fe  Fe106     1.0  0.55543  0.96845  0.62678  1.0000
  S   S211      1.0  0.57233  0.94488  0.63187  1.0000
  C   C1459     1.0  0.49211  0.48665  0.96776  1.0000
  H   H1158     1.0  0.66182  0.87074  0.55905  1.0000
  H   H1159     1.0  0.59797  0.91043  0.83317  1.0000
  S   S212      1.0  0.51859  0.96185  0.62776  1.0000
  H   H1160     1.0  0.51434  0.53709  0.63831  1.0000
  C   C1460     1.0  0.64549  0.86454  0.57144  1.0000
  H   H1161     1.0  0.65716  0.91918  0.97691  1.0000
  C   C1461     1.0  0.58545  0.91326  0.72467  1.0000
  C   C1462     1.0  0.59552  0.91246  0.69465  1.0000
  C   C1463     1.0  0.59135  0.92234  0.66668  1.0000
  C   C1464     1.0  0.57771  0.93376  0.66845  1.0000
  C   C1465     1.0  0.56825  0.93525  0.69872  1.0000
  C   C1466     1.0  0.57192  0.92482  0.72662  1.0000
  H   H1162     1.0  0.60592  0.90360  0.69277  1.0000
  H   H1163     1.0  0.59853  0.92086  0.64346  1.0000
  H   H1164     1.0  0.55761  0.94387  0.70046  1.0000
  H   H1165     1.0  0.56405  0.92551  0.74975  1.0000
  C   C1467     1.0  0.64910  0.83337  0.66487  1.0000
  C   C1468     1.0  0.62780  0.81493  0.67238  1.0000
  C   C1469     1.0  0.61886  0.79478  0.65273  1.0000
  C   C1470     1.0  0.63101  0.79269  0.62528  1.0000
  C   C1471     1.0  0.65233  0.81111  0.61778  1.0000
  C   C1472     1.0  0.66130  0.83125  0.63748  1.0000
  H   H1166     1.0  0.61812  0.81623  0.69321  1.0000
  H   H1167     1.0  0.60233  0.78073  0.65878  1.0000
  H   H1168     1.0  0.66190  0.80990  0.59676  1.0000
  H   H1169     1.0  0.67776  0.84536  0.63131  1.0000
  C   C1473     1.0  0.63361  0.82213  0.87214  1.0000
  C   C1474     1.0  0.62182  0.80738  0.89828  1.0000
  C   C1475     1.0  0.63196  0.79636  0.91659  1.0000
  C   C1476     1.0  0.65413  0.80002  0.90903  1.0000
  C   C1477     1.0  0.66588  0.81464  0.88272  1.0000
  C   C1478     1.0  0.65575  0.82573  0.86444  1.0000
  H   H1170     1.0  0.60466  0.80442  0.90437  1.0000
  H   H1171     1.0  0.62260  0.78502  0.93654  1.0000
  H   H1172     1.0  0.68298  0.81751  0.87656  1.0000
  H   H1173     1.0  0.66503  0.83702  0.84440  1.0000
  C   C1479     1.0  0.69665  0.96380  0.83311  1.0000
  H   H1174     1.0  0.61231  0.55900  0.96992  1.0000
  C   C1480     1.0  0.66699  0.95762  0.68445  1.0000
  H   H1175     1.0  0.59362  0.54743  0.57125  1.0000
  C   C1481     1.0  0.62445  0.86137  0.62188  1.0000
  H   H1176     1.0  0.56228  0.96904  0.87807  1.0000
  H   H1177     1.0  0.63637  0.95308  0.73557  1.0000
  C   C1482     1.0  0.58519  0.97934  0.49628  1.0000
  H   H1178     1.0  0.61417  0.85797  0.98520  1.0000
  C   C1483     1.0  0.48640  0.51255  0.57733  1.0000
  C   C1484     1.0  0.52862  0.54369  0.68709  1.0000
  C   C1485     1.0  0.56446  0.97952  0.49022  1.0000
  H   H1179     1.0  0.66042  0.76120  0.60777  1.0000
  H   H1180     1.0  0.55068  0.49435  0.57378  1.0000
  C   C1486     1.0  0.68155  0.83215  0.49496  1.0000
  C   C1487     1.0  0.56739  0.63269  0.91934  1.0000
  C   C1488     1.0  0.56682  0.62414  0.95081  1.0000
  C   C1489     1.0  0.52147  0.95445  0.95331  1.0000
  H   H1181     1.0  0.55088  0.48568  0.79835  1.0000
  C   C1490     1.0  0.58732  0.67214  0.94131  1.0000
  C   C1491     1.0  0.57765  0.65678  0.91482  1.0000
  H   H1182     1.0  0.55874  0.60570  0.95474  1.0000
  H   H1183     1.0  0.69685  0.69271  0.50382  1.0000
  H   H1184     1.0  0.59488  0.69059  0.93749  1.0000
  H   H1185     1.0  0.57800  0.66362  0.89069  1.0000
  C   C1492     1.0  0.62458  0.56934  0.81045  1.0000
  C   C1493     1.0  0.61551  0.57484  0.78314  1.0000
  C   C1494     1.0  0.62924  0.58438  0.75510  1.0000
  C   C1495     1.0  0.65246  0.58961  0.75460  1.0000
  C   C1496     1.0  0.66184  0.58524  0.78256  1.0000
  C   C1497     1.0  0.64785  0.57478  0.81011  1.0000
  H   H1186     1.0  0.59778  0.57116  0.78334  1.0000
  H   H1187     1.0  0.62176  0.58762  0.73363  1.0000
  H   H1188     1.0  0.67959  0.58890  0.78237  1.0000
  H   H1189     1.0  0.65501  0.57051  0.83106  1.0000
  H   H1190     1.0  0.47734  0.95798  0.59484  1.0000
  C   C1498     1.0  0.70186  0.94307  0.94949  1.0000
  H   H1191     1.0  0.68320  0.73289  0.61147  1.0000
  H   H1192     1.0  0.49016  0.55628  0.64837  1.0000
  H   H1193     1.0  0.59704  0.86620  0.52094  1.0000
  C   C1499     1.0  0.56279  0.52812  0.74246  1.0000
  S   S213      1.0  0.51497  0.49661  0.93840  1.0000
  H   H1194     1.0  0.67643  0.95933  0.70672  1.0000
  C   C1500     1.0  0.69513  0.65905  0.49730  1.0000
  H   H1195     1.0  0.49659  0.95382  0.91927  1.0000
  C   C1501     1.0  0.59379  0.54771  0.67601  1.0000
  H   H1196     1.0  0.53951  0.55384  0.73709  1.0000
  H   H1197     1.0  0.51560  0.57310  0.74634  1.0000
  S   S214      1.0  0.50290  0.96721  0.53554  1.0000
  H   H1198     1.0  0.57862  0.61754  0.53639  1.0000
  C   C1502     1.0  0.63559  0.96682  0.74977  1.0000
  C   C1503     1.0  0.69273  0.89009  0.90877  1.0000
  C   C1504     1.0  0.53499  0.50918  0.64679  1.0000
  P   P49       1.0  0.54635  0.52954  0.68029  1.0000
  C   C1505     1.0  0.67395  0.87202  0.97572  1.0000
  C   C1506     1.0  0.50740  0.52953  0.56566  1.0000
  C   C1507     1.0  0.63847  0.73030  0.72511  1.0000
  C   C1508     1.0  0.51561  0.56558  0.72252  1.0000
  C   C1509     1.0  0.66259  0.93901  0.66340  1.0000
  C   C1510     1.0  0.55895  0.55654  0.50191  1.0000
  C   C1511     1.0  0.65943  0.82828  0.50330  1.0000
  H   H1199     1.0  0.65997  0.96622  0.49211  1.0000
  C   C1512     1.0  0.52913  0.55444  0.71722  1.0000
  C   C1513     1.0  0.54899  0.50952  0.62030  1.0000
  H   H1200     1.0  0.68657  0.91491  0.88116  1.0000
  H   H1201     1.0  0.67976  0.66423  0.70798  1.0000
  C   C1514     1.0  0.65202  0.77716  0.74921  1.0000
  C   C1515     1.0  0.65686  0.79889  0.73646  1.0000
  C   C1516     1.0  0.64881  0.81280  0.75251  1.0000
  C   C1517     1.0  0.63578  0.80516  0.78118  1.0000
  C   C1518     1.0  0.63074  0.78354  0.79396  1.0000
  C   C1519     1.0  0.63862  0.76946  0.77788  1.0000
  C   C1520     1.0  0.55233  0.59824  0.57213  1.0000
  H   H1202     1.0  0.65255  0.82952  0.74257  1.0000
  H   H1203     1.0  0.62952  0.81600  0.79342  1.0000
  H   H1204     1.0  0.62074  0.77784  0.81640  1.0000
  H   H1205     1.0  0.63441  0.75267  0.78797  1.0000
  C   C1521     1.0  0.59680  0.69316  0.80151  1.0000
  C   C1522     1.0  0.57592  0.67345  0.80585  1.0000
  C   C1523     1.0  0.57542  0.65314  0.81753  1.0000
  C   C1524     1.0  0.59573  0.65256  0.82537  1.0000
  C   C1525     1.0  0.61671  0.67250  0.82206  1.0000
  C   C1526     1.0  0.61715  0.69263  0.80923  1.0000
  P   P50       1.0  0.64315  0.67224  0.83209  1.0000
  C   C1527     1.0  0.63779  0.64832  0.85890  1.0000
  C   C1528     1.0  0.65521  0.66990  0.79302  1.0000
  C   C1529     1.0  0.64521  0.64893  0.77560  1.0000
  C   C1530     1.0  0.65404  0.64696  0.74505  1.0000
  C   C1531     1.0  0.67268  0.66589  0.73145  1.0000
  C   C1532     1.0  0.68228  0.68696  0.74811  1.0000
  C   C1533     1.0  0.67337  0.68913  0.77852  1.0000
  C   C1534     1.0  0.64669  0.63282  0.85192  1.0000
  C   C1535     1.0  0.64101  0.61362  0.87196  1.0000
  C   C1536     1.0  0.62671  0.60988  0.89920  1.0000
  C   C1537     1.0  0.61874  0.62581  0.90720  1.0000
  C   C1538     1.0  0.62441  0.64506  0.88730  1.0000
  C   C1539     1.0  0.66065  0.69800  0.85526  1.0000
  C   C1540     1.0  0.65043  0.70906  0.87403  1.0000
  C   C1541     1.0  0.66388  0.72906  0.89182  1.0000
  H   H1206     1.0  0.50899  0.54812  0.48979  1.0000
  H   H1207     1.0  0.50065  0.49253  0.66687  1.0000
  C   C1542     1.0  0.68445  0.70658  0.85608  1.0000
  H   H1208     1.0  0.59719  0.70886  0.79227  1.0000
  H   H1209     1.0  0.56010  0.67391  0.80036  1.0000
  H   H1210     1.0  0.55924  0.63787  0.82127  1.0000
  H   H1211     1.0  0.59480  0.63660  0.83450  1.0000
  H   H1212     1.0  0.63322  0.70800  0.80557  1.0000
  H   H1213     1.0  0.63068  0.63400  0.78571  1.0000
  H   H1214     1.0  0.62125  0.92037  0.96405  1.0000
  C   C1543     1.0  0.69444  0.72495  0.61133  1.0000
  C   C1544     1.0  0.70258  0.87500  0.90759  1.0000
  H   H1215     1.0  0.68054  0.70587  0.79026  1.0000
  H   H1216     1.0  0.65764  0.63514  0.83083  1.0000
  H   H1217     1.0  0.64708  0.60116  0.86584  1.0000
  H   H1218     1.0  0.62156  0.59447  0.91384  1.0000
  H   H1219     1.0  0.60770  0.62297  0.92840  1.0000
  H   H1220     1.0  0.61779  0.65704  0.89358  1.0000
  H   H1221     1.0  0.63204  0.70222  0.87528  1.0000
  H   H1222     1.0  0.65592  0.73766  0.90602  1.0000
  H   H1223     1.0  0.59747  0.53621  0.51407  1.0000
  H   H1224     1.0  0.70409  0.90977  0.83023  1.0000
  H   H1225     1.0  0.69261  0.69773  0.84308  1.0000
  H   H1226     1.0  0.63642  0.59936  0.65114  1.0000
  H   H1227     1.0  0.60303  0.60579  0.63815  1.0000
  H   H1228     1.0  0.58356  0.76187  0.55322  1.0000
  H   H1229     1.0  0.57699  0.91982  0.96014  1.0000
  H   H1230     1.0  0.48314  0.49473  0.57825  1.0000
  H   H1231     1.0  0.57393  0.55668  0.97713  1.0000
  C   C1545     1.0  0.62651  0.90952  0.94971  1.0000
  C   C1546     1.0  0.47613  0.49789  0.73158  1.0000
  C   C1547     1.0  0.54382  0.95788  0.95746  1.0000
  C   C1548     1.0  0.64513  0.86991  0.60463  1.0000
  Fe  Fe107     1.0  0.65491  0.76660  0.97951  1.0000
  C   C1549     1.0  0.65417  0.89537  0.93784  1.0000
  C   C1550     1.0  0.58610  0.54363  0.51976  1.0000
  H   H1232     1.0  0.62623  0.67344  0.72511  1.0000
  C   C1551     1.0  0.67678  0.66139  0.93623  1.0000
  C   C1552     1.0  0.70564  0.63113  0.89492  1.0000
  H   H1233     1.0  0.52015  0.52443  0.55758  1.0000
  C   C1553     1.0  0.68798  0.68508  0.94256  1.0000
  H   H1234     1.0  0.60995  0.97368  0.81906  1.0000
  H   H1235     1.0  0.50207  0.98212  0.80949  1.0000
  H   H1236     1.0  0.58123  0.70378  0.71083  1.0000
  H   H1237     1.0  0.58807  0.84056  0.61958  1.0000
  C   C1554     1.0  0.56675  0.93772  0.49011  1.0000
  C   C1555     1.0  0.50154  0.56622  0.69775  1.0000
  C   C1556     1.0  0.61919  0.58590  0.65571  1.0000
  C   C1557     1.0  0.61982  0.88225  0.90548  1.0000
  C   C1558     1.0  0.51474  0.54478  0.66204  1.0000
  H   H1238     1.0  0.54180  0.61953  0.52123  1.0000
  C   C1559     1.0  0.66092  0.76028  0.66032  1.0000
  H   H1239     1.0  0.61361  0.74269  0.71643  1.0000
  H   H1240     1.0  0.68520  0.65217  0.51953  1.0000
  H   H1241     1.0  0.64529  0.87081  0.89785  1.0000
  H   H1242     1.0  0.60934  0.87176  0.88555  1.0000
  H   H1243     1.0  0.59721  0.89669  0.91823  1.0000
  C   C1560     1.0  0.58468  0.63572  0.58210  1.0000
  C   C1561     1.0  0.57712  0.63548  0.61429  1.0000
  C   C1562     1.0  0.55736  0.61653  0.62565  1.0000
  C   C1563     1.0  0.54498  0.59797  0.60465  1.0000
  H   H1244     1.0  0.59980  0.65055  0.57298  1.0000
  H   H1245     1.0  0.58654  0.65008  0.63029  1.0000
  H   H1246     1.0  0.49081  0.57455  0.70220  1.0000
  C   C1564     1.0  0.57482  0.55146  0.66993  1.0000
  C   C1565     1.0  0.58423  0.90858  0.57771  1.0000
  C   C1566     1.0  0.59937  0.89914  0.57934  1.0000
  H   H1247     1.0  0.65751  0.62758  0.95631  1.0000
  C   C1567     1.0  0.57196  0.76535  0.50549  1.0000
  H   H1248     1.0  0.69836  0.74671  0.71026  1.0000
  H   H1249     1.0  0.59162  0.53166  0.68664  1.0000
  H   H1250     1.0  0.66660  0.80520  0.71399  1.0000
  H   H1251     1.0  0.59669  0.88619  0.59760  1.0000
  C   C1568     1.0  0.58382  0.54983  0.55195  1.0000
  C   C1569     1.0  0.53989  0.49387  0.59436  1.0000
  C   C1570     1.0  0.61264  0.95424  0.88863  1.0000
  H   H1252     1.0  0.55559  0.92212  0.90375  1.0000
  C   C1571     1.0  0.69996  0.75090  0.73614  1.0000
  C   C1572     1.0  0.58642  0.95841  0.49680  1.0000
  C   C1573     1.0  0.57251  0.61705  0.56126  1.0000
  C   C1574     1.0  0.71183  0.63130  0.86199  1.0000
  C   C1575     1.0  0.60157  0.68608  0.71810  1.0000
  H   H1253     1.0  0.61294  0.94325  0.78575  1.0000
  C   C1576     1.0  0.59618  0.92071  0.85301  1.0000
  C   C1577     1.0  0.65030  0.93633  0.63475  1.0000
  C   C1578     1.0  0.51394  0.95649  0.92231  1.0000
  H   H1254     1.0  0.57583  0.52739  0.79033  1.0000
  H   H1255     1.0  0.56399  0.57568  0.65058  1.0000
  C   C1579     1.0  0.56405  0.51740  0.77128  1.0000
  C   C1580     1.0  0.49369  0.55810  0.57213  1.0000
  C   C1581     1.0  0.52707  0.58300  0.50883  1.0000
  H   H1256     1.0  0.68889  0.94232  0.93288  1.0000
  C   C1582     1.0  0.70347  0.89987  0.85173  1.0000
  H   H1257     1.0  0.57665  0.93387  0.55585  1.0000
  P   P51       1.0  0.58722  0.96570  0.93472  1.0000
  C   C1583     1.0  0.61587  0.56496  0.66918  1.0000
  C   C1584     1.0  0.57828  0.57241  0.65581  1.0000
  C   C1585     1.0  0.70376  0.72208  0.58167  1.0000
  C   C1586     1.0  0.64188  0.71058  0.72670  1.0000
  H   H1258     1.0  0.63163  0.94569  0.85217  1.0000
  H   H1259     1.0  0.70291  0.86556  0.92903  1.0000
  C   C1587     1.0  0.47377  0.97644  0.88172  1.0000
  H   H1260     1.0  0.57369  0.54646  0.73965  1.0000
  S   S215      1.0  0.71580  0.63883  0.66124  1.0000
  P   P52       1.0  0.53698  0.57434  0.54460  1.0000
  H   H1261     1.0  0.48077  0.51192  0.95730  1.0000
  H   H1262     1.0  0.56996  0.90310  0.59484  1.0000
  C   C1588     1.0  0.64237  0.95225  0.62712  1.0000
  H   H1263     1.0  0.69359  0.72122  0.66383  1.0000
  C   C1589     1.0  0.59115  0.94793  0.90328  1.0000
  C   C1590     1.0  0.61510  0.94062  0.86369  1.0000
  C   C1591     1.0  0.66364  0.84892  0.96514  1.0000
  H   H1264     1.0  0.56022  0.89871  0.85915  1.0000
  H   H1265     1.0  0.52283  0.96333  0.87128  1.0000
  C   C1592     1.0  0.64029  0.88176  0.91245  1.0000
  H   H1266     1.0  0.67007  0.96516  0.90484  1.0000
  H   H1267     1.0  0.69882  0.62448  0.84332  1.0000
  C   C1593     1.0  0.48622  0.49842  0.76194  1.0000
  H   H1268     1.0  0.55155  0.61632  0.65066  1.0000
  H   H1269     1.0  0.65939  0.84468  0.93960  1.0000
  P   P53       1.0  0.62521  0.84195  0.51291  1.0000
  C   C1594     1.0  0.58554  0.77351  0.53325  1.0000
  C   C1595     1.0  0.47600  0.97278  0.71664  1.0000
  H   H1270     1.0  0.68778  0.62389  0.90182  1.0000
  H   H1271     1.0  0.66096  0.87989  0.61751  1.0000
  H   H1272     1.0  0.60662  0.97263  0.57247  1.0000
  C   C1596     1.0  0.61298  0.89622  0.92395  1.0000
  C   C1597     1.0  0.58804  0.92602  0.55525  1.0000
  H   H1273     1.0  0.64665  0.92173  0.61877  1.0000
  C   C1598     1.0  0.71749  0.74972  0.75357  1.0000
  H   H1274     1.0  0.69784  0.75342  0.90566  1.0000
  H   H1275     1.0  0.63054  0.56238  0.67511  1.0000
  C   C1599     1.0  0.57485  0.91415  0.86765  1.0000
  C   C1600     1.0  0.57233  0.92757  0.89279  1.0000
  C   C1601     1.0  0.62503  0.85070  0.55512  1.0000
  C   C1602     1.0  0.50114  0.55585  0.66750  1.0000
  H   H1276     1.0  0.67595  0.65514  0.91139  1.0000
  C   C1603     1.0  0.68043  0.95635  0.85855  1.0000
  H   H1277     1.0  0.63238  0.94995  0.60530  1.0000
  H   H1278     1.0  0.62435  0.86489  0.64791  1.0000
  C   C1604     1.0  0.62053  0.97830  0.79715  1.0000
  H   H1279     1.0  0.49605  0.57558  0.56923  1.0000
  C   C1605     1.0  0.52877  0.96194  0.89534  1.0000
  H   H1280     1.0  0.56713  0.56363  0.58431  1.0000
  C   C1606     1.0  0.60209  0.79657  0.53509  1.0000
  C   C1607     1.0  0.66621  0.64582  0.96181  1.0000
  H   H1281     1.0  0.66657  0.93898  0.85810  1.0000
  H   H1282     1.0  0.61270  0.80241  0.55665  1.0000
  H   H1283     1.0  0.69689  0.71169  0.97935  1.0000
  C   C1608     1.0  0.68467  0.75738  0.75195  1.0000
  H   H1284     1.0  0.58830  0.83139  0.56081  1.0000
  C   C1609     1.0  0.60404  0.84759  0.60592  1.0000
  C   C1610     1.0  0.58901  0.95551  0.97495  1.0000
  P   P54       1.0  0.66218  0.75884  0.72872  1.0000
  C   C1611     1.0  0.60427  0.84241  0.57263  1.0000
  H   H1285     1.0  0.47713  0.51370  0.72180  1.0000
  H   H1286     1.0  0.69663  0.70157  0.73716  1.0000
  C   C1612     1.0  0.53350  0.49158  0.72245  1.0000
  P   P55       1.0  0.61285  0.95798  0.50680  1.0000
  C   C1613     1.0  0.54758  0.51531  0.71763  1.0000
  H   H1287     1.0  0.64666  0.63068  0.73194  1.0000
  C   C1614     1.0  0.65913  0.97373  0.67694  1.0000
  H   H1288     1.0  0.55945  0.74736  0.50393  1.0000
  C   C1615     1.0  0.61046  0.57270  0.98276  1.0000
  C   C1616     1.0  0.62218  0.96111  0.77832  1.0000
  H   H1289     1.0  0.52981  0.58351  0.61393  1.0000
  C   C1617     1.0  0.58609  0.66358  0.97296  1.0000
  C   C1618     1.0  0.51124  0.55252  0.56322  1.0000
  H   H1290     1.0  0.56689  0.52180  0.61949  1.0000
  H   H1291     1.0  0.65870  0.71211  0.73017  1.0000
  C   C1619     1.0  0.55110  0.96520  0.89931  1.0000
  C   C1620     1.0  0.55002  0.49383  0.77578  1.0000
  C   C1621     1.0  0.69556  0.78869  0.68565  1.0000
  C   C1622     1.0  0.67359  0.77005  0.68865  1.0000
  H   H1292     1.0  0.67611  0.76807  0.79852  1.0000
  C   C1623     1.0  0.59812  0.70564  0.71561  1.0000
  H   H1293     1.0  0.62757  0.96970  0.89588  1.0000
  C   C1624     1.0  0.48851  0.97942  0.51212  1.0000
  H   H1294     1.0  0.69936  0.79358  0.60260  1.0000
  H   H1295     1.0  0.63010  0.89975  0.55964  1.0000
  H   H1296     1.0  0.64377  0.74624  0.66169  1.0000
  Fe  Fe108     1.0  0.70672  0.62322  0.71171  1.0000
  C   C1625     1.0  0.53142  0.60603  0.50436  1.0000
  C   C1626     1.0  0.68729  0.76271  0.78555  1.0000
  C   C1627     1.0  0.55631  0.56254  0.53426  1.0000
  C   C1628     1.0  0.61822  0.90692  0.55812  1.0000
  C   C1629     1.0  0.61650  0.72768  0.71898  1.0000
  H   H1297     1.0  0.58731  0.66901  0.71565  1.0000
  C   C1630     1.0  0.60480  0.81184  0.50943  1.0000
  C   C1631     1.0  0.47760  0.49686  0.97153  1.0000
  H   H1298     1.0  0.54910  0.95626  0.98185  1.0000
  C   C1632     1.0  0.47804  0.97166  0.84969  1.0000
  C   C1633     1.0  0.55881  0.96311  0.93040  1.0000
  S   S216      1.0  0.65560  0.73246  0.98373  1.0000
  C   C1634     1.0  0.62346  0.68856  0.72353  1.0000
  H   H1299     1.0  0.71625  0.73341  0.87415  1.0000
  H   H1300     1.0  0.50999  0.95037  0.97432  1.0000
  C   C1635     1.0  0.64693  0.90892  0.95684  1.0000
  C   C1636     1.0  0.62188  0.92410  0.53515  1.0000
  C   C1637     1.0  0.67032  0.76875  0.62949  1.0000
  C   C1638     1.0  0.70193  0.92278  0.96066  1.0000
  H   H1301     1.0  0.69601  0.69712  0.92282  1.0000
  C   C1639     1.0  0.70039  0.71833  0.64101  1.0000
  C   C1640     1.0  0.68759  0.73794  0.89162  1.0000
  C   C1641     1.0  0.58214  0.93197  0.98031  1.0000
  C   C1642     1.0  0.60682  0.93385  0.53354  1.0000
  H   H1302     1.0  0.63668  0.92992  0.51924  1.0000
  C   C1643     1.0  0.69788  0.72669  0.87382  1.0000
  C   C1644     1.0  0.68249  0.97124  0.88507  1.0000
  C   C1645     1.0  0.64653  0.97072  0.64829  1.0000
  C   C1646     1.0  0.56888  0.55912  0.55922  1.0000
  C   C1647     1.0  0.71259  0.88430  0.85041  1.0000
  C   C1648     1.0  0.57582  0.63951  0.97748  1.0000
  H   H1303     1.0  0.68589  0.81801  0.49551  1.0000
  C   C1649     1.0  0.71223  0.87194  0.87837  1.0000
  H   H1304     1.0  0.71730  0.63891  0.94445  1.0000
  C   C1650     1.0  0.60355  0.86860  0.49609  1.0000
  C   C1651     1.0  0.47269  0.54101  0.58362  1.0000
  S   S217      1.0  0.59786  0.67337  0.50478  1.0000
  H   H1305     1.0  0.64697  0.81107  0.51038  1.0000
  H   H1306     1.0  0.70682  0.76586  0.82875  1.0000
  H   H1307     1.0  0.47750  0.96295  0.69607  1.0000
  C   C1652     1.0  0.57365  0.54696  0.49482  1.0000
  C   C1653     1.0  0.69225  0.78710  0.62662  1.0000
  H   H1308     1.0  0.71884  0.98027  0.95010  1.0000
  C   C1654     1.0  0.70484  0.76150  0.80292  1.0000
  C   C1655     1.0  0.67028  0.86851  0.49249  1.0000
  H   H1309     1.0  0.70549  0.79672  0.70723  1.0000
  H   H1310     1.0  0.56732  0.92138  0.49028  1.0000
  C   C1656     1.0  0.68857  0.69327  0.97439  1.0000
  C   C1657     1.0  0.70484  0.79716  0.65472  1.0000
  Fe  Fe109     1.0  0.52661  0.98142  0.57978  1.0000
  C   C1658     1.0  0.71520  0.70821  0.64130  1.0000
  H   H1311     1.0  0.66624  0.88284  0.49159  1.0000
  C   C1659     1.0  0.71838  0.71173  0.58195  1.0000
  C   C1660     1.0  0.71899  0.96469  0.95893  1.0000
  C   C1661     1.0  0.58882  0.57139  0.98671  1.0000
  H   H1312     1.0  0.95294  0.41445  0.09411  1.0000
  S   S218      1.0  0.94650  0.40974  0.34205  1.0000
  H   H1313     1.0  0.76708  0.16063  0.41906  1.0000
  S   S219      1.0  0.95293  0.43402  0.43460  1.0000
  Fe  Fe110     1.0  0.95147  0.37756  0.34473  1.0000
  S   S220      1.0  0.92961  0.33849  0.33739  1.0000
  Fe  Fe111     1.0  0.89693  0.21495  0.17688  1.0000
  S   S221      1.0  0.87918  0.23271  0.15234  1.0000
  S   S222      1.0  0.93531  0.22755  0.16951  1.0000
  Fe  Fe112     1.0  0.85599  0.18965  0.22503  1.0000
  S   S223      1.0  0.83650  0.20693  0.20353  1.0000
  S   S224      1.0  0.84479  0.16417  0.26813  1.0000
  Fe  Fe113     1.0  0.84743  0.19843  0.15450  1.0000
  S   S225      1.0  0.82181  0.18702  0.11216  1.0000
  Fe  Fe114     1.0  0.87023  0.23953  0.20326  1.0000
  S   S226      1.0  0.87724  0.27675  0.21404  1.0000
  S   S227      1.0  0.86579  0.17986  0.17603  1.0000
  S   S228      1.0  0.88886  0.22284  0.22793  1.0000
  C   C1662     1.0  0.72927  0.11711  0.18207  1.0000
  H   H1314     1.0  0.86093  0.21116  0.30643  1.0000
  H   H1315     1.0  0.74041  0.06264  0.33890  1.0000
  S   S229      1.0  0.73735  0.11080  0.45752  1.0000
  S   S230      1.0  0.78669  0.10395  0.00756  1.0000
  Fe  Fe115     1.0  0.74727  0.09964  0.40968  1.0000
  S   S231      1.0  0.75789  0.12366  0.36504  1.0000
  H   H1316     1.0  0.95792  0.46197  0.28598  1.0000
  S   S232      1.0  0.76672  0.08315  0.43353  1.0000
  C   C1663     1.0  0.81247  0.16375  0.08335  1.0000
  C   C1664     1.0  0.82048  0.14723  0.08329  1.0000
  C   C1665     1.0  0.81245  0.12916  0.05992  1.0000
  C   C1666     1.0  0.79618  0.12718  0.03646  1.0000
  C   C1667     1.0  0.78811  0.14366  0.03663  1.0000
  C   C1668     1.0  0.79632  0.16185  0.05977  1.0000
  H   H1317     1.0  0.83288  0.14837  0.10121  1.0000
  H   H1318     1.0  0.81883  0.11654  0.06010  1.0000
  H   H1319     1.0  0.77561  0.14245  0.01885  1.0000
  H   H1320     1.0  0.79010  0.17458  0.05941  1.0000
  C   C1669     1.0  0.82054  0.15332  0.29495  1.0000
  C   C1670     1.0  0.81925  0.13842  0.32057  1.0000
  C   C1671     1.0  0.80022  0.12906  0.34211  1.0000
  C   C1672     1.0  0.78220  0.13455  0.33836  1.0000
  C   C1673     1.0  0.78347  0.14939  0.31270  1.0000
  C   C1674     1.0  0.80245  0.15867  0.29108  1.0000
  H   H1321     1.0  0.83304  0.13399  0.32365  1.0000
  H   H1322     1.0  0.79945  0.11757  0.36153  1.0000
  H   H1323     1.0  0.76968  0.15382  0.30960  1.0000
  H   H1324     1.0  0.80318  0.17005  0.27154  1.0000
  C   C1675     1.0  0.91756  0.32250  0.30094  1.0000
  C   C1676     1.0  0.91178  0.33203  0.27430  1.0000
  C   C1677     1.0  0.89998  0.31793  0.24751  1.0000
  C   C1678     1.0  0.89410  0.29425  0.24676  1.0000
  C   C1679     1.0  0.90061  0.28493  0.27288  1.0000
  C   C1680     1.0  0.91217  0.29896  0.29979  1.0000
  H   H1325     1.0  0.91565  0.35005  0.27487  1.0000
  H   H1326     1.0  0.89493  0.32533  0.22755  1.0000
  H   H1327     1.0  0.89610  0.26674  0.27279  1.0000
  H   H1328     1.0  0.91695  0.29153  0.31989  1.0000
  C   C1681     1.0  0.73934  0.15183  0.08754  1.0000
  H   H1329     1.0  0.82353  0.25333  0.24416  1.0000
  C   C1682     1.0  0.75737  0.04247  0.35024  1.0000
  H   H1330     1.0  0.96165  0.47941  0.13300  1.0000
  H   H1331     1.0  0.75973  0.04782  0.37569  1.0000
  C   C1683     1.0  0.75090  0.02823  0.28479  1.0000
  H   H1332     1.0  0.86937  0.17504  0.02554  1.0000
  H   H1333     1.0  0.96327  0.31173  0.29627  1.0000
  C   C1684     1.0  0.87775  0.19373  0.02752  1.0000
  H   H1334     1.0  0.73252  0.05780  0.19669  1.0000
  H   H1335     1.0  0.77286  0.01997  0.35552  1.0000
  C   C1685     1.0  0.94440  0.22622  0.10278  1.0000
  C   C1686     1.0  0.85216  0.25988  0.41872  1.0000
  H   H1336     1.0  0.92643  0.21455  0.10003  1.0000
  C   C1687     1.0  0.76246  0.13559  0.14650  1.0000
  H   H1337     1.0  0.77233  0.09234  0.28165  1.0000
  C   C1688     1.0  0.72162  0.11972  0.04976  1.0000
  C   C1689     1.0  0.96576  0.30645  0.27189  1.0000
  C   C1690     1.0  0.73720  0.15902  0.02998  1.0000
  C   C1691     1.0  0.74761  0.07115  0.20780  1.0000
  C   C1692     1.0  0.94996  0.41157  0.01549  1.0000
  C   C1693     1.0  0.74819  0.06742  0.07404  1.0000
  H   H1338     1.0  0.87326  0.25210  0.99232  1.0000
  C   C1694     1.0  0.88572  0.31562  0.00764  1.0000
  H   H1339     1.0  0.74417  0.15869  0.11200  1.0000
  C   C1695     1.0  0.86265  0.28038  0.43684  1.0000
  C   C1696     1.0  0.82407  0.13917  0.45216  1.0000
  S   S233      1.0  0.72805  0.01383  0.42523  1.0000
  H   H1340     1.0  0.95306  0.22286  0.05248  1.0000
  C   C1697     1.0  0.90486  0.47527  0.99023  1.0000
  H   H1341     1.0  0.72071  0.12040  0.31624  1.0000
  H   H1342     1.0  0.96734  0.34863  0.09359  1.0000
  H   H1343     1.0  0.91263  0.31819  0.03902  1.0000
  C   C1698     1.0  0.93277  0.39624  0.99504  1.0000
  H   H1344     1.0  0.85360  0.28335  0.45724  1.0000
  C   C1699     1.0  0.74974  0.07334  0.24203  1.0000
  C   C1700     1.0  0.87408  0.20426  0.05534  1.0000
  C   C1701     1.0  0.72751  0.08390  0.10523  1.0000
  H   H1345     1.0  0.93839  0.31476  0.99583  1.0000
  H   H1346     1.0  0.88577  0.18846  0.44241  1.0000
  C   C1702     1.0  0.89488  0.28404  0.01754  1.0000
  H   H1347     1.0  0.73864  0.10252  0.28076  1.0000
  C   C1703     1.0  0.95510  0.27717  0.22968  1.0000
  H   H1348     1.0  0.93907  0.27154  0.27727  1.0000
  H   H1349     1.0  0.74893  0.02290  0.25935  1.0000
  H   H1350     1.0  0.94984  0.27157  0.46076  1.0000
  C   C1704     1.0  0.83731  0.13972  0.42483  1.0000
  H   H1351     1.0  0.80698  0.12516  0.45532  1.0000
  C   C1705     1.0  0.89905  0.30698  0.02295  1.0000
  H   H1352     1.0  0.96760  0.33705  0.43699  1.0000
  C   C1706     1.0  0.72866  0.12790  0.08163  1.0000
  C   C1707     1.0  0.96627  0.46995  0.26322  1.0000
  C   C1708     1.0  0.74287  0.12778  0.20921  1.0000
  C   C1709     1.0  0.95955  0.23099  0.07585  1.0000
  C   C1710     1.0  0.78785  0.10522  0.23479  1.0000
  C   C1711     1.0  0.78553  0.10299  0.20084  1.0000
  H   H1353     1.0  0.75227  0.18571  0.06640  1.0000
  H   H1354     1.0  0.79936  0.11448  0.18500  1.0000
  H   H1355     1.0  0.76371  0.08438  0.16096  1.0000
  H   H1356     1.0  0.81760  0.20316  0.31585  1.0000
  C   C1712     1.0  0.77009  0.09045  0.25534  1.0000
  C   C1713     1.0  0.95210  0.28386  0.26122  1.0000
  H   H1357     1.0  0.76976  0.19861  0.40431  1.0000
  C   C1714     1.0  0.74219  0.04298  0.29654  1.0000
  H   H1358     1.0  0.80641  0.21264  0.26295  1.0000
  C   C1715     1.0  0.95205  0.46165  0.48590  1.0000
  C   C1716     1.0  0.77596  0.14636  0.17362  1.0000
  H   H1359     1.0  0.89226  0.31361  0.44119  1.0000
  C   C1717     1.0  0.76182  0.01984  0.30602  1.0000
  C   C1718     1.0  0.85026  0.26157  0.31731  1.0000
  C   C1719     1.0  0.95516  0.44563  0.11556  1.0000
  H   H1360     1.0  0.83520  0.24721  0.42580  1.0000
  H   H1361     1.0  0.86967  0.15808  0.40002  1.0000
  C   C1720     1.0  0.85512  0.17462  0.47255  1.0000
  C   C1721     1.0  0.76617  0.14251  0.20496  1.0000
  C   C1722     1.0  0.96224  0.43313  0.09427  1.0000
  C   C1723     1.0  0.93417  0.23907  0.48608  1.0000
  H   H1362     1.0  0.89472  0.27049  0.36299  1.0000
  H   H1363     1.0  0.91546  0.45428  0.35059  1.0000
  C   C1724     1.0  0.76485  0.02679  0.33882  1.0000
  H   H1364     1.0  0.94058  0.43669  0.13170  1.0000
  P   P56       1.0  0.72771  0.05340  0.26916  1.0000
  H   H1365     1.0  0.74056  0.17094  0.00992  1.0000
  C   C1725     1.0  0.95083  0.46964  0.36391  1.0000
  C   C1726     1.0  0.89196  0.20729  0.00225  1.0000
  H   H1366     1.0  0.74205  0.03327  0.08787  1.0000
  H   H1367     1.0  0.77042  0.13853  0.12241  1.0000
  C   C1727     1.0  0.74374  0.16729  0.06174  1.0000
  H   H1368     1.0  0.73539  0.12465  0.23356  1.0000
  H   H1369     1.0  0.89469  0.47716  0.04014  1.0000
  H   H1370     1.0  0.83038  0.12618  0.40648  1.0000
  H   H1371     1.0  0.95028  0.42789  0.02179  1.0000
  H   H1372     1.0  0.94680  0.27754  0.14461  1.0000
  C   C1728     1.0  0.88468  0.22831  0.05810  1.0000
  H   H1373     1.0  0.80013  0.15311  0.41037  1.0000
  Fe  Fe116     1.0  0.73310  0.05053  0.43461  1.0000
  C   C1729     1.0  0.87187  0.21169  0.32625  1.0000
  C   C1730     1.0  0.72602  0.13528  0.02408  1.0000
  C   C1731     1.0  0.78310  0.17432  0.41007  1.0000
  H   H1374     1.0  0.83161  0.19923  0.46121  1.0000
  H   H1375     1.0  0.88315  0.22622  0.40664  1.0000
  H   H1376     1.0  0.86293  0.19377  0.07487  1.0000
  C   C1732     1.0  0.90269  0.23139  0.00501  1.0000
  H   H1377     1.0  0.79408  0.15762  0.17024  1.0000
  C   C1733     1.0  0.95280  0.23546  0.13365  1.0000
  H   H1378     1.0  0.76010  0.06888  0.05450  1.0000
  H   H1379     1.0  0.80354  0.11833  0.24520  1.0000
  C   C1734     1.0  0.88570  0.27302  0.38372  1.0000
  H   H1380     1.0  0.86278  0.27560  0.33153  1.0000
  C   C1735     1.0  0.88781  0.20347  0.32033  1.0000
  H   H1381     1.0  0.94885  0.25857  0.03302  1.0000
  C   C1736     1.0  0.78461  0.19568  0.40162  1.0000
  C   C1737     1.0  0.80497  0.21289  0.38860  1.0000
  C   C1738     1.0  0.84359  0.26681  0.28750  1.0000
  H   H1382     1.0  0.88886  0.19675  0.29629  1.0000
  Fe  Fe117     1.0  0.96581  0.42100  0.39001  1.0000
  H   H1383     1.0  0.80436  0.21492  0.46961  1.0000
  C   C1739     1.0  0.88444  0.22006  0.38242  1.0000
  C   C1740     1.0  0.93396  0.25734  0.46875  1.0000
  C   C1741     1.0  0.86846  0.17498  0.44523  1.0000
  C   C1742     1.0  0.81846  0.22631  0.27830  1.0000
  H   H1384     1.0  0.85113  0.28453  0.27909  1.0000
  H   H1385     1.0  0.83642  0.18335  0.38823  1.0000
  H   H1386     1.0  0.94455  0.25960  0.22152  1.0000
  H   H1387     1.0  0.80568  0.22913  0.38117  1.0000
  C   C1743     1.0  0.82490  0.22101  0.30824  1.0000
  C   C1744     1.0  0.76540  0.08604  0.18734  1.0000
  C   C1745     1.0  0.89270  0.23907  0.47256  1.0000
  C   C1746     1.0  0.80190  0.17014  0.40540  1.0000
  C   C1747     1.0  0.95459  0.27453  0.01957  1.0000
  C   C1748     1.0  0.87703  0.26987  0.99679  1.0000
  C   C1749     1.0  0.89944  0.24206  0.03325  1.0000
  H   H1388     1.0  0.75147  0.10121  0.06570  1.0000
  P   P57       1.0  0.91267  0.27316  0.03650  1.0000
  C   C1750     1.0  0.91641  0.28037  0.07968  1.0000
  S   S234      1.0  0.96713  0.38711  0.39481  1.0000
  C   C1751     1.0  0.94057  0.28541  0.01680  1.0000
  C   C1752     1.0  0.82794  0.24920  0.26782  1.0000
  H   H1389     1.0  0.77673  0.15069  0.22596  1.0000
  P   P58       1.0  0.84975  0.23096  0.36574  1.0000
  C   C1753     1.0  0.94982  0.37037  0.99553  1.0000
  C   C1754     1.0  0.90189  0.28743  0.09657  1.0000
  C   C1755     1.0  0.90438  0.29196  0.13024  1.0000
  C   C1756     1.0  0.92092  0.28890  0.14749  1.0000
  C   C1757     1.0  0.93484  0.28114  0.13110  1.0000
  C   C1758     1.0  0.93267  0.27693  0.09743  1.0000
  C   C1759     1.0  0.74311  0.08572  0.08031  1.0000
  C   C1760     1.0  0.87022  0.22028  0.35732  1.0000
  C   C1761     1.0  0.74610  0.05058  0.32926  1.0000
  C   C1762     1.0  0.86345  0.25628  0.39152  1.0000
  H   H1390     1.0  0.91281  0.30688  0.39435  1.0000
  C   C1763     1.0  0.85946  0.15769  0.42128  1.0000
  C   C1764     1.0  0.82412  0.20897  0.38445  1.0000
  H   H1391     1.0  0.91318  0.27160  0.44869  1.0000
  C   C1765     1.0  0.73890  0.12140  0.15042  1.0000
  C   C1766     1.0  0.88445  0.29735  0.42801  1.0000
  C   C1767     1.0  0.90050  0.21200  0.37634  1.0000
  H   H1392     1.0  0.91441  0.19720  0.34046  1.0000
  C   C1768     1.0  0.90214  0.20365  0.34528  1.0000
  C   C1769     1.0  0.82237  0.18733  0.39260  1.0000
  C   C1770     1.0  0.72339  0.09149  0.29437  1.0000
  H   H1393     1.0  0.88124  0.23603  0.07969  1.0000
  H   H1394     1.0  0.88811  0.28870  0.08427  1.0000
  H   H1395     1.0  0.89285  0.29686  0.14344  1.0000
  H   H1396     1.0  0.92218  0.29152  0.17382  1.0000
  H   H1397     1.0  0.88894  0.33328  0.01207  1.0000
  H   H1398     1.0  0.94334  0.27037  0.08572  1.0000
  H   H1399     1.0  0.87687  0.23949  0.46715  1.0000
  C   C1771     1.0  0.84110  0.23854  0.32780  1.0000
  C   C1772     1.0  0.89604  0.29357  0.40162  1.0000
  H   H1400     1.0  0.91164  0.21218  0.39567  1.0000
  H   H1401     1.0  0.76772  0.00776  0.29715  1.0000
  H   H1402     1.0  0.94878  0.45497  0.37830  1.0000
  C   C1773     1.0  0.93200  0.46927  0.34825  1.0000
  C   C1774     1.0  0.72292  0.04566  0.11833  1.0000
  C   C1775     1.0  0.73805  0.04738  0.09291  1.0000
  C   C1776     1.0  0.91325  0.25731  0.46192  1.0000
  C   C1777     1.0  0.96701  0.46971  0.11630  1.0000
  P   P59       1.0  0.72175  0.10777  0.11505  1.0000
  H   H1403     1.0  0.72054  0.12892  0.99956  1.0000
  C   C1778     1.0  0.83276  0.15674  0.47558  1.0000
  C   C1779     1.0  0.94868  0.30602  0.99883  1.0000
  C   C1780     1.0  0.83120  0.20702  0.48454  1.0000
  C   C1781     1.0  0.96474  0.45983  0.45893  1.0000
  H   H1404     1.0  0.93522  0.45603  0.99778  1.0000
  C   C1782     1.0  0.95286  0.46809  0.99305  1.0000
  Fe  Fe118     1.0  0.75537  0.09271  0.48149  1.0000
  S   S235      1.0  0.72349  0.05845  0.48452  1.0000
  H   H1405     1.0  0.89562  0.45661  0.98902  1.0000
  H   H1406     1.0  0.92432  0.32578  0.48716  1.0000
  C   C1783     1.0  0.96689  0.38554  0.01633  1.0000
  C   C1784     1.0  0.96726  0.40643  0.02612  1.0000
  H   H1407     1.0  0.72969  0.02493  0.78207  1.0000
  S   S236      1.0  0.94367  0.41783  0.84814  1.0000
  C   C1785     1.0  0.73193  0.08224  0.59367  1.0000
  S   S237      1.0  0.94876  0.44053  0.93951  1.0000
  Fe  Fe119     1.0  0.94671  0.38460  0.85002  1.0000
  S   S238      1.0  0.91908  0.34730  0.84266  1.0000
  Fe  Fe120     1.0  0.90184  0.21863  0.67627  1.0000
  S   S239      1.0  0.88639  0.23862  0.65193  1.0000
  S   S240      1.0  0.93770  0.22340  0.66410  1.0000
  Fe  Fe121     1.0  0.86212  0.19798  0.72718  1.0000
  S   S241      1.0  0.84494  0.21778  0.70619  1.0000
  S   S242      1.0  0.85146  0.17478  0.77262  1.0000
  Fe  Fe122     1.0  0.85274  0.20636  0.65702  1.0000
  S   S243      1.0  0.82669  0.19546  0.61536  1.0000
  Fe  Fe123     1.0  0.88029  0.24797  0.70320  1.0000
  S   S244      1.0  0.89377  0.28674  0.71161  1.0000
  S   S245      1.0  0.86870  0.18550  0.67820  1.0000
  S   S246      1.0  0.89691  0.22898  0.72734  1.0000
  C   C1786     1.0  0.95567  0.23859  0.63044  1.0000
  C   C1787     1.0  0.95779  0.46403  0.75494  1.0000
  C   C1788     1.0  0.73200  0.06781  0.61868  1.0000
  S   S247      1.0  0.74551  0.11586  0.94841  1.0000
  S   S248      1.0  0.77988  0.10460  0.52530  1.0000
  Fe  Fe124     1.0  0.74675  0.09979  0.89970  1.0000
  S   S249      1.0  0.75729  0.12154  0.85262  1.0000
  C   C1789     1.0  0.74127  0.02584  0.73227  1.0000
  S   S250      1.0  0.76094  0.07703  0.92022  1.0000
  C   C1790     1.0  0.81316  0.16959  0.59154  1.0000
  C   C1791     1.0  0.79840  0.16848  0.56620  1.0000
  C   C1792     1.0  0.78792  0.14877  0.54590  1.0000
  C   C1793     1.0  0.79187  0.12969  0.55086  1.0000
  C   C1794     1.0  0.80614  0.13054  0.57676  1.0000
  C   C1795     1.0  0.81668  0.15030  0.59700  1.0000
  H   H1408     1.0  0.79511  0.18303  0.56208  1.0000
  H   H1409     1.0  0.77690  0.14840  0.52631  1.0000
  H   H1410     1.0  0.80922  0.11586  0.58102  1.0000
  H   H1411     1.0  0.82771  0.15070  0.61660  1.0000
  C   C1796     1.0  0.82500  0.16009  0.79425  1.0000
  C   C1797     1.0  0.80559  0.16241  0.78619  1.0000
  C   C1798     1.0  0.78511  0.15049  0.80433  1.0000
  C   C1799     1.0  0.78369  0.13612  0.83074  1.0000
  C   C1800     1.0  0.80303  0.13363  0.83857  1.0000
  C   C1801     1.0  0.82353  0.14558  0.82047  1.0000
  H   H1412     1.0  0.80635  0.17339  0.76604  1.0000
  H   H1413     1.0  0.77024  0.15247  0.79796  1.0000
  H   H1414     1.0  0.80222  0.12251  0.85857  1.0000
  H   H1415     1.0  0.83834  0.14349  0.82681  1.0000
  C   C1802     1.0  0.91398  0.33042  0.80631  1.0000
  C   C1803     1.0  0.89928  0.30653  0.80778  1.0000
  C   C1804     1.0  0.89376  0.29266  0.77930  1.0000
  C   C1805     1.0  0.90239  0.30271  0.74880  1.0000
  C   C1806     1.0  0.91745  0.32650  0.74742  1.0000
  C   C1807     1.0  0.92347  0.34025  0.77602  1.0000
  H   H1416     1.0  0.89174  0.29878  0.83098  1.0000
  H   H1417     1.0  0.88202  0.27444  0.78073  1.0000
  H   H1418     1.0  0.92415  0.33441  0.72395  1.0000
  H   H1419     1.0  0.93476  0.35858  0.77445  1.0000
  C   C1808     1.0  0.95769  0.32973  0.88156  1.0000
  H   H1420     1.0  0.82890  0.23540  0.56747  1.0000
  H   H1421     1.0  0.75900  0.03225  0.73894  1.0000
  C   C1809     1.0  0.72860  0.08354  0.72595  1.0000
  H   H1422     1.0  0.93514  0.26555  0.68865  1.0000
  H   H1423     1.0  0.75006  0.98310  0.98580  1.0000
  C   C1810     1.0  0.96162  0.25372  0.57488  1.0000
  H   H1424     1.0  0.82674  0.22212  0.77024  1.0000
  H   H1425     1.0  0.89187  0.21843  0.56310  1.0000
  H   H1426     1.0  0.94646  0.44996  0.77045  1.0000
  C   C1811     1.0  0.83546  0.18625  0.96181  1.0000
  C   C1812     1.0  0.94711  0.24364  0.60212  1.0000
  C   C1813     1.0  0.94925  0.28188  0.69561  1.0000
  H   H1427     1.0  0.92924  0.23918  0.60082  1.0000
  H   H1428     1.0  0.76116  0.08468  0.80482  1.0000
  H   H1429     1.0  0.85588  0.21952  0.55970  1.0000
  H   H1430     1.0  0.91825  0.47826  0.94152  1.0000
  H   H1431     1.0  0.91502  0.26303  0.56328  1.0000
  H   H1432     1.0  0.94300  0.35752  0.53065  1.0000
  H   H1433     1.0  0.92793  0.27601  0.94330  1.0000
  H   H1434     1.0  0.96668  0.21472  0.80420  1.0000
  C   C1814     1.0  0.94538  0.48135  0.86110  1.0000
  C   C1815     1.0  0.72830  0.07217  0.78231  1.0000
  H   H1435     1.0  0.88096  0.26477  0.54125  1.0000
  C   C1816     1.0  0.73483  0.02126  0.69951  1.0000
  H   H1436     1.0  0.95186  0.38055  0.70049  1.0000
  C   C1817     1.0  0.94463  0.44701  0.65342  1.0000
  H   H1437     1.0  0.74587  0.13178  0.73913  1.0000
  C   C1818     1.0  0.91706  0.27678  0.54675  1.0000
  C   C1819     1.0  0.93893  0.29377  0.53831  1.0000
  H   H1438     1.0  0.74759  0.02400  0.68073  1.0000
  C   C1820     1.0  0.89789  0.27771  0.53425  1.0000
  C   C1821     1.0  0.94177  0.31203  0.51769  1.0000
  H   H1439     1.0  0.95460  0.25647  0.55261  1.0000
  H   H1440     1.0  0.92816  0.44439  0.66284  1.0000
  H   H1441     1.0  0.91349  0.24172  0.98524  1.0000
  C   C1822     1.0  0.84504  0.21862  0.53960  1.0000
  C   C1823     1.0  0.95957  0.29556  0.86179  1.0000
  C   C1824     1.0  0.81588  0.21619  0.48905  1.0000
  C   C1825     1.0  0.95191  0.23733  0.94254  1.0000
  H   H1442     1.0  0.74284  0.06594  0.66739  1.0000
  H   H1443     1.0  0.72465  0.07507  0.57006  1.0000
  H   H1444     1.0  0.93310  0.46837  0.84511  1.0000
  C   C1826     1.0  0.86193  0.16104  0.54542  1.0000
  C   C1827     1.0  0.86648  0.15220  0.57387  1.0000
  C   C1828     1.0  0.87999  0.16713  0.59828  1.0000
  C   C1829     1.0  0.88901  0.19094  0.59423  1.0000
  C   C1830     1.0  0.88454  0.19990  0.56579  1.0000
  C   C1831     1.0  0.94848  0.30939  0.86324  1.0000
  H   H1445     1.0  0.85924  0.13370  0.57714  1.0000
  H   H1446     1.0  0.88341  0.16030  0.62044  1.0000
  H   H1447     1.0  0.89947  0.20239  0.61330  1.0000
  C   C1832     1.0  0.91363  0.22064  0.49644  1.0000
  C   C1833     1.0  0.75223  0.10124  0.65396  1.0000
  H   H1448     1.0  0.94659  0.39629  0.51958  1.0000
  P   P60       1.0  0.76778  0.11329  0.69130  1.0000
  C   C1834     1.0  0.75258  0.09542  0.72591  1.0000
  C   C1835     1.0  0.79615  0.11572  0.68680  1.0000
  C   C1836     1.0  0.80156  0.10466  0.66083  1.0000
  C   C1837     1.0  0.82359  0.10681  0.65750  1.0000
  C   C1838     1.0  0.84035  0.11983  0.68013  1.0000
  C   C1839     1.0  0.83515  0.13095  0.70587  1.0000
  C   C1840     1.0  0.81329  0.12928  0.70886  1.0000
  C   C1841     1.0  0.76423  0.09547  0.75448  1.0000
  H   H1449     1.0  0.85132  0.14891  0.52724  1.0000
  H   H1450     1.0  0.92194  0.31048  0.93462  1.0000
  H   H1451     1.0  0.73077  0.01858  0.86145  1.0000
  C   C1842     1.0  0.77062  0.14186  0.69907  1.0000
  C   C1843     1.0  0.78617  0.16064  0.68053  1.0000
  C   C1844     1.0  0.78823  0.18273  0.68597  1.0000
  C   C1845     1.0  0.77540  0.18643  0.71069  1.0000
  C   C1846     1.0  0.76022  0.16794  0.72975  1.0000
  C   C1847     1.0  0.75771  0.14571  0.72390  1.0000
  C   C1848     1.0  0.86811  0.30143  0.98686  1.0000
  H   H1452     1.0  0.88570  0.29598  0.50304  1.0000
  H   H1453     1.0  0.78903  0.09465  0.64275  1.0000
  H   H1454     1.0  0.82767  0.09843  0.63725  1.0000
  H   H1455     1.0  0.85743  0.12152  0.67762  1.0000
  H   H1456     1.0  0.84818  0.14122  0.72331  1.0000
  H   H1457     1.0  0.80985  0.13863  0.72842  1.0000
  H   H1458     1.0  0.78258  0.10507  0.75587  1.0000
  C   C1849     1.0  0.93282  0.37577  0.98475  1.0000
  H   H1459     1.0  0.74243  0.11728  0.57888  1.0000
  H   H1460     1.0  0.86305  0.21923  0.94992  1.0000
  H   H1461     1.0  0.77728  0.20363  0.71506  1.0000
  H   H1462     1.0  0.75040  0.17079  0.74916  1.0000
  C   C1850     1.0  0.75210  0.08388  0.78249  1.0000
  C   C1851     1.0  0.82602  0.22464  0.79637  1.0000
  C   C1852     1.0  0.80846  0.22849  0.80984  1.0000
  C   C1853     1.0  0.80723  0.23122  0.84366  1.0000
  C   C1854     1.0  0.82359  0.23016  0.86401  1.0000
  C   C1855     1.0  0.84143  0.22651  0.85061  1.0000
  C   C1856     1.0  0.84243  0.22356  0.81659  1.0000
  P   P61       1.0  0.86163  0.22402  0.87764  1.0000
  C   C1857     1.0  0.87962  0.25118  0.89747  1.0000
  C   C1858     1.0  0.84479  0.20138  0.90636  1.0000
  C   C1859     1.0  0.84924  0.20382  0.94011  1.0000
  C   C1860     1.0  0.84563  0.20776  0.51006  1.0000
  C   C1861     1.0  0.81719  0.16619  0.95001  1.0000
  C   C1862     1.0  0.81247  0.16378  0.91657  1.0000
  C   C1863     1.0  0.82616  0.18128  0.89485  1.0000
  C   C1864     1.0  0.89826  0.25320  0.91595  1.0000
  H   H1463     1.0  0.80296  0.23328  0.52263  1.0000
  C   C1865     1.0  0.96420  0.46450  0.96583  1.0000
  C   C1866     1.0  0.89189  0.29219  0.90561  1.0000
  C   C1867     1.0  0.87668  0.27092  0.89212  1.0000
  C   C1868     1.0  0.88078  0.21668  0.85402  1.0000
  C   C1869     1.0  0.89838  0.23385  0.83540  1.0000
  C   C1870     1.0  0.90967  0.20564  0.81457  1.0000
  C   C1871     1.0  0.89237  0.18854  0.83327  1.0000
  C   C1872     1.0  0.87794  0.19398  0.85293  1.0000
  H   H1464     1.0  0.79570  0.22913  0.79406  1.0000
  H   H1465     1.0  0.79341  0.23387  0.85414  1.0000
  H   H1466     1.0  0.82218  0.23186  0.89024  1.0000
  H   H1467     1.0  0.85545  0.21993  0.80545  1.0000
  C   C1873     1.0  0.75216  0.11560  0.62857  1.0000
  C   C1874     1.0  0.72475  0.02174  0.75660  1.0000
  H   H1468     1.0  0.83871  0.18815  0.98788  1.0000
  H   H1469     1.0  0.79807  0.14835  0.90746  1.0000
  H   H1470     1.0  0.82209  0.17913  0.86902  1.0000
  H   H1471     1.0  0.90129  0.23836  0.91930  1.0000
  C   C1875     1.0  0.92248  0.31233  0.50408  1.0000
  C   C1876     1.0  0.95604  0.36878  0.51372  1.0000
  C   C1877     1.0  0.81514  0.22658  0.51882  1.0000
  H   H1472     1.0  0.86314  0.27023  0.87680  1.0000
  H   H1473     1.0  0.90051  0.25136  0.83519  1.0000
  H   H1474     1.0  0.88948  0.17080  0.83144  1.0000
  H   H1475     1.0  0.86422  0.18027  0.86629  1.0000
  C   C1878     1.0  0.90060  0.29536  0.51272  1.0000
  H   H1476     1.0  0.94613  0.42120  0.68422  1.0000
  C   C1879     1.0  0.94879  0.47404  0.73254  1.0000
  H   H1477     1.0  0.84999  0.26753  0.96556  1.0000
  H   H1478     1.0  0.76042  0.13416  0.63124  1.0000
  H   H1479     1.0  0.93378  0.22843  0.94764  1.0000
  C   C1880     1.0  0.91278  0.22833  0.81579  1.0000
  H   H1480     1.0  0.92019  0.20114  0.79838  1.0000
  C   C1881     1.0  0.87089  0.18503  0.54107  1.0000
  C   C1882     1.0  0.82981  0.22792  0.54399  1.0000
  H   H1481     1.0  0.79990  0.19703  0.67102  1.0000
  C   C1883     1.0  0.91338  0.27447  0.92953  1.0000
  H   H1482     1.0  0.79658  0.15821  0.66161  1.0000
  C   C1884     1.0  0.91008  0.29391  0.92456  1.0000
  H   H1483     1.0  0.95995  0.33324  0.57883  1.0000
  H   H1484     1.0  0.95180  0.27965  0.84787  1.0000
  H   H1485     1.0  0.93051  0.46762  0.73119  1.0000
  H   H1486     1.0  0.88990  0.30751  0.90064  1.0000
  C   C1885     1.0  0.95595  0.46394  0.62982  1.0000
  H   H1487     1.0  0.82214  0.15610  0.49647  1.0000
  C   C1886     1.0  0.86373  0.27857  0.98153  1.0000
  H   H1488     1.0  0.92583  0.24145  0.80066  1.0000
  H   H1489     1.0  0.80656  0.15252  0.96678  1.0000
  H   H1490     1.0  0.72462  0.04936  0.61448  1.0000
  H   H1491     1.0  0.93270  0.30440  0.85020  1.0000
  C   C1887     1.0  0.74194  0.10608  0.59867  1.0000
  H   H1492     1.0  0.93547  0.44746  0.49136  1.0000
  C   C1888     1.0  0.95824  0.39085  0.50801  1.0000
  H   H1493     1.0  0.72753  0.99215  0.81514  1.0000
  H   H1494     1.0  0.96850  0.23628  0.75354  1.0000
  H   H1495     1.0  0.93460  0.28309  0.74251  1.0000
  S   S251      1.0  0.96175  0.39219  0.90066  1.0000
  C   C1889     1.0  0.74221  0.07725  0.64865  1.0000
  Fe  Fe125     1.0  0.72406  0.05047  0.92813  1.0000
  H   H1496     1.0  0.85774  0.30812  0.97506  1.0000
  C   C1890     1.0  0.94906  0.29174  0.72605  1.0000
  C   C1891     1.0  0.95485  0.43405  0.66553  1.0000
  H   H1497     1.0  0.94920  0.34054  0.88264  1.0000
  Fe  Fe126     1.0  0.75813  0.09220  0.96947  1.0000
  H   H1498     1.0  0.94818  0.47431  0.62101  1.0000
  P   P62       1.0  0.86618  0.19690  0.50359  1.0000
  H   H1499     1.0  0.95364  0.29286  0.54826  1.0000
  H   H1500     1.0  0.92006  0.36447  0.96770  1.0000
  Fe  Fe127     1.0  0.96196  0.42681  0.89668  1.0000
  H   H1501     1.0  0.96053  0.22188  0.98317  1.0000
  H   H1502     1.0  0.94851  0.25558  0.90125  1.0000
  C   C1892     1.0  0.96034  0.25266  0.91621  1.0000
  H   H1503     1.0  0.91414  0.20654  0.50963  1.0000
  C   C1893     1.0  0.96742  0.29325  0.67381  1.0000
  S   S252      1.0  0.72279  0.06339  0.97941  1.0000
  C   C1894     1.0  0.89273  0.22060  0.48998  1.0000
  H   H1504     1.0  0.95031  0.23928  0.49175  1.0000
  H   H1505     1.0  0.96741  0.28557  0.65013  1.0000
  C   C1895     1.0  0.96047  0.48167  0.50587  1.0000
  H   H1506     1.0  0.96728  0.35259  0.69620  1.0000
  H   H1507     1.0  0.89459  0.19902  0.98060  1.0000
  H   H1508     1.0  0.96627  0.32059  0.75817  1.0000
  C   C1896     1.0  0.96711  0.31300  0.73481  1.0000
  C   C1897     1.0  0.96830  0.38470  0.71100  1.0000
  H   H1509     1.0  0.92009  0.40089  0.98582  1.0000
  C   C1898     1.0  0.96689  0.23336  0.96228  1.0000
  H   H1510     1.0  0.95025  0.35486  0.98685  1.0000
  Fe  Fe128     1.0  0.90025  0.67448  0.43068  1.0000
  S   S253      1.0  0.88539  0.64024  0.40511  1.0000
  S   S254      1.0  0.93601  0.70396  0.42040  1.0000
  C   C1899     1.0  0.92094  0.64853  0.17807  1.0000
  S   S255      1.0  0.84373  0.62180  0.45966  1.0000
  S   S256      1.0  0.84877  0.67001  0.01804  1.0000
  Fe  Fe129     1.0  0.87933  0.62511  0.45572  1.0000
  C   C1900     1.0  0.76954  0.66837  0.00798  1.0000
  Fe  Fe130     1.0  0.85125  0.64018  0.41091  1.0000
  S   S257      1.0  0.82315  0.62438  0.37243  1.0000
  C   C1901     1.0  0.93880  0.62224  0.08831  1.0000
  S   S258      1.0  0.86652  0.67587  0.43303  1.0000
  Fe  Fe131     1.0  0.74800  0.63881  0.15501  1.0000
  S   S259      1.0  0.76675  0.67432  0.17683  1.0000
  S   S260      1.0  0.75827  0.62631  0.10762  1.0000
  Fe  Fe132     1.0  0.76055  0.65586  0.22540  1.0000
  S   S261      1.0  0.79100  0.67052  0.26033  1.0000
  H   H1511     1.0  0.80050  0.63372  0.48548  1.0000
  S   S262      1.0  0.74323  0.62018  0.20322  1.0000
  Fe  Fe133     1.0  0.95186  0.55440  0.09915  1.0000
  S   S263      1.0  0.91921  0.55751  0.09016  1.0000
  H   H1512     1.0  0.72340  0.69082  0.29660  1.0000
  H   H1513     1.0  0.95355  0.53195  0.44939  1.0000
  C   C1902     1.0  0.94959  0.62265  0.14510  1.0000
  S   S264      1.0  0.95338  0.52054  0.10189  1.0000
  C   C1903     1.0  0.83482  0.56042  0.11699  1.0000
  H   H1514     1.0  0.75717  0.67333  0.29864  1.0000
  H   H1515     1.0  0.93854  0.54188  0.99537  1.0000
  C   C1904     1.0  0.91661  0.51084  0.02071  1.0000
  H   H1516     1.0  0.75208  0.81534  0.22484  1.0000
  H   H1517     1.0  0.75154  0.94747  0.00359  1.0000
  C   C1905     1.0  0.92985  0.57675  0.02814  1.0000
  C   C1906     1.0  0.91480  0.57058  0.05491  1.0000
  C   C1907     1.0  0.89577  0.57492  0.05372  1.0000
  C   C1908     1.0  0.89193  0.58549  0.02612  1.0000
  H   H1518     1.0  0.87612  0.60911  0.07840  1.0000
  H   H1519     1.0  0.94470  0.57381  0.02897  1.0000
  H   H1520     1.0  0.88401  0.57017  0.07429  1.0000
  H   H1521     1.0  0.87716  0.58857  0.02533  1.0000
  C   C1909     1.0  0.82327  0.65763  0.04224  1.0000
  C   C1910     1.0  0.82123  0.67001  0.06951  1.0000
  C   C1911     1.0  0.80145  0.66088  0.08961  1.0000
  C   C1912     1.0  0.78331  0.63924  0.08252  1.0000
  C   C1913     1.0  0.78526  0.62700  0.05507  1.0000
  C   C1914     1.0  0.80508  0.63609  0.03504  1.0000
  H   H1522     1.0  0.83509  0.68679  0.07514  1.0000
  H   H1523     1.0  0.80024  0.67055  0.11058  1.0000
  H   H1524     1.0  0.77136  0.61028  0.04937  1.0000
  H   H1525     1.0  0.80623  0.62649  0.01396  1.0000
  C   C1915     1.0  0.81319  0.63772  0.34329  1.0000
  C   C1916     1.0  0.79509  0.62371  0.32265  1.0000
  C   C1917     1.0  0.78759  0.63343  0.29776  1.0000
  C   C1918     1.0  0.79823  0.65733  0.29309  1.0000
  C   C1919     1.0  0.81601  0.67136  0.31416  1.0000
  C   C1920     1.0  0.82339  0.66164  0.33918  1.0000
  H   H1526     1.0  0.78697  0.60517  0.32571  1.0000
  H   H1527     1.0  0.77380  0.62239  0.28194  1.0000
  H   H1528     1.0  0.82424  0.68987  0.31100  1.0000
  H   H1529     1.0  0.83714  0.67257  0.35506  1.0000
  H   H1530     1.0  0.96321  0.76419  0.28657  1.0000
  C   C1921     1.0  0.86630  0.59079  0.14574  1.0000
  C   C1922     1.0  0.93459  0.48806  0.32932  1.0000
  H   H1531     1.0  0.74968  0.69877  0.05515  1.0000
  C   C1923     1.0  0.90362  0.65502  0.18293  1.0000
  H   H1532     1.0  0.95232  0.56896  0.36364  1.0000
  P   P63       1.0  0.83626  0.60412  0.11710  1.0000
  C   C1924     1.0  0.82493  0.61263  0.15244  1.0000
  C   C1925     1.0  0.81126  0.62366  0.14778  1.0000
  C   C1926     1.0  0.80225  0.63041  0.17452  1.0000
  C   C1927     1.0  0.80669  0.62608  0.20633  1.0000
  C   C1928     1.0  0.82002  0.61479  0.21132  1.0000
  C   C1929     1.0  0.82910  0.60803  0.18451  1.0000
  C   C1930     1.0  0.85997  0.62888  0.09900  1.0000
  C   C1931     1.0  0.87689  0.62600  0.08109  1.0000
  C   C1932     1.0  0.89439  0.64476  0.06509  1.0000
  C   C1933     1.0  0.89527  0.66656  0.06703  1.0000
  C   C1934     1.0  0.87870  0.66963  0.08509  1.0000
  C   C1935     1.0  0.86108  0.65089  0.10094  1.0000
  H   H1533     1.0  0.87542  0.60852  0.15388  1.0000
  H   H1534     1.0  0.80734  0.62678  0.12332  1.0000
  H   H1535     1.0  0.79155  0.63875  0.17046  1.0000
  H   H1536     1.0  0.79952  0.63121  0.22703  1.0000
  H   H1537     1.0  0.82294  0.61095  0.23601  1.0000
  H   H1538     1.0  0.83898  0.59897  0.18901  1.0000
  H   H1539     1.0  0.83735  0.60196  0.04489  1.0000
  H   H1540     1.0  0.90675  0.64224  0.05004  1.0000
  H   H1541     1.0  0.90824  0.68090  0.05347  1.0000
  H   H1542     1.0  0.87873  0.68628  0.08509  1.0000
  H   H1543     1.0  0.84795  0.65358  0.11345  1.0000
  C   C1936     1.0  0.88646  0.64369  0.20630  1.0000
  C   C1937     1.0  0.81986  0.59242  0.05333  1.0000
  C   C1938     1.0  0.95552  0.70619  0.38821  1.0000
  C   C1939     1.0  0.93355  0.59210  0.20286  1.0000
  C   C1940     1.0  0.75079  0.66639  0.32272  1.0000
  H   H1544     1.0  0.91458  0.60983  0.29492  1.0000
  P   P64       1.0  0.96285  0.61462  0.38971  1.0000
  H   H1545     1.0  0.93161  0.67768  0.35992  1.0000
  H   H1546     1.0  0.73609  0.82064  0.27730  1.0000
  C   C1941     1.0  0.88658  0.62580  0.22472  1.0000
  C   C1942     1.0  0.77426  0.56765  0.07344  1.0000
  C   C1943     1.0  0.92085  0.63010  0.19580  1.0000
  C   C1944     1.0  0.73691  0.86370  0.35859  1.0000
  P   P65       1.0  0.94291  0.62127  0.18845  1.0000
  H   H1547     1.0  0.95765  0.52128  0.31062  1.0000
  H   H1548     1.0  0.96275  0.67031  0.20812  1.0000
  C   C1945     1.0  0.75195  0.63958  0.47871  1.0000
  C   C1946     1.0  0.90671  0.59111  0.99902  1.0000
  C   C1947     1.0  0.93453  0.58788  0.23636  1.0000
  C   C1948     1.0  0.78570  0.63379  0.47434  1.0000
  H   H1549     1.0  0.74744  0.88006  0.37046  1.0000
  C   C1949     1.0  0.72954  0.64708  0.32607  1.0000
  H   H1550     1.0  0.95508  0.48957  0.03503  1.0000
  H   H1551     1.0  0.91627  0.51985  0.04304  1.0000
  C   C1950     1.0  0.76393  0.67655  0.35032  1.0000
  H   H1552     1.0  0.92528  0.57624  0.15479  1.0000
  H   H1553     1.0  0.87094  0.54088  0.14621  1.0000
  H   H1554     1.0  0.93423  0.65768  0.16007  1.0000
  H   H1555     1.0  0.91595  0.57175  0.47298  1.0000
  C   C1951     1.0  0.95416  0.74687  0.27667  1.0000
  H   H1556     1.0  0.78074  0.69106  0.34741  1.0000
  C   C1952     1.0  0.84623  0.58347  0.12771  1.0000
  C   C1953     1.0  0.91976  0.55117  0.19183  1.0000
  C   C1954     1.0  0.95548  0.56893  0.38958  1.0000
  C   C1955     1.0  0.92595  0.57352  0.18076  1.0000
  H   H1557     1.0  0.76685  0.55996  0.02237  1.0000
  H   H1558     1.0  0.96451  0.70482  0.24259  1.0000
  H   H1559     1.0  0.92621  0.62056  0.07038  1.0000
  H   H1560     1.0  0.87300  0.64870  0.21006  1.0000
  Fe  Fe134     1.0  0.86037  0.65748  0.48169  1.0000
  C   C1956     1.0  0.86410  0.73867  0.31359  1.0000
  C   C1957     1.0  0.86564  0.73506  0.34694  1.0000
  C   C1958     1.0  0.87396  0.71992  0.35693  1.0000
  C   C1959     1.0  0.88041  0.70809  0.33362  1.0000
  C   C1960     1.0  0.87835  0.71115  0.30004  1.0000
  C   C1961     1.0  0.87069  0.72699  0.29019  1.0000
  P   P66       1.0  0.88782  0.69666  0.27017  1.0000
  C   C1962     1.0  0.87989  0.66811  0.28598  1.0000
  C   C1963     1.0  0.87401  0.69432  0.23129  1.0000
  C   C1964     1.0  0.85063  0.68817  0.23035  1.0000
  C   C1965     1.0  0.83976  0.68595  0.20045  1.0000
  C   C1966     1.0  0.85210  0.68982  0.17112  1.0000
  C   C1967     1.0  0.87545  0.69630  0.17175  1.0000
  C   C1968     1.0  0.88642  0.69869  0.20170  1.0000
  C   C1969     1.0  0.85753  0.65030  0.28264  1.0000
  C   C1970     1.0  0.85094  0.62900  0.29775  1.0000
  C   C1971     1.0  0.86647  0.62531  0.31650  1.0000
  C   C1972     1.0  0.88884  0.64273  0.31952  1.0000
  C   C1973     1.0  0.89548  0.66410  0.30463  1.0000
  C   C1974     1.0  0.91853  0.71252  0.26600  1.0000
  C   C1975     1.0  0.93031  0.73528  0.27773  1.0000
  H   H1561     1.0  0.94045  0.60195  0.25387  1.0000
  C   C1976     1.0  0.74774  0.63468  0.44516  1.0000
  C   C1977     1.0  0.75246  0.69050  0.03358  1.0000
  C   C1978     1.0  0.93099  0.70175  0.25254  1.0000
  H   H1562     1.0  0.85778  0.75052  0.30584  1.0000
  H   H1563     1.0  0.86047  0.74405  0.36508  1.0000
  H   H1564     1.0  0.87535  0.71722  0.38279  1.0000
  H   H1565     1.0  0.88689  0.69652  0.34199  1.0000
  H   H1566     1.0  0.86971  0.73033  0.26451  1.0000
  H   H1567     1.0  0.84073  0.68528  0.25275  1.0000
  H   H1568     1.0  0.82170  0.68130  0.20015  1.0000
  H   H1569     1.0  0.84356  0.68807  0.14799  1.0000
  H   H1570     1.0  0.88508  0.69974  0.14900  1.0000
  H   H1571     1.0  0.90454  0.70403  0.20157  1.0000
  H   H1572     1.0  0.84472  0.65302  0.26994  1.0000
  H   H1573     1.0  0.83332  0.61580  0.29680  1.0000
  H   H1574     1.0  0.86077  0.60936  0.33002  1.0000
  H   H1575     1.0  0.90071  0.64012  0.33488  1.0000
  H   H1576     1.0  0.91247  0.67777  0.30908  1.0000
  H   H1577     1.0  0.92125  0.74404  0.28838  1.0000
  H   H1578     1.0  0.91574  0.58521  0.40912  1.0000
  C   C1979     1.0  0.96009  0.62489  0.07786  1.0000
  H   H1579     1.0  0.74750  0.58412  0.99711  1.0000
  H   H1580     1.0  0.92230  0.68413  0.24374  1.0000
  C   C1980     1.0  0.76559  0.67879  0.03577  1.0000
  C   C1981     1.0  0.78005  0.56870  0.04025  1.0000
  C   C1982     1.0  0.95270  0.54847  0.40424  1.0000
  C   C1983     1.0  0.95589  0.54785  0.43790  1.0000
  S   S265      1.0  0.89542  0.65934  0.48120  1.0000
  H   H1581     1.0  0.73217  0.80976  0.34997  1.0000
  S   S266      1.0  0.89242  0.59850  0.46068  1.0000
  H   H1582     1.0  0.75987  0.62515  0.40063  1.0000
  C   C1984     1.0  0.96171  0.58904  0.40846  1.0000
  C   C1985     1.0  0.91498  0.60427  0.31966  1.0000
  C   C1986     1.0  0.89462  0.58945  0.33558  1.0000
  C   C1987     1.0  0.89503  0.58277  0.36785  1.0000
  C   C1988     1.0  0.91578  0.59053  0.38402  1.0000
  C   C1989     1.0  0.92929  0.52330  0.99361  1.0000
  C   C1990     1.0  0.93580  0.61222  0.33588  1.0000
  H   H1583     1.0  0.92969  0.56239  0.27308  1.0000
  C   C1991     1.0  0.93632  0.60531  0.36822  1.0000
  C   C1992     1.0  0.95485  0.71339  0.25167  1.0000
  H   H1584     1.0  0.95860  0.68430  0.31311  1.0000
  H   H1585     1.0  0.94778  0.53294  0.38967  1.0000
  C   C1993     1.0  0.92128  0.54720  0.22502  1.0000
  C   C1994     1.0  0.92847  0.56552  0.24735  1.0000
  C   C1995     1.0  0.94862  0.64177  0.42782  1.0000
  H   H1586     1.0  0.91722  0.52995  0.23324  1.0000
  C   C1996     1.0  0.76265  0.62907  0.42653  1.0000
  H   H1587     1.0  0.87848  0.58326  0.32312  1.0000
  H   H1588     1.0  0.87926  0.57176  0.38067  1.0000
  S   S267      1.0  0.96117  0.51401  0.19722  1.0000
  H   H1589     1.0  0.83512  0.52747  0.11488  1.0000
  H   H1590     1.0  0.75623  0.84711  0.37663  1.0000
  H   H1591     1.0  0.87330  0.61707  0.24290  1.0000
  H   H1592     1.0  0.80736  0.58217  0.00443  1.0000
  H   H1593     1.0  0.96393  0.62521  0.05193  1.0000
  C   C1997     1.0  0.81420  0.59130  0.08679  1.0000
  H   H1594     1.0  0.89037  0.58116  0.16666  1.0000
  H   H1595     1.0  0.78033  0.65997  0.01004  1.0000
  H   H1596     1.0  0.93208  0.63278  0.41650  1.0000
  C   C1998     1.0  0.87491  0.57537  0.15283  1.0000
  C   C1999     1.0  0.80283  0.58111  0.03020  1.0000
  H   H1597     1.0  0.91634  0.61744  0.12894  1.0000
  H   H1598     1.0  0.90345  0.66875  0.16839  1.0000
  H   H1599     1.0  0.73176  0.68474  0.41901  1.0000
  H   H1600     1.0  0.90312  0.60483  0.23369  1.0000
  C   C2000     1.0  0.79125  0.57876  0.09667  1.0000
  H   H1601     1.0  0.81932  0.55423  0.10293  1.0000
  H   H1602     1.0  0.78640  0.57744  0.12231  1.0000
  H   H1603     1.0  0.91459  0.53705  0.17437  1.0000
  C   C2001     1.0  0.96630  0.63608  0.42039  1.0000
  H   H1604     1.0  0.75657  0.55828  0.08125  1.0000
  C   C2002     1.0  0.86381  0.55262  0.14155  1.0000
  H   H1605     1.0  0.76622  0.67544  0.40257  1.0000
  C   C2003     1.0  0.93333  0.62059  0.12169  1.0000
  C   C2004     1.0  0.90365  0.61897  0.21949  1.0000
  C   C2005     1.0  0.75565  0.66761  0.38142  1.0000
  H   H1606     1.0  0.77284  0.67790  0.05904  1.0000
  C   C2006     1.0  0.94884  0.69151  0.36094  1.0000
  C   C2007     1.0  0.84369  0.54511  0.12377  1.0000
  C   C2008     1.0  0.92551  0.58642  0.00008  1.0000
  C   C2009     1.0  0.95605  0.50721  0.32601  1.0000
  H   H1607     1.0  0.93872  0.66427  0.45490  1.0000
  H   H1608     1.0  0.72008  0.58937  0.42474  1.0000
  C   C2010     1.0  0.96423  0.69526  0.33455  1.0000
  C   C2011     1.0  0.95227  0.65964  0.44983  1.0000
  C   C2012     1.0  0.78154  0.62869  0.44108  1.0000
  C   C2013     1.0  0.96642  0.73589  0.26382  1.0000
  H   H1609     1.0  0.79309  0.62457  0.42648  1.0000
  H   H1610     1.0  0.95130  0.62372  0.32311  1.0000
  H   H1611     1.0  0.92004  0.48757  0.31672  1.0000
  S   S268      1.0  0.96843  0.56652  0.14806  1.0000
  Fe  Fe135     1.0  0.73201  0.67258  0.18431  1.0000
  C   C2014     1.0  0.73409  0.64843  0.38510  1.0000
  C   C2015     1.0  0.74328  0.69187  0.00353  1.0000
  H   H1612     1.0  0.72882  0.78250  0.18826  1.0000
  C   C2016     1.0  0.96508  0.58828  0.44222  1.0000
  H   H1613     1.0  0.72741  0.63731  0.05175  1.0000
  C   C2017     1.0  0.74185  0.84514  0.36204  1.0000
  S   S269      1.0  0.72752  0.65760  0.23493  1.0000
  C   C2018     1.0  0.96413  0.48705  0.01433  1.0000
  H   H1614     1.0  0.72198  0.68591  0.11131  1.0000
  C   C2019     1.0  0.96221  0.56778  0.45683  1.0000
  H   H1615     1.0  0.73343  0.70134  0.00185  1.0000
  H   H1616     1.0  0.96450  0.56717  0.48300  1.0000
  H   H1617     1.0  0.71927  0.68372  0.35648  1.0000
  C   C2020     1.0  0.90439  0.48681  0.01903  1.0000
  H   H1618     1.0  0.72012  0.96796  0.40816  1.0000
  H   H1619     1.0  0.94628  0.48817  0.25681  1.0000
  C   C2021     1.0  0.95973  0.48487  0.24664  1.0000
  P   P67       1.0  0.72416  0.63644  0.42536  1.0000
  C   C2022     1.0  0.73475  0.80337  0.23185  1.0000
  C   C2023     1.0  0.72142  0.67723  0.44059  1.0000
  C   C2024     1.0  0.72557  0.80633  0.26160  1.0000
  C   C2025     1.0  0.72112  0.63813  0.35710  1.0000
  C   C2026     1.0  0.72814  0.82398  0.34693  1.0000
  C   C2027     1.0  0.72166  0.78490  0.21121  1.0000
  C   C2028     1.0  0.96846  0.64013  0.21026  1.0000
  H   H1620     1.0  0.71964  0.63897  0.30450  1.0000
  S   S270      1.0  0.72121  0.70095  0.17906  1.0000
  H   H1621     1.0  0.71989  0.70875  0.45348  1.0000
  C   C2029     1.0  0.73743  0.94621  0.98897  1.0000
  Fe  Fe136     1.0  0.90253  0.67343  0.92601  1.0000
  S   S271      1.0  0.88972  0.63866  0.90262  1.0000
  S   S272      1.0  0.93838  0.70258  0.91698  1.0000
  H   H1622     1.0  0.95192  0.70623  0.51174  1.0000
  S   S273      1.0  0.84699  0.61944  0.95524  1.0000
  S   S274      1.0  0.84783  0.67151  0.52528  1.0000
  Fe  Fe137     1.0  0.88345  0.62464  0.95402  1.0000
  H   H1623     1.0  0.72916  0.74466  0.74104  1.0000
  Fe  Fe138     1.0  0.85483  0.63705  0.90573  1.0000
  S   S275      1.0  0.83020  0.62191  0.86294  1.0000
  H   H1624     1.0  0.77975  0.56938  0.77169  1.0000
  S   S276      1.0  0.86812  0.67314  0.92568  1.0000
  Fe  Fe139     1.0  0.74918  0.63736  0.66631  1.0000
  S   S277      1.0  0.76692  0.67267  0.68910  1.0000
  S   S278      1.0  0.76467  0.62285  0.62723  1.0000
  Fe  Fe140     1.0  0.75523  0.65403  0.73731  1.0000
  S   S279      1.0  0.77912  0.66759  0.78137  1.0000
  Fe  Fe141     1.0  0.73280  0.67281  0.68740  1.0000
  S   S280      1.0  0.73861  0.61845  0.71480  1.0000
  Fe  Fe142     1.0  0.94962  0.55738  0.59726  1.0000
  S   S281      1.0  0.92299  0.57029  0.59277  1.0000
  C   C2030     1.0  0.93003  0.51188  0.96459  1.0000
  C   C2031     1.0  0.75815  0.59621  0.97863  1.0000
  H   H1625     1.0  0.74056  0.68333  0.95238  1.0000
  S   S282      1.0  0.94657  0.52146  0.59449  1.0000
  C   C2032     1.0  0.86274  0.65486  0.67689  1.0000
  C   C2033     1.0  0.91365  0.57851  0.49627  1.0000
  S   S283      1.0  0.96596  0.56473  0.64678  1.0000
  H   H1626     1.0  0.83463  0.52944  0.68217  1.0000
  C   C2034     1.0  0.95454  0.61419  0.82991  1.0000
  H   H1627     1.0  0.91404  0.54677  0.83107  1.0000
  C   C2035     1.0  0.92087  0.57232  0.52518  1.0000
  C   C2036     1.0  0.91696  0.58004  0.55557  1.0000
  C   C2037     1.0  0.90669  0.59480  0.55663  1.0000
  C   C2038     1.0  0.89986  0.60134  0.52766  1.0000
  C   C2039     1.0  0.90156  0.55453  0.90979  1.0000
  H   H1628     1.0  0.92858  0.56082  0.52409  1.0000
  H   H1629     1.0  0.90366  0.60092  0.57997  1.0000
  H   H1630     1.0  0.89158  0.61233  0.52882  1.0000
  C   C2040     1.0  0.82344  0.65745  0.55147  1.0000
  C   C2041     1.0  0.81630  0.67098  0.57092  1.0000
  C   C2042     1.0  0.79818  0.66074  0.59383  1.0000
  C   C2043     1.0  0.78704  0.63677  0.59783  1.0000
  C   C2044     1.0  0.79387  0.62320  0.57791  1.0000
  C   C2045     1.0  0.81183  0.63342  0.55476  1.0000
  H   H1631     1.0  0.82469  0.68951  0.56805  1.0000
  H   H1632     1.0  0.79270  0.67136  0.60821  1.0000
  H   H1633     1.0  0.78527  0.60462  0.58053  1.0000
  H   H1634     1.0  0.81701  0.62271  0.54001  1.0000
  C   C2046     1.0  0.81618  0.63501  0.84068  1.0000
  C   C2047     1.0  0.80099  0.62230  0.81573  1.0000
  C   C2048     1.0  0.78948  0.63191  0.79732  1.0000
  C   C2049     1.0  0.79317  0.65450  0.80354  1.0000
  C   C2050     1.0  0.80850  0.66728  0.82834  1.0000
  C   C2051     1.0  0.81989  0.65762  0.84688  1.0000
  H   H1635     1.0  0.79795  0.60480  0.81083  1.0000
  H   H1636     1.0  0.77769  0.62181  0.77845  1.0000
  H   H1637     1.0  0.81151  0.68477  0.83333  1.0000
  H   H1638     1.0  0.83151  0.66767  0.86596  1.0000
  H   H1639     1.0  0.77317  0.72481  0.70737  1.0000
  C   C2052     1.0  0.94743  0.69843  0.85108  1.0000
  C   C2053     1.0  0.77116  0.58055  0.72692  1.0000
  H   H1640     1.0  0.92920  0.68829  0.84827  1.0000
  H   H1641     1.0  0.81343  0.67350  0.96569  1.0000
  H   H1642     1.0  0.85019  0.63549  0.58610  1.0000
  C   C2054     1.0  0.87277  0.78047  0.75403  1.0000
  C   C2055     1.0  0.89365  0.78124  0.76206  1.0000
  C   C2056     1.0  0.90104  0.76688  0.74574  1.0000
  C   C2057     1.0  0.88753  0.75171  0.72144  1.0000
  C   C2058     1.0  0.86644  0.75070  0.71336  1.0000
  C   C2059     1.0  0.85919  0.76529  0.72976  1.0000
  P   P68       1.0  0.84918  0.73065  0.68216  1.0000
  C   C2060     1.0  0.86638  0.73590  0.64513  1.0000
  C   C2061     1.0  0.83823  0.70130  0.69699  1.0000
  C   C2062     1.0  0.82176  0.68294  0.67891  1.0000
  C   C2063     1.0  0.81207  0.66040  0.69096  1.0000
  C   C2064     1.0  0.81808  0.65605  0.72175  1.0000
  C   C2065     1.0  0.83420  0.67416  0.74023  1.0000
  C   C2066     1.0  0.84427  0.69667  0.72797  1.0000
  C   C2067     1.0  0.86023  0.71922  0.62013  1.0000
  C   C2068     1.0  0.87296  0.72398  0.59096  1.0000
  C   C2069     1.0  0.89195  0.74539  0.58645  1.0000
  C   C2070     1.0  0.89811  0.76220  0.61096  1.0000
  C   C2071     1.0  0.88530  0.75759  0.64002  1.0000
  C   C2072     1.0  0.82451  0.73480  0.67341  1.0000
  C   C2073     1.0  0.82255  0.74412  0.64341  1.0000
  C   C2074     1.0  0.80289  0.74633  0.63662  1.0000
  H   H1643     1.0  0.93633  0.63183  0.91241  1.0000
  C   C2075     1.0  0.78717  0.73057  0.68978  1.0000
  C   C2076     1.0  0.80667  0.72810  0.69658  1.0000
  H   H1644     1.0  0.86706  0.79163  0.76669  1.0000
  H   H1645     1.0  0.90410  0.79295  0.78096  1.0000
  H   H1646     1.0  0.91721  0.76745  0.75203  1.0000
  H   H1647     1.0  0.89343  0.74060  0.70907  1.0000
  H   H1648     1.0  0.84315  0.76509  0.72398  1.0000
  H   H1649     1.0  0.81548  0.68606  0.65619  1.0000
  H   H1650     1.0  0.79910  0.64645  0.67698  1.0000
  H   H1651     1.0  0.83820  0.67086  0.76466  1.0000
  H   H1652     1.0  0.85595  0.71034  0.74352  1.0000
  H   H1653     1.0  0.84546  0.70264  0.62261  1.0000
  H   H1654     1.0  0.86791  0.71116  0.57153  1.0000
  H   H1655     1.0  0.90167  0.74902  0.56372  1.0000
  H   H1656     1.0  0.91266  0.77896  0.60723  1.0000
  H   H1657     1.0  0.89005  0.77119  0.65815  1.0000
  H   H1658     1.0  0.83592  0.74940  0.62498  1.0000
  C   C2077     1.0  0.77300  0.59117  0.95930  1.0000
  H   H1659     1.0  0.92635  0.66139  0.61489  1.0000
  H   H1660     1.0  0.95211  0.55785  0.80591  1.0000
  H   H1661     1.0  0.80759  0.72048  0.71966  1.0000
  C   C2078     1.0  0.85479  0.58793  0.68439  1.0000
  H   H1662     1.0  0.93681  0.59026  0.97905  1.0000
  S   S284      1.0  0.95076  0.50407  0.68401  1.0000
  H   H1663     1.0  0.91342  0.69556  0.53477  1.0000
  H   H1664     1.0  0.76765  0.59356  0.68018  1.0000
  C   C2079     1.0  0.77064  0.63263  0.95014  1.0000
  H   H1665     1.0  0.78091  0.69392  0.89052  1.0000
  C   C2080     1.0  0.91685  0.58670  0.77446  1.0000
  C   C2081     1.0  0.93247  0.67160  0.59288  1.0000
  C   C2082     1.0  0.94069  0.61280  0.65987  1.0000
  C   C2083     1.0  0.89784  0.57241  0.75586  1.0000
  C   C2084     1.0  0.72385  0.70455  0.61155  1.0000
  H   H1666     1.0  0.73966  0.63949  0.82769  1.0000
  H   H1667     1.0  0.88161  0.57250  0.76012  1.0000
  C   C2085     1.0  0.81757  0.59784  0.71008  1.0000
  H   H1668     1.0  0.89404  0.61913  0.71929  1.0000
  H   H1669     1.0  0.94284  0.65399  0.71356  1.0000
  H   H1670     1.0  0.93857  0.53326  0.85924  1.0000
  C   C2086     1.0  0.81423  0.68455  0.94551  1.0000
  C   C2087     1.0  0.91774  0.48770  0.96317  1.0000
  H   H1671     1.0  0.88543  0.61207  0.65869  1.0000
  S   S285      1.0  0.90186  0.60269  0.96254  1.0000
  C   C2088     1.0  0.86505  0.55389  0.65733  1.0000
  C   C2089     1.0  0.84065  0.56447  0.69100  1.0000
  C   C2090     1.0  0.87427  0.59414  0.66440  1.0000
  H   H1672     1.0  0.75330  0.57418  0.73353  1.0000
  H   H1673     1.0  0.91491  0.54659  0.95245  1.0000
  C   C2091     1.0  0.94828  0.60956  0.88884  1.0000
  C   C2092     1.0  0.86473  0.62318  0.73599  1.0000
  C   C2093     1.0  0.94154  0.62699  0.88950  1.0000
  C   C2094     1.0  0.78518  0.73948  0.65973  1.0000
  C   C2095     1.0  0.91492  0.54633  0.92598  1.0000
  H   H1674     1.0  0.89406  0.58197  0.63499  1.0000
  H   H1675     1.0  0.93604  0.65158  0.86124  1.0000
  H   H1676     1.0  0.76971  0.74069  0.65421  1.0000
  P   P69       1.0  0.96300  0.60594  0.79156  1.0000
  S   S286      1.0  0.72265  0.65735  0.73761  1.0000
  H   H1677     1.0  0.94806  0.60077  0.91134  1.0000
  C   C2096     1.0  0.94501  0.64634  0.69096  1.0000
  C   C2097     1.0  0.94752  0.63158  0.83082  1.0000
  H   H1678     1.0  0.79550  0.63880  0.91118  1.0000
  H   H1679     1.0  0.85327  0.73134  0.90409  1.0000
  C   C2098     1.0  0.83530  0.70282  0.93683  1.0000
  C   C2099     1.0  0.95452  0.51100  0.90303  1.0000
  C   C2100     1.0  0.77926  0.59152  0.69689  1.0000
  H   H1680     1.0  0.95553  0.63213  0.98126  1.0000
  C   C2101     1.0  0.96844  0.64923  0.97457  1.0000
  H   H1681     1.0  0.91493  0.59771  0.79292  1.0000
  C   C2102     1.0  0.85620  0.63194  0.76133  1.0000
  C   C2103     1.0  0.95615  0.66047  0.66422  1.0000
  H   H1682     1.0  0.81835  0.72531  0.87434  1.0000
  H   H1683     1.0  0.95981  0.58960  0.85912  1.0000
  H   H1684     1.0  0.90071  0.67275  0.58567  1.0000
  C   C2104     1.0  0.86640  0.67112  0.65246  1.0000
  C   C2105     1.0  0.88687  0.62536  0.73854  1.0000
  C   C2106     1.0  0.90006  0.63578  0.76612  1.0000
  C   C2107     1.0  0.89126  0.64406  0.79141  1.0000
  C   C2108     1.0  0.86936  0.64217  0.78896  1.0000
  H   H1685     1.0  0.86404  0.67644  0.60079  1.0000
  H   H1686     1.0  0.87253  0.68912  0.65893  1.0000
  H   H1687     1.0  0.86593  0.66055  0.70211  1.0000
  H   H1688     1.0  0.91715  0.63751  0.76790  1.0000
  H   H1689     1.0  0.90136  0.65199  0.81295  1.0000
  H   H1690     1.0  0.86248  0.64850  0.80869  1.0000
  H   H1691     1.0  0.76921  0.65362  0.86995  1.0000
  H   H1692     1.0  0.89149  0.56090  0.92384  1.0000
  H   H1693     1.0  0.79783  0.60271  0.91988  1.0000
  C   C2109     1.0  0.93865  0.49427  0.88211  1.0000
  C   C2110     1.0  0.95481  0.60322  0.85919  1.0000
  H   H1694     1.0  0.92898  0.61152  0.70954  1.0000
  C   C2111     1.0  0.93794  0.58667  0.76899  1.0000
  C   C2112     1.0  0.80918  0.58641  0.74000  1.0000
  C   C2113     1.0  0.85455  0.63146  0.66868  1.0000
  C   C2114     1.0  0.94122  0.63802  0.86053  1.0000
  C   C2115     1.0  0.78608  0.57788  0.74838  1.0000
  C   C2116     1.0  0.80232  0.60007  0.68839  1.0000
  H   H1695     1.0  0.93496  0.59433  0.65814  1.0000
  H   H1696     1.0  0.84310  0.60655  0.62884  1.0000
  C   C2117     1.0  0.71991  0.75498  0.78698  1.0000
  C   C2118     1.0  0.92059  0.55775  0.72625  1.0000
  H   H1697     1.0  0.80118  0.75307  0.61324  1.0000
  C   C2119     1.0  0.92805  0.53876  0.87370  1.0000
  C   C2120     1.0  0.85001  0.62458  0.63576  1.0000
  C   C2121     1.0  0.94669  0.69684  0.53465  1.0000
  H   H1698     1.0  0.77385  0.57512  0.96256  1.0000
  H   H1699     1.0  0.86890  0.54082  0.64632  1.0000
  H   H1700     1.0  0.80966  0.63878  0.73173  1.0000
  H   H1701     1.0  0.77411  0.64296  0.51906  1.0000
  H   H1702     1.0  0.88501  0.54682  0.71743  1.0000
  C   C2122     1.0  0.92495  0.69079  0.54754  1.0000
  H   H1703     1.0  0.80800  0.60866  0.66505  1.0000
  P   P70       1.0  0.84771  0.60996  0.70013  1.0000
  C   C2123     1.0  0.95629  0.70695  0.88202  1.0000
  C   C2124     1.0  0.73666  0.96628  0.97889  1.0000
  C   C2125     1.0  0.87930  0.57717  0.65094  1.0000
  H   H1704     1.0  0.83934  0.63082  0.76005  1.0000
  C   C2126     1.0  0.91439  0.54668  0.85757  1.0000
  C   C2127     1.0  0.90120  0.55462  0.87563  1.0000
  C   C2128     1.0  0.95163  0.62684  0.63300  1.0000
  H   H1705     1.0  0.89079  0.56100  0.86325  1.0000
  H   H1706     1.0  0.94710  0.64035  0.80866  1.0000
  C   C2129     1.0  0.90285  0.59278  0.49741  1.0000
  P   P71       1.0  0.94602  0.52834  0.92936  1.0000
  C   C2130     1.0  0.95452  0.67800  0.58044  1.0000
  C   C2131     1.0  0.78527  0.62728  0.93052  1.0000
  S   S287      1.0  0.72433  0.70265  0.67938  1.0000
  C   C2132     1.0  0.92813  0.53813  0.90810  1.0000
  P   P72       1.0  0.76725  0.65792  0.94139  1.0000
  C   C2133     1.0  0.79444  0.68079  0.92851  1.0000
  C   C2134     1.0  0.74564  0.64873  0.91021  1.0000
  C   C2135     1.0  0.75161  0.64805  0.87720  1.0000
  H   H1707     1.0  0.95009  0.64155  0.54321  1.0000
  C   C2136     1.0  0.85376  0.64088  0.61146  1.0000
  C   C2137     1.0  0.84579  0.54754  0.67748  1.0000
  C   C2138     1.0  0.86166  0.66407  0.61982  1.0000
  C   C2139     1.0  0.79599  0.69591  0.90324  1.0000
  C   C2140     1.0  0.81719  0.71394  0.89424  1.0000
  C   C2141     1.0  0.83685  0.71735  0.91097  1.0000
  H   H1708     1.0  0.92103  0.49112  0.88212  1.0000
  H   H1709     1.0  0.72575  0.70951  0.55918  1.0000
  C   C2142     1.0  0.78654  0.60670  0.93527  1.0000
  C   C2143     1.0  0.72246  0.63975  0.91899  1.0000
  H   H1710     1.0  0.82545  0.55912  0.70606  1.0000
  C   C2144     1.0  0.91780  0.67801  0.57641  1.0000
  H   H1711     1.0  0.82051  0.58434  0.75711  1.0000
  Fe  Fe143     1.0  0.96605  0.53025  0.64212  1.0000
  S   S288      1.0  0.89731  0.65960  0.97731  1.0000
  H   H1712     1.0  0.85043  0.70566  0.95030  1.0000
  C   C2145     1.0  0.93727  0.62249  0.68876  1.0000
  H   H1713     1.0  0.96225  0.67895  0.66636  1.0000
  C   C2146     1.0  0.89972  0.55796  0.73178  1.0000
  H   H1714     1.0  0.95498  0.69821  0.79945  1.0000
  H   H1715     1.0  0.73354  0.75412  0.80044  1.0000
  H   H1716     1.0  0.73544  0.69699  0.61144  1.0000
  H   H1717     1.0  0.74092  0.64397  0.49386  1.0000
  C   C2147     1.0  0.93961  0.57200  0.74477  1.0000
  C   C2148     1.0  0.95958  0.65083  0.63504  1.0000
  H   H1718     1.0  0.72176  0.81155  0.65250  1.0000
  C   C2149     1.0  0.73481  0.63972  0.85317  1.0000
  C   C2150     1.0  0.96319  0.49212  0.71166  1.0000
  H   H1719     1.0  0.95392  0.61880  0.61085  1.0000
  H   H1720     1.0  0.92210  0.54653  0.70754  1.0000
  C   C2151     1.0  0.77084  0.63909  0.49319  1.0000
  C   C2152     1.0  0.76009  0.66932  0.97778  1.0000
  H   H1721     1.0  0.94441  0.66307  0.97246  1.0000
  C   C2153     1.0  0.96794  0.48487  0.86098  1.0000
  Fe  Fe144     1.0  0.86157  0.65581  0.97513  1.0000
  H   H1722     1.0  0.95036  0.48271  0.52631  1.0000
  C   C2154     1.0  0.75681  0.61678  0.97390  1.0000
  C   C2155     1.0  0.96212  0.66667  0.96968  1.0000
  C   C2156     1.0  0.96617  0.64100  0.54573  1.0000
  C   C2157     1.0  0.74719  0.68145  0.97564  1.0000
  C   C2158     1.0  0.96208  0.70412  0.82345  1.0000
  C   C2159     1.0  0.96141  0.69042  0.55098  1.0000
  H   H1723     1.0  0.95891  0.61757  0.50524  1.0000
  H   H1724     1.0  0.95566  0.57164  0.73985  1.0000
  H   H1725     1.0  0.72173  0.90922  0.98628  1.0000
  H   H1726     1.0  0.71997  0.88190  0.82771  1.0000
  C   C2160     1.0  0.72034  0.92454  0.97944  1.0000
  H   H1727     1.0  0.74487  0.62020  0.98860  1.0000
  H   H1728     1.0  0.71937  0.85992  0.87740  1.0000
