data_image0
_chemical_formula_structural       SC5HC3HCH2C3S2CHFeS2C3SHCHC4H2C6H3C4H2CHC3HC6HCHC3HPH2CHC2HCH3C7HCHC3HC2HC2FeC3H4C2HCHCHC3PH3SHC4HCHC4HCHCH3CHC2FeCHCH4CH2CH2CH2CPCH2CHCH2CHCPH2C7PH2C2H2C2SH2CH4C2HCHPFeCHCSH3C5H4CFeS2FeS2FeCFePS2HCSC2H2CH2CH2C4H2CHSCH4CH2CHC2HC4HCH2C6H4C2H3CHC2PHC2HC3H3CHC8HCHC3SH2SCHCH7CH4CHC2H2C5HC3HC4H2CH3C3H2CHCH2CHCHCHC2H2CSCHC3FeS2HSFeSFeCS2CH2C3FeHSCH4C4HC8H4C6H5CHC3H3CH3SHCH2FeHSHC2H2C2HCH4CHSH2C3SCFeHC3PH2C2HC2H2C9PC14H6CSCH2C2HCH3CH2C2HC2HCHCHC3H6CHCPHC2H3CHCH3CHCHC4PHC2HC2HC9S2H2CFeH3CH3CH2C2HCHC3H2SPCHCH2FeS2PFeSHSFeS2FeHCFeSFeHS2C6H4C4HCH5CH2CHC6H3FeH2C2H3C8HSCH6PC4SC4HCHCSC4SH2SC2HC5SCH2C2HCH2C7PC15H2CH11FeH4C3HC6PC18H17CH4C2H3C3FeCFeC2H2C2HCHC2HCHC3H2CH2SHC3H3CH2SCSHCH2SHCSH2C4H2C3HCHCHC6H6CH2C2H2PH2C5FeH2CH5CHCHCHC2H2C5H4C9H3SC7H2C3HCH3CH2CHC4H2CHCHSC2HC3PHC9H2CHC3H2CH5CHC2H3C3HCHC4HCSCH5CH3CH2CH4CFeS2FeS2FeS2FeS2FeSFeS3FeS3H3C2FeH2FeS3CPC2H2CHFeC7H3C7H4C6H4C6HCH2C6H5FeC2FeSCHC3HC2HFeH2C2HC7H3CPHFeH5C4SC2PC2H3C2H3C3PC8HC9SH5CFeCH5SC6PC18H18PC5HC6PC10H13CSHFeHSCHCSCH2C6HCHC2H4SHSHCH4CH2SCHSHC2HS2HCSFeCHCHC2HCH2SHCH2CFeHCH4CH4CHSC4HCHCH2C2H2CHCHCHCHC2HC2FeC2H2C4H3CHC2FeCSH4CSCSHFeSHCHCH2SC3HC3SC3H3CH2CHC2H2CHCHC3H2C2HC2HC2H2FeHCH5PCHCH2C2H2C2H2CPH2C4HC3FeHC2HC2HC2H5C2H2CH2C2HCH2C7H2C2H2CH2CHC2H2SH2CHC3H2CHC3H2C5HPC3HCH3CHC2H5CH2C3H3C3PC5HCHC2H2C2H2CHC6H2CHC3FeS2FeSHFeSFeS3C2FeHSHCFeCS3FeS2FeS2FeSFeS3HSFeS2CFeS3CHC2H4CHC7H4C2SHCH2C8H3CSC2FeC9H5C3HC2HC4H4C8PC4HC13HCH4SH14CHCPHSCFeH2C3FeCHC2HCH2SCHC2HC2H2CH5SHCH2C3H4C2H4C2H5C4HC6PC18H22CFeCFeC6PC18H11SCH8C3HC2HC5H3C3HCH3C2H2C3SHSH2PHC2H2C3H2CHCHSH2CH3SC2H2CHCHC2HFeC3H2C2HC5PH3PC3HFeS2FeH4Fe2HFeS2FeS2FeS2FeS2FeSFeS3H2CHC2S2FeHFeS3C4H2C6H4C6H4CHC6H5C4H2C6H4C6H4C3PC2HC6PC15H15C2H2C5HCHC13H5CHC4PC18H4CH5CH14CHPC7HCSHCH2C3H2CH4CSH5C3H3CHCFeHCSFeC6PC8HFeHC8H10SCH4C2S2CH2C5H2C4S2CHFeSH2PC2H2C2HCH3CSC3H2CH2C2SC2SCH3C3SCH3SC5H4C3H2C3H2CH2C2FeH2C2FeHC3H2CH3C6HSH5FePC4HC3FeCSC2HCHCH3CHCHCHCSHS2HCSFeHSFeHC2HC2HC6PH2CHCH2C5HSH2CHSH2CHC5H3CH2C3PC6SC3H2FeHS2CH2CH3CFePCHC7PFeC3H2C2FeCHC4HC2H2CH4CH4C2H2CHSC4FeH4CHC2H4C2HC3SCHC2HC3HSC2HC2SH3CHSCHCFeC3H4SHFeSHCFeSCHS2CSFeS2FeS2FeSFeS3H2C2SFeHS2HC7H4C3HC7H4C4H2CH2CHCHC6H4PHCH2C2H4CSC2HC2H2C7PC3H2C13H7CH14C2H2SHC2H2CPHCFeHC3SH2C8HCH3C2HC3H3CHFeH3CHC2H4CHCH2CH2C3HCH3CHC2HC3H2C3HC2FeCHCSHSCHC4HC3HCHCP2CHC3HC3HC3FeC6HCHCHC2HCH3C2HC2HCH2CHCHCHCHC5H4CFeC2H3CH2CHC5HC2HPCHFeC3HCHC4HCH2C3HSCHC3H2CHCH5SCH2C3H2FeCHCHSHSPCHS2CH2C2HC4SC2FeHC2S2C3S2H2CHCHC2H3CH7C2SCH3CFeCHC3HCS2C2H2C2H2CSPC2HFeHC3HC3H2C2H2C2HCH2C3HCHSHC4HPCHFeH4SHC2H2SCHFeC3H2C2FeCH2CH2CHCH2CHC2HFeS2FeCFeSH2S2C2FeSH2CSHC3H7CHC6H4C6H4C4HCHSHC2FeC2HCPCHC3H3CH2PC4H2C3SC2HC2SH2CHCHC2H2SC4H5C3H2CHCPCH5C3H2C4HCH2C2HC3SC5H2CH3CH7SCHC4HC4HC5H3C3SCHCHCFeH3C7HSHFeS2CH4SH2C3SCHCHSHC4H4C2H6S2HC6H5CHC3SHC7H4C2H3CSC2PC10H5SH5CHC3H4FeHC5FeCHC4FeHC2HSCHC3HC5HCH2C2H3C2FeHCFe2HC2HCHCPHC2H4CSCHSH2C2H4CHC6PC2H2CHC3HC6HC3HC3H3SH6CHC2H2C3HC2HCHSCHC3HC2H2CHCHC2HC3FeC5S2HCHCHFeS2FeSFeS3FeSHFeS2FeSFeS3CH4C2HCHC6H6C6HSC5HC6HCHCHC3HSH8CH4C6PHC2HC4H3C8HCH3CH3C5H6C4HC2HCH3C2HCHCH2C6PC3HC3HC9H6CH2PCHCH2CFeC2H3CHCH2CH2C3HCHCFeS2FeS2FeSFeS3HCHFeS2CHC2HSH4C2H2C7H4CH2CH2CH2CH2CHC2HC2H6C4H3CSH3CH2CH2CHCHPC7PC3H2C9H2FeSCH5C2H8C13H3CHCHCH2C7PC4HC11HCH4CH9C2HC6PC18H4CHCHPSHCH2CHCH2CSC3HCHCH2CHC2H4C3H2CHC2SCHFeH2CHC2H5CHC2H4CH2CHPC5HC
_chemical_formula_sum              "S288 C2160 H1728 Fe144 P72"
_cell_length_a       42.2304
_cell_length_b       39.3297
_cell_length_c       86.1719
_cell_angle_alpha    87.5529
_cell_angle_beta     84.1401
_cell_angle_gamma    113.066

_space_group_name_H-M_alt    "P 1"
_space_group_IT_number       1

loop_
  _space_group_symop_operation_xyz
  'x, y, z'

loop_
  _atom_site_type_symbol
  _atom_site_label
  _atom_site_symmetry_multiplicity
  _atom_site_fract_x
  _atom_site_fract_y
  _atom_site_fract_z
  _atom_site_occupancy
  S   S1        1.0  0.48532  0.14335  0.15980  1.0000
  C   C1        1.0  0.09350  0.00885  0.14488  1.0000
  C   C2        1.0  0.00825  0.06336  0.18850  1.0000
  C   C3        1.0  0.43624  0.15832  0.08381  1.0000
  C   C4        1.0  0.06990  0.04436  0.12929  1.0000
  C   C5        1.0  0.06552  0.01800  0.14168  1.0000
  H   H1        1.0  0.31797  0.06301  0.20936  1.0000
  C   C6        1.0  0.12563  0.02566  0.13543  1.0000
  C   C7        1.0  0.13010  0.05276  0.12338  1.0000
  C   C8        1.0  0.10253  0.06241  0.12046  1.0000
  H   H2        1.0  0.10318  0.30683  0.23587  1.0000
  C   C9        1.0  0.42079  0.04201  0.19297  1.0000
  H   H3        1.0  0.15475  0.06562  0.11598  1.0000
  H   H4        1.0  0.10615  0.08292  0.11092  1.0000
  C   C10       1.0  0.11986  0.06202  0.23245  1.0000
  C   C11       1.0  0.13262  0.10880  0.18699  1.0000
  C   C12       1.0  0.12729  0.09803  0.23673  1.0000
  S   S2        1.0  0.19340  0.04440  0.17588  1.0000
  S   S3        1.0  0.13163  0.00950  0.21630  1.0000
  C   C13       1.0  0.31215  0.15765  0.21036  1.0000
  H   H5        1.0  0.44231  0.18892  0.15671  1.0000
  Fe  Fe1       1.0  0.23453  0.02247  0.17821  1.0000
  S   S4        1.0  0.28867  0.06269  0.18086  1.0000
  S   S5        1.0  0.15892  0.00964  0.13660  1.0000
  C   C14       1.0  0.00762  0.08791  0.16219  1.0000
  C   C15       1.0  0.47933  0.99326  0.10252  1.0000
  C   C16       1.0  0.26745  0.05002  0.22179  1.0000
  S   S6        1.0  0.41900  0.05951  0.13892  1.0000
  H   H6        1.0  0.05477  0.06767  0.23254  1.0000
  C   C17       1.0  0.41883  0.01938  0.05535  1.0000
  H   H7        1.0  0.15353  0.10581  0.17957  1.0000
  C   C18       1.0  0.45325  0.27582  0.16443  1.0000
  C   C19       1.0  0.06151  0.21498  0.15655  1.0000
  C   C20       1.0  0.04442  0.39406  0.99804  1.0000
  C   C21       1.0  0.14021  0.48172  0.05066  1.0000
  H   H8        1.0  0.28856  0.17952  0.22850  1.0000
  H   H9        1.0  0.44480  0.03016  0.05866  1.0000
  C   C22       1.0  0.32427  0.05994  0.16944  1.0000
  C   C23       1.0  0.35766  0.08104  0.17293  1.0000
  C   C24       1.0  0.38690  0.08099  0.16366  1.0000
  C   C25       1.0  0.38284  0.05962  0.15090  1.0000
  C   C26       1.0  0.34940  0.03771  0.14765  1.0000
  C   C27       1.0  0.32007  0.03791  0.15687  1.0000
  H   H10       1.0  0.36089  0.09753  0.18279  1.0000
  H   H11       1.0  0.41254  0.09737  0.16641  1.0000
  H   H12       1.0  0.45070  0.31756  0.03104  1.0000
  C   C28       1.0  0.43115  0.17165  0.23572  1.0000
  C   C29       1.0  0.18090  0.12051  0.21906  1.0000
  C   C30       1.0  0.17351  0.08429  0.21480  1.0000
  C   C31       1.0  0.14261  0.05513  0.22134  1.0000
  H   H13       1.0  0.20434  0.14324  0.21371  1.0000
  H   H14       1.0  0.19144  0.07908  0.20635  1.0000
  C   C32       1.0  0.48765  0.21581  0.03074  1.0000
  H   H15       1.0  0.45002  0.06163  0.10666  1.0000
  C   C33       1.0  0.43507  0.16683  0.19052  1.0000
  C   C34       1.0  0.46232  0.23152  0.19534  1.0000
  C   C35       1.0  0.03823  0.23838  0.21121  1.0000
  H   H16       1.0  0.34091  0.14329  0.19176  1.0000
  C   C36       1.0  0.12652  0.48392  0.03672  1.0000
  C   C37       1.0  0.34025  0.16534  0.19872  1.0000
  C   C38       1.0  0.31066  0.18538  0.21965  1.0000
  C   C39       1.0  0.44419  0.33076  0.15654  1.0000
  C   C40       1.0  0.13827  0.14194  0.19382  1.0000
  C   C41       1.0  0.43920  0.14147  0.07013  1.0000
  H   H17       1.0  0.38740  0.29810  0.03564  1.0000
  C   C42       1.0  0.41897  0.25904  0.17194  1.0000
  H   H18       1.0  0.45096  0.15831  0.05919  1.0000
  C   C43       1.0  0.37734  0.12569  0.22926  1.0000
  C   C44       1.0  0.07194  0.26160  0.20428  1.0000
  C   C45       1.0  0.47668  0.02543  0.10754  1.0000
  H   H19       1.0  0.11660  0.38836  0.05565  1.0000
  P   P1        1.0  0.00858  0.20420  0.20035  1.0000
  H   H20       1.0  0.21975  0.03622  0.23690  1.0000
  H   H21       1.0  0.06725  0.23261  0.14574  1.0000
  C   C46       1.0  0.41220  0.08070  0.08476  1.0000
  H   H22       1.0  0.22381  0.37233  0.99690  1.0000
  C   C47       1.0  0.45065  0.27034  0.04505  1.0000
  C   C48       1.0  0.33754  0.22074  0.21742  1.0000
  H   H23       1.0  0.38620  0.25614  0.20414  1.0000
  C   C49       1.0  0.38748  0.09708  0.23378  1.0000
  H   H24       1.0  0.02854  0.46939  0.01718  1.0000
  H   H25       1.0  0.04072  0.15106  0.19492  1.0000
  H   H26       1.0  0.09265  0.39185  0.03098  1.0000
  C   C50       1.0  0.43516  0.29214  0.03832  1.0000
  C   C51       1.0  0.39916  0.28121  0.04093  1.0000
  C   C52       1.0  0.37840  0.24857  0.05031  1.0000
  C   C53       1.0  0.39364  0.22684  0.05711  1.0000
  C   C54       1.0  0.42962  0.23771  0.05451  1.0000
  C   C55       1.0  0.09516  0.28642  0.21312  1.0000
  C   C56       1.0  0.35630  0.01059  0.09850  1.0000
  H   H27       1.0  0.33639  0.24218  0.22468  1.0000
  C   C57       1.0  0.39668  0.01773  0.18438  1.0000
  H   H28       1.0  0.28309  0.02567  0.10930  1.0000
  C   C58       1.0  0.04653  0.16923  0.18435  1.0000
  C   C59       1.0  0.02217  0.07183  0.17260  1.0000
  C   C60       1.0  0.36556  0.22862  0.20568  1.0000
  H   H29       1.0  0.00554  0.99862  0.17619  1.0000
  C   C61       1.0  0.10908  0.45160  0.02948  1.0000
  C   C62       1.0  0.05142  0.26563  0.23580  1.0000
  H   H30       1.0  0.43061  0.09073  0.05981  1.0000
  C   C63       1.0  0.39020  0.01618  0.06608  1.0000
  C   C64       1.0  0.14731  0.43934  0.99719  1.0000
  Fe  Fe2       1.0  0.47098  0.10585  0.14046  1.0000
  C   C65       1.0  0.40964  0.05152  0.20737  1.0000
  C   C66       1.0  0.38122  0.99538  0.03552  1.0000
  C   C67       1.0  0.99831  0.36731  0.02576  1.0000
  H   H31       1.0  0.35050  0.24015  0.05230  1.0000
  H   H32       1.0  0.37756  0.20154  0.06439  1.0000
  H   H33       1.0  0.44111  0.22072  0.05987  1.0000
  H   H34       1.0  0.47023  0.22074  0.02343  1.0000
  C   C68       1.0  0.05182  0.41325  0.01148  1.0000
  C   C69       1.0  0.02718  0.05136  0.23445  1.0000
  H   H35       1.0  0.35287  0.11965  0.22482  1.0000
  C   C70       1.0  0.36138  0.00302  0.19014  1.0000
  H   H36       1.0  0.39857  0.08154  0.10964  1.0000
  C   C71       1.0  0.42739  0.10287  0.07057  1.0000
  H   H37       1.0  0.40527  0.01138  0.17297  1.0000
  C   C72       1.0  0.01460  0.36135  0.99861  1.0000
  C   C73       1.0  0.02830  0.39986  0.02531  1.0000
  C   C74       1.0  0.11940  0.41505  0.05035  1.0000
  P   P2        1.0  0.02999  0.04638  0.20198  1.0000
  H   H38       1.0  0.03316  0.41451  0.03575  1.0000
  H   H39       1.0  0.33439  0.99961  0.06931  1.0000
  H   H40       1.0  0.29436  0.02160  0.15410  1.0000
  S   S7        1.0  0.16520  0.17348  0.23392  1.0000
  H   H41       1.0  0.14821  0.42705  0.00850  1.0000
  C   C75       1.0  0.13663  0.44732  0.05748  1.0000
  C   C76       1.0  0.43558  0.20275  0.18948  1.0000
  C   C77       1.0  0.03232  0.00353  0.19673  1.0000
  C   C78       1.0  0.12311  0.45500  0.99516  1.0000
  H   H42       1.0  0.46710  0.30058  0.07194  1.0000
  C   C79       1.0  0.04129  0.21993  0.16945  1.0000
  H   H43       1.0  0.04054  0.00441  0.14864  1.0000
  C   C80       1.0  0.07318  0.08239  0.19991  1.0000
  C   C81       1.0  0.10020  0.07912  0.18999  1.0000
  C   C82       1.0  0.11156  0.14537  0.20372  1.0000
  C   C83       1.0  0.07911  0.11578  0.20671  1.0000
  H   H44       1.0  0.16369  0.16456  0.19190  1.0000
  C   C84       1.0  0.42150  0.13660  0.09797  1.0000
  H   H45       1.0  0.42891  0.07018  0.21380  1.0000
  C   C85       1.0  0.46589  0.31164  0.15692  1.0000
  H   H46       1.0  0.14715  0.44566  0.06832  1.0000
  H   H47       1.0  0.48044  0.16330  0.02168  1.0000
  H   H48       1.0  0.43685  0.01232  0.03194  1.0000
  C   C86       1.0  0.48932  0.18934  0.20157  1.0000
  H   H49       1.0  0.00250  0.22288  0.23273  1.0000
  C   C87       1.0  0.45124  0.03642  0.10271  1.0000
  C   C88       1.0  0.08496  0.28830  0.22889  1.0000
  Fe  Fe3       1.0  0.16225  0.00082  0.19524  1.0000
  C   C89       1.0  0.06743  0.16493  0.17157  1.0000
  H   H50       1.0  0.03212  0.24200  0.16855  1.0000
  C   C90       1.0  0.40965  0.31379  0.16350  1.0000
  H   H51       1.0  0.09636  0.05382  0.18444  1.0000
  H   H52       1.0  0.11638  0.17068  0.20941  1.0000
  H   H53       1.0  0.05866  0.11900  0.21434  1.0000
  H   H54       1.0  0.47027  0.26116  0.16422  1.0000
  C   C91       1.0  0.36663  0.20125  0.19595  1.0000
  H   H55       1.0  0.32277  0.00081  0.20868  1.0000
  H   H56       1.0  0.41973  0.14981  0.10857  1.0000
  C   C92       1.0  0.15744  0.12755  0.22986  1.0000
  H   H57       1.0  0.44574  0.18822  0.08349  1.0000
  H   H58       1.0  0.44814  0.20045  0.23630  1.0000
  C   C93       1.0  0.46187  0.16020  0.19653  1.0000
  H   H59       1.0  0.48248  0.07980  0.07199  1.0000
  H   H60       1.0  0.39114  0.18468  0.22671  1.0000
  C   C94       1.0  0.33250  0.02753  0.09886  1.0000
  P   P3        1.0  0.39682  0.03067  0.08557  1.0000
  C   C95       1.0  0.35693  0.00234  0.06135  1.0000
  H   H61       1.0  0.49386  0.34126  0.09207  1.0000
  H   H62       1.0  0.48579  0.22685  0.10016  1.0000
  C   C96       1.0  0.00865  0.03719  0.22191  1.0000
  H   H63       1.0  0.36982  0.26466  0.17585  1.0000
  C   C97       1.0  0.49285  0.18291  0.02989  1.0000
  H   H64       1.0  0.25716  0.05686  0.21164  1.0000
  H   H65       1.0  0.08071  0.26030  0.19218  1.0000
  C   C98       1.0  0.03339  0.19681  0.18343  1.0000
  H   H66       1.0  0.39263  0.32835  0.16291  1.0000
  C   C99       1.0  0.39010  0.18408  0.16427  1.0000
  P   P4        1.0  0.09168  0.45388  0.01131  1.0000
  H   H67       1.0  0.41458  0.14417  0.18625  1.0000
  H   H68       1.0  0.46213  0.13276  0.19668  1.0000
  C   C100      1.0  0.40957  0.09795  0.09849  1.0000
  C   C101      1.0  0.31511  0.04410  0.23365  1.0000
  C   C102      1.0  0.35585  0.17058  0.16064  1.0000
  C   C103      1.0  0.34666  0.14833  0.14824  1.0000
  C   C104      1.0  0.37177  0.14044  0.13909  1.0000
  C   C105      1.0  0.40622  0.15542  0.14215  1.0000
  C   C106      1.0  0.41544  0.17743  0.15458  1.0000
  P   P5        1.0  0.40237  0.21171  0.18054  1.0000
  H   H69       1.0  0.34628  0.02110  0.13782  1.0000
  H   H70       1.0  0.44813  0.05392  0.18831  1.0000
  C   C107      1.0  0.30178  0.05317  0.22055  1.0000
  C   C108      1.0  0.39691  0.27784  0.17099  1.0000
  H   H71       1.0  0.05544  0.99373  0.09903  1.0000
  H   H72       1.0  0.29125  0.13027  0.21201  1.0000
  C   C109      1.0  0.07459  0.18747  0.15761  1.0000
  C   C110      1.0  0.42842  0.01548  0.09265  1.0000
  S   S8        1.0  0.03529  0.05508  0.12414  1.0000
  H   H73       1.0  0.07782  0.14380  0.17243  1.0000
  H   H74       1.0  0.04446  0.06618  0.16823  1.0000
  C   C111      1.0  0.37414  0.03718  0.21321  1.0000
  H   H75       1.0  0.33606  0.17668  0.16745  1.0000
  H   H76       1.0  0.31987  0.13646  0.14598  1.0000
  H   H77       1.0  0.36441  0.12209  0.12986  1.0000
  H   H78       1.0  0.42566  0.14883  0.13532  1.0000
  C   C112      1.0  0.10573  0.41714  0.03640  1.0000
  C   C113      1.0  0.39905  0.16277  0.23029  1.0000
  H   H79       1.0  0.09030  0.18359  0.14764  1.0000
  C   C114      1.0  0.41989  0.10630  0.23918  1.0000
  H   H80       1.0  0.45405  0.35851  0.15065  1.0000
  P   P6        1.0  0.35991  0.04914  0.23201  1.0000
  Fe  Fe4       1.0  0.17216  0.99856  0.16035  1.0000
  C   C115      1.0  0.35018  0.01244  0.20454  1.0000
  H   H81       1.0  0.01834  0.09392  0.14991  1.0000
  C   C116      1.0  0.41437  0.00918  0.04014  1.0000
  S   S9        1.0  0.49346  0.15206  0.12121  1.0000
  H   H82       1.0  0.46299  0.25934  0.19500  1.0000
  H   H83       1.0  0.09612  0.03943  0.23760  1.0000
  H   H84       1.0  0.03151  0.16782  0.22460  1.0000
  C   C117      1.0  0.00455  0.15086  0.22370  1.0000
  C   C118      1.0  0.24627  0.03841  0.23612  1.0000
  C   C119      1.0  0.48935  0.22492  0.20114  1.0000
  C   C120      1.0  0.02812  0.24086  0.22701  1.0000
  C   C121      1.0  0.30121  0.01227  0.10892  1.0000
  H   H85       1.0  0.33815  0.05261  0.09140  1.0000
  H   H86       1.0  0.05883  0.99892  0.21641  1.0000
  H   H87       1.0  0.12134  0.30374  0.20785  1.0000
  H   H88       1.0  0.49249  0.32423  0.15121  1.0000
  C   C122      1.0  0.35251  0.99190  0.04612  1.0000
  Fe  Fe5       1.0  0.09596  0.14869  0.28691  1.0000
  S   S10       1.0  0.07677  0.13747  0.26358  1.0000
  S   S11       1.0  0.08667  0.10239  0.30544  1.0000
  Fe  Fe6       1.0  0.12904  0.23316  0.27898  1.0000
  S   S12       1.0  0.11322  0.22835  0.25478  1.0000
  S   S13       1.0  0.16077  0.28501  0.29012  1.0000
  Fe  Fe7       1.0  0.06209  0.18575  0.26671  1.0000
  C   C123      1.0  0.45710  0.14050  0.42512  1.0000
  Fe  Fe8       1.0  0.12962  0.18025  0.25398  1.0000
  P   P7        1.0  0.07589  0.42641  0.40424  1.0000
  S   S14       1.0  0.07682  0.19382  0.29098  1.0000
  S   S15       1.0  0.14960  0.18836  0.27724  1.0000
  H   H89       1.0  0.34056  0.05107  0.29496  1.0000
  C   C124      1.0  0.07657  0.99200  0.28674  1.0000
  S   S16       1.0  0.17290  0.45033  0.27502  1.0000
  C   C125      1.0  0.00183  0.47470  0.44582  1.0000
  C   C126      1.0  0.46149  0.26628  0.43101  1.0000
  H   H90       1.0  0.02445  0.05582  0.25937  1.0000
  H   H91       1.0  0.21034  0.45390  0.42106  1.0000
  C   C127      1.0  0.17787  0.05782  0.26115  1.0000
  H   H92       1.0  0.11969  0.43412  0.37491  1.0000
  H   H93       1.0  0.15014  0.01286  0.24780  1.0000
  C   C128      1.0  0.47899  0.17407  0.43011  1.0000
  H   H94       1.0  0.00665  0.04806  0.30403  1.0000
  H   H95       1.0  0.23257  0.99460  0.31220  1.0000
  C   C129      1.0  0.17132  0.47569  0.41920  1.0000
  C   C130      1.0  0.25380  0.01953  0.30671  1.0000
  C   C131      1.0  0.03460  0.34756  0.37380  1.0000
  C   C132      1.0  0.01008  0.04446  0.24974  1.0000
  H   H96       1.0  0.38404  0.12416  0.45020  1.0000
  H   H97       1.0  0.46946  0.46925  0.39867  1.0000
  C   C133      1.0  0.45759  0.29666  0.42373  1.0000
  H   H98       1.0  0.24300  0.02220  0.26051  1.0000
  S   S17       1.0  0.44999  0.99313  0.46952  1.0000
  C   C134      1.0  0.16573  0.41519  0.41179  1.0000
  H   H99       1.0  0.21836  0.02524  0.33548  1.0000
  H   H100      1.0  0.06590  0.48058  0.42407  1.0000
  H   H101      1.0  0.02701  0.11517  0.29729  1.0000
  H   H102      1.0  0.27160  0.10588  0.28961  1.0000
  C   C135      1.0  0.49043  0.27174  0.43886  1.0000
  H   H103      1.0  0.99534  0.10762  0.27119  1.0000
  H   H104      1.0  0.48538  0.28873  0.46905  1.0000
  C   C136      1.0  0.48354  0.23260  0.46987  1.0000
  H   H105      1.0  0.09522  0.02291  0.26418  1.0000
  C   C137      1.0  0.43240  0.17175  0.44960  1.0000
  C   C138      1.0  0.36963  0.03062  0.26241  1.0000
  H   H106      1.0  0.11821  0.38242  0.40312  1.0000
  C   C139      1.0  0.24813  0.05109  0.30203  1.0000
  C   C140      1.0  0.00157  0.01757  0.34369  1.0000
  C   C141      1.0  0.08284  0.06021  0.29802  1.0000
  C   C142      1.0  0.07112  0.02802  0.30830  1.0000
  H   H107      1.0  0.17895  0.07925  0.25251  1.0000
  C   C143      1.0  0.09179  0.05837  0.28210  1.0000
  H   H108      1.0  0.06455  0.02935  0.32065  1.0000
  H   H109      1.0  0.10179  0.08321  0.27414  1.0000
  C   C144      1.0  0.16289  0.33036  0.28569  1.0000
  C   C145      1.0  0.14701  0.33904  0.27350  1.0000
  C   C146      1.0  0.15018  0.37585  0.27031  1.0000
  C   C147      1.0  0.16892  0.40413  0.27937  1.0000
  C   C148      1.0  0.18459  0.39525  0.29155  1.0000
  C   C149      1.0  0.18167  0.35866  0.29465  1.0000
  H   H110      1.0  0.13254  0.31747  0.26650  1.0000
  H   H111      1.0  0.13802  0.38242  0.26084  1.0000
  H   H112      1.0  0.19946  0.41661  0.29847  1.0000
  H   H113      1.0  0.19418  0.35227  0.30404  1.0000
  C   C150      1.0  0.13287  0.40866  0.40751  1.0000
  C   C151      1.0  0.06796  0.99406  0.30265  1.0000
  H   H114      1.0  0.47958  0.11343  0.47711  1.0000
  H   H115      1.0  0.17634  0.39431  0.41052  1.0000
  H   H116      1.0  0.35887  0.47308  0.42657  1.0000
  C   C152      1.0  0.25944  0.03025  0.24934  1.0000
  H   H117      1.0  0.07716  0.46838  0.37448  1.0000
  C   C153      1.0  0.18806  0.03960  0.28685  1.0000
  C   C154      1.0  0.19132  0.06744  0.27526  1.0000
  P   P8        1.0  0.20526  0.05117  0.30512  1.0000
  H   H118      1.0  0.01110  0.32306  0.37345  1.0000
  C   C155      1.0  0.48013  0.26352  0.47626  1.0000
  C   C156      1.0  0.09575  0.41003  0.37473  1.0000
  H   H119      1.0  0.32814  0.44705  0.40396  1.0000
  C   C157      1.0  0.27578  0.08184  0.29389  1.0000
  C   C158      1.0  0.18487  0.44864  0.41772  1.0000
  C   C159      1.0  0.07079  0.46924  0.39979  1.0000
  H   H120      1.0  0.30340  0.02672  0.25856  1.0000
  H   H121      1.0  0.04514  0.03496  0.35681  1.0000
  H   H122      1.0  0.10924  0.10293  0.24509  1.0000
  C   C160      1.0  0.48246  0.33262  0.42425  1.0000
  H   H123      1.0  0.00453  0.04582  0.34083  1.0000
  C   C161      1.0  0.20597  0.09552  0.31014  1.0000
  C   C162      1.0  0.23331  0.11989  0.31738  1.0000
  C   C163      1.0  0.23370  0.15432  0.32114  1.0000
  C   C164      1.0  0.20658  0.16435  0.31792  1.0000
  C   C165      1.0  0.17880  0.13974  0.31117  1.0000
  C   C166      1.0  0.17825  0.10529  0.30743  1.0000
  C   C167      1.0  0.00394  0.10108  0.30560  1.0000
  C   C168      1.0  0.41059  0.13811  0.44461  1.0000
  H   H124      1.0  0.11177  0.39912  0.35162  1.0000
  C   C169      1.0  0.31474  0.05087  0.29664  1.0000
  H   H125      1.0  0.20344  0.09651  0.27719  1.0000
  C   C170      1.0  0.06938  0.39937  0.38749  1.0000
  C   C171      1.0  0.13864  0.46935  0.41484  1.0000
  C   C172      1.0  0.00945  0.39685  0.42081  1.0000
  S   S18       1.0  0.01072  0.18511  0.26137  1.0000
  H   H126      1.0  0.00154  0.40694  0.41067  1.0000
  H   H127      1.0  0.29120  0.99530  0.30821  1.0000
  S   S19       1.0  0.21454  0.48232  0.31432  1.0000
  C   C173      1.0  0.04420  0.40189  0.42093  1.0000
  H   H128      1.0  0.42228  0.18371  0.45896  1.0000
  C   C174      1.0  0.37388  0.00742  0.27408  1.0000
  H   H129      1.0  0.25420  0.11231  0.32022  1.0000
  H   H130      1.0  0.25493  0.17324  0.32661  1.0000
  H   H131      1.0  0.20681  0.19105  0.32073  1.0000
  H   H132      1.0  0.15753  0.14733  0.30886  1.0000
  H   H133      1.0  0.15618  0.08642  0.30239  1.0000
  H   H134      1.0  0.43509  0.29240  0.41779  1.0000
  H   H135      1.0  0.01826  0.35828  0.39672  1.0000
  C   C175      1.0  0.02941  0.37188  0.44747  1.0000
  H   H136      1.0  0.40606  0.09624  0.42861  1.0000
  H   H137      1.0  0.47928  0.35623  0.41879  1.0000
  H   H138      1.0  0.08076  0.39335  0.43498  1.0000
  H   H139      1.0  0.37782  0.01623  0.28574  1.0000
  C   C176      1.0  0.06082  0.35883  0.36104  1.0000
  H   H140      1.0  0.00426  0.45614  0.37490  1.0000
  C   C177      1.0  0.03879  0.36773  0.38699  1.0000
  C   C178      1.0  0.11909  0.43579  0.40900  1.0000
  H   H141      1.0  0.37004  0.05738  0.26518  1.0000
  H   H142      1.0  0.46663  0.12837  0.41562  1.0000
  C   C179      1.0  0.02481  0.01153  0.35279  1.0000
  C   C180      1.0  0.09137  0.39008  0.36152  1.0000
  C   C181      1.0  0.16191  0.02049  0.25840  1.0000
  C   C182      1.0  0.42296  0.12241  0.43242  1.0000
  C   C183      1.0  0.08846  0.02428  0.27648  1.0000
  H   H143      1.0  0.33037  0.10590  0.28527  1.0000
  C   C184      1.0  0.05406  0.38932  0.43440  1.0000
  C   C185      1.0  0.17750  0.01821  0.32105  1.0000
  C   C186      1.0  0.46698  0.18966  0.44256  1.0000
  H   H144      1.0  0.05764  0.34332  0.35079  1.0000
  C   C187      1.0  0.28707  0.01964  0.30422  1.0000
  C   C188      1.0  0.30902  0.08180  0.29130  1.0000
  C   C189      1.0  0.47634  0.20058  0.47988  1.0000
  C   C190      1.0  0.14175  0.00048  0.32039  1.0000
  H   H145      1.0  0.04373  0.26633  0.24815  1.0000
  H   H146      1.0  0.00574  0.46192  0.46990  1.0000
  C   C191      1.0  0.29373  0.03298  0.24815  1.0000
  H   H147      1.0  0.46098  0.08836  0.45213  1.0000
  H   H148      1.0  0.44175  0.23876  0.43062  1.0000
  H   H149      1.0  0.03725  0.36269  0.45791  1.0000
  C   C192      1.0  0.36524  0.01938  0.24722  1.0000
  C   C193      1.0  0.17331  0.00233  0.28368  1.0000
  C   C194      1.0  0.33844  0.47669  0.40490  1.0000
  H   H150      1.0  0.47832  0.17625  0.47529  1.0000
  H   H151      1.0  0.12886  0.49073  0.41605  1.0000
  C   C195      1.0  0.07259  0.48295  0.38425  1.0000
  H   H152      1.0  0.13066  0.00659  0.31043  1.0000
  C   C196      1.0  0.16011  0.99284  0.26957  1.0000
  H   H153      1.0  0.32031  0.48844  0.38376  1.0000
  H   H154      1.0  0.20902  0.48109  0.36087  1.0000
  C   C197      1.0  0.49345  0.01082  0.47341  1.0000
  H   H155      1.0  0.00138  0.11123  0.24235  1.0000
  C   C198      1.0  0.19108  0.01091  0.33441  1.0000
  H   H156      1.0  0.48939  0.99593  0.39664  1.0000
  C   C199      1.0  0.35576  0.49131  0.41761  1.0000
  H   H157      1.0  0.46672  0.15040  0.24414  1.0000
  C   C200      1.0  0.48819  0.09898  0.45369  1.0000
  C   C201      1.0  0.06639  0.49010  0.41203  1.0000
  H   H158      1.0  0.99453  0.15040  0.30887  1.0000
  H   H159      1.0  0.42870  0.08487  0.24242  1.0000
  C   C202      1.0  0.44159  0.14343  0.24014  1.0000
  S   S20       1.0  0.15263  0.48875  0.34910  1.0000
  C   C203      1.0  0.99479  0.36665  0.44718  1.0000
  H   H160      1.0  0.21319  0.49154  0.38885  1.0000
  C   C204      1.0  0.07184  0.09362  0.70184  1.0000
  C   C205      1.0  0.27470  0.11254  0.72381  1.0000
  C   C206      1.0  0.43647  0.19925  0.68680  1.0000
  Fe  Fe9       1.0  0.26571  0.08975  0.64999  1.0000
  S   S21       1.0  0.26105  0.11256  0.67303  1.0000
  S   S22       1.0  0.31931  0.10489  0.63709  1.0000
  H   H161      1.0  0.09198  0.00382  0.72501  1.0000
  S   S23       1.0  0.17663  0.06424  0.67611  1.0000
  Fe  Fe10      1.0  0.21513  0.11956  0.66489  1.0000
  S   S24       1.0  0.21107  0.17445  0.66658  1.0000
  Fe  Fe11      1.0  0.22349  0.05486  0.68172  1.0000
  C   C207      1.0  0.01407  0.04735  0.65951  1.0000
  S   S25       1.0  0.22209  0.10033  0.64117  1.0000
  S   S26       1.0  0.23194  0.03110  0.65933  1.0000
  C   C208      1.0  0.18484  0.15373  0.70667  1.0000
  H   H162      1.0  0.09120  0.33381  0.71874  1.0000
  H   H163      1.0  0.30780  0.20163  0.66121  1.0000
  C   C209      1.0  0.42390  0.17680  0.58699  1.0000
  C   C210      1.0  0.13345  0.08782  0.63908  1.0000
  C   C211      1.0  0.48794  0.43463  0.52809  1.0000
  Fe  Fe12      1.0  0.46417  0.29551  0.61301  1.0000
  H   H164      1.0  0.13645  0.06574  0.71470  1.0000
  S   S27       1.0  0.40648  0.27339  0.61174  1.0000
  C   C212      1.0  0.07855  0.06559  0.62855  1.0000
  H   H165      1.0  0.39863  0.21560  0.69954  1.0000
  H   H166      1.0  0.45326  0.21352  0.64582  1.0000
  H   H167      1.0  0.09699  0.22896  0.72611  1.0000
  H   H168      1.0  0.46757  0.43948  0.62736  1.0000
  C   C213      1.0  0.46169  0.13247  0.54493  1.0000
  C   C214      1.0  0.16167  0.31217  0.71805  1.0000
  C   C215      1.0  0.16233  0.07403  0.73542  1.0000
  C   C216      1.0  0.11159  0.01940  0.73211  1.0000
  H   H169      1.0  0.13924  0.14028  0.60572  1.0000
  C   C217      1.0  0.46318  0.23060  0.50214  1.0000
  C   C218      1.0  0.17468  0.32832  0.73147  1.0000
  C   C219      1.0  0.17460  0.17469  0.65863  1.0000
  C   C220      1.0  0.17882  0.20185  0.64668  1.0000
  C   C221      1.0  0.14987  0.20254  0.64028  1.0000
  C   C222      1.0  0.11651  0.17694  0.64620  1.0000
  C   C223      1.0  0.11216  0.14991  0.65827  1.0000
  C   C224      1.0  0.14136  0.14838  0.66428  1.0000
  H   H170      1.0  0.20453  0.22202  0.64222  1.0000
  H   H171      1.0  0.15330  0.22316  0.63083  1.0000
  H   H172      1.0  0.08646  0.12947  0.66255  1.0000
  H   H173      1.0  0.13823  0.12692  0.67330  1.0000
  C   C225      1.0  0.34301  0.15209  0.63054  1.0000
  C   C226      1.0  0.32631  0.17575  0.62760  1.0000
  C   C227      1.0  0.34593  0.21304  0.62190  1.0000
  C   C228      1.0  0.38232  0.22706  0.61955  1.0000
  C   C229      1.0  0.39894  0.20349  0.62268  1.0000
  C   C230      1.0  0.37932  0.16598  0.62791  1.0000
  H   H174      1.0  0.29827  0.16520  0.62952  1.0000
  H   H175      1.0  0.33288  0.23107  0.61945  1.0000
  H   H176      1.0  0.42690  0.21391  0.62055  1.0000
  H   H177      1.0  0.39226  0.14762  0.62994  1.0000
  H   H178      1.0  0.19407  0.23518  0.68768  1.0000
  C   C231      1.0  0.09894  0.06280  0.63999  1.0000
  H   H179      1.0  0.19050  0.27009  0.66430  1.0000
  C   C232      1.0  0.13734  0.21178  0.73239  1.0000
  C   C233      1.0  0.44829  0.24002  0.70784  1.0000
  C   C234      1.0  0.46643  0.19968  0.49595  1.0000
  H   H180      1.0  0.39499  0.21125  0.58965  1.0000
  H   H181      1.0  0.08850  0.04099  0.64952  1.0000
  H   H182      1.0  0.40672  0.15555  0.59596  1.0000
  C   C235      1.0  0.13674  0.05426  0.72631  1.0000
  H   H183      1.0  0.40841  0.29117  0.65232  1.0000
  H   H184      1.0  0.48633  0.44074  0.51588  1.0000
  H   H185      1.0  0.07869  0.09511  0.60669  1.0000
  S   S28       1.0  0.08096  0.17800  0.63764  1.0000
  H   H186      1.0  0.48086  0.19011  0.67607  1.0000
  C   C236      1.0  0.35067  0.18854  0.66670  1.0000
  H   H187      1.0  0.48656  0.13314  0.62614  1.0000
  H   H188      1.0  0.33397  0.16002  0.67028  1.0000
  Fe  Fe13      1.0  0.03574  0.17453  0.65463  1.0000
  H   H189      1.0  0.01932  0.07488  0.65434  1.0000
  S   S29       1.0  0.48182  0.31163  0.63615  1.0000
  H   H190      1.0  0.12095  0.30088  0.70331  1.0000
  C   C237      1.0  0.16968  0.23724  0.68642  1.0000
  C   C238      1.0  0.14002  0.21885  0.69744  1.0000
  H   H191      1.0  0.19208  0.48744  0.72878  1.0000
  H   H192      1.0  0.34566  0.08629  0.72186  1.0000
  C   C239      1.0  0.10678  0.24027  0.68102  1.0000
  C   C240      1.0  0.43013  0.12299  0.65891  1.0000
  H   H193      1.0  0.45546  0.23005  0.51455  1.0000
  C   C241      1.0  0.39226  0.26266  0.65662  1.0000
  H   H194      1.0  0.35117  0.10786  0.66435  1.0000
  H   H195      1.0  0.44886  0.37353  0.62222  1.0000
  H   H196      1.0  0.46845  0.28687  0.49718  1.0000
  H   H197      1.0  0.30270  0.04051  0.70746  1.0000
  C   C242      1.0  0.11386  0.22893  0.73471  1.0000
  H   H198      1.0  0.45776  0.14867  0.58197  1.0000
  S   S30       1.0  0.22925  0.02918  0.70449  1.0000
  H   H199      1.0  0.34485  0.26724  0.65201  1.0000
  H   H200      1.0  0.04594  0.04124  0.71567  1.0000
  C   C243      1.0  0.02394  0.25026  0.71691  1.0000
  C   C244      1.0  0.19138  0.99414  0.71453  1.0000
  C   C245      1.0  0.21334  0.21573  0.71457  1.0000
  S   S31       1.0  0.03175  0.25762  0.69646  1.0000
  C   C246      1.0  0.46819  0.23210  0.56411  1.0000
  Fe  Fe14      1.0  0.18718  0.04379  0.65298  1.0000
  H   H201      1.0  0.16211  0.13112  0.70385  1.0000
  C   C247      1.0  0.10850  0.22061  0.69460  1.0000
  C   C248      1.0  0.32287  0.06531  0.70121  1.0000
  C   C249      1.0  0.24541  0.21290  0.71186  1.0000
  P   P9        1.0  0.14166  0.19092  0.71439  1.0000
  H   H202      1.0  0.46541  0.08495  0.51311  1.0000
  H   H203      1.0  0.27937  0.10065  0.71314  1.0000
  C   C250      1.0  0.24715  0.18050  0.70658  1.0000
  C   C251      1.0  0.06239  0.07037  0.71570  1.0000
  H   H204      1.0  0.30549  0.05166  0.67875  1.0000
  C   C252      1.0  0.18274  0.18610  0.71200  1.0000
  C   C253      1.0  0.45276  0.17302  0.57905  1.0000
  H   H205      1.0  0.39093  0.14309  0.70775  1.0000
  H   H206      1.0  0.17457  0.13564  0.62637  1.0000
  C   C254      1.0  0.09726  0.12188  0.72937  1.0000
  C   C255      1.0  0.14797  0.11583  0.62680  1.0000
  C   C256      1.0  0.32442  0.07154  0.68503  1.0000
  C   C257      1.0  0.39288  0.28864  0.55444  1.0000
  C   C258      1.0  0.36945  0.26635  0.56708  1.0000
  C   C259      1.0  0.36162  0.28254  0.58023  1.0000
  C   C260      1.0  0.37714  0.32100  0.58077  1.0000
  C   C261      1.0  0.40146  0.34359  0.56830  1.0000
  C   C262      1.0  0.40884  0.32707  0.55503  1.0000
  P   P10       1.0  0.42117  0.39352  0.56882  1.0000
  C   C263      1.0  0.39123  0.41365  0.56382  1.0000
  C   C264      1.0  0.43419  0.40736  0.58774  1.0000
  C   C265      1.0  0.44492  0.44480  0.59079  1.0000
  C   C266      1.0  0.45676  0.45632  0.60503  1.0000
  C   C267      1.0  0.45789  0.43058  0.61640  1.0000
  C   C268      1.0  0.44731  0.39335  0.61350  1.0000
  C   C269      1.0  0.43598  0.38182  0.59917  1.0000
  C   C270      1.0  0.35526  0.39246  0.56608  1.0000
  C   C271      1.0  0.33229  0.40814  0.56210  1.0000
  C   C272      1.0  0.34500  0.44508  0.55584  1.0000
  C   C273      1.0  0.47024  0.26255  0.49232  1.0000
  C   C274      1.0  0.40374  0.45088  0.55761  1.0000
  C   C275      1.0  0.45992  0.41201  0.55475  1.0000
  C   C276      1.0  0.49201  0.41565  0.55927  1.0000
  H   H207      1.0  0.39911  0.27614  0.54424  1.0000
  H   H208      1.0  0.35761  0.23649  0.56678  1.0000
  H   H209      1.0  0.34400  0.26521  0.59019  1.0000
  H   H210      1.0  0.37050  0.33295  0.59106  1.0000
  H   H211      1.0  0.42708  0.34358  0.54510  1.0000
  H   H212      1.0  0.44481  0.46533  0.58209  1.0000
  C   C277      1.0  0.01629  0.09190  0.62230  1.0000
  S   S32       1.0  0.02500  0.15917  0.68062  1.0000
  C   C278      1.0  0.13145  0.31395  0.71355  1.0000
  H   H213      1.0  0.42964  0.35314  0.59703  1.0000
  H   H214      1.0  0.34471  0.36380  0.57086  1.0000
  C   C279      1.0  0.12758  0.34881  0.73565  1.0000
  C   C280      1.0  0.49435  0.22583  0.69456  1.0000
  H   H215      1.0  0.18139  0.10112  0.73088  1.0000
  C   C281      1.0  0.02022  0.21700  0.72506  1.0000
  H   H216      1.0  0.49405  0.40729  0.57114  1.0000
  H   H217      1.0  0.10132  0.14834  0.69085  1.0000
  H   H218      1.0  0.43332  0.41686  0.53505  1.0000
  C   C282      1.0  0.45800  0.42109  0.53901  1.0000
  H   H219      1.0  0.48832  0.19685  0.62552  1.0000
  H   H220      1.0  0.44315  0.13216  0.55460  1.0000
  C   C283      1.0  0.43985  0.23621  0.57235  1.0000
  C   C284      1.0  0.02284  0.27963  0.72518  1.0000
  H   H221      1.0  0.30458  0.39155  0.56382  1.0000
  C   C285      1.0  0.01775  0.02027  0.65023  1.0000
  C   C286      1.0  0.47383  0.10563  0.52141  1.0000
  H   H222      1.0  0.22710  0.06592  0.73177  1.0000
  C   C287      1.0  0.44998  0.11363  0.64720  1.0000
  H   H223      1.0  0.41497  0.10218  0.66836  1.0000
  C   C288      1.0  0.47125  0.20343  0.68502  1.0000
  H   H224      1.0  0.46161  0.17515  0.50363  1.0000
  C   C289      1.0  0.07446  0.08470  0.72954  1.0000
  C   C290      1.0  0.21685  0.15077  0.70422  1.0000
  C   C291      1.0  0.10755  0.14514  0.71538  1.0000
  H   H225      1.0  0.08230  0.24070  0.67865  1.0000
  H   H226      1.0  0.18250  0.42137  0.73080  1.0000
  H   H227      1.0  0.48504  0.25408  0.55546  1.0000
  H   H228      1.0  0.42416  0.08539  0.53574  1.0000
  H   H229      1.0  0.01281  0.30064  0.64122  1.0000
  H   H230      1.0  0.32130  0.16227  0.71876  1.0000
  C   C292      1.0  0.13633  0.25844  0.67021  1.0000
  H   H231      1.0  0.27201  0.17870  0.70388  1.0000
  C   C293      1.0  0.09399  0.13093  0.70172  1.0000
  P   P11       1.0  0.03417  0.03249  0.62967  1.0000
  H   H232      1.0  0.43519  0.25016  0.66202  1.0000
  C   C294      1.0  0.16781  0.25712  0.67296  1.0000
  C   C295      1.0  0.34695  0.09126  0.70931  1.0000
  H   H233      1.0  0.13454  0.27256  0.65946  1.0000
  H   H234      1.0  0.06263  0.08270  0.69107  1.0000
  H   H235      1.0  0.47469  0.31844  0.54535  1.0000
  C   C296      1.0  0.41730  0.20824  0.58352  1.0000
  H   H236      1.0  0.02533  0.30516  0.71892  1.0000
  C   C297      1.0  0.48283  0.24388  0.70604  1.0000
  H   H237      1.0  0.43561  0.26134  0.57022  1.0000
  H   H238      1.0  0.21821  0.12586  0.69989  1.0000
  H   H239      1.0  0.43947  0.25443  0.71660  1.0000
  C   C298      1.0  0.29813  0.14730  0.72695  1.0000
  H   H240      1.0  0.08487  0.20561  0.70249  1.0000
  C   C299      1.0  0.35640  0.24925  0.65649  1.0000
  H   H241      1.0  0.21245  0.24138  0.71822  1.0000
  C   C300      1.0  0.11454  0.33239  0.72231  1.0000
  C   C301      1.0  0.35009  0.10360  0.67692  1.0000
  C   C302      1.0  0.37401  0.13020  0.68496  1.0000
  C   C303      1.0  0.37245  0.12362  0.70124  1.0000
  P   P12       1.0  0.40654  0.17184  0.67415  1.0000
  H   H242      1.0  0.17469  0.29776  0.71124  1.0000
  C   C304      1.0  0.43044  0.15892  0.65847  1.0000
  C   C305      1.0  0.47473  0.20032  0.56729  1.0000
  H   H243      1.0  0.14880  0.08557  0.64804  1.0000
  C   C306      1.0  0.24481  0.09302  0.73433  1.0000
  C   C307      1.0  0.45156  0.18537  0.64629  1.0000
  H   H244      1.0  0.03729  0.10824  0.62856  1.0000
  C   C308      1.0  0.40737  0.23909  0.66186  1.0000
  C   C309      1.0  0.42522  0.21796  0.69821  1.0000
  C   C310      1.0  0.33558  0.21228  0.66164  1.0000
  C   C311      1.0  0.09356  0.09307  0.61592  1.0000
  C   C312      1.0  0.45068  0.10588  0.53417  1.0000
  C   C313      1.0  0.38674  0.20162  0.66678  1.0000
  C   C314      1.0  0.47075  0.14015  0.63508  1.0000
  C   C315      1.0  0.00396  0.03927  0.67566  1.0000
  C   C316      1.0  0.47157  0.17598  0.63466  1.0000
  S   S33       1.0  0.14445  0.00338  0.64103  1.0000
  S   S34       1.0  0.02802  0.22732  0.65601  1.0000
  H   H245      1.0  0.32717  0.45712  0.55269  1.0000
  H   H246      1.0  0.26899  0.23614  0.71346  1.0000
  C   C317      1.0  0.12803  0.11842  0.61519  1.0000
  Fe  Fe15      1.0  0.01270  0.20976  0.68166  1.0000
  H   H247      1.0  0.03028  0.30448  0.66796  1.0000
  H   H248      1.0  0.44954  0.08589  0.64761  1.0000
  H   H249      1.0  0.43134  0.46786  0.55571  1.0000
  C   C318      1.0  0.38071  0.46644  0.55361  1.0000
  H   H250      1.0  0.08918  0.01795  0.61057  1.0000
  H   H251      1.0  0.19794  0.32628  0.73476  1.0000
  H   H252      1.0  0.02119  0.19426  0.71867  1.0000
  C   C319      1.0  0.00870  0.05415  0.62087  1.0000
  H   H253      1.0  0.00058  0.06014  0.68266  1.0000
  H   H254      1.0  0.00383  0.13852  0.61647  1.0000
  C   C320      1.0  0.99743  0.00411  0.68269  1.0000
  C   C321      1.0  0.00490  0.30347  0.66615  1.0000
  H   H255      1.0  0.99673  0.03418  0.73348  1.0000
  C   C322      1.0  0.99713  0.10916  0.61553  1.0000
  H   H256      1.0  0.46542  0.48528  0.60724  1.0000
  C   C323      1.0  0.03419  0.99305  0.61952  1.0000
  C   C324      1.0  0.06482  0.99420  0.61090  1.0000
  C   C325      1.0  0.99516  0.30151  0.65110  1.0000
  H   H257      1.0  0.10732  0.13212  0.74009  1.0000
  H   H258      1.0  0.48509  0.04619  0.49031  1.0000
  S   S35       1.0  0.37567  0.43301  0.94723  1.0000
  P   P13       1.0  0.17450  0.36852  0.75762  1.0000
  C   C326      1.0  0.17083  0.43944  0.98449  1.0000
  H   H259      1.0  0.06425  0.28305  0.78906  1.0000
  C   C327      1.0  0.48323  0.45904  0.85668  1.0000
  H   H260      1.0  0.19685  0.31101  0.76841  1.0000
  H   H261      1.0  0.37449  0.39677  0.87305  1.0000
  Fe  Fe16      1.0  0.04295  0.13360  0.78518  1.0000
  S   S36       1.0  0.02993  0.12249  0.81128  1.0000
  S   S37       1.0  0.06358  0.09895  0.77058  1.0000
  P   P14       1.0  0.16730  0.49149  0.85060  1.0000
  Fe  Fe17      1.0  0.05109  0.18456  0.81126  1.0000
  S   S38       1.0  0.08379  0.21800  0.82881  1.0000
  H   H262      1.0  0.46974  0.36354  0.84114  1.0000
  S   S39       1.0  0.06859  0.19539  0.78545  1.0000
  Fe  Fe18      1.0  0.26526  0.36574  0.81372  1.0000
  S   S40       1.0  0.23114  0.38772  0.82780  1.0000
  S   S41       1.0  0.24315  0.30905  0.80493  1.0000
  Fe  Fe19      1.0  0.32967  0.43650  0.81394  1.0000
  H   H263      1.0  0.43974  0.42748  0.87418  1.0000
  C   C328      1.0  0.00902  0.42045  0.96473  1.0000
  Fe  Fe20      1.0  0.27491  0.40951  0.84224  1.0000
  S   S42       1.0  0.26628  0.41233  0.86825  1.0000
  Fe  Fe21      1.0  0.25970  0.43988  0.81206  1.0000
  H   H264      1.0  0.43684  0.48437  0.84148  1.0000
  S   S43       1.0  0.30700  0.38304  0.82944  1.0000
  S   S44       1.0  0.29104  0.41668  0.79675  1.0000
  C   C329      1.0  0.19887  0.28399  0.81159  1.0000
  C   C330      1.0  0.18414  0.28950  0.82603  1.0000
  C   C331      1.0  0.14896  0.26856  0.83138  1.0000
  C   C332      1.0  0.12818  0.24246  0.82216  1.0000
  C   C333      1.0  0.14302  0.23658  0.80781  1.0000
  C   C334      1.0  0.17839  0.25709  0.80260  1.0000
  H   H265      1.0  0.19989  0.30963  0.83315  1.0000
  H   H266      1.0  0.13771  0.27297  0.84256  1.0000
  H   H267      1.0  0.12738  0.21596  0.80082  1.0000
  H   H268      1.0  0.18986  0.25237  0.79155  1.0000
  C   C335      1.0  0.07172  0.06615  0.78219  1.0000
  C   C336      1.0  0.08191  0.07380  0.79704  1.0000
  C   C337      1.0  0.08964  0.04808  0.80597  1.0000
  C   C338      1.0  0.17002  0.45458  0.96966  1.0000
  H   H269      1.0  0.11046  0.42445  0.84308  1.0000
  C   C339      1.0  0.06904  0.03255  0.77638  1.0000
  H   H270      1.0  0.08473  0.09994  0.80146  1.0000
  H   H271      1.0  0.09203  0.10645  0.83037  1.0000
  H   H272      1.0  0.37796  0.48293  0.84255  1.0000
  H   H273      1.0  0.06099  0.02641  0.76496  1.0000
  H   H274      1.0  0.12922  0.15411  0.77837  1.0000
  C   C340      1.0  0.12990  0.41635  0.84739  1.0000
  H   H275      1.0  0.09746  0.05391  0.81743  1.0000
  H   H276      1.0  0.08878  0.29177  0.81420  1.0000
  C   C341      1.0  0.16377  0.05839  0.75015  1.0000
  H   H277      1.0  0.11416  0.36311  0.74228  1.0000
  C   C342      1.0  0.36001  0.42222  0.89264  1.0000
  C   C343      1.0  0.33559  0.43491  0.89939  1.0000
  C   C344      1.0  0.30717  0.43243  0.89173  1.0000
  C   C345      1.0  0.30279  0.41676  0.87740  1.0000
  C   C346      1.0  0.32718  0.40403  0.87069  1.0000
  C   C347      1.0  0.35575  0.40674  0.87829  1.0000
  H   H278      1.0  0.33825  0.44607  0.91063  1.0000
  H   H279      1.0  0.28887  0.44301  0.89689  1.0000
  H   H280      1.0  0.32394  0.39168  0.85974  1.0000
  Fe  Fe22      1.0  0.36537  0.48471  0.94903  1.0000
  H   H281      1.0  0.24579  0.42633  0.75027  1.0000
  H   H282      1.0  0.08787  0.15699  0.84529  1.0000
  C   C348      1.0  0.16937  0.16042  0.79294  1.0000
  C   C349      1.0  0.21689  0.36856  0.75907  1.0000
  H   H283      1.0  0.13177  0.26066  0.77030  1.0000
  H   H284      1.0  0.21120  0.16127  0.80542  1.0000
  H   H285      1.0  0.14545  0.48198  0.95601  1.0000
  C   C350      1.0  0.19060  0.49184  0.75363  1.0000
  C   C351      1.0  0.11174  0.32086  0.77536  1.0000
  C   C352      1.0  0.24715  0.40072  0.75453  1.0000
  C   C353      1.0  0.04030  0.43942  0.95484  1.0000
  C   C354      1.0  0.12425  0.37877  0.84847  1.0000
  C   C355      1.0  0.14847  0.36742  0.85437  1.0000
  C   C356      1.0  0.17809  0.39363  0.85936  1.0000
  C   C357      1.0  0.18415  0.43129  0.85807  1.0000
  H   H286      1.0  0.04892  0.42495  0.94607  1.0000
  S   S45       1.0  0.31590  0.48496  0.96189  1.0000
  C   C358      1.0  0.19697  0.15086  0.79568  1.0000
  H   H287      1.0  0.43148  0.36702  0.86440  1.0000
  H   H288      1.0  0.18938  0.48815  0.77871  1.0000
  H   H289      1.0  0.10111  0.35841  0.84470  1.0000
  H   H290      1.0  0.14436  0.33838  0.85504  1.0000
  H   H291      1.0  0.19678  0.38484  0.86395  1.0000
  H   H292      1.0  0.20747  0.45110  0.86189  1.0000
  P   P15       1.0  0.19856  0.08258  0.76134  1.0000
  C   C359      1.0  0.16036  0.34923  0.78988  1.0000
  C   C360      1.0  0.13836  0.02343  0.75588  1.0000
  C   C361      1.0  0.45209  0.39203  0.85858  1.0000
  C   C362      1.0  0.18707  0.11334  0.77353  1.0000
  S   S46       1.0  0.45175  0.44540  0.97274  1.0000
  C   C363      1.0  0.27976  0.40039  0.75587  1.0000
  C   C364      1.0  0.26106  0.14362  0.75095  1.0000
  C   C365      1.0  0.20507  0.04822  0.77375  1.0000
  C   C366      1.0  0.22698  0.03105  0.76811  1.0000
  H   H293      1.0  0.15402  0.21618  0.92978  1.0000
  C   C367      1.0  0.15561  0.22873  0.75785  1.0000
  H   H294      1.0  0.25509  0.42485  0.97664  1.0000
  C   C368      1.0  0.18669  0.03686  0.78889  1.0000
  S   S47       1.0  0.39521  0.42425  0.90226  1.0000
  C   C369      1.0  0.10990  0.48382  0.87170  1.0000
  C   C370      1.0  0.28241  0.36795  0.76157  1.0000
  C   C371      1.0  0.09103  0.30190  0.78928  1.0000
  C   C372      1.0  0.10480  0.30687  0.80347  1.0000
  S   S48       1.0  0.30014  0.46391  0.82796  1.0000
  H   H295      1.0  0.24044  0.03815  0.75632  1.0000
  H   H296      1.0  0.18730  0.36709  0.79041  1.0000
  S   S49       1.0  0.22681  0.46760  0.80318  1.0000
  C   C373      1.0  0.19091  0.00956  0.79836  1.0000
  C   C374      1.0  0.25247  0.33571  0.76584  1.0000
  H   H297      1.0  0.09876  0.21812  0.92331  1.0000
  C   C375      1.0  0.14672  0.34459  0.77552  1.0000
  C   C376      1.0  0.16042  0.44306  0.85177  1.0000
  C   C377      1.0  0.12248  0.47010  0.98019  1.0000
  C   C378      1.0  0.11187  0.24647  0.74833  1.0000
  C   C379      1.0  0.11220  0.00424  0.74696  1.0000
  S   S50       1.0  0.38774  0.46662  0.80815  1.0000
  C   C380      1.0  0.22096  0.36840  0.98467  1.0000
  H   H298      1.0  0.25619  0.15640  0.76126  1.0000
  H   H299      1.0  0.16809  0.04804  0.79324  1.0000
  C   C381      1.0  0.20576  0.12734  0.78605  1.0000
  C   C382      1.0  0.13936  0.33080  0.80378  1.0000
  H   H300      1.0  0.13859  0.01076  0.76722  1.0000
  C   C383      1.0  0.13337  0.24717  0.75971  1.0000
  H   H301      1.0  0.33049  0.22360  0.83402  1.0000
  H   H302      1.0  0.22690  0.11969  0.78845  1.0000
  C   C384      1.0  0.15135  0.24246  0.92873  1.0000
  C   C385      1.0  0.18150  0.43704  0.92442  1.0000
  C   C386      1.0  0.19488  0.44950  0.90877  1.0000
  C   C387      1.0  0.21317  0.43211  0.90023  1.0000
  C   C388      1.0  0.21835  0.40244  0.90735  1.0000
  C   C389      1.0  0.20611  0.39060  0.92321  1.0000
  C   C390      1.0  0.18698  0.40764  0.93163  1.0000
  P   P16       1.0  0.21196  0.35169  0.93237  1.0000
  C   C391      1.0  0.17572  0.30941  0.92976  1.0000
  C   C392      1.0  0.25124  0.34854  0.92332  1.0000
  C   C393      1.0  0.28169  0.36059  0.93055  1.0000
  C   C394      1.0  0.31128  0.35660  0.92358  1.0000
  C   C395      1.0  0.31091  0.34095  0.90932  1.0000
  C   C396      1.0  0.28094  0.32934  0.90195  1.0000
  C   C397      1.0  0.25119  0.33287  0.90897  1.0000
  C   C398      1.0  0.17898  0.27524  0.93109  1.0000
  C   C399      1.0  0.17865  0.41617  0.75616  1.0000
  C   C400      1.0  0.12024  0.24354  0.92508  1.0000
  C   C401      1.0  0.11673  0.27740  0.92381  1.0000
  C   C402      1.0  0.14432  0.31025  0.92614  1.0000
  C   C403      1.0  0.21484  0.35810  0.95290  1.0000
  C   C404      1.0  0.19702  0.32850  0.96444  1.0000
  C   C405      1.0  0.14586  0.46991  0.96750  1.0000
  H   H303      1.0  0.30918  0.19010  0.74285  1.0000
  H   H304      1.0  0.19150  0.47300  0.90338  1.0000
  C   C406      1.0  0.23546  0.39301  0.95744  1.0000
  H   H305      1.0  0.16746  0.45078  0.93101  1.0000
  H   H306      1.0  0.18832  0.45470  0.95986  1.0000
  H   H307      1.0  0.22385  0.44184  0.88813  1.0000
  H   H308      1.0  0.23237  0.38929  0.90046  1.0000
  H   H309      1.0  0.17629  0.39827  0.94376  1.0000
  H   H310      1.0  0.28308  0.37335  0.94146  1.0000
  H   H311      1.0  0.33504  0.36679  0.92895  1.0000
  H   H312      1.0  0.33440  0.33934  0.90371  1.0000
  H   H313      1.0  0.28111  0.31857  0.89059  1.0000
  H   H314      1.0  0.22825  0.32383  0.90311  1.0000
  H   H315      1.0  0.20292  0.27397  0.93396  1.0000
  Fe  Fe23      1.0  0.42830  0.46661  0.95407  1.0000
  H   H316      1.0  0.15011  0.33471  0.81477  1.0000
  H   H317      1.0  0.09254  0.27823  0.92104  1.0000
  H   H318      1.0  0.14096  0.33612  0.92508  1.0000
  H   H319      1.0  0.18092  0.30134  0.96130  1.0000
  C   C407      1.0  0.99808  0.43927  0.97604  1.0000
  C   C408      1.0  0.18083  0.43559  0.76959  1.0000
  C   C409      1.0  0.21980  0.33598  0.76465  1.0000
  H   H320      1.0  0.24976  0.41624  0.94875  1.0000
  C   C410      1.0  0.22904  0.31300  0.86134  1.0000
  C   C411      1.0  0.20422  0.31026  0.87387  1.0000
  C   C412      1.0  0.18087  0.27540  0.88069  1.0000
  C   C413      1.0  0.18239  0.24325  0.87495  1.0000
  C   C414      1.0  0.20690  0.24576  0.86215  1.0000
  C   C415      1.0  0.23038  0.28098  0.85543  1.0000
  P   P17       1.0  0.21056  0.20404  0.85584  1.0000
  C   C416      1.0  0.21778  0.18118  0.87293  1.0000
  C   C417      1.0  0.17275  0.17371  0.84771  1.0000
  C   C418      1.0  0.17490  0.14485  0.83917  1.0000
  C   C419      1.0  0.14597  0.12072  0.83290  1.0000
  C   C420      1.0  0.11460  0.12506  0.83518  1.0000
  C   C421      1.0  0.11225  0.15364  0.84364  1.0000
  C   C422      1.0  0.14128  0.17829  0.84969  1.0000
  C   C423      1.0  0.24074  0.20233  0.88294  1.0000
  C   C424      1.0  0.24646  0.18517  0.89629  1.0000
  C   C425      1.0  0.22919  0.14682  0.89980  1.0000
  C   C426      1.0  0.20613  0.12561  0.88997  1.0000
  C   C427      1.0  0.20036  0.14267  0.87659  1.0000
  C   C428      1.0  0.24680  0.21592  0.84061  1.0000
  C   C429      1.0  0.24352  0.22741  0.82544  1.0000
  C   C430      1.0  0.27141  0.23770  0.81350  1.0000
  C   C431      1.0  0.30274  0.23635  0.81659  1.0000
  C   C432      1.0  0.30611  0.22447  0.83163  1.0000
  C   C433      1.0  0.27826  0.21427  0.84362  1.0000
  H   H321      1.0  0.24726  0.34006  0.85612  1.0000
  H   H322      1.0  0.20347  0.33527  0.87839  1.0000
  H   H323      1.0  0.16177  0.27332  0.89050  1.0000
  H   H324      1.0  0.16459  0.21638  0.88054  1.0000
  H   H325      1.0  0.24982  0.28412  0.84563  1.0000
  H   H326      1.0  0.19895  0.14091  0.83738  1.0000
  H   H327      1.0  0.14784  0.09864  0.82626  1.0000
  H   H328      1.0  0.13886  0.20090  0.85567  1.0000
  H   H329      1.0  0.25435  0.23211  0.88037  1.0000
  H   H330      1.0  0.26432  0.20165  0.90392  1.0000
  H   H331      1.0  0.23365  0.13353  0.91015  1.0000
  H   H332      1.0  0.19261  0.09588  0.89273  1.0000
  H   H333      1.0  0.18216  0.12567  0.86925  1.0000
  H   H334      1.0  0.21957  0.22918  0.82291  1.0000
  H   H335      1.0  0.26888  0.24770  0.80196  1.0000
  H   H336      1.0  0.32451  0.24496  0.80738  1.0000
  H   H337      1.0  0.28160  0.20542  0.85516  1.0000
  C   C434      1.0  0.07650  0.00668  0.78541  1.0000
  H   H338      1.0  0.25450  0.31082  0.77061  1.0000
  H   H339      1.0  0.13045  0.48132  0.79774  1.0000
  H   H340      1.0  0.14453  0.11297  0.76124  1.0000
  H   H341      1.0  0.30762  0.36802  0.76304  1.0000
  C   C435      1.0  0.15981  0.12372  0.77064  1.0000
  C   C436      1.0  0.45681  0.42633  0.86411  1.0000
  H   H342      1.0  0.16179  0.17752  0.80074  1.0000
  H   H343      1.0  0.30640  0.48835  0.92888  1.0000
  H   H344      1.0  0.17908  0.42230  0.78108  1.0000
  C   C437      1.0  0.15105  0.14719  0.78034  1.0000
  C   C438      1.0  0.23764  0.10835  0.74797  1.0000
  C   C439      1.0  0.39240  0.49160  0.85240  1.0000
  Fe  Fe24      1.0  0.01592  0.19461  0.78365  1.0000
  C   C440      1.0  0.18281  0.43521  0.74141  1.0000
  Fe  Fe25      1.0  0.40034  0.45809  0.92288  1.0000
  C   C441      1.0  0.18675  0.47321  0.76830  1.0000
  C   C442      1.0  0.09318  0.48686  0.88613  1.0000
  H   H345      1.0  0.10396  0.48214  0.97835  1.0000
  H   H346      1.0  0.10022  0.31623  0.76462  1.0000
  C   C443      1.0  0.18853  0.47282  0.74018  1.0000
  C   C444      1.0  0.15759  0.34662  0.74045  1.0000
  H   H347      1.0  0.17114  0.22791  0.76699  1.0000
  C   C445      1.0  0.23857  0.39801  0.97326  1.0000
  H   H348      1.0  0.01733  0.29903  0.74782  1.0000
  C   C446      1.0  0.01611  0.21368  0.74157  1.0000
  C   C447      1.0  0.14540  0.48480  0.82095  1.0000
  H   H349      1.0  0.09339  0.25929  0.75008  1.0000
  C   C448      1.0  0.01516  0.24342  0.74976  1.0000
  H   H350      1.0  0.17381  0.19548  0.74346  1.0000
  C   C449      1.0  0.47363  0.39013  0.84551  1.0000
  C   C450      1.0  0.08723  0.01466  0.80014  1.0000
  C   C451      1.0  0.23086  0.00346  0.77757  1.0000
  H   H351      1.0  0.09449  0.47091  0.86262  1.0000
  H   H352      1.0  0.06511  0.47642  0.88813  1.0000
  C   C452      1.0  0.01830  0.27617  0.74152  1.0000
  H   H353      1.0  0.15620  0.46406  0.81955  1.0000
  H   H354      1.0  0.23024  0.48513  0.83500  1.0000
  S   S51       1.0  0.45358  0.48779  0.92951  1.0000
  H   H355      1.0  0.17576  0.00020  0.80982  1.0000
  C   C453      1.0  0.15719  0.21057  0.74439  1.0000
  C   C454      1.0  0.06006  0.47725  0.95608  1.0000
  C   C455      1.0  0.01802  0.47671  0.97747  1.0000
  H   H356      1.0  0.30298  0.42557  0.75284  1.0000
  H   H357      1.0  0.00894  0.34663  0.98821  1.0000
  H   H358      1.0  0.00904  0.49109  0.98614  1.0000
  C   C456      1.0  0.20007  0.33370  0.98027  1.0000
  H   H359      1.0  0.06692  0.06685  0.74039  1.0000
  H   H360      1.0  0.01363  0.18826  0.74794  1.0000
  S   S52       1.0  0.00950  0.24114  0.77024  1.0000
  C   C457      1.0  0.29124  0.16292  0.74049  1.0000
  S   S53       1.0  0.99956  0.18746  0.80955  1.0000
  H   H361      1.0  0.18974  0.42780  0.98613  1.0000
  C   C458      1.0  0.21296  0.99282  0.79271  1.0000
  H   H362      1.0  0.06138  0.40414  0.98707  1.0000
  H   H363      1.0  0.18651  0.31072  0.98913  1.0000
  S   S54       1.0  0.18172  0.88375  0.18523  1.0000
  H   H364      1.0  0.36013  0.97466  0.23260  1.0000
  C   C459      1.0  0.08395  0.49589  0.00957  1.0000
  S   S55       1.0  0.04961  0.73508  0.18141  1.0000
  H   H365      1.0  0.38587  0.64291  0.00637  1.0000
  H   H366      1.0  0.01837  0.94678  0.16728  1.0000
  C   C460      1.0  0.28843  0.82856  0.19121  1.0000
  C   C461      1.0  0.35400  0.73458  0.01505  1.0000
  C   C462      1.0  0.19994  0.78245  0.23852  1.0000
  C   C463      1.0  0.36009  0.89253  0.22103  1.0000
  H   H367      1.0  0.10769  0.98837  0.10766  1.0000
  H   H368      1.0  0.41312  0.96567  0.08037  1.0000
  C   C464      1.0  0.40924  0.90173  0.23526  1.0000
  C   C465      1.0  0.04374  0.94158  0.18716  1.0000
  C   C466      1.0  0.10333  0.64475  0.19525  1.0000
  H   H369      1.0  0.24772  0.96393  0.22034  1.0000
  C   C467      1.0  0.11171  0.52991  0.00445  1.0000
  H   H370      1.0  0.34259  0.98519  0.18321  1.0000
  C   C468      1.0  0.32966  0.66142  0.19155  1.0000
  H   H371      1.0  0.08976  0.98757  0.15409  1.0000
  C   C469      1.0  0.14368  0.84385  0.18413  1.0000
  C   C470      1.0  0.14754  0.81140  0.18024  1.0000
  C   C471      1.0  0.11840  0.77863  0.17949  1.0000
  C   C472      1.0  0.08487  0.77744  0.18303  1.0000
  C   C473      1.0  0.08079  0.80948  0.18751  1.0000
  C   C474      1.0  0.11016  0.84295  0.18778  1.0000
  H   H372      1.0  0.17323  0.81171  0.17753  1.0000
  H   H373      1.0  0.12183  0.75398  0.17613  1.0000
  H   H374      1.0  0.05509  0.80830  0.19083  1.0000
  H   H375      1.0  0.10688  0.86768  0.19114  1.0000
  H   H376      1.0  0.45835  0.94684  0.08886  1.0000
  H   H377      1.0  0.37787  0.98752  0.02369  1.0000
  C   C475      1.0  0.28501  0.59504  0.99647  1.0000
  H   H378      1.0  0.13747  0.53102  0.00102  1.0000
  H   H379      1.0  0.00713  0.82124  0.19178  1.0000
  C   C476      1.0  0.21991  0.54002  0.00870  1.0000
  C   C477      1.0  0.25021  0.53862  0.01332  1.0000
  H   H380      1.0  0.49225  0.80343  0.99410  1.0000
  H   H381      1.0  0.99889  0.79626  0.08932  1.0000
  P   P18       1.0  0.31683  0.86471  0.21683  1.0000
  H   H382      1.0  0.99739  0.78564  0.14698  1.0000
  H   H383      1.0  0.10919  0.63596  0.23408  1.0000
  C   C478      1.0  0.32013  0.70748  0.01710  1.0000
  C   C479      1.0  0.00366  0.64458  0.23670  1.0000
  C   C480      1.0  0.40375  0.60036  0.00134  1.0000
  C   C481      1.0  0.37962  0.72996  0.00486  1.0000
  C   C482      1.0  0.31187  0.67566  0.00899  1.0000
  Fe  Fe26      1.0  0.18224  0.94127  0.18160  1.0000
  H   H384      1.0  0.06839  0.94415  0.20804  1.0000
  H   H385      1.0  0.19482  0.51863  0.01324  1.0000
  C   C483      1.0  0.35122  0.85817  0.18815  1.0000
  H   H386      1.0  0.37734  0.85334  0.16604  1.0000
  H   H387      1.0  0.32285  0.81719  0.15532  1.0000
  H   H388      1.0  0.26594  0.80121  0.17144  1.0000
  H   H389      1.0  0.26344  0.82146  0.19809  1.0000
  H   H390      1.0  0.27768  0.88871  0.19457  1.0000
  C   C484      1.0  0.01685  0.82280  0.12571  1.0000
  H   H391      1.0  0.36030  0.62857  0.19116  1.0000
  C   C485      1.0  0.07926  0.73306  0.23839  1.0000
  H   H392      1.0  0.30009  0.71137  0.02477  1.0000
  C   C486      1.0  0.31561  0.64177  0.22397  1.0000
  H   H393      1.0  0.11004  0.63507  0.18432  1.0000
  C   C487      1.0  0.00387  0.83697  0.18195  1.0000
  C   C488      1.0  0.99863  0.79404  0.10190  1.0000
  H   H394      1.0  0.28530  0.65546  0.01055  1.0000
  H   H395      1.0  0.36035  0.75941  0.02120  1.0000
  C   C489      1.0  0.32179  0.82600  0.16705  1.0000
  C   C490      1.0  0.30808  0.67398  0.20085  1.0000
  C   C491      1.0  0.19082  0.84678  0.22944  1.0000
  C   C492      1.0  0.19912  0.82611  0.21812  1.0000
  C   C493      1.0  0.20323  0.79371  0.22265  1.0000
  H   H396      1.0  0.09824  0.94068  0.23878  1.0000
  H   H397      1.0  0.18702  0.87120  0.22550  1.0000
  H   H398      1.0  0.20148  0.83491  0.20579  1.0000
  H   H399      1.0  0.20872  0.77721  0.21385  1.0000
  C   C494      1.0  0.29346  0.91440  0.23125  1.0000
  C   C495      1.0  0.14773  0.93616  0.23701  1.0000
  C   C496      1.0  0.08972  0.80782  0.23285  1.0000
  C   C497      1.0  0.11015  0.79352  0.22387  1.0000
  C   C498      1.0  0.10557  0.75659  0.22681  1.0000
  C   C499      1.0  0.28970  0.78842  0.22646  1.0000
  C   C500      1.0  0.01800  0.90674  0.11771  1.0000
  C   C501      1.0  0.01982  0.98763  0.18317  1.0000
  C   C502      1.0  0.08497  0.66924  0.22362  1.0000
  H   H400      1.0  0.33519  0.66904  0.17902  1.0000
  H   H401      1.0  0.30576  0.56459  0.01110  1.0000
  H   H402      1.0  0.36702  0.93812  0.20420  1.0000
  S   S56       1.0  0.20477  0.98221  0.19892  1.0000
  C   C503      1.0  0.28265  0.56617  0.00734  1.0000
  C   C504      1.0  0.29332  0.97987  0.11860  1.0000
  C   C505      1.0  0.10257  0.64541  0.22341  1.0000
  C   C506      1.0  0.04905  0.98706  0.20587  1.0000
  C   C507      1.0  0.10635  0.56280  0.00358  1.0000
  C   C508      1.0  0.08600  0.66857  0.19534  1.0000
  C   C509      1.0  0.07689  0.68078  0.20943  1.0000
  H   H403      1.0  0.36245  0.85256  0.23865  1.0000
  H   H404      1.0  0.99802  0.94074  0.10507  1.0000
  C   C510      1.0  0.99794  0.78846  0.13440  1.0000
  C   C511      1.0  0.39910  0.56898  0.99333  1.0000
  C   C512      1.0  0.02093  0.93882  0.10897  1.0000
  H   H405      1.0  0.01948  0.52738  0.01539  1.0000
  C   C513      1.0  0.31675  0.96270  0.11824  1.0000
  H   H406      1.0  0.09323  0.83645  0.23044  1.0000
  H   H407      1.0  0.12930  0.81106  0.21448  1.0000
  H   H408      1.0  0.12204  0.74638  0.21974  1.0000
  C   C514      1.0  0.05320  0.96844  0.10548  1.0000
  H   H409      1.0  0.12491  0.61455  0.20920  1.0000
  H   H410      1.0  0.28380  0.67346  0.22409  1.0000
  C   C515      1.0  0.30090  0.66402  0.21700  1.0000
  H   H411      1.0  0.19389  0.92634  0.23814  1.0000
  C   C516      1.0  0.34386  0.63866  0.19838  1.0000
  C   C517      1.0  0.05062  0.49521  0.01359  1.0000
  C   C518      1.0  0.02279  0.84029  0.16726  1.0000
  C   C519      1.0  0.37852  0.92775  0.21293  1.0000
  H   H412      1.0  0.07922  0.67746  0.18452  1.0000
  H   H413      1.0  0.06319  0.69904  0.20921  1.0000
  C   C520      1.0  0.27723  0.90154  0.20535  1.0000
  H   H414      1.0  0.12774  0.58884  0.99928  1.0000
  C   C521      1.0  0.33748  0.67077  0.99870  1.0000
  H   H415      1.0  0.04907  0.91837  0.18319  1.0000
  S   S57       1.0  0.21616  0.98001  0.16102  1.0000
  C   C522      1.0  0.29344  0.89493  0.21796  1.0000
  C   C523      1.0  0.08256  0.96559  0.11050  1.0000
  H   H416      1.0  0.40587  0.75104  0.00323  1.0000
  C   C524      1.0  0.38266  0.61982  0.99947  1.0000
  C   C525      1.0  0.35248  0.84645  0.17308  1.0000
  C   C526      1.0  0.05457  0.95605  0.20113  1.0000
  P   P19       1.0  0.04171  0.86284  0.13535  1.0000
  H   H417      1.0  0.04050  0.82652  0.16584  1.0000
  C   C527      1.0  0.08300  0.86187  0.13844  1.0000
  C   C528      1.0  0.10508  0.88846  0.14714  1.0000
  C   C529      1.0  0.13658  0.88725  0.15007  1.0000
  C   C530      1.0  0.14586  0.85900  0.14473  1.0000
  C   C531      1.0  0.12378  0.83205  0.13629  1.0000
  C   C532      1.0  0.09251  0.83352  0.13308  1.0000
  C   C533      1.0  0.26016  0.94451  0.21973  1.0000
  C   C534      1.0  0.27683  0.93892  0.23214  1.0000
  C   C535      1.0  0.27625  0.75764  0.23760  1.0000
  H   H418      1.0  0.37544  0.87365  0.19254  1.0000
  H   H419      1.0  0.34745  0.61045  0.21955  1.0000
  C   C536      1.0  0.11166  0.63323  0.20928  1.0000
  H   H420      1.0  0.36618  0.96460  0.10833  1.0000
  C   C537      1.0  0.01777  0.82514  0.10934  1.0000
  C   C538      1.0  0.07950  0.93394  0.11964  1.0000
  C   C539      1.0  0.29660  0.82434  0.23103  1.0000
  H   H421      1.0  0.42350  0.60941  0.00911  1.0000
  H   H422      1.0  0.12960  0.51089  0.03173  1.0000
  C   C540      1.0  0.28977  0.81697  0.17614  1.0000
  H   H423      1.0  0.09796  0.91018  0.15165  1.0000
  H   H424      1.0  0.15355  0.90781  0.15676  1.0000
  H   H425      1.0  0.16987  0.85769  0.14744  1.0000
  H   H426      1.0  0.13065  0.80971  0.13244  1.0000
  H   H427      1.0  0.07567  0.81215  0.12666  1.0000
  C   C541      1.0  0.43069  0.98261  0.08797  1.0000
  H   H428      1.0  0.03303  0.85102  0.10230  1.0000
  C   C542      1.0  0.02633  0.95738  0.17824  1.0000
  C   C543      1.0  0.04694  0.90438  0.12354  1.0000
  H   H429      1.0  0.06887  0.58727  0.00666  1.0000
  H   H430      1.0  0.29555  0.78392  0.21442  1.0000
  H   H431      1.0  0.10267  0.93313  0.12359  1.0000
  C   C544      1.0  0.22209  0.56914  0.99820  1.0000
  C   C545      1.0  0.41205  0.94972  0.21598  1.0000
  C   C546      1.0  0.31911  0.84973  0.19729  1.0000
  H   H432      1.0  0.31079  0.93783  0.12589  1.0000
  C   C547      1.0  0.33670  0.62864  0.21452  1.0000
  H   H433      1.0  0.16041  0.96065  0.22886  1.0000
  C   C548      1.0  0.37134  0.69851  0.99653  1.0000
  C   C549      1.0  0.01809  0.86029  0.15443  1.0000
  C   C550      1.0  0.07316  0.56192  0.00771  1.0000
  C   C551      1.0  0.42735  0.93676  0.22718  1.0000
  H   H434      1.0  0.29675  0.69123  0.19552  1.0000
  C   C552      1.0  0.26049  0.92597  0.20632  1.0000
  S   S58       1.0  0.13678  0.95640  0.17956  1.0000
  C   C553      1.0  0.37579  0.87955  0.23218  1.0000
  H   H435      1.0  0.24795  0.93076  0.19656  1.0000
  H   H436      1.0  0.48649  0.74044  0.00328  1.0000
  H   H437      1.0  0.27147  0.73015  0.23406  1.0000
  H   H438      1.0  0.24864  0.51614  0.02148  1.0000
  H   H439      1.0  0.19887  0.57086  0.99465  1.0000
  C   C554      1.0  0.04533  0.52815  0.01264  1.0000
  H   H440      1.0  0.42623  0.97680  0.20964  1.0000
  H   H441      1.0  0.41514  0.55357  0.99484  1.0000
  H   H442      1.0  0.27590  0.55044  0.23860  1.0000
  C   C555      1.0  0.25446  0.59637  0.99210  1.0000
  H   H443      1.0  0.15351  0.50675  0.05622  1.0000
  H   H444      1.0  0.45330  0.95381  0.22960  1.0000
  C   C556      1.0  0.45618  0.97170  0.09282  1.0000
  H   H445      1.0  0.26921  0.96833  0.12651  1.0000
  H   H446      1.0  0.01237  0.65089  0.22430  1.0000
  H   H447      1.0  0.32682  0.98125  0.04250  1.0000
  H   H448      1.0  0.34897  0.70808  0.23747  1.0000
  C   C557      1.0  0.34818  0.97802  0.10826  1.0000
  Fe  Fe27      1.0  0.20602  0.57297  0.29966  1.0000
  S   S59       1.0  0.22676  0.56756  0.32215  1.0000
  S   S60       1.0  0.20217  0.62614  0.29056  1.0000
  Fe  Fe28      1.0  0.25621  0.53964  0.30865  1.0000
  S   S61       1.0  0.31127  0.55093  0.31250  1.0000
  S   S62       1.0  0.23873  0.54869  0.28572  1.0000
  Fe  Fe29      1.0  0.27060  0.81602  0.32520  1.0000
  S   S63       1.0  0.26074  0.83801  0.30256  1.0000
  S   S64       1.0  0.24450  0.75649  0.33519  1.0000
  Fe  Fe30      1.0  0.32628  0.89066  0.33083  1.0000
  S   S65       1.0  0.32106  0.91817  0.30853  1.0000
  S   S66       1.0  0.37000  0.92525  0.34362  1.0000
  Fe  Fe31      1.0  0.26392  0.88714  0.31579  1.0000
  S   S67       1.0  0.23129  0.91957  0.31262  1.0000
  Fe  Fe32      1.0  0.31863  0.86655  0.29789  1.0000
  S   S68       1.0  0.34944  0.86515  0.27528  1.0000
  S   S69       1.0  0.26906  0.86300  0.33894  1.0000
  S   S70       1.0  0.32833  0.84112  0.31965  1.0000
  Fe  Fe33      1.0  0.04318  0.89749  0.29537  1.0000
  S   S71       1.0  0.07347  0.94973  0.27944  1.0000
  S   S72       1.0  0.07527  0.84833  0.34358  1.0000
  S   S73       1.0  0.06522  0.85490  0.29926  1.0000
  H   H449      1.0  0.41172  0.75014  0.46063  1.0000
  H   H450      1.0  0.00381  0.93695  0.28765  1.0000
  H   H451      1.0  0.32732  0.75456  0.27925  1.0000
  C   C558      1.0  0.01394  0.72430  0.33553  1.0000
  C   C559      1.0  0.28825  0.62963  0.48180  1.0000
  Fe  Fe34      1.0  0.43370  0.66995  0.44163  1.0000
  H   H452      1.0  0.26545  0.63707  0.44135  1.0000
  H   H453      1.0  0.03024  0.66204  0.27268  1.0000
  Fe  Fe35      1.0  0.38302  0.91719  0.42927  1.0000
  S   S74       1.0  0.33947  0.92085  0.41722  1.0000
  S   S75       1.0  0.43840  0.95830  0.42750  1.0000
  S   S76       1.0  0.39689  0.86838  0.42602  1.0000
  C   C560      1.0  0.31018  0.61488  0.39425  1.0000
  P   P20       1.0  0.30550  0.62859  0.24475  1.0000
  C   C561      1.0  0.04748  0.57493  0.45160  1.0000
  C   C562      1.0  0.33405  0.70429  0.24886  1.0000
  H   H454      1.0  0.46134  0.83481  0.42708  1.0000
  H   H455      1.0  0.26795  0.80116  0.43587  1.0000
  C   C563      1.0  0.31846  0.65312  0.44538  1.0000
  H   H456      1.0  0.32065  0.67950  0.44938  1.0000
  Fe  Fe36      1.0  0.16109  0.61312  0.41315  1.0000
  C   C564      1.0  0.31156  0.80351  0.44741  1.0000
  C   C565      1.0  0.36078  0.92333  0.36407  1.0000
  C   C566      1.0  0.32662  0.91082  0.37144  1.0000
  C   C567      1.0  0.32012  0.91036  0.38778  1.0000
  C   C568      1.0  0.34768  0.92123  0.39681  1.0000
  C   C569      1.0  0.38174  0.93304  0.38946  1.0000
  C   C570      1.0  0.38827  0.93483  0.37311  1.0000
  H   H457      1.0  0.30533  0.90239  0.36454  1.0000
  H   H458      1.0  0.29376  0.90160  0.39338  1.0000
  H   H459      1.0  0.40308  0.94145  0.39637  1.0000
  C   C571      1.0  0.15024  0.88518  0.25309  1.0000
  C   C572      1.0  0.44748  0.86381  0.29273  1.0000
  C   C573      1.0  0.43526  0.84458  0.27979  1.0000
  C   C574      1.0  0.40600  0.84627  0.27382  1.0000
  C   C575      1.0  0.38869  0.86661  0.28101  1.0000
  C   C576      1.0  0.40125  0.88607  0.29378  1.0000
  C   C577      1.0  0.43049  0.88467  0.29959  1.0000
  H   H460      1.0  0.06917  0.88590  0.25810  1.0000
  H   H461      1.0  0.39608  0.83065  0.26410  1.0000
  H   H462      1.0  0.38805  0.90172  0.29947  1.0000
  H   H463      1.0  0.43918  0.89869  0.30984  1.0000
  C   C578      1.0  0.18900  0.90227  0.32256  1.0000
  C   C579      1.0  0.16425  0.91186  0.31614  1.0000
  C   C580      1.0  0.12957  0.89643  0.32295  1.0000
  C   C581      1.0  0.11948  0.87161  0.33638  1.0000
  C   C582      1.0  0.14463  0.86375  0.34342  1.0000
  C   C583      1.0  0.17941  0.87874  0.33640  1.0000
  H   H464      1.0  0.17164  0.93003  0.30549  1.0000
  H   H465      1.0  0.11064  0.90376  0.31776  1.0000
  H   H466      1.0  0.13702  0.84511  0.35395  1.0000
  H   H467      1.0  0.19870  0.87202  0.34160  1.0000
  C   C584      1.0  0.34317  0.59337  0.30373  1.0000
  C   C585      1.0  0.37828  0.60014  0.30385  1.0000
  C   C586      1.0  0.40439  0.63316  0.29640  1.0000
  C   C587      1.0  0.39533  0.65902  0.28841  1.0000
  C   C588      1.0  0.36025  0.65238  0.28842  1.0000
  C   C589      1.0  0.33413  0.61984  0.29622  1.0000
  H   H468      1.0  0.38515  0.57915  0.30927  1.0000
  C   C590      1.0  0.32527  0.57824  0.26110  1.0000
  H   H469      1.0  0.35352  0.67231  0.28211  1.0000
  H   H470      1.0  0.30710  0.61477  0.29606  1.0000
  C   C591      1.0  0.21402  0.66236  0.30302  1.0000
  C   C592      1.0  0.22251  0.69891  0.29686  1.0000
  C   C593      1.0  0.23286  0.72829  0.30650  1.0000
  C   C594      1.0  0.23313  0.72095  0.32251  1.0000
  C   C595      1.0  0.22375  0.68435  0.32873  1.0000
  C   C596      1.0  0.21478  0.65528  0.31898  1.0000
  H   H471      1.0  0.22170  0.70448  0.28456  1.0000
  H   H472      1.0  0.24033  0.75648  0.30161  1.0000
  H   H473      1.0  0.22380  0.67842  0.34111  1.0000
  H   H474      1.0  0.20765  0.62731  0.32400  1.0000
  H   H475      1.0  0.05559  0.66867  0.31087  1.0000
  Fe  Fe37      1.0  0.04346  0.85111  0.32440  1.0000
  C   C597      1.0  0.21474  0.89373  0.26622  1.0000
  C   C598      1.0  0.39480  0.71403  0.36098  1.0000
  Fe  Fe38      1.0  0.45154  0.90809  0.42680  1.0000
  S   S77       1.0  0.44132  0.61768  0.43731  1.0000
  C   C599      1.0  0.36504  0.55322  0.40732  1.0000
  H   H476      1.0  0.00346  0.74142  0.34201  1.0000
  C   C600      1.0  0.27355  0.90912  0.27225  1.0000
  C   C601      1.0  0.24316  0.88404  0.26731  1.0000
  C   C602      1.0  0.37743  0.83885  0.37741  1.0000
  H   H477      1.0  0.06228  0.54091  0.41826  1.0000
  C   C603      1.0  0.38498  0.58815  0.26304  1.0000
  C   C604      1.0  0.46822  0.95495  0.33366  1.0000
  H   H478      1.0  0.35155  0.82309  0.38324  1.0000
  Fe  Fe39      1.0  0.13867  0.59063  0.44797  1.0000
  H   H479      1.0  0.26054  0.73862  0.26206  1.0000
  H   H480      1.0  0.20957  0.74213  0.47833  1.0000
  C   C605      1.0  0.36912  0.52955  0.41879  1.0000
  C   C606      1.0  0.15422  0.52589  0.35982  1.0000
  H   H481      1.0  0.28491  0.59458  0.39275  1.0000
  C   C607      1.0  0.14932  0.82889  0.27693  1.0000
  C   C608      1.0  0.15423  0.83811  0.29229  1.0000
  C   C609      1.0  0.13140  0.81501  0.30492  1.0000
  C   C610      1.0  0.10383  0.78253  0.30235  1.0000
  C   C611      1.0  0.09926  0.77275  0.28710  1.0000
  C   C612      1.0  0.24709  0.95327  0.27565  1.0000
  C   C613      1.0  0.49250  0.67777  0.34776  1.0000
  H   H482      1.0  0.48860  0.67176  0.33580  1.0000
  H   H483      1.0  0.29523  0.90131  0.27333  1.0000
  H   H484      1.0  0.05341  0.63933  0.40672  1.0000
  C   C614      1.0  0.13431  0.66915  0.28079  1.0000
  P   P21       1.0  0.48776  0.91340  0.35461  1.0000
  H   H485      1.0  0.10138  0.85080  0.26732  1.0000
  Fe  Fe40      1.0  0.47241  0.73501  0.28697  1.0000
  H   H486      1.0  0.43142  0.63768  0.29609  1.0000
  H   H487      1.0  0.17494  0.86356  0.29454  1.0000
  H   H488      1.0  0.13455  0.82270  0.31673  1.0000
  H   H489      1.0  0.08557  0.76554  0.31217  1.0000
  H   H490      1.0  0.07717  0.74822  0.28506  1.0000
  C   C615      1.0  0.16655  0.91661  0.24230  1.0000
  C   C616      1.0  0.14983  0.58527  0.36158  1.0000
  C   C617      1.0  0.06596  0.53757  0.39332  1.0000
  C   C618      1.0  0.37318  0.97268  0.27076  1.0000
  S   S78       1.0  0.48318  0.69735  0.45210  1.0000
  C   C619      1.0  0.24883  0.79688  0.47680  1.0000
  C   C620      1.0  0.23610  0.50392  0.38033  1.0000
  P   P22       1.0  0.17512  0.86082  0.26037  1.0000
  C   C621      1.0  0.41806  0.59851  0.33567  1.0000
  C   C622      1.0  0.40199  0.62233  0.33998  1.0000
  H   H491      1.0  0.38251  0.54102  0.42864  1.0000
  H   H492      1.0  0.43589  0.60526  0.32493  1.0000
  H   H493      1.0  0.07295  0.52805  0.36904  1.0000
  C   C623      1.0  0.14209  0.64956  0.47970  1.0000
  C   C624      1.0  0.17616  0.66906  0.48268  1.0000
  H   H494      1.0  0.06586  0.56477  0.39077  1.0000
  H   H495      1.0  0.03053  0.52578  0.48708  1.0000
  H   H496      1.0  0.03909  0.73059  0.25680  1.0000
  C   C625      1.0  0.02594  0.53881  0.47673  1.0000
  C   C626      1.0  0.03731  0.71214  0.34183  1.0000
  C   C627      1.0  0.05147  0.69059  0.33333  1.0000
  P   P23       1.0  0.08462  0.67892  0.34084  1.0000
  C   C628      1.0  0.07461  0.66640  0.36172  1.0000
  C   C629      1.0  0.08792  0.63919  0.33223  1.0000
  C   C630      1.0  0.12028  0.63714  0.32863  1.0000
  C   C631      1.0  0.12228  0.60599  0.32207  1.0000
  C   C632      1.0  0.09216  0.57641  0.31941  1.0000
  C   C633      1.0  0.05981  0.57784  0.32333  1.0000
  C   C634      1.0  0.05764  0.60900  0.32981  1.0000
  C   C635      1.0  0.03996  0.64963  0.36878  1.0000
  H   H497      1.0  0.42635  0.49387  0.40895  1.0000
  C   C636      1.0  0.05918  0.64707  0.39420  1.0000
  C   C637      1.0  0.09366  0.66334  0.38723  1.0000
  C   C638      1.0  0.10143  0.67236  0.37103  1.0000
  C   C639      1.0  0.12317  0.72085  0.33618  1.0000
  C   C640      1.0  0.13133  0.74834  0.34672  1.0000
  C   C641      1.0  0.15940  0.78227  0.34269  1.0000
  C   C642      1.0  0.17908  0.78940  0.32802  1.0000
  C   C643      1.0  0.17069  0.76256  0.31729  1.0000
  C   C644      1.0  0.14269  0.72840  0.32130  1.0000
  S   S79       1.0  0.48310  0.86172  0.30102  1.0000
  H   H498      1.0  0.14398  0.65924  0.33103  1.0000
  H   H499      1.0  0.14719  0.60439  0.31921  1.0000
  H   H500      1.0  0.09402  0.55220  0.31450  1.0000
  H   H501      1.0  0.27393  0.80176  0.27048  1.0000
  H   H502      1.0  0.03235  0.60947  0.33299  1.0000
  C   C645      1.0  0.27991  0.82031  0.48171  1.0000
  Fe  Fe41      1.0  0.46823  0.64822  0.41394  1.0000
  C   C646      1.0  0.27000  0.76237  0.25341  1.0000
  H   H503      1.0  0.11579  0.74392  0.35797  1.0000
  H   H504      1.0  0.16591  0.80317  0.35094  1.0000
  H   H505      1.0  0.20044  0.81601  0.32494  1.0000
  H   H506      1.0  0.18575  0.76843  0.30583  1.0000
  H   H507      1.0  0.13604  0.70826  0.31273  1.0000
  S   S80       1.0  0.36441  0.80624  0.46421  1.0000
  C   C647      1.0  0.11129  0.85112  0.39705  1.0000
  C   C648      1.0  0.09364  0.83455  0.38470  1.0000
  C   C649      1.0  0.09213  0.79984  0.38088  1.0000
  C   C650      1.0  0.10849  0.78176  0.38934  1.0000
  C   C651      1.0  0.12671  0.79846  0.40165  1.0000
  C   C652      1.0  0.12770  0.83314  0.40554  1.0000
  P   P24       1.0  0.14888  0.77548  0.41211  1.0000
  C   C653      1.0  0.11820  0.73776  0.42567  1.0000
  C   C654      1.0  0.17140  0.75741  0.39798  1.0000
  C   C655      1.0  0.17785  0.72606  0.40211  1.0000
  C   C656      1.0  0.19457  0.71176  0.39097  1.0000
  C   C657      1.0  0.20526  0.72879  0.37573  1.0000
  C   C658      1.0  0.20010  0.76083  0.37172  1.0000
  C   C659      1.0  0.18343  0.77525  0.38278  1.0000
  C   C660      1.0  0.12919  0.72554  0.43886  1.0000
  C   C661      1.0  0.10565  0.69658  0.44943  1.0000
  C   C662      1.0  0.07112  0.67890  0.44677  1.0000
  C   C663      1.0  0.05999  0.69053  0.43360  1.0000
  C   C664      1.0  0.08336  0.71987  0.42310  1.0000
  C   C665      1.0  0.18091  0.80852  0.42244  1.0000
  C   C666      1.0  0.17171  0.81563  0.43772  1.0000
  C   C667      1.0  0.19682  0.84018  0.44589  1.0000
  C   C668      1.0  0.23117  0.85806  0.43882  1.0000
  C   C669      1.0  0.24032  0.85183  0.42351  1.0000
  C   C670      1.0  0.21528  0.82746  0.41528  1.0000
  H   H508      1.0  0.11251  0.87811  0.39994  1.0000
  H   H509      1.0  0.07866  0.78740  0.37117  1.0000
  H   H510      1.0  0.10727  0.75493  0.38620  1.0000
  H   H511      1.0  0.14145  0.84664  0.41497  1.0000
  H   H512      1.0  0.17029  0.71272  0.41390  1.0000
  H   H513      1.0  0.19937  0.68748  0.39413  1.0000
  H   H514      1.0  0.21834  0.71770  0.36713  1.0000
  H   H515      1.0  0.20963  0.77486  0.36009  1.0000
  H   H516      1.0  0.18038  0.80055  0.37948  1.0000
  H   H517      1.0  0.15606  0.73815  0.44094  1.0000
  H   H518      1.0  0.11435  0.68760  0.45960  1.0000
  H   H519      1.0  0.04972  0.79665  0.25220  1.0000
  H   H520      1.0  0.07403  0.72831  0.41303  1.0000
  H   H521      1.0  0.14524  0.80198  0.44339  1.0000
  H   H522      1.0  0.18974  0.84516  0.45775  1.0000
  H   H523      1.0  0.25087  0.87679  0.44513  1.0000
  H   H524      1.0  0.26706  0.86563  0.41812  1.0000
  H   H525      1.0  0.22298  0.82339  0.40340  1.0000
  P   P25       1.0  0.33924  0.56863  0.38033  1.0000
  C   C671      1.0  0.26151  0.59380  0.24751  1.0000
  C   C672      1.0  0.29923  0.69545  0.27909  1.0000
  C   C673      1.0  0.41643  0.87361  0.35437  1.0000
  C   C674      1.0  0.15163  0.55704  0.35259  1.0000
  C   C675      1.0  0.19966  0.57518  0.25544  1.0000
  H   H526      1.0  0.14678  0.96391  0.26765  1.0000
  C   C676      1.0  0.33056  0.75264  0.31597  1.0000
  C   C677      1.0  0.36418  0.77893  0.31107  1.0000
  C   C678      1.0  0.38813  0.79042  0.32181  1.0000
  C   C679      1.0  0.37873  0.77520  0.33736  1.0000
  C   C680      1.0  0.34547  0.74753  0.34218  1.0000
  C   C681      1.0  0.32122  0.73699  0.33147  1.0000
  P   P26       1.0  0.33367  0.72600  0.36200  1.0000
  C   C682      1.0  0.37408  0.73001  0.36893  1.0000
  C   C683      1.0  0.44093  0.74353  0.37667  1.0000
  C   C684      1.0  0.42081  0.75995  0.38454  1.0000
  C   C685      1.0  0.38758  0.75326  0.38071  1.0000
  C   C686      1.0  0.31137  0.74875  0.37387  1.0000
  C   C687      1.0  0.30058  0.77476  0.36697  1.0000
  C   C688      1.0  0.28435  0.79300  0.37635  1.0000
  C   C689      1.0  0.27800  0.78471  0.39261  1.0000
  C   C690      1.0  0.28764  0.75805  0.39949  1.0000
  C   C691      1.0  0.30431  0.74023  0.39018  1.0000
  H   H527      1.0  0.31151  0.74459  0.30788  1.0000
  H   H528      1.0  0.37153  0.79096  0.29906  1.0000
  H   H529      1.0  0.41405  0.81114  0.31810  1.0000
  H   H530      1.0  0.39766  0.78489  0.34549  1.0000
  H   H531      1.0  0.29507  0.71670  0.33509  1.0000
  H   H532      1.0  0.00924  0.58587  0.43984  1.0000
  H   H533      1.0  0.43109  0.77803  0.39360  1.0000
  H   H534      1.0  0.37305  0.76699  0.38678  1.0000
  H   H535      1.0  0.30501  0.78148  0.35441  1.0000
  H   H536      1.0  0.27680  0.81363  0.37099  1.0000
  H   H537      1.0  0.26567  0.79883  0.39994  1.0000
  H   H538      1.0  0.28233  0.75132  0.41207  1.0000
  H   H539      1.0  0.31173  0.71979  0.39572  1.0000
  C   C692      1.0  0.30870  0.74469  0.45839  1.0000
  S   S81       1.0  0.45633  0.69811  0.41757  1.0000
  H   H540      1.0  0.33573  0.66949  0.34100  1.0000
  Fe  Fe42      1.0  0.19834  0.66425  0.43675  1.0000
  H   H541      1.0  0.45271  0.98717  0.31766  1.0000
  S   S82       1.0  0.46455  0.75677  0.31013  1.0000
  C   C693      1.0  0.26147  0.74671  0.44505  1.0000
  H   H542      1.0  0.08135  0.84872  0.37795  1.0000
  C   C694      1.0  0.41111  0.56609  0.34520  1.0000
  S   S83       1.0  0.21969  0.72555  0.43944  1.0000
  C   C695      1.0  0.27932  0.78526  0.44208  1.0000
  H   H543      1.0  0.32466  0.83336  0.44537  1.0000
  H   H544      1.0  0.42352  0.54763  0.34181  1.0000
  C   C696      1.0  0.01971  0.69508  0.31187  1.0000
  C   C697      1.0  0.31270  0.65714  0.34948  1.0000
  C   C698      1.0  0.30513  0.67773  0.36117  1.0000
  C   C699      1.0  0.25202  0.61400  0.48403  1.0000
  C   C700      1.0  0.34680  0.64310  0.44492  1.0000
  C   C701      1.0  0.16950  0.98439  0.34642  1.0000
  H   H545      1.0  0.01884  0.64373  0.36178  1.0000
  C   C702      1.0  0.45375  0.51157  0.40731  1.0000
  H   H546      1.0  0.46041  0.87510  0.38553  1.0000
  C   C703      1.0  0.06419  0.52421  0.40880  1.0000
  C   C704      1.0  0.42786  0.72049  0.36493  1.0000
  H   H547      1.0  0.12839  0.68371  0.36582  1.0000
  H   H548      1.0  0.40707  0.64720  0.33246  1.0000
  H   H549      1.0  0.17842  0.58176  0.26050  1.0000
  H   H550      1.0  0.30724  0.91163  0.24078  1.0000
  S   S84       1.0  0.21715  0.64178  0.41599  1.0000
  H   H551      1.0  0.24175  0.85697  0.26461  1.0000
  S   S85       1.0  0.15200  0.56151  0.42823  1.0000
  H   H552      1.0  0.10154  0.61108  0.28173  1.0000
  C   C705      1.0  0.27366  0.66124  0.37124  1.0000
  H   H553      1.0  0.38617  0.69776  0.35131  1.0000
  H   H554      1.0  0.26612  0.67625  0.38006  1.0000
  H   H555      1.0  0.42362  0.63953  0.25163  1.0000
  H   H556      1.0  0.11722  0.78899  0.26266  1.0000
  C   C706      1.0  0.01350  0.65062  0.26385  1.0000
  H   H557      1.0  0.11448  0.66802  0.39434  1.0000
  H   H558      1.0  0.23733  0.63052  0.25571  1.0000
  S   S86       1.0  0.15980  0.51848  0.30423  1.0000
  C   C707      1.0  0.28711  0.62896  0.44090  1.0000
  H   H559      1.0  0.44361  0.70808  0.35871  1.0000
  S   S87       1.0  0.38415  0.67236  0.45233  1.0000
  H   H560      1.0  0.48059  0.78277  0.43023  1.0000
  C   C708      1.0  0.27653  0.72625  0.45294  1.0000
  C   C709      1.0  0.00490  0.71547  0.32063  1.0000
  H   H561      1.0  0.05305  0.65608  0.45489  1.0000
  S   S88       1.0  0.19327  0.61705  0.45381  1.0000
  S   S89       1.0  0.37566  0.90951  0.45550  1.0000
  H   H562      1.0  0.37661  0.95465  0.27975  1.0000
  C   C710      1.0  0.37892  0.61368  0.35380  1.0000
  S   S90       1.0  0.42684  0.69649  0.27621  1.0000
  Fe  Fe43      1.0  0.39339  0.86341  0.45209  1.0000
  C   C711      1.0  0.32590  0.78333  0.45595  1.0000
  H   H563      1.0  0.04489  0.72034  0.35318  1.0000
  C   C712      1.0  0.08880  0.64333  0.26438  1.0000
  H   H564      1.0  0.40369  0.57970  0.26791  1.0000
  C   C713      1.0  0.38295  0.85127  0.36154  1.0000
  C   C714      1.0  0.19359  0.53884  0.25211  1.0000
  H   H565      1.0  0.26317  0.69643  0.45514  1.0000
  C   C715      1.0  0.26294  0.51485  0.35342  1.0000
  H   H566      1.0  0.36582  0.63169  0.35677  1.0000
  H   H567      1.0  0.28673  0.69162  0.29102  1.0000
  S   S91       1.0  0.44972  0.89930  0.45275  1.0000
  H   H568      1.0  0.44805  0.81534  0.46376  1.0000
  C   C716      1.0  0.34703  0.53874  0.39466  1.0000
  H   H569      1.0  0.29562  0.60516  0.33897  1.0000
  H   H570      1.0  0.23780  0.80711  0.46781  1.0000
  C   C717      1.0  0.28972  0.62069  0.34814  1.0000
  Fe  Fe44      1.0  0.43249  0.94655  0.45362  1.0000
  H   H571      1.0  0.29855  0.96263  0.28075  1.0000
  C   C718      1.0  0.09687  0.67884  0.25702  1.0000
  H   H572      1.0  0.40136  0.83567  0.39795  1.0000
  H   H573      1.0  0.39908  0.68831  0.40153  1.0000
  H   H574      1.0  0.16773  0.51706  0.25469  1.0000
  H   H575      1.0  0.05943  0.96972  0.31071  1.0000
  C   C719      1.0  0.33976  0.73510  0.25745  1.0000
  H   H576      1.0  0.15930  0.49993  0.38137  1.0000
  H   H577      1.0  0.14991  0.55872  0.34017  1.0000
  H   H578      1.0  0.23814  0.58619  0.48078  1.0000
  H   H579      1.0  0.21632  0.50185  0.24357  1.0000
  C   C720      1.0  0.12194  0.79585  0.27444  1.0000
  H   H580      1.0  0.39685  0.63515  0.38695  1.0000
  S   S92       1.0  0.14257  0.63964  0.43250  1.0000
  C   C721      1.0  0.37287  0.63781  0.39107  1.0000
  C   C722      1.0  0.37435  0.66804  0.39933  1.0000
  C   C723      1.0  0.37208  0.58141  0.36352  1.0000
  C   C724      1.0  0.38836  0.55764  0.35914  1.0000
  H   H581      1.0  0.24788  0.97913  0.27976  1.0000
  C   C725      1.0  0.29340  0.66460  0.27053  1.0000
  H   H582      1.0  0.32057  0.72919  0.46445  1.0000
  C   C726      1.0  0.29050  0.82866  0.24702  1.0000
  H   H583      1.0  0.38321  0.53239  0.36633  1.0000
  H   H584      1.0  0.00557  0.62704  0.39037  1.0000
  C   C727      1.0  0.32232  0.73071  0.27254  1.0000
  C   C728      1.0  0.46485  0.54843  0.41086  1.0000
  H   H585      1.0  0.03316  0.67678  0.43159  1.0000
  H   H586      1.0  0.19710  0.67789  0.47305  1.0000
  C   C729      1.0  0.34412  0.60916  0.43948  1.0000
  H   H587      1.0  0.15799  0.55058  0.39702  1.0000
  C   C730      1.0  0.34394  0.67182  0.40505  1.0000
  H   H588      1.0  0.34523  0.69467  0.41192  1.0000
  C   C731      1.0  0.25076  0.62482  0.36986  1.0000
  H   H589      1.0  0.24064  0.57651  0.35719  1.0000
  C   C732      1.0  0.44534  0.79403  0.47283  1.0000
  H   H590      1.0  0.41465  0.94463  0.36747  1.0000
  C   C733      1.0  0.06996  0.51686  0.38107  1.0000
  C   C734      1.0  0.31043  0.66882  0.25526  1.0000
  H   H591      1.0  0.36594  0.60129  0.43912  1.0000
  C   C735      1.0  0.25876  0.60455  0.35834  1.0000
  C   C736      1.0  0.15613  0.55250  0.38470  1.0000
  Fe  Fe45      1.0  0.01253  0.81308  0.29633  1.0000
  C   C737      1.0  0.28396  0.59457  0.43593  1.0000
  C   C738      1.0  0.31256  0.58476  0.43505  1.0000
  H   H592      1.0  0.22655  0.61243  0.37765  1.0000
  H   H593      1.0  0.14895  0.66522  0.28986  1.0000
  C   C739      1.0  0.47646  0.64974  0.36014  1.0000
  C   C740      1.0  0.23340  0.60272  0.25294  1.0000
  C   C741      1.0  0.34068  0.61033  0.38887  1.0000
  C   C742      1.0  0.49305  0.97241  0.30646  1.0000
  H   H594      1.0  0.28828  0.64824  0.40684  1.0000
  H   H595      1.0  0.46109  0.94331  0.38158  1.0000
  H   H596      1.0  0.36729  0.93393  0.25337  1.0000
  C   C743      1.0  0.15692  0.52382  0.37582  1.0000
  H   H597      1.0  0.46666  0.74869  0.37965  1.0000
  C   C744      1.0  0.31192  0.64563  0.40223  1.0000
  C   C745      1.0  0.42476  0.75708  0.47099  1.0000
  Fe  Fe46      1.0  0.20705  0.59217  0.43254  1.0000
  C   C746      1.0  0.11258  0.92486  0.24256  1.0000
  S   S93       1.0  0.46015  0.62282  0.39106  1.0000
  H   H598      1.0  0.06860  0.58969  0.44244  1.0000
  H   H599      1.0  0.44812  0.82813  0.27451  1.0000
  H   H600      1.0  0.13687  0.64285  0.46793  1.0000
  H   H601      1.0  0.27652  0.63733  0.27609  1.0000
  C   C747      1.0  0.34953  0.56645  0.26672  1.0000
  S   S94       1.0  0.14598  0.61618  0.38910  1.0000
  C   C748      1.0  0.15156  0.58270  0.37770  1.0000
  S   S95       1.0  0.01178  0.76324  0.28424  1.0000
  H   H602      1.0  0.37570  0.58265  0.40859  1.0000
  Fe  Fe47      1.0  0.18330  0.51128  0.32560  1.0000
  S   S96       1.0  0.09496  0.55957  0.46715  1.0000
  H   H603      1.0  0.31022  0.55828  0.43107  1.0000
  C   C749      1.0  0.21665  0.92824  0.27079  1.0000
  H   H604      1.0  0.18626  0.50174  0.42371  1.0000
  C   C750      1.0  0.13407  0.96594  0.34540  1.0000
  H   H605      1.0  0.14677  0.60887  0.35610  1.0000
  H   H606      1.0  0.16306  0.72828  0.27728  1.0000
  S   S97       1.0  0.24426  0.56411  0.43076  1.0000
  C   C751      1.0  0.23300  0.75962  0.48276  1.0000
  C   C752      1.0  0.14237  0.70460  0.27361  1.0000
  C   C753      1.0  0.05351  0.55796  0.46493  1.0000
  H   H607      1.0  0.29814  0.56146  0.26459  1.0000
  C   C754      1.0  0.33404  0.50026  0.39348  1.0000
  C   C755      1.0  0.09621  0.89395  0.25343  1.0000
  C   C756      1.0  0.29481  0.53698  0.35806  1.0000
  S   S98       1.0  0.02521  0.89675  0.32079  1.0000
  C   C757      1.0  0.27558  0.94382  0.27633  1.0000
  C   C758      1.0  0.03232  0.64008  0.38497  1.0000
  C   C759      1.0  0.01388  0.57266  0.45012  1.0000
  H   H608      1.0  0.11744  0.94475  0.35450  1.0000
  H   H609      1.0  0.34075  0.54120  0.27450  1.0000
  H   H610      1.0  0.44608  0.55947  0.41503  1.0000
  C   C760      1.0  0.10754  0.63855  0.27618  1.0000
  H   H611      1.0  0.18983  0.79427  0.26213  1.0000
  H   H612      1.0  0.03642  0.55463  0.32145  1.0000
  C   C761      1.0  0.47804  0.49779  0.40148  1.0000
  H   H613      1.0  0.35851  0.76228  0.25262  1.0000
  C   C762      1.0  0.12013  0.97439  0.33249  1.0000
  C   C763      1.0  0.33627  0.61182  0.25166  1.0000
  H   H614      1.0  0.27721  0.95399  0.24239  1.0000
  H   H615      1.0  0.06812  0.61930  0.26092  1.0000
  C   C764      1.0  0.11487  0.87421  0.25872  1.0000
  H   H616      1.0  0.31697  0.54938  0.34910  1.0000
  C   C765      1.0  0.48675  0.83791  0.42172  1.0000
  H   H617      1.0  0.42008  0.88314  0.34209  1.0000
  C   C766      1.0  0.40549  0.84677  0.38588  1.0000
  C   C767      1.0  0.04327  0.68304  0.31809  1.0000
  C   C768      1.0  0.43887  0.86914  0.37880  1.0000
  H   H618      1.0  0.36123  0.84479  0.35487  1.0000
  H   H619      1.0  0.48213  0.56777  0.44199  1.0000
  C   C769      1.0  0.44434  0.88417  0.36322  1.0000
  C   C770      1.0  0.23363  0.49828  0.36453  1.0000
  H   H620      1.0  0.46040  0.62198  0.35785  1.0000
  C   C771      1.0  0.30624  0.66581  0.48553  1.0000
  C   C772      1.0  0.36800  0.96100  0.25581  1.0000
  H   H621      1.0  0.45006  0.95569  0.34332  1.0000
  C   C773      1.0  0.12384  0.70941  0.26171  1.0000
  C   C774      1.0  0.29765  0.54251  0.37397  1.0000
  H   H622      1.0  0.29300  0.84869  0.47652  1.0000
  H   H623      1.0  0.19437  0.93548  0.27105  1.0000
  Fe  Fe48      1.0  0.19431  0.49314  0.29239  1.0000
  H   H624      1.0  0.02816  0.49553  0.44367  1.0000
  C   C775      1.0  0.46993  0.97320  0.31912  1.0000
  H   H625      1.0  0.13051  0.73689  0.25618  1.0000
  H   H626      1.0  0.18029  0.97782  0.35644  1.0000
  H   H627      1.0  0.26965  0.52905  0.39745  1.0000
  H   H628      1.0  0.17085  0.98049  0.29233  1.0000
  H   H629      1.0  0.26100  0.51065  0.34113  1.0000
  P   P27       1.0  0.48858  0.85118  0.48848  1.0000
  C   C776      1.0  0.25486  0.55773  0.24333  1.0000
  H   H630      1.0  0.30245  0.61411  0.47676  1.0000
  C   C777      1.0  0.27726  0.79786  0.25813  1.0000
  H   H631      1.0  0.29761  0.85580  0.25116  1.0000
  H   H632      1.0  0.33437  0.67828  0.48326  1.0000
  C   C778      1.0  0.48846  0.96001  0.37841  1.0000
  C   C779      1.0  0.26804  0.52553  0.38509  1.0000
  H   H633      1.0  0.04078  0.97093  0.36315  1.0000
  H   H634      1.0  0.01357  0.68973  0.30006  1.0000
  C   C780      1.0  0.37197  0.63377  0.24825  1.0000
  C   C781      1.0  0.39619  0.62178  0.25380  1.0000
  H   H635      1.0  0.09267  0.96012  0.33169  1.0000
  H   H636      1.0  0.40523  0.70042  0.48092  1.0000
  C   C782      1.0  0.42089  0.72909  0.48248  1.0000
  P   P28       1.0  0.07241  0.68487  0.24180  1.0000
  H   H637      1.0  0.08853  0.62159  0.48958  1.0000
  H   H638      1.0  0.48371  0.50677  0.43673  1.0000
  C   C783      1.0  0.99663  0.94546  0.35084  1.0000
  C   C784      1.0  0.02242  0.97552  0.35632  1.0000
  C   C785      1.0  0.48128  0.65749  0.37563  1.0000
  C   C786      1.0  0.36399  0.98418  0.24410  1.0000
  H   H639      1.0  0.41434  0.83490  0.48638  1.0000
  C   C787      1.0  0.19202  0.80326  0.24987  1.0000
  C   C788      1.0  0.48920  0.93525  0.33559  1.0000
  C   C789      1.0  0.22111  0.53024  0.24588  1.0000
  Fe  Fe49      1.0  0.49299  0.64706  0.44581  1.0000
  H   H640      1.0  0.48089  0.85161  0.33594  1.0000
  C   C790      1.0  0.46176  0.80333  0.48635  1.0000
  C   C791      1.0  0.23373  0.63444  0.49009  1.0000
  H   H641      1.0  0.49377  0.98567  0.29508  1.0000
  C   C792      1.0  0.05915  0.74778  0.24759  1.0000
  C   C793      1.0  0.18666  0.83520  0.24544  1.0000
  H   H642      1.0  0.38118  0.66064  0.24167  1.0000
  C   C794      1.0  0.06474  0.78516  0.24490  1.0000
  C   C795      1.0  0.02665  0.65790  0.24785  1.0000
  H   H643      1.0  0.42105  0.89181  0.24404  1.0000
  H   H644      1.0  0.99833  0.96600  0.31167  1.0000
  H   H645      1.0  0.99492  0.91749  0.35334  1.0000
  H   H646      1.0  0.20333  0.75746  0.24206  1.0000
  H   H647      1.0  0.14770  0.71209  0.70170  1.0000
  C   C796      1.0  0.19242  0.97977  0.72951  1.0000
  C   C797      1.0  0.08860  0.81751  0.70581  1.0000
  H   H648      1.0  0.07476  0.75948  0.70208  1.0000
  H   H649      1.0  0.16645  0.77065  0.65619  1.0000
  C   C798      1.0  0.13916  0.90460  0.66478  1.0000
  H   H650      1.0  0.13543  0.76223  0.71378  1.0000
  H   H651      1.0  0.30272  0.71455  0.49406  1.0000
  C   C799      1.0  0.18730  0.93657  0.67901  1.0000
  C   C800      1.0  0.00334  0.93114  0.61165  1.0000
  H   H652      1.0  0.10627  0.84885  0.67368  1.0000
  C   C801      1.0  0.13051  0.95272  0.71630  1.0000
  H   H653      1.0  0.46769  0.83566  0.70063  1.0000
  H   H654      1.0  0.10656  0.94246  0.71118  1.0000
  C   C802      1.0  0.00361  0.96090  0.62005  1.0000
  C   C803      1.0  0.10702  0.97098  0.65269  1.0000
  C   C804      1.0  0.08077  0.94544  0.64534  1.0000
  C   C805      1.0  0.05113  0.91849  0.65423  1.0000
  C   C806      1.0  0.04745  0.91685  0.67059  1.0000
  C   C807      1.0  0.07379  0.94222  0.67798  1.0000
  C   C808      1.0  0.10340  0.96937  0.66906  1.0000
  H   H655      1.0  0.08359  0.94615  0.63271  1.0000
  H   H656      1.0  0.07116  0.94102  0.69062  1.0000
  C   C809      1.0  0.15969  0.76886  0.66877  1.0000
  C   C810      1.0  0.47639  0.91250  0.49773  1.0000
  H   H657      1.0  0.12387  0.90492  0.65544  1.0000
  H   H658      1.0  0.21952  0.74407  0.55380  1.0000
  C   C811      1.0  0.14879  0.87263  0.68741  1.0000
  H   H659      1.0  0.20190  0.83197  0.70741  1.0000
  H   H660      1.0  0.03369  0.90913  0.59693  1.0000
  C   C812      1.0  0.19050  0.84036  0.71759  1.0000
  H   H661      1.0  0.20568  0.62137  0.49188  1.0000
  C   C813      1.0  0.15290  0.79742  0.67553  1.0000
  C   C814      1.0  0.20874  0.84942  0.73053  1.0000
  H   H662      1.0  0.19254  0.90602  0.69900  1.0000
  H   H663      1.0  0.46946  0.87738  0.72164  1.0000
  S   S99       1.0  0.01026  0.88335  0.68199  1.0000
  H   H664      1.0  0.47160  0.85059  0.52221  1.0000
  H   H665      1.0  0.01421  0.87171  0.73906  1.0000
  C   C815      1.0  0.22337  0.72371  0.53117  1.0000
  H   H666      1.0  0.21829  0.74552  0.52520  1.0000
  C   C816      1.0  0.14418  0.79539  0.69182  1.0000
  C   C817      1.0  0.25160  0.67118  0.49364  1.0000
  C   C818      1.0  0.06542  0.78076  0.70476  1.0000
  H   H667      1.0  0.21638  0.98993  0.73465  1.0000
  H   H668      1.0  0.16315  0.71609  0.67291  1.0000
  C   C819      1.0  0.45519  0.84766  0.72409  1.0000
  H   H669      1.0  0.02963  0.85639  0.71235  1.0000
  C   C820      1.0  0.27893  0.76955  0.49894  1.0000
  C   C821      1.0  0.02961  0.77139  0.70656  1.0000
  C   C822      1.0  0.01668  0.79855  0.70939  1.0000
  H   H670      1.0  0.46811  0.96129  0.50371  1.0000
  H   H671      1.0  0.08847  0.96500  0.59644  1.0000
  C   C823      1.0  0.46182  0.87698  0.49244  1.0000
  C   C824      1.0  0.06459  0.96407  0.60279  1.0000
  C   C825      1.0  0.23014  0.69480  0.55529  1.0000
  C   C826      1.0  0.23568  0.66741  0.54700  1.0000
  C   C827      1.0  0.23511  0.66812  0.53079  1.0000
  H   H672      1.0  0.03142  0.89863  0.64840  1.0000
  P   P29       1.0  0.13490  0.83163  0.70089  1.0000
  C   C828      1.0  0.03950  0.83502  0.71062  1.0000
  C   C829      1.0  0.43541  0.78589  0.71536  1.0000
  C   C830      1.0  0.45638  0.93334  0.50025  1.0000
  H   H673      1.0  0.15953  0.99100  0.69621  1.0000
  C   C831      1.0  0.07526  0.84449  0.70887  1.0000
  H   H674      1.0  0.16029  0.66932  0.52229  1.0000
  H   H675      1.0  0.17515  0.96096  0.65873  1.0000
  H   H676      1.0  0.39058  0.49506  0.54870  1.0000
  C   C832      1.0  0.18335  0.67623  0.49804  1.0000
  H   H677      1.0  0.47035  0.78128  0.50830  1.0000
  C   C833      1.0  0.12933  0.87293  0.67515  1.0000
  C   C834      1.0  0.15570  0.66445  0.51031  1.0000
  H   H678      1.0  0.23059  0.69421  0.56785  1.0000
  H   H679      1.0  0.24039  0.64555  0.55313  1.0000
  H   H680      1.0  0.23926  0.64653  0.52458  1.0000
  H   H681      1.0  0.15471  0.82097  0.66799  1.0000
  H   H682      1.0  0.09251  0.87323  0.70935  1.0000
  C   C835      1.0  0.22917  0.69645  0.52275  1.0000
  H   H683      1.0  0.23366  0.84749  0.73041  1.0000
  H   H684      1.0  0.01182  0.74325  0.70541  1.0000
  C   C836      1.0  0.13129  0.93917  0.73151  1.0000
  C   C837      1.0  0.17771  0.90483  0.68937  1.0000
  C   C838      1.0  0.03384  0.93261  0.60311  1.0000
  H   H685      1.0  0.99616  0.94984  0.67900  1.0000
  H   H686      1.0  0.10035  0.63573  0.51673  1.0000
  H   H687      1.0  0.20917  0.96162  0.68078  1.0000
  C   C839      1.0  0.14221  0.76433  0.70119  1.0000
  C   C840      1.0  0.22393  0.72290  0.54738  1.0000
  C   C841      1.0  0.16813  0.93636  0.66669  1.0000
  P   P30       1.0  0.22798  0.69743  0.50186  1.0000
  C   C842      1.0  0.15781  0.73813  0.67818  1.0000
  C   C843      1.0  0.16043  0.98039  0.70786  1.0000
  C   C844      1.0  0.14909  0.73588  0.69439  1.0000
  C   C845      1.0  0.14460  0.85473  0.73089  1.0000
  C   C846      1.0  0.15804  0.84261  0.71775  1.0000
  H   H688      1.0  0.12016  0.85749  0.73114  1.0000
  C   C847      1.0  0.40675  0.88326  0.49271  1.0000
  H   H689      1.0  0.29108  0.75959  0.50750  1.0000
  C   C848      1.0  0.12157  0.64527  0.50724  1.0000
  C   C849      1.0  0.00113  0.97708  0.67357  1.0000
  H   H690      1.0  0.43437  0.76766  0.70616  1.0000
  H   H691      1.0  0.40318  0.74133  0.73259  1.0000
  C   C850      1.0  0.42168  0.91889  0.49758  1.0000
  C   C851      1.0  0.01147  0.98513  0.65743  1.0000
  H   H692      1.0  0.40669  0.93577  0.49885  1.0000
  H   H693      1.0  0.43456  0.71615  0.50466  1.0000
  C   C852      1.0  0.16250  0.95243  0.73797  1.0000
  H   H694      1.0  0.12359  0.98862  0.67487  1.0000
  C   C853      1.0  0.45415  0.82418  0.71224  1.0000
  C   C854      1.0  0.41784  0.77106  0.73033  1.0000
  C   C855      1.0  0.43740  0.73803  0.49588  1.0000
  C   C856      1.0  0.45772  0.77504  0.49787  1.0000
  C   C857      1.0  0.43766  0.83291  0.73908  1.0000
  C   C858      1.0  0.24795  0.74555  0.49389  1.0000
  H   H695      1.0  0.01499  0.96402  0.65073  1.0000
  H   H696      1.0  0.31952  0.82450  0.49623  1.0000
  C   C859      1.0  0.29490  0.80664  0.49279  1.0000
  H   H697      1.0  0.38009  0.87229  0.49027  1.0000
  C   C860      1.0  0.11481  0.63752  0.49195  1.0000
  C   C861      1.0  0.28805  0.68644  0.49152  1.0000
  C   C862      1.0  0.42658  0.86219  0.49031  1.0000
  Fe  Fe50      1.0  0.12481  0.57227  0.95571  1.0000
  S   S100      1.0  0.13936  0.56865  0.93031  1.0000
  S   S101      1.0  0.07138  0.54353  0.96893  1.0000
  Fe  Fe51      1.0  0.19601  0.62959  0.95958  1.0000
  S   S102      1.0  0.21702  0.63032  0.93449  1.0000
  H   H698      1.0  0.99916  0.53726  0.95929  1.0000
  Fe  Fe52      1.0  0.16641  0.63073  0.92906  1.0000
  S   S103      1.0  0.16511  0.67233  0.91058  1.0000
  Fe  Fe53      1.0  0.18874  0.56860  0.93804  1.0000
  S   S104      1.0  0.21377  0.53339  0.92642  1.0000
  S   S105      1.0  0.14745  0.63441  0.95388  1.0000
  S   S106      1.0  0.17190  0.56736  0.96370  1.0000
  C   C863      1.0  0.04872  0.49594  0.96738  1.0000
  C   C864      1.0  0.01236  0.91760  0.75105  1.0000
  Fe  Fe54      1.0  0.41291  0.80266  0.94876  1.0000
  H   H699      1.0  0.45415  0.63781  0.97482  1.0000
  S   S107      1.0  0.36031  0.79677  0.94329  1.0000
  H   H700      1.0  0.33287  0.56682  0.97363  1.0000
  C   C865      1.0  0.32438  0.64159  0.96762  1.0000
  Fe  Fe55      1.0  0.45944  0.76460  0.95790  1.0000
  C   C866      1.0  0.39564  0.51183  0.87852  1.0000
  S   S108      1.0  0.45690  0.85865  0.94404  1.0000
  S   S109      1.0  0.44033  0.77237  0.93529  1.0000
  S   S110      1.0  0.49076  0.87753  0.98626  1.0000
  Fe  Fe56      1.0  0.22365  0.66640  0.82508  1.0000
  S   S111      1.0  0.22333  0.65866  0.79949  1.0000
  S   S112      1.0  0.18188  0.62431  0.84239  1.0000
  Fe  Fe57      1.0  0.29012  0.73529  0.81980  1.0000
  S   S113      1.0  0.29560  0.73384  0.79376  1.0000
  S   S114      1.0  0.32743  0.78056  0.83201  1.0000
  Fe  Fe58      1.0  0.23836  0.72001  0.79634  1.0000
  S   S115      1.0  0.21013  0.73906  0.77938  1.0000
  Fe  Fe59      1.0  0.28009  0.67262  0.79911  1.0000
  S   S116      1.0  0.30769  0.64070  0.78688  1.0000
  S   S117      1.0  0.23380  0.72669  0.82208  1.0000
  S   S118      1.0  0.27945  0.67533  0.82500  1.0000
  H   H701      1.0  0.00482  0.49717  0.93920  1.0000
  S   S119      1.0  0.05178  0.89903  0.78618  1.0000
  Fe  Fe60      1.0  0.13645  0.88592  0.79281  1.0000
  S   S120      1.0  0.09628  0.84714  0.77966  1.0000
  S   S121      1.0  0.18706  0.88283  0.79721  1.0000
  C   C867      1.0  0.47115  0.68853  0.93978  1.0000
  Fe  Fe61      1.0  0.05740  0.85075  0.79857  1.0000
  S   S122      1.0  0.01505  0.79761  0.80999  1.0000
  S   S123      1.0  0.13744  0.93739  0.78026  1.0000
  S   S124      1.0  0.09790  0.88524  0.81283  1.0000
  C   C868      1.0  0.38830  0.84422  0.79452  1.0000
  H   H702      1.0  0.29883  0.51324  0.86353  1.0000
  C   C869      1.0  0.29698  0.70198  0.75650  1.0000
  C   C870      1.0  0.38077  0.56568  0.81018  1.0000
  H   H703      1.0  0.16391  0.52841  0.90481  1.0000
  H   H704      1.0  0.36087  0.57630  0.80927  1.0000
  H   H705      1.0  0.19343  0.52253  0.87963  1.0000
  H   H706      1.0  0.06661  0.57139  0.85641  1.0000
  C   C871      1.0  0.08061  0.64060  0.88833  1.0000
  H   H707      1.0  0.36631  0.71812  0.78793  1.0000
  C   C872      1.0  0.37384  0.52877  0.80756  1.0000
  C   C873      1.0  0.44220  0.80120  0.82349  1.0000
  C   C874      1.0  0.41749  0.76853  0.81896  1.0000
  C   C875      1.0  0.38196  0.76176  0.82144  1.0000
  C   C876      1.0  0.37128  0.78730  0.82877  1.0000
  C   C877      1.0  0.39598  0.81930  0.83367  1.0000
  C   C878      1.0  0.43134  0.82641  0.83091  1.0000
  H   H708      1.0  0.42579  0.74890  0.81323  1.0000
  H   H709      1.0  0.36297  0.73683  0.81772  1.0000
  H   H710      1.0  0.38786  0.83899  0.83937  1.0000
  H   H711      1.0  0.47808  0.66800  0.91733  1.0000
  C   C879      1.0  0.28572  0.59258  0.79149  1.0000
  C   C880      1.0  0.30338  0.56908  0.78951  1.0000
  S   S125      1.0  0.47141  0.59347  0.92365  1.0000
  H   H712      1.0  0.44896  0.61118  0.84399  1.0000
  C   C881      1.0  0.25028  0.57739  0.79692  1.0000
  H   H713      1.0  0.33085  0.58072  0.78530  1.0000
  H   H714      1.0  0.46423  0.59334  0.81762  1.0000
  C   C882      1.0  0.33397  0.77886  0.75472  1.0000
  C   C883      1.0  0.20429  0.77938  0.78407  1.0000
  C   C884      1.0  0.17840  0.78760  0.77789  1.0000
  C   C885      1.0  0.17259  0.81905  0.78199  1.0000
  C   C886      1.0  0.19328  0.84293  0.79192  1.0000
  C   C887      1.0  0.21985  0.83525  0.79764  1.0000
  C   C888      1.0  0.22498  0.80320  0.79400  1.0000
  C   C889      1.0  0.39952  0.68867  0.78840  1.0000
  H   H715      1.0  0.15241  0.82496  0.77731  1.0000
  H   H716      1.0  0.23644  0.85412  0.80493  1.0000
  H   H717      1.0  0.24526  0.79724  0.79868  1.0000
  C   C890      1.0  0.42946  0.68541  0.78149  1.0000
  S   S126      1.0  0.42761  0.78971  0.97175  1.0000
  C   C891      1.0  0.34289  0.67776  0.96042  1.0000
  C   C892      1.0  0.31700  0.65966  0.93662  1.0000
  Fe  Fe62      1.0  0.09452  0.89879  0.76837  1.0000
  C   C893      1.0  0.12174  0.54184  0.82320  1.0000
  C   C894      1.0  0.43183  0.53784  0.81253  1.0000
  C   C895      1.0  0.38952  0.71590  0.78233  1.0000
  C   C896      1.0  0.17176  0.65996  0.89160  1.0000
  C   C897      1.0  0.17908  0.68580  0.87862  1.0000
  C   C898      1.0  0.18288  0.67533  0.86339  1.0000
  C   C899      1.0  0.17830  0.63873  0.86118  1.0000
  C   C900      1.0  0.17028  0.61286  0.87416  1.0000
  C   C901      1.0  0.16811  0.62373  0.88933  1.0000
  H   H718      1.0  0.18201  0.71387  0.88034  1.0000
  H   H719      1.0  0.18872  0.69531  0.85339  1.0000
  H   H720      1.0  0.16582  0.58440  0.87252  1.0000
  H   H721      1.0  0.16240  0.60367  0.89924  1.0000
  H   H722      1.0  0.16381  0.94156  0.74944  1.0000
  C   C902      1.0  0.24320  0.52318  0.95238  1.0000
  C   C903      1.0  0.00960  0.73821  0.74481  1.0000
  C   C904      1.0  0.37974  0.81770  0.78365  1.0000
  H   H723      1.0  0.22572  0.53291  0.95898  1.0000
  C   C905      1.0  0.29908  0.62345  0.94353  1.0000
  C   C906      1.0  0.26343  0.70209  0.96822  1.0000
  H   H724      1.0  0.15659  0.93689  0.83284  1.0000
  C   C907      1.0  0.32058  0.75075  0.96941  1.0000
  C   C908      1.0  0.32415  0.75969  0.95324  1.0000
  C   C909      1.0  0.29768  0.73953  0.94468  1.0000
  C   C910      1.0  0.26721  0.71141  0.95215  1.0000
  H   H725      1.0  0.08915  0.68232  0.79102  1.0000
  H   H726      1.0  0.03413  0.93777  0.74336  1.0000
  H   H727      1.0  0.30105  0.74534  0.93217  1.0000
  H   H728      1.0  0.24642  0.69758  0.94546  1.0000
  C   C911      1.0  0.42901  0.51229  0.87812  1.0000
  C   C912      1.0  0.06993  0.65996  0.81505  1.0000
  C   C913      1.0  0.26804  0.56045  0.88886  1.0000
  C   C914      1.0  0.26792  0.53312  0.87899  1.0000
  C   C915      1.0  0.29907  0.53435  0.87128  1.0000
  C   C916      1.0  0.33048  0.56274  0.87352  1.0000
  C   C917      1.0  0.33097  0.58995  0.88366  1.0000
  C   C918      1.0  0.29945  0.58857  0.89132  1.0000
  P   P31       1.0  0.37137  0.62557  0.88756  1.0000
  C   C919      1.0  0.37156  0.62452  0.90852  1.0000
  C   C920      1.0  0.40794  0.61639  0.87933  1.0000
  C   C921      1.0  0.42972  0.60900  0.88901  1.0000
  C   C922      1.0  0.45839  0.60293  0.88247  1.0000
  H   H729      1.0  0.25256  0.71418  0.75301  1.0000
  C   C923      1.0  0.44384  0.61082  0.85655  1.0000
  C   C924      1.0  0.41565  0.61802  0.86301  1.0000
  C   C925      1.0  0.38837  0.65715  0.91563  1.0000
  C   C926      1.0  0.39281  0.65532  0.93143  1.0000
  C   C927      1.0  0.38089  0.62109  0.94024  1.0000
  C   C928      1.0  0.36348  0.58851  0.93337  1.0000
  C   C929      1.0  0.35867  0.59015  0.91758  1.0000
  C   C930      1.0  0.37816  0.67084  0.87873  1.0000
  C   C931      1.0  0.35189  0.67683  0.87176  1.0000
  C   C932      1.0  0.35842  0.71166  0.86427  1.0000
  C   C933      1.0  0.39093  0.74073  0.86384  1.0000
  C   C934      1.0  0.41718  0.73498  0.87069  1.0000
  C   C935      1.0  0.41104  0.70009  0.87791  1.0000
  H   H730      1.0  0.24387  0.55952  0.89485  1.0000
  C   C936      1.0  0.35060  0.75525  0.75818  1.0000
  H   H731      1.0  0.34443  0.69770  0.76055  1.0000
  H   H732      1.0  0.35414  0.56287  0.86742  1.0000
  H   H733      1.0  0.29922  0.60897  0.89934  1.0000
  H   H734      1.0  0.42533  0.60839  0.90162  1.0000
  S   S127      1.0  0.46172  0.71441  0.84021  1.0000
  H   H735      1.0  0.39976  0.62456  0.85524  1.0000
  H   H736      1.0  0.39880  0.68400  0.90906  1.0000
  H   H737      1.0  0.40569  0.68058  0.93688  1.0000
  H   H738      1.0  0.38534  0.61996  0.95236  1.0000
  H   H739      1.0  0.35441  0.56196  0.94022  1.0000
  H   H740      1.0  0.34621  0.56448  0.91231  1.0000
  H   H741      1.0  0.32672  0.65461  0.87168  1.0000
  H   H742      1.0  0.33864  0.71607  0.85843  1.0000
  H   H743      1.0  0.39605  0.76755  0.85794  1.0000
  H   H744      1.0  0.44264  0.75734  0.87001  1.0000
  H   H745      1.0  0.43220  0.69584  0.88264  1.0000
  H   H746      1.0  0.28544  0.78224  0.75099  1.0000
  H   H747      1.0  0.13777  0.54651  0.84612  1.0000
  H   H748      1.0  0.08381  0.49195  0.94826  1.0000
  C   C937      1.0  0.45925  0.64451  0.96229  1.0000
  H   H749      1.0  0.04564  0.66310  0.81468  1.0000
  C   C938      1.0  0.33215  0.71670  0.75846  1.0000
  P   P32       1.0  0.39566  0.77461  0.76143  1.0000
  H   H750      1.0  0.07388  0.71018  0.84212  1.0000
  S   S128      1.0  0.48686  0.81197  0.81950  1.0000
  C   C939      1.0  0.27150  0.53885  0.83449  1.0000
  Fe  Fe63      1.0  0.43712  0.53482  0.93302  1.0000
  H   H751      1.0  0.47497  0.59773  0.89015  1.0000
  H   H752      1.0  0.31402  0.66677  0.92474  1.0000
  C   C940      1.0  0.24311  0.52142  0.93623  1.0000
  C   C941      1.0  0.28560  0.53055  0.79322  1.0000
  C   C942      1.0  0.16305  0.86417  0.74373  1.0000
  Fe  Fe64      1.0  0.09533  0.93350  0.79906  1.0000
  C   C943      1.0  0.02609  0.80996  0.75391  1.0000
  H   H753      1.0  0.03313  0.83740  0.75785  1.0000
  C   C944      1.0  0.09437  0.67068  0.80161  1.0000
  C   C945      1.0  0.19502  0.86138  0.74360  1.0000
  H   H754      1.0  0.21507  0.97053  0.79980  1.0000
  C   C946      1.0  0.46144  0.61790  0.95242  1.0000
  H   H755      1.0  0.14601  0.91563  0.88284  1.0000
  H   H756      1.0  0.02279  0.58884  0.81762  1.0000
  S   S129      1.0  0.46012  0.71194  0.96883  1.0000
  C   C947      1.0  0.46818  0.62637  0.93619  1.0000
  H   H757      1.0  0.15279  0.87424  0.75371  1.0000
  C   C948      1.0  0.21256  0.52310  0.84695  1.0000
  C   C949      1.0  0.46356  0.67965  0.95600  1.0000
  H   H758      1.0  0.20509  0.52780  0.80419  1.0000
  C   C950      1.0  0.14879  0.51598  0.89556  1.0000
  C   C951      1.0  0.41315  0.58886  0.81403  1.0000
  H   H759      1.0  0.45861  0.59115  0.95743  1.0000
  H   H760      1.0  0.14576  0.95475  0.85948  1.0000
  C   C952      1.0  0.16553  0.51273  0.88120  1.0000
  H   H761      1.0  0.24382  0.51090  0.87726  1.0000
  H   H762      1.0  0.26496  0.51243  0.97267  1.0000
  H   H763      1.0  0.48076  0.55169  0.83813  1.0000
  H   H764      1.0  0.04788  0.75632  0.84576  1.0000
  H   H765      1.0  0.28261  0.67213  0.75754  1.0000
  S   S130      1.0  0.41585  0.51612  0.95816  1.0000
  H   H766      1.0  0.36800  0.84987  0.80119  1.0000
  C   C953      1.0  0.03176  0.72696  0.84788  1.0000
  H   H767      1.0  0.47342  0.70768  0.76360  1.0000
  H   H768      1.0  0.07884  0.81462  0.75143  1.0000
  C   C954      1.0  0.28115  0.57529  0.83839  1.0000
  C   C955      1.0  0.25661  0.58583  0.84648  1.0000
  C   C956      1.0  0.22240  0.56009  0.85047  1.0000
  H   H769      1.0  0.20922  0.86875  0.75361  1.0000
  H   H770      1.0  0.47474  0.86479  0.79255  1.0000
  H   H771      1.0  0.14511  0.67570  0.79152  1.0000
  H   H772      1.0  0.43837  0.85165  0.74800  1.0000
  C   C957      1.0  0.29004  0.72199  0.97690  1.0000
  C   C958      1.0  0.11951  0.52351  0.80956  1.0000
  H   H773      1.0  0.16246  0.76932  0.77014  1.0000
  H   H774      1.0  0.29932  0.51251  0.79184  1.0000
  H   H775      1.0  0.09285  0.97714  0.75147  1.0000
  H   H776      1.0  0.44199  0.51910  0.88844  1.0000
  C   C959      1.0  0.42269  0.86200  0.79738  1.0000
  C   C960      1.0  0.23241  0.53902  0.80011  1.0000
  H   H777      1.0  0.30741  0.59554  0.83474  1.0000
  H   H778      1.0  0.26383  0.61428  0.84917  1.0000
  H   H779      1.0  0.20346  0.56938  0.85592  1.0000
  H   H780      1.0  0.15771  0.65062  0.81590  1.0000
  H   H781      1.0  0.00518  0.95817  0.76552  1.0000
  C   C961      1.0  0.43905  0.57525  0.81490  1.0000
  C   C962      1.0  0.06832  0.64739  0.87455  1.0000
  C   C963      1.0  0.46552  0.60379  0.86625  1.0000
  C   C964      1.0  0.04402  0.76108  0.74603  1.0000
  H   H782      1.0  0.35392  0.71451  0.93947  1.0000
  C   C965      1.0  0.26715  0.70009  0.86684  1.0000
  C   C966      1.0  0.25729  0.66778  0.87685  1.0000
  C   C967      1.0  0.26081  0.67019  0.89274  1.0000
  C   C968      1.0  0.27422  0.70493  0.89861  1.0000
  C   C969      1.0  0.28444  0.73758  0.88857  1.0000
  C   C970      1.0  0.28101  0.73487  0.87261  1.0000
  P   P33       1.0  0.30267  0.78236  0.89619  1.0000
  C   C971      1.0  0.30445  0.81913  0.88238  1.0000
  C   C972      1.0  0.27573  0.78267  0.91384  1.0000
  C   C973      1.0  0.24061  0.75811  0.91647  1.0000
  C   C974      1.0  0.22014  0.75692  0.93046  1.0000
  C   C975      1.0  0.23436  0.78078  0.94180  1.0000
  C   C976      1.0  0.26893  0.80625  0.93903  1.0000
  C   C977      1.0  0.28952  0.80740  0.92507  1.0000
  C   C978      1.0  0.33130  0.83288  0.86981  1.0000
  C   C979      1.0  0.33540  0.86419  0.86016  1.0000
  C   C980      1.0  0.31249  0.88168  0.86286  1.0000
  C   C981      1.0  0.28487  0.86728  0.87495  1.0000
  C   C982      1.0  0.28081  0.83612  0.88470  1.0000
  C   C983      1.0  0.34684  0.79236  0.89977  1.0000
  C   C984      1.0  0.35941  0.76416  0.90055  1.0000
  C   C985      1.0  0.39418  0.77281  0.90234  1.0000
  C   C986      1.0  0.41673  0.80954  0.90326  1.0000
  C   C987      1.0  0.40445  0.83767  0.90272  1.0000
  C   C988      1.0  0.36969  0.82919  0.90097  1.0000
  H   H783      1.0  0.26377  0.69828  0.85459  1.0000
  H   H784      1.0  0.24623  0.64089  0.87235  1.0000
  H   H785      1.0  0.25253  0.64511  0.90055  1.0000
  H   H786      1.0  0.27647  0.70634  0.91101  1.0000
  H   H787      1.0  0.28898  0.75941  0.86456  1.0000
  H   H788      1.0  0.22906  0.73923  0.90790  1.0000
  H   H789      1.0  0.19350  0.73671  0.93266  1.0000
  H   H790      1.0  0.21887  0.77899  0.95287  1.0000
  H   H791      1.0  0.28034  0.82404  0.94799  1.0000
  H   H792      1.0  0.31657  0.82627  0.92351  1.0000
  H   H793      1.0  0.34938  0.81970  0.86760  1.0000
  H   H794      1.0  0.35632  0.87477  0.85054  1.0000
  H   H795      1.0  0.31577  0.90595  0.85536  1.0000
  H   H796      1.0  0.26680  0.88051  0.87685  1.0000
  H   H797      1.0  0.25965  0.82587  0.89419  1.0000
  H   H798      1.0  0.34282  0.73556  0.89963  1.0000
  H   H799      1.0  0.40378  0.75106  0.90301  1.0000
  H   H800      1.0  0.44369  0.81619  0.90457  1.0000
  H   H801      1.0  0.42189  0.86600  0.90382  1.0000
  H   H802      1.0  0.36073  0.85144  0.90051  1.0000
  H   H803      1.0  0.09685  0.60376  0.90136  1.0000
  H   H804      1.0  0.28218  0.60233  0.93700  1.0000
  C   C989      1.0  0.26541  0.51152  0.96012  1.0000
  Fe  Fe65      1.0  0.47006  0.67770  0.82252  1.0000
  C   C990      1.0  0.00096  0.87992  0.74865  1.0000
  Fe  Fe66      1.0  0.47442  0.84313  0.96598  1.0000
  C   C991      1.0  0.10691  0.74362  0.88693  1.0000
  C   C992      1.0  0.13008  0.74533  0.89766  1.0000
  C   C993      1.0  0.16440  0.77123  0.89472  1.0000
  C   C994      1.0  0.17577  0.79502  0.88092  1.0000
  C   C995      1.0  0.15311  0.79219  0.86971  1.0000
  C   C996      1.0  0.11837  0.76685  0.87295  1.0000
  P   P34       1.0  0.16808  0.82224  0.85169  1.0000
  C   C997      1.0  0.16251  0.86507  0.85428  1.0000
  C   C998      1.0  0.21304  0.83118  0.84559  1.0000
  C   C999      1.0  0.23539  0.86455  0.83691  1.0000
  C   C1000     1.0  0.26908  0.86947  0.83086  1.0000
  C   C1001     1.0  0.28055  0.84107  0.83333  1.0000
  C   C1002     1.0  0.25877  0.80833  0.84233  1.0000
  C   C1003     1.0  0.22521  0.80325  0.84837  1.0000
  C   C1004     1.0  0.16296  0.88783  0.84117  1.0000
  C   C1005     1.0  0.15702  0.92004  0.84306  1.0000
  C   C1006     1.0  0.15087  0.93003  0.85807  1.0000
  C   C1007     1.0  0.15091  0.90790  0.87120  1.0000
  C   C1008     1.0  0.15670  0.87553  0.86934  1.0000
  C   C1009     1.0  0.14416  0.79854  0.83635  1.0000
  C   C1010     1.0  0.11570  0.80536  0.83223  1.0000
  C   C1011     1.0  0.09898  0.78902  0.81961  1.0000
  C   C1012     1.0  0.10988  0.76510  0.81126  1.0000
  C   C1013     1.0  0.13743  0.75727  0.81559  1.0000
  C   C1014     1.0  0.15443  0.77375  0.82808  1.0000
  H   H805      1.0  0.08010  0.72417  0.88943  1.0000
  H   H806      1.0  0.12157  0.72656  0.90827  1.0000
  H   H807      1.0  0.18226  0.77247  0.90308  1.0000
  H   H808      1.0  0.20240  0.81513  0.87891  1.0000
  H   H809      1.0  0.10019  0.76499  0.86470  1.0000
  H   H810      1.0  0.22659  0.88622  0.83420  1.0000
  H   H811      1.0  0.28586  0.89476  0.82376  1.0000
  H   H812      1.0  0.30631  0.84432  0.82834  1.0000
  H   H813      1.0  0.26754  0.78635  0.84435  1.0000
  H   H814      1.0  0.20842  0.77682  0.85467  1.0000
  H   H815      1.0  0.16724  0.88028  0.82945  1.0000
  S   S131      1.0  0.22563  0.66536  0.97732  1.0000
  C   C1015     1.0  0.04622  0.70071  0.84578  1.0000
  H   H816      1.0  0.35282  0.80350  0.78211  1.0000
  H   H817      1.0  0.15623  0.85861  0.87967  1.0000
  H   H818      1.0  0.10665  0.82380  0.83848  1.0000
  H   H819      1.0  0.07788  0.79542  0.81614  1.0000
  H   H820      1.0  0.09746  0.75333  0.80123  1.0000
  H   H821      1.0  0.14676  0.73970  0.80886  1.0000
  H   H822      1.0  0.17617  0.76770  0.83082  1.0000
  H   H823      1.0  0.01434  0.55926  0.98607  1.0000
  C   C1016     1.0  0.39883  0.51438  0.80922  1.0000
  C   C1017     1.0  0.13543  0.53141  0.83579  1.0000
  C   C1018     1.0  0.24998  0.51552  0.79845  1.0000
  H   H824      1.0  0.45611  0.75584  0.75268  1.0000
  C   C1019     1.0  0.28014  0.72561  0.75391  1.0000
  C   C1020     1.0  0.12588  0.66695  0.80186  1.0000
  H   H825      1.0  0.08553  0.66011  0.89720  1.0000
  C   C1021     1.0  0.40567  0.80904  0.77542  1.0000
  C   C1022     1.0  0.06262  0.62229  0.86300  1.0000
  C   C1023     1.0  0.07011  0.59076  0.86530  1.0000
  C   C1024     1.0  0.08229  0.58405  0.87910  1.0000
  C   C1025     1.0  0.08710  0.60872  0.89070  1.0000
  H   H826      1.0  0.34098  0.76631  0.97612  1.0000
  H   H827      1.0  0.06441  0.75118  0.74351  1.0000
  H   H828      1.0  0.38391  0.66989  0.79846  1.0000
  C   C1026     1.0  0.29871  0.76404  0.75284  1.0000
  C   C1027     1.0  0.47343  0.66181  0.92989  1.0000
  C   C1028     1.0  0.30301  0.61441  0.95889  1.0000
  H   H829      1.0  0.38356  0.51860  0.88894  1.0000
  C   C1029     1.0  0.07670  0.64491  0.82880  1.0000
  H   H830      1.0  0.28891  0.58630  0.96404  1.0000
  H   H831      1.0  0.29030  0.53136  0.82761  1.0000
  H   H832      1.0  0.19586  0.52118  0.75270  1.0000
  C   C1030     1.0  0.13308  0.65290  0.81560  1.0000
  C   C1031     1.0  0.10869  0.64190  0.82902  1.0000
  H   H833      1.0  0.42912  0.88166  0.80617  1.0000
  H   H834      1.0  0.34800  0.80868  0.75390  1.0000
  C   C1032     1.0  0.43968  0.73689  0.76245  1.0000
  C   C1033     1.0  0.01098  0.58415  0.84293  1.0000
  C   C1034     1.0  0.02503  0.66260  0.84834  1.0000
  S   S132      1.0  0.09282  0.90657  0.74239  1.0000
  H   H835      1.0  0.08862  0.56010  0.88074  1.0000
  S   S133      1.0  0.09912  0.98406  0.81121  1.0000
  H   H836      1.0  0.43707  0.66418  0.78622  1.0000
  H   H837      1.0  0.11385  0.56489  0.82392  1.0000
  P   P35       1.0  0.04395  0.62886  0.84574  1.0000
  H   H838      1.0  0.34907  0.51145  0.80420  1.0000
  C   C1035     1.0  0.40889  0.73942  0.76900  1.0000
  C   C1036     1.0  0.44977  0.70978  0.76865  1.0000
  H   H839      1.0  0.23644  0.59509  0.79853  1.0000
  H   H840      1.0  0.11519  0.63124  0.83947  1.0000
  C   C1037     1.0  0.23737  0.51279  0.83872  1.0000
  C   C1038     1.0  0.05219  0.79688  0.75054  1.0000
  C   C1039     1.0  0.33935  0.68659  0.94496  1.0000
  H   H841      1.0  0.24700  0.98954  0.77303  1.0000
  H   H842      1.0  0.45140  0.52688  0.81358  1.0000
  C   C1040     1.0  0.44846  0.85267  0.78963  1.0000
  H   H843      1.0  0.45034  0.85151  0.83449  1.0000
  C   C1041     1.0  0.43999  0.82619  0.77874  1.0000
  H   H844      1.0  0.46010  0.81852  0.77316  1.0000
  S   S134      1.0  0.41923  0.63412  0.81810  1.0000
  H   H845      1.0  0.36866  0.53200  0.97779  1.0000
  H   H846      1.0  0.07429  0.98075  0.78090  1.0000
  C   C1042     1.0  0.00646  0.57198  0.82790  1.0000
  H   H847      1.0  0.35985  0.69949  0.96660  1.0000
  H   H848      1.0  0.06319  0.67206  0.87300  1.0000
  H   H849      1.0  0.10950  0.53206  0.79970  1.0000
  S   S135      1.0  0.38597  0.50724  0.92407  1.0000
  C   C1043     1.0  0.99621  0.92905  0.76351  1.0000
  C   C1044     1.0  0.99624  0.71548  0.85256  1.0000
  H   H850      1.0  0.47473  0.71569  0.93483  1.0000
  H   H851      1.0  0.48791  0.59933  0.86122  1.0000
  C   C1045     1.0  0.26594  0.50873  0.92780  1.0000
  H   H852      1.0  0.35092  0.49922  0.86628  1.0000
  C   C1046     1.0  0.37728  0.50120  0.86572  1.0000
  H   H853      1.0  0.26593  0.50708  0.91530  1.0000
  C   C1047     1.0  0.41920  0.79441  0.74234  1.0000
  C   C1048     1.0  0.14626  0.49707  0.86907  1.0000
  H   H854      1.0  0.06140  0.62135  0.98008  1.0000
  Fe  Fe67      1.0  0.48564  0.82765  0.93215  1.0000
  C   C1049     1.0  0.14723  0.50274  0.83478  1.0000
  C   C1050     1.0  0.28863  0.49943  0.95167  1.0000
  C   C1051     1.0  0.44463  0.50314  0.86468  1.0000
  H   H855      1.0  0.09973  0.50535  0.90925  1.0000
  H   H856      1.0  0.04850  0.67467  0.97083  1.0000
  C   C1052     1.0  0.02770  0.64738  0.97345  1.0000
  C   C1053     1.0  0.28893  0.49813  0.93547  1.0000
  H   H857      1.0  0.25583  0.61841  0.98381  1.0000
  C   C1054     1.0  0.11263  0.50306  0.89805  1.0000
  C   C1055     1.0  0.03495  0.61749  0.97879  1.0000
  C   C1056     1.0  0.35291  0.57700  0.98121  1.0000
  C   C1057     1.0  0.37334  0.55711  0.98348  1.0000
  C   C1058     1.0  0.00821  0.58225  0.98212  1.0000
  P   P36       1.0  0.48755  0.50298  0.86374  1.0000
  H   H858      1.0  0.00314  0.71035  0.74139  1.0000
  H   H859      1.0  0.39143  0.69586  0.98838  1.0000
  H   H860      1.0  0.28693  0.71533  0.98939  1.0000
  P   P37       1.0  0.32674  0.62998  0.98796  1.0000
  C   C1059     1.0  0.35740  0.60863  0.98915  1.0000
  C   C1060     1.0  0.42584  0.49241  0.85188  1.0000
  C   C1061     1.0  0.13122  0.49489  0.80846  1.0000
  H   H861      1.0  0.69225  0.40056  0.18476  1.0000
  Fe  Fe68      1.0  0.53516  0.13500  0.15688  1.0000
  S   S136      1.0  0.56303  0.18401  0.13929  1.0000
  S   S137      1.0  0.55841  0.12059  0.17711  1.0000
  Fe  Fe69      1.0  0.54269  0.14339  0.12160  1.0000
  H   H862      1.0  0.85959  0.17504  0.16432  1.0000
  H   H863      1.0  0.55793  0.37509  0.08971  1.0000
  H   H864      1.0  0.50830  0.10908  0.09518  1.0000
  H   H865      1.0  0.96843  0.32265  0.01280  1.0000
  Fe  Fe70      1.0  0.67950  0.48240  0.00919  1.0000
  Fe  Fe71      1.0  0.68360  0.45185  0.11428  1.0000
  H   H866      1.0  0.90653  0.04268  0.04307  1.0000
  Fe  Fe72      1.0  0.74444  0.43383  0.12131  1.0000
  S   S138      1.0  0.73598  0.43981  0.14696  1.0000
  S   S139      1.0  0.78676  0.41693  0.11115  1.0000
  Fe  Fe73      1.0  0.67939  0.40880  0.14499  1.0000
  S   S140      1.0  0.64473  0.36207  0.16287  1.0000
  S   S141      1.0  0.68866  0.39823  0.12004  1.0000
  Fe  Fe74      1.0  0.76949  0.19065  0.10568  1.0000
  S   S142      1.0  0.81543  0.22786  0.11663  1.0000
  S   S143      1.0  0.76271  0.19658  0.08009  1.0000
  Fe  Fe75      1.0  0.73424  0.14304  0.13629  1.0000
  S   S144      1.0  0.77759  0.17586  0.14938  1.0000
  S   S145      1.0  0.69201  0.09451  0.15085  1.0000
  Fe  Fe76      1.0  0.77584  0.22547  0.13647  1.0000
  S   S146      1.0  0.77660  0.27280  0.15029  1.0000
  Fe  Fe77      1.0  0.81311  0.17470  0.12850  1.0000
  S   S147      1.0  0.86256  0.16684  0.13148  1.0000
  S   S148      1.0  0.72971  0.19277  0.12472  1.0000
  S   S149      1.0  0.76985  0.13764  0.11626  1.0000
  H   H867      1.0  0.93858  0.25243  0.09119  1.0000
  H   H868      1.0  0.65600  0.20578  0.12913  1.0000
  C   C1062     1.0  0.53115  0.20091  0.04982  1.0000
  H   H869      1.0  0.68963  0.14158  0.06742  1.0000
  C   C1063     1.0  0.76152  0.47727  0.19188  1.0000
  C   C1064     1.0  0.74236  0.43992  0.18964  1.0000
  S   S150      1.0  0.94148  0.02504  0.14602  1.0000
  S   S151      1.0  0.58668  0.15731  0.01776  1.0000
  Fe  Fe78      1.0  0.55213  0.09695  0.01988  1.0000
  H   H870      1.0  0.63760  0.46439  0.04121  1.0000
  Fe  Fe79      1.0  0.63790  0.40265  0.00396  1.0000
  S   S152      1.0  0.60960  0.34771  0.01803  1.0000
  S   S153      1.0  0.62290  0.45108  0.00708  1.0000
  S   S154      1.0  0.69295  0.43287  0.00816  1.0000
  C   C1065     1.0  0.86198  0.12232  0.23275  1.0000
  C   C1066     1.0  0.59771  0.30812  0.00767  1.0000
  C   C1067     1.0  0.58662  0.27344  0.01607  1.0000
  C   C1068     1.0  0.57533  0.24106  0.00832  1.0000
  H   H871      1.0  0.58684  0.27164  0.02860  1.0000
  H   H872      1.0  0.56614  0.21455  0.01494  1.0000
  C   C1069     1.0  0.80066  0.22235  0.06718  1.0000
  C   C1070     1.0  0.79836  0.22938  0.05135  1.0000
  C   C1071     1.0  0.82850  0.24900  0.04083  1.0000
  C   C1072     1.0  0.86114  0.26171  0.04607  1.0000
  C   C1073     1.0  0.86333  0.25493  0.06192  1.0000
  C   C1074     1.0  0.83318  0.23544  0.07243  1.0000
  H   H873      1.0  0.77328  0.21951  0.04717  1.0000
  H   H874      1.0  0.82638  0.25317  0.02860  1.0000
  H   H875      1.0  0.88842  0.26452  0.06607  1.0000
  H   H876      1.0  0.83519  0.23019  0.08456  1.0000
  C   C1075     1.0  0.86288  0.12322  0.12792  1.0000
  C   C1076     1.0  0.89315  0.11706  0.12906  1.0000
  C   C1077     1.0  0.89363  0.08211  0.12668  1.0000
  C   C1078     1.0  0.86380  0.05329  0.12310  1.0000
  C   C1079     1.0  0.83378  0.05964  0.12173  1.0000
  C   C1080     1.0  0.83327  0.09443  0.12419  1.0000
  H   H877      1.0  0.91616  0.13927  0.13191  1.0000
  H   H878      1.0  0.91696  0.07745  0.12766  1.0000
  H   H879      1.0  0.81061  0.03734  0.11907  1.0000
  H   H880      1.0  0.80974  0.09865  0.12348  1.0000
  C   C1081     1.0  0.83363  0.36504  0.05700  1.0000
  H   H881      1.0  0.66726  0.44664  0.18200  1.0000
  C   C1082     1.0  0.78347  0.37617  0.12167  1.0000
  C   C1083     1.0  0.80752  0.36051  0.11772  1.0000
  C   C1084     1.0  0.80473  0.32773  0.12604  1.0000
  C   C1085     1.0  0.77836  0.31119  0.13859  1.0000
  C   C1086     1.0  0.75438  0.32681  0.14251  1.0000
  C   C1087     1.0  0.75669  0.35903  0.13400  1.0000
  H   H882      1.0  0.82843  0.37385  0.10834  1.0000
  H   H883      1.0  0.82341  0.31579  0.12302  1.0000
  H   H884      1.0  0.73387  0.31377  0.15208  1.0000
  H   H885      1.0  0.73772  0.37052  0.13699  1.0000
  H   H886      1.0  0.87093  0.23369  0.14898  1.0000
  C   C1088     1.0  0.71202  0.00545  0.18710  1.0000
  C   C1089     1.0  0.53165  0.09436  0.05783  1.0000
  C   C1090     1.0  0.56769  0.11222  0.05723  1.0000
  C   C1091     1.0  0.58222  0.12832  0.07041  1.0000
  H   H887      1.0  0.58445  0.11300  0.04675  1.0000
  H   H888      1.0  0.61009  0.14173  0.07005  1.0000
  C   C1092     1.0  0.54773  0.27801  0.14564  1.0000
  C   C1093     1.0  0.56326  0.31440  0.13846  1.0000
  C   C1094     1.0  0.59329  0.34034  0.14355  1.0000
  C   C1095     1.0  0.60711  0.33031  0.15622  1.0000
  C   C1096     1.0  0.59118  0.29410  0.16355  1.0000
  C   C1097     1.0  0.56189  0.26786  0.15813  1.0000
  H   H889      1.0  0.55251  0.32239  0.12877  1.0000
  H   H890      1.0  0.60558  0.36819  0.13778  1.0000
  H   H891      1.0  0.60196  0.28611  0.17324  1.0000
  H   H892      1.0  0.55007  0.23983  0.16371  1.0000
  C   C1098     1.0  0.59621  0.11459  0.16984  1.0000
  C   C1099     1.0  0.61431  0.13110  0.15508  1.0000
  C   C1100     1.0  0.64424  0.12580  0.14933  1.0000
  C   C1101     1.0  0.65560  0.10307  0.15812  1.0000
  C   C1102     1.0  0.63719  0.08612  0.17278  1.0000
  C   C1103     1.0  0.60796  0.09238  0.17874  1.0000
  H   H893      1.0  0.60539  0.14805  0.14807  1.0000
  H   H894      1.0  0.65786  0.13840  0.13788  1.0000
  H   H895      1.0  0.64567  0.06845  0.17964  1.0000
  H   H896      1.0  0.59401  0.07941  0.19009  1.0000
  C   C1104     1.0  0.64154  0.45816  0.06584  1.0000
  C   C1105     1.0  0.66533  0.25913  0.00611  1.0000
  C   C1106     1.0  0.56083  0.12680  0.08415  1.0000
  P   P38       1.0  0.69103  0.05930  0.01460  1.0000
  C   C1107     1.0  0.74005  0.11154  0.99196  1.0000
  C   C1108     1.0  0.57099  0.28524  0.09522  1.0000
  H   H897      1.0  0.92192  0.17639  0.05562  1.0000
  C   C1109     1.0  0.65347  0.23127  0.12556  1.0000
  C   C1110     1.0  0.65793  0.25852  0.13596  1.0000
  C   C1111     1.0  0.65261  0.29029  0.13161  1.0000
  C   C1112     1.0  0.64343  0.29515  0.11678  1.0000
  C   C1113     1.0  0.64229  0.26968  0.10568  1.0000
  C   C1114     1.0  0.64517  0.23653  0.11060  1.0000
  P   P39       1.0  0.63187  0.27621  0.08613  1.0000
  C   C1115     1.0  0.65019  0.32307  0.07668  1.0000
  C   C1116     1.0  0.64611  0.24941  0.07266  1.0000
  C   C1117     1.0  0.62839  0.23610  0.05981  1.0000
  C   C1118     1.0  0.63858  0.21401  0.04990  1.0000
  C   C1119     1.0  0.66657  0.20519  0.05269  1.0000
  C   C1120     1.0  0.68526  0.21961  0.06502  1.0000
  C   C1121     1.0  0.67571  0.24252  0.07468  1.0000
  C   C1122     1.0  0.64223  0.32956  0.06167  1.0000
  C   C1123     1.0  0.65624  0.36536  0.05403  1.0000
  C   C1124     1.0  0.67753  0.39512  0.06142  1.0000
  C   C1125     1.0  0.68579  0.38904  0.07626  1.0000
  C   C1126     1.0  0.67249  0.35315  0.08377  1.0000
  C   C1127     1.0  0.58548  0.26140  0.08899  1.0000
  C   C1128     1.0  0.51025  0.09335  0.07152  1.0000
  C   C1129     1.0  0.56361  0.22500  0.08676  1.0000
  H   H898      1.0  0.66461  0.25453  0.14751  1.0000
  H   H899      1.0  0.65527  0.31102  0.13981  1.0000
  H   H900      1.0  0.63718  0.31874  0.11412  1.0000
  H   H901      1.0  0.60644  0.24227  0.05753  1.0000
  H   H902      1.0  0.62441  0.20312  0.04023  1.0000
  H   H903      1.0  0.67385  0.18725  0.04529  1.0000
  H   H904      1.0  0.70729  0.21317  0.06708  1.0000
  H   H905      1.0  0.69105  0.25408  0.08392  1.0000
  H   H906      1.0  0.62500  0.30720  0.05582  1.0000
  H   H907      1.0  0.65002  0.37030  0.04249  1.0000
  H   H908      1.0  0.68756  0.42296  0.05568  1.0000
  H   H909      1.0  0.70243  0.41229  0.08196  1.0000
  H   H910      1.0  0.68025  0.34931  0.09496  1.0000
  H   H911      1.0  0.74228  0.44431  0.03597  1.0000
  H   H912      1.0  0.57425  0.20546  0.08287  1.0000
  C   C1130     1.0  0.53509  0.27273  0.09912  1.0000
  C   C1131     1.0  0.71814  0.18955  0.00260  1.0000
  H   H913      1.0  0.72902  0.27460  0.11633  1.0000
  H   H914      1.0  0.81069  0.41960  0.07513  1.0000
  C   C1132     1.0  0.79630  0.42470  0.06628  1.0000
  C   C1133     1.0  0.52322  0.35332  0.02473  1.0000
  C   C1134     1.0  0.85415  0.36107  0.04391  1.0000
  C   C1135     1.0  0.89493  0.00465  0.19023  1.0000
  C   C1136     1.0  0.68968  0.12618  0.05727  1.0000
  H   H915      1.0  0.74573  0.11630  0.02849  1.0000
  C   C1137     1.0  0.72227  0.03935  0.01709  1.0000
  H   H916      1.0  0.89297  0.38460  0.08294  1.0000
  C   C1138     1.0  0.94367  0.25837  0.19707  1.0000
  C   C1139     1.0  0.72104  0.13136  0.04838  1.0000
  C   C1140     1.0  0.90241  0.37389  0.05895  1.0000
  C   C1141     1.0  0.88830  0.36530  0.04496  1.0000
  C   C1142     1.0  0.87986  0.18865  0.22827  1.0000
  C   C1143     1.0  0.76935  0.32654  0.01225  1.0000
  C   C1144     1.0  0.75051  0.28820  0.01444  1.0000
  C   C1145     1.0  0.74297  0.26991  0.02944  1.0000
  C   C1146     1.0  0.75403  0.28992  0.04230  1.0000
  C   C1147     1.0  0.77270  0.32853  0.04025  1.0000
  C   C1148     1.0  0.78087  0.34644  0.02506  1.0000
  C   C1149     1.0  0.75752  0.43885  0.04440  1.0000
  C   C1150     1.0  0.76119  0.40500  0.04523  1.0000
  H   H917      1.0  0.51130  0.27237  0.00843  1.0000
  H   H918      1.0  0.71107  0.05246  0.22751  1.0000
  H   H919      1.0  0.72872  0.24010  0.03106  1.0000
  H   H920      1.0  0.74819  0.27506  0.05372  1.0000
  H   H921      1.0  0.79625  0.37593  0.02316  1.0000
  C   C1151     1.0  0.81860  0.41572  0.20702  1.0000
  H   H922      1.0  0.74756  0.38441  0.03768  1.0000
  C   C1152     1.0  0.84956  0.18039  0.02421  1.0000
  C   C1153     1.0  0.85711  0.17194  0.03895  1.0000
  C   C1154     1.0  0.84426  0.13495  0.04547  1.0000
  C   C1155     1.0  0.82303  0.10674  0.03712  1.0000
  P   P40       1.0  0.85104  0.12358  0.06511  1.0000
  C   C1156     1.0  0.87414  0.09352  0.06582  1.0000
  C   C1157     1.0  0.87804  0.16478  0.07339  1.0000
  C   C1158     1.0  0.91222  0.18498  0.06621  1.0000
  C   C1159     1.0  0.93394  0.21662  0.07254  1.0000
  C   C1160     1.0  0.92188  0.22794  0.08623  1.0000
  C   C1161     1.0  0.88814  0.20764  0.09356  1.0000
  C   C1162     1.0  0.86623  0.17601  0.08725  1.0000
  C   C1163     1.0  0.88505  0.08644  0.08003  1.0000
  C   C1164     1.0  0.63195  0.99807  0.02796  1.0000
  C   C1165     1.0  0.97333  0.01376  0.22507  1.0000
  C   C1166     1.0  0.81922  0.42801  0.23434  1.0000
  C   C1167     1.0  0.88236  0.07797  0.05242  1.0000
  C   C1168     1.0  0.80831  0.10204  0.07617  1.0000
  C   C1169     1.0  0.78403  0.11765  0.07441  1.0000
  C   C1170     1.0  0.75027  0.10056  0.08225  1.0000
  C   C1171     1.0  0.74056  0.06796  0.09205  1.0000
  C   C1172     1.0  0.76460  0.05230  0.09395  1.0000
  C   C1173     1.0  0.79830  0.06910  0.08598  1.0000
  H   H923      1.0  0.85945  0.20909  0.01935  1.0000
  H   H924      1.0  0.87230  0.19462  0.04527  1.0000
  H   H925      1.0  0.81189  0.07823  0.04218  1.0000
  H   H926      1.0  0.77421  0.08457  0.22072  1.0000
  C   C1174     1.0  0.97914  0.09585  0.16752  1.0000
  H   H927      1.0  0.84499  0.27652  0.15899  1.0000
  H   H928      1.0  0.87892  0.21645  0.10419  1.0000
  H   H929      1.0  0.84029  0.16060  0.09325  1.0000
  H   H930      1.0  0.87951  0.09864  0.09048  1.0000
  H   H931      1.0  0.90836  0.25389  0.18018  1.0000
  C   C1175     1.0  0.51606  0.31002  0.05797  1.0000
  H   H932      1.0  0.87535  0.08388  0.04122  1.0000
  H   H933      1.0  0.79132  0.14335  0.06710  1.0000
  H   H934      1.0  0.73201  0.11342  0.08119  1.0000
  H   H935      1.0  0.71469  0.05550  0.09850  1.0000
  H   H936      1.0  0.77276  0.00155  0.21662  1.0000
  H   H937      1.0  0.81624  0.05625  0.08766  1.0000
  H   H938      1.0  0.51114  0.18473  0.08839  1.0000
  H   H939      1.0  0.92386  0.02891  0.06851  1.0000
  H   H940      1.0  0.90346  0.36073  0.03504  1.0000
  H   H941      1.0  0.61525  0.43765  0.06867  1.0000
  H   H942      1.0  0.93736  0.27878  0.20324  1.0000
  H   H943      1.0  0.89417  0.21633  0.23151  1.0000
  H   H944      1.0  0.65700  0.23258  0.01289  1.0000
  H   H945      1.0  0.96858  0.06584  0.20590  1.0000
  C   C1176     1.0  0.65416  0.47328  0.05030  1.0000
  H   H946      1.0  0.75932  0.11136  0.99926  1.0000
  P   P41       1.0  0.76269  0.40716  0.19042  1.0000
  C   C1177     1.0  0.78486  0.41463  0.20759  1.0000
  C   C1178     1.0  0.73060  0.36002  0.19160  1.0000
  C   C1179     1.0  0.72271  0.33584  0.20525  1.0000
  C   C1180     1.0  0.69793  0.29938  0.20581  1.0000
  C   C1181     1.0  0.68076  0.28692  0.19281  1.0000
  C   C1182     1.0  0.68853  0.31081  0.17922  1.0000
  C   C1183     1.0  0.71366  0.34700  0.17853  1.0000
  H   H947      1.0  0.76856  0.49084  0.05441  1.0000
  C   C1184     1.0  0.52481  0.10985  0.08464  1.0000
  S   S155      1.0  0.89969  0.28384  0.03299  1.0000
  H   H948      1.0  0.77661  0.00829  0.99585  1.0000
  C   C1185     1.0  0.79322  0.41404  0.17308  1.0000
  H   H949      1.0  0.52420  0.29045  0.10480  1.0000
  H   H950      1.0  0.84046  0.47810  0.14264  1.0000
  C   C1186     1.0  0.84041  0.42359  0.14617  1.0000
  C   C1187     1.0  0.82703  0.39013  0.15566  1.0000
  C   C1188     1.0  0.80324  0.38517  0.16896  1.0000
  H   H951      1.0  0.54787  0.19467  0.05716  1.0000
  H   H952      1.0  0.73564  0.34484  0.21544  1.0000
  C   C1189     1.0  0.80650  0.43582  0.00089  1.0000
  H   H953      1.0  0.66144  0.25878  0.19321  1.0000
  H   H954      1.0  0.67495  0.30148  0.16918  1.0000
  H   H955      1.0  0.71938  0.36508  0.16784  1.0000
  H   H956      1.0  0.49869  0.44117  0.99381  1.0000
  C   C1190     1.0  0.67196  0.29148  0.01367  1.0000
  S   S156      1.0  0.53517  0.09776  0.99607  1.0000
  H   H957      1.0  0.85756  0.42679  0.13547  1.0000
  H   H958      1.0  0.83405  0.36747  0.15239  1.0000
  H   H959      1.0  0.79233  0.35858  0.17586  1.0000
  H   H960      1.0  0.63380  0.06469  0.03618  1.0000
  H   H961      1.0  0.80014  0.47062  0.16638  1.0000
  C   C1191     1.0  0.98658  0.16166  0.21298  1.0000
  C   C1192     1.0  0.79136  0.45785  0.06585  1.0000
  C   C1193     1.0  0.73962  0.03093  0.00400  1.0000
  H   H962      1.0  0.96006  0.23238  0.06682  1.0000
  H   H963      1.0  0.95905  0.00100  0.21564  1.0000
  H   H964      1.0  0.64046  0.00610  0.03918  1.0000
  C   C1194     1.0  0.51445  0.17540  0.03948  1.0000
  H   H965      1.0  0.87191  0.04364  0.19568  1.0000
  C   C1195     1.0  0.51432  0.31504  0.02411  1.0000
  Fe  Fe80      1.0  0.51196  0.18892  0.14041  1.0000
  H   H966      1.0  0.83264  0.37630  0.08136  1.0000
  C   C1196     1.0  0.51340  0.23673  0.09652  1.0000
  S   S157      1.0  0.84226  0.02556  0.22767  1.0000
  Fe  Fe81      1.0  0.89280  0.30695  0.00980  1.0000
  C   C1197     1.0  0.72163  0.07351  0.21769  1.0000
  C   C1198     1.0  0.69925  0.08193  0.20886  1.0000
  C   C1199     1.0  0.71286  0.10870  0.19608  1.0000
  C   C1200     1.0  0.74872  0.12684  0.19206  1.0000
  C   C1201     1.0  0.77155  0.11914  0.20100  1.0000
  C   C1202     1.0  0.75762  0.09197  0.21379  1.0000
  P   P42       1.0  0.81789  0.14049  0.19469  1.0000
  C   C1203     1.0  0.84234  0.14769  0.21125  1.0000
  C   C1204     1.0  0.82897  0.10992  0.18225  1.0000
  C   C1205     1.0  0.86271  0.11074  0.18069  1.0000
  C   C1206     1.0  0.87119  0.08702  0.17103  1.0000
  C   C1207     1.0  0.84598  0.06193  0.16316  1.0000
  C   C1208     1.0  0.81270  0.06177  0.16428  1.0000
  C   C1209     1.0  0.80428  0.08590  0.17366  1.0000
  C   C1210     1.0  0.86081  0.18357  0.21555  1.0000
  H   H967      1.0  0.93638  0.45652  0.99496  1.0000
  Fe  Fe82      1.0  0.72817  0.49064  0.13915  1.0000
  H   H968      1.0  0.51083  0.24762  0.20490  1.0000
  C   C1211     1.0  0.90270  0.06305  0.08097  1.0000
  C   C1212     1.0  0.82808  0.18451  0.18372  1.0000
  C   C1213     1.0  0.81389  0.20916  0.18941  1.0000
  C   C1214     1.0  0.82027  0.24238  0.18057  1.0000
  C   C1215     1.0  0.84116  0.25144  0.16609  1.0000
  C   C1216     1.0  0.85571  0.22731  0.16045  1.0000
  C   C1217     1.0  0.84908  0.19389  0.16919  1.0000
  C   C1218     1.0  0.65840  0.08234  0.03964  1.0000
  H   H969      1.0  0.67138  0.06752  0.21179  1.0000
  H   H970      1.0  0.69572  0.11516  0.18906  1.0000
  H   H971      1.0  0.75840  0.14645  0.18178  1.0000
  H   H972      1.0  0.76617  0.45570  0.99890  1.0000
  H   H973      1.0  0.88244  0.12974  0.18685  1.0000
  H   H974      1.0  0.89717  0.08764  0.16972  1.0000
  H   H975      1.0  0.85245  0.04310  0.15594  1.0000
  H   H976      1.0  0.79367  0.04343  0.15759  1.0000
  H   H977      1.0  0.77863  0.08597  0.17402  1.0000
  H   H978      1.0  0.86084  0.20777  0.20913  1.0000
  S   S158      1.0  0.85944  0.41325  0.00306  1.0000
  C   C1219     1.0  0.86582  0.00657  0.21576  1.0000
  H   H979      1.0  0.79710  0.20219  0.20047  1.0000
  H   H980      1.0  0.80799  0.26057  0.18459  1.0000
  H   H981      1.0  0.64059  0.21430  0.10302  1.0000
  H   H982      1.0  0.78824  0.48654  0.19417  1.0000
  C   C1220     1.0  0.68319  0.32570  0.00487  1.0000
  C   C1221     1.0  0.76307  0.01445  0.00599  1.0000
  S   S159      1.0  0.57982  0.14605  0.10056  1.0000
  S   S160      1.0  0.74065  0.48717  0.11336  1.0000
  C   C1222     1.0  0.52783  0.32536  0.99572  1.0000
  H   H983      1.0  0.71654  0.32876  0.10849  1.0000
  H   H984      1.0  0.52151  0.36487  0.03580  1.0000
  C   C1223     1.0  0.91023  0.04710  0.06768  1.0000
  C   C1224     1.0  0.88239  0.37849  0.07197  1.0000
  C   C1225     1.0  0.78561  0.42689  0.23500  1.0000
  C   C1226     1.0  0.74573  0.33893  0.08554  1.0000
  C   C1227     1.0  0.73182  0.31942  0.10026  1.0000
  H   H985      1.0  0.74081  0.36319  0.08259  1.0000
  H   H986      1.0  0.58750  0.31297  0.09768  1.0000
  C   C1228     1.0  0.95142  0.13932  0.21243  1.0000
  C   C1229     1.0  0.76710  0.32810  0.07516  1.0000
  C   C1230     1.0  0.73926  0.28918  0.10479  1.0000
  C   C1231     1.0  0.98754  0.11857  0.23380  1.0000
  S   S161      1.0  0.59513  0.07907  0.01218  1.0000
  S   S162      1.0  0.68106  0.16417  0.01596  1.0000
  C   C1232     1.0  0.82877  0.15214  0.01591  1.0000
  H   H987      1.0  0.66834  0.29006  0.02635  1.0000
  Fe  Fe83      1.0  0.62848  0.14009  0.00775  1.0000
  S   S163      1.0  0.51880  0.09374  0.13912  1.0000
  H   H988      1.0  0.94250  0.09272  0.18739  1.0000
  H   H989      1.0  0.51853  0.14994  0.03878  1.0000
  P   P43       1.0  0.78808  0.35499  0.05668  1.0000
  C   C1233     1.0  0.78166  0.39806  0.05584  1.0000
  C   C1234     1.0  0.76108  0.27871  0.09467  1.0000
  H   H990      1.0  0.54505  0.00653  0.99848  1.0000
  H   H991      1.0  0.75293  0.19192  0.01956  1.0000
  C   C1235     1.0  0.81560  0.11528  0.02235  1.0000
  C   C1236     1.0  0.77500  0.29804  0.07993  1.0000
  H   H992      1.0  0.76772  0.25602  0.09837  1.0000
  C   C1237     1.0  0.76847  0.42023  0.22168  1.0000
  H   H993      1.0  0.74519  0.15097  0.05162  1.0000
  H   H994      1.0  0.86184  0.42358  0.21980  1.0000
  H   H995      1.0  0.79245  0.28995  0.07235  1.0000
  C   C1238     1.0  0.69335  0.45514  0.18509  1.0000
  S   S164      1.0  0.84291  0.30921  0.00452  1.0000
  C   C1239     1.0  0.95966  0.20546  0.18118  1.0000
  C   C1240     1.0  0.75088  0.19968  0.00763  1.0000
  C   C1241     1.0  0.70463  0.09004  0.99672  1.0000
  H   H996      1.0  0.83085  0.08936  0.21638  1.0000
  H   H997      1.0  0.80624  0.22718  0.00121  1.0000
  C   C1242     1.0  0.88029  0.15801  0.23693  1.0000
  H   H998      1.0  0.82265  0.15906  0.00459  1.0000
  H   H999      1.0  0.79926  0.09343  0.01597  1.0000
  C   C1243     1.0  0.72119  0.11161  0.03528  1.0000
  C   C1244     1.0  0.92723  0.24423  0.18408  1.0000
  S   S165      1.0  0.51035  0.24544  0.13915  1.0000
  C   C1245     1.0  0.68988  0.08637  0.03096  1.0000
  C   C1246     1.0  0.84816  0.37398  0.07101  1.0000
  S   S166      1.0  0.64618  0.44919  0.09699  1.0000
  C   C1247     1.0  0.56713  0.35219  0.06834  1.0000
  H   H1000     1.0  0.84381  0.35384  0.03298  1.0000
  H   H1001     1.0  0.54003  0.25374  0.05851  1.0000
  H   H1002     1.0  0.93673  0.14679  0.20437  1.0000
  C   C1248     1.0  0.93514  0.21769  0.17617  1.0000
  C   C1249     1.0  0.75139  0.01362  0.03413  1.0000
  C   C1250     1.0  0.53449  0.37728  0.01099  1.0000
  S   S167      1.0  0.86273  0.00879  0.12062  1.0000
  C   C1251     1.0  0.52765  0.21302  0.09011  1.0000
  H   H1003     1.0  0.77558  0.34086  0.00061  1.0000
  H   H1004     1.0  0.96766  0.10784  0.15935  1.0000
  H   H1005     1.0  0.83198  0.41184  0.19629  1.0000
  S   S168      1.0  0.92429  0.36709  0.00235  1.0000
  C   C1252     1.0  0.84379  0.11720  0.21976  1.0000
  C   C1253     1.0  0.65107  0.01906  0.01400  1.0000
  C   C1254     1.0  0.96505  0.08742  0.18328  1.0000
  C   C1255     1.0  0.93466  0.10675  0.22244  1.0000
  C   C1256     1.0  0.51009  0.33769  0.08225  1.0000
  H   H1006     1.0  0.75728  0.02742  0.10179  1.0000
  H   H1007     1.0  0.51081  0.18443  0.20559  1.0000
  H   H1008     1.0  0.92857  0.37623  0.05977  1.0000
  H   H1009     1.0  0.90775  0.08923  0.22184  1.0000
  C   C1257     1.0  0.87733  0.02075  0.20013  1.0000
  C   C1258     1.0  0.80745  0.44791  0.16368  1.0000
  C   C1259     1.0  0.69747  0.02335  0.17749  1.0000
  H   H1010     1.0  0.69196  0.28075  0.21631  1.0000
  H   H1011     1.0  0.71245  0.05169  0.17255  1.0000
  C   C1260     1.0  0.75019  0.99368  0.22535  1.0000
  C   C1261     1.0  0.82745  0.41980  0.99333  1.0000
  C   C1262     1.0  0.94259  0.45941  0.01929  1.0000
  H   H1012     1.0  0.59499  0.36733  0.06732  1.0000
  H   H1013     1.0  0.73834  0.02025  0.18961  1.0000
  C   C1263     1.0  0.77237  0.46514  0.05477  1.0000
  H   H1014     1.0  0.94739  0.46915  0.04349  1.0000
  H   H1015     1.0  0.90321  0.01519  0.17808  1.0000
  C   C1264     1.0  0.90027  0.05474  0.05339  1.0000
  C   C1265     1.0  0.65838  0.10184  0.05284  1.0000
  Fe  Fe84      1.0  0.98109  0.01174  0.13098  1.0000
  H   H1016     1.0  0.54172  0.40676  0.01162  1.0000
  H   H1017     1.0  0.63403  0.09850  0.05951  1.0000
  C   C1266     1.0  0.70791  0.42897  0.18650  1.0000
  C   C1267     1.0  0.94738  0.48116  0.03194  1.0000
  Fe  Fe85      1.0  0.90522  0.99479  0.12920  1.0000
  H   H1018     1.0  0.93875  0.43060  0.02106  1.0000
  C   C1268     1.0  0.76901  0.00588  0.02105  1.0000
  C   C1269     1.0  0.78107  0.21986  0.99728  1.0000
  C   C1270     1.0  0.55224  0.32884  0.05693  1.0000
  H   H1019     1.0  0.71434  0.03564  0.04248  1.0000
  H   H1020     1.0  0.65257  0.01849  0.16644  1.0000
  C   C1271     1.0  0.96839  0.24638  0.20204  1.0000
  H   H1021     1.0  0.80973  0.44345  0.01272  1.0000
  H   H1022     1.0  0.91033  0.05709  0.09209  1.0000
  H   H1023     1.0  0.96520  0.18455  0.17502  1.0000
  C   C1272     1.0  0.66356  0.00472  0.17414  1.0000
  C   C1273     1.0  0.97700  0.22029  0.19397  1.0000
  C   C1274     1.0  0.54612  0.35674  0.08096  1.0000
  C   C1275     1.0  0.95251  0.09670  0.23330  1.0000
  C   C1276     1.0  0.83065  0.45245  0.15019  1.0000
  C   C1277     1.0  0.72800  0.03016  0.03218  1.0000
  H   H1024     1.0  0.56890  0.32614  0.04708  1.0000
  S   S169      1.0  0.51320  0.07379  0.04145  1.0000
  H   H1025     1.0  0.49477  0.04232  0.11496  1.0000
  H   H1026     1.0  0.74250  0.41967  0.22231  1.0000
  H   H1027     1.0  0.92246  0.20672  0.16607  1.0000
  H   H1028     1.0  0.74194  0.27253  0.00454  1.0000
  H   H1029     1.0  0.68801  0.35075  0.01074  1.0000
  Fe  Fe86      1.0  0.87518  0.36784  0.99513  1.0000
  P   P44       1.0  0.49712  0.28419  0.04195  1.0000
  C   C1278     1.0  0.50493  0.24213  0.04085  1.0000
  C   C1279     1.0  0.83567  0.42240  0.22036  1.0000
  C   C1280     1.0  0.51684  0.30130  0.00945  1.0000
  C   C1281     1.0  0.52656  0.23427  0.05051  1.0000
  H   H1030     1.0  0.75580  0.00680  0.04583  1.0000
  C   C1282     1.0  0.64032  0.00633  0.99962  1.0000
  C   C1283     1.0  0.75368  0.01059  0.23938  1.0000
  C   C1284     1.0  0.57470  0.24307  0.99215  1.0000
  Fe  Fe87      1.0  0.57289  0.15723  0.99341  1.0000
  C   C1285     1.0  0.59756  0.31036  0.99143  1.0000
  S   S170      1.0  0.67045  0.46011  0.13938  1.0000
  C   C1286     1.0  0.53688  0.36335  0.99649  1.0000
  C   C1287     1.0  0.97968  0.07154  0.19376  1.0000
  H   H1031     1.0  0.78718  0.99310  0.02259  1.0000
  C   C1288     1.0  0.66293  0.46909  0.07770  1.0000
  H   H1032     1.0  0.98077  0.25770  0.21212  1.0000
  C   C1289     1.0  0.94122  0.47428  0.00445  1.0000
  H   H1033     1.0  0.86221  0.09854  0.23953  1.0000
  H   H1034     1.0  0.73496  0.03700  0.99228  1.0000
  H   H1035     1.0  0.98001  0.35694  0.03637  1.0000
  C   C1290     1.0  0.49505  0.31439  0.07082  1.0000
  H   H1036     1.0  0.80194  0.47765  0.07428  1.0000
  C   C1291     1.0  0.78161  0.44249  0.99312  1.0000
  H   H1037     1.0  0.65265  0.07947  0.99144  1.0000
  C   C1292     1.0  0.99170  0.34787  0.01246  1.0000
  H   H1038     1.0  0.59540  0.20270  0.45817  1.0000
  C   C1293     1.0  0.95574  0.10261  0.32283  1.0000
  S   S171      1.0  0.87649  0.05856  0.29861  1.0000
  H   H1039     1.0  0.53754  0.31289  0.44549  1.0000
  S   S172      1.0  0.64296  0.17270  0.47737  1.0000
  S   S173      1.0  0.80701  0.02212  0.27088  1.0000
  H   H1040     1.0  0.77874  0.03080  0.24140  1.0000
  C   C1294     1.0  0.56181  0.18454  0.39981  1.0000
  S   S174      1.0  0.77748  0.45053  0.45974  1.0000
  Fe  Fe88      1.0  0.58360  0.38864  0.46372  1.0000
  H   H1041     1.0  0.79134  0.39370  0.43738  1.0000
  S   S175      1.0  0.60834  0.35521  0.45085  1.0000
  Fe  Fe89      1.0  0.54638  0.44092  0.46476  1.0000
  H   H1042     1.0  0.95798  0.37485  0.43361  1.0000
  C   C1295     1.0  0.83827  0.17476  0.48223  1.0000
  C   C1296     1.0  0.91541  0.47614  0.41520  1.0000
  H   H1043     1.0  0.89894  0.45819  0.39287  1.0000
  C   C1297     1.0  0.66931  0.13215  0.44775  1.0000
  C   C1298     1.0  0.71160  0.44703  0.46380  1.0000
  H   H1044     1.0  0.97575  0.35344  0.45736  1.0000
  C   C1299     1.0  0.67618  0.18850  0.43268  1.0000
  C   C1300     1.0  0.97307  0.14841  0.27074  1.0000
  C   C1301     1.0  0.53936  0.23655  0.44465  1.0000
  C   C1302     1.0  0.51271  0.09779  0.44176  1.0000
  C   C1303     1.0  0.57728  0.14420  0.38300  1.0000
  C   C1304     1.0  0.59914  0.02204  0.41271  1.0000
  P   P45       1.0  0.94764  0.99498  0.32491  1.0000
  H   H1045     1.0  0.57163  0.00690  0.46228  1.0000
  H   H1046     1.0  0.84897  0.43748  0.42551  1.0000
  C   C1305     1.0  0.51528  0.30797  0.43930  1.0000
  H   H1047     1.0  0.53056  0.36610  0.43255  1.0000
  C   C1306     1.0  0.83827  0.29348  0.47952  1.0000
  H   H1048     1.0  0.99048  0.48318  0.42270  1.0000
  H   H1049     1.0  0.58855  0.10160  0.39442  1.0000
  C   C1307     1.0  0.51778  0.99917  0.46581  1.0000
  C   C1308     1.0  0.62055  0.27165  0.47535  1.0000
  C   C1309     1.0  0.98478  0.37885  0.43380  1.0000
  C   C1310     1.0  0.55183  0.21572  0.45402  1.0000
  C   C1311     1.0  0.74986  0.48484  0.48114  1.0000
  H   H1050     1.0  0.58214  0.13637  0.37137  1.0000
  S   S176      1.0  0.74283  0.21651  0.47604  1.0000
  H   H1051     1.0  0.63975  0.25991  0.47577  1.0000
  H   H1052     1.0  0.97611  0.47463  0.39747  1.0000
  C   C1312     1.0  0.55274  0.01540  0.46845  1.0000
  H   H1053     1.0  0.58678  0.02110  0.36812  1.0000
  S   S177      1.0  0.86787  0.45477  0.46211  1.0000
  H   H1054     1.0  0.81488  0.23583  0.47555  1.0000
  H   H1055     1.0  0.79527  0.35023  0.48401  1.0000
  C   C1313     1.0  0.62711  0.30279  0.46485  1.0000
  H   H1056     1.0  0.69157  0.21745  0.42880  1.0000
  C   C1314     1.0  0.94199  0.08453  0.28203  1.0000
  C   C1315     1.0  0.91269  0.09185  0.28674  1.0000
  C   C1316     1.0  0.91325  0.12702  0.28294  1.0000
  C   C1317     1.0  0.77654  0.25906  0.47872  1.0000
  C   C1318     1.0  0.59495  0.26075  0.42794  1.0000
  H   H1057     1.0  0.94177  0.05748  0.28510  1.0000
  H   H1058     1.0  0.89072  0.13281  0.28657  1.0000
  H   H1059     1.0  0.61202  0.27915  0.41812  1.0000
  C   C1319     1.0  0.97443  0.02321  0.25263  1.0000
  H   H1060     1.0  0.56534  0.18968  0.37462  1.0000
  H   H1061     1.0  0.77292  0.43150  0.24579  1.0000
  C   C1320     1.0  0.56496  0.16459  0.41297  1.0000
  C   C1321     1.0  0.57418  0.13416  0.41124  1.0000
  C   C1322     1.0  0.58073  0.12439  0.39614  1.0000
  P   P46       1.0  0.57968  0.10976  0.42832  1.0000
  C   C1323     1.0  0.57444  0.06331  0.42406  1.0000
  C   C1324     1.0  0.62289  0.13329  0.43350  1.0000
  C   C1325     1.0  0.64312  0.17057  0.42816  1.0000
  C   C1326     1.0  0.63624  0.11424  0.44333  1.0000
  C   C1327     1.0  0.54281  0.03272  0.42836  1.0000
  C   C1328     1.0  0.99205  0.06287  0.30933  1.0000
  S   S178      1.0  0.87050  0.99298  0.26555  1.0000
  C   C1329     1.0  0.60261  0.05763  0.41621  1.0000
  C   C1330     1.0  0.54772  0.10934  0.44408  1.0000
  C   C1331     1.0  0.55785  0.12301  0.45835  1.0000
  H   H1062     1.0  0.83261  0.43350  0.24462  1.0000
  H   H1063     1.0  0.94347  0.18224  0.27197  1.0000
  Fe  Fe90      1.0  0.82973  0.99790  0.25206  1.0000
  H   H1064     1.0  0.93245  0.34282  0.38587  1.0000
  S   S179      1.0  0.51940  0.46567  0.44933  1.0000
  S   S180      1.0  0.52740  0.37883  0.46910  1.0000
  C   C1332     1.0  0.53883  0.05369  0.48688  1.0000
  H   H1065     1.0  0.63343  0.18599  0.42066  1.0000
  H   H1066     1.0  0.62078  0.08570  0.44786  1.0000
  C   C1333     1.0  0.69061  0.48046  0.48239  1.0000
  H   H1067     1.0  0.50425  0.08735  0.43081  1.0000
  H   H1068     1.0  0.62734  0.08072  0.41280  1.0000
  H   H1069     1.0  0.58445  0.13171  0.46061  1.0000
  C   C1334     1.0  0.97237  0.11298  0.27424  1.0000
  Fe  Fe91      1.0  0.84486  0.01281  0.28500  1.0000
  P   P47       1.0  0.49521  0.23311  0.44897  1.0000
  C   C1335     1.0  0.60186  0.31749  0.46416  1.0000
  H   H1070     1.0  0.67892  0.11753  0.45575  1.0000
  C   C1336     1.0  0.98029  0.46762  0.43399  1.0000
  C   C1337     1.0  0.83560  0.33864  0.44159  1.0000
  C   C1338     1.0  0.80767  0.34933  0.44227  1.0000
  C   C1339     1.0  0.81278  0.38491  0.43630  1.0000
  C   C1340     1.0  0.58552  0.21752  0.45041  1.0000
  C   C1341     1.0  0.87425  0.39946  0.42889  1.0000
  C   C1342     1.0  0.86878  0.36362  0.43508  1.0000
  P   P48       1.0  0.91778  0.43301  0.42166  1.0000
  Fe  Fe92      1.0  0.82170  0.46241  0.47375  1.0000
  C   C1343     1.0  0.94568  0.44167  0.43700  1.0000
  C   C1344     1.0  0.72511  0.00101  0.25090  1.0000
  C   C1345     1.0  0.50393  0.03753  0.48420  1.0000
  H   H1071     1.0  0.65967  0.44394  0.46676  1.0000
  H   H1072     1.0  0.56046  0.17306  0.42449  1.0000
  C   C1346     1.0  0.93298  0.42370  0.45216  1.0000
  C   C1347     1.0  0.56781  0.17424  0.38483  1.0000
  Fe  Fe93      1.0  0.60764  0.45440  0.48253  1.0000
  C   C1348     1.0  0.84580  0.40978  0.42954  1.0000
  H   H1073     1.0  0.53620  0.19898  0.46444  1.0000
  C   C1349     1.0  0.95465  0.43067  0.46390  1.0000
  C   C1350     1.0  0.93793  0.41892  0.40496  1.0000
  C   C1351     1.0  0.92564  0.38178  0.40135  1.0000
  C   C1352     1.0  0.94207  0.37153  0.38856  1.0000
  H   H1074     1.0  0.55213  0.03516  0.39005  1.0000
  C   C1353     1.0  0.96642  0.44565  0.39525  1.0000
  C   C1354     1.0  0.53984  0.01218  0.38326  1.0000
  H   H1075     1.0  0.83166  0.31136  0.44667  1.0000
  H   H1076     1.0  0.78223  0.33038  0.44783  1.0000
  C   C1355     1.0  0.56101  0.25841  0.43132  1.0000
  H   H1077     1.0  0.94124  0.11788  0.32775  1.0000
  H   H1078     1.0  0.89034  0.35541  0.43549  1.0000
  H   H1079     1.0  0.89486  0.16178  0.24685  1.0000
  H   H1080     1.0  0.52072  0.03568  0.43468  1.0000
  C   C1356     1.0  0.58825  0.25466  0.48461  1.0000
  H   H1081     1.0  0.65152  0.31536  0.45727  1.0000
  H   H1082     1.0  0.90621  0.40486  0.45521  1.0000
  H   H1083     1.0  0.92108  0.05097  0.33525  1.0000
  H   H1084     1.0  0.55213  0.27424  0.42361  1.0000
  C   C1357     1.0  0.94313  0.15500  0.27472  1.0000
  C   C1358     1.0  0.49863  0.11307  0.46778  1.0000
  H   H1085     1.0  0.73605  0.35014  0.48410  1.0000
  H   H1086     1.0  0.90325  0.36058  0.40818  1.0000
  C   C1359     1.0  0.98912  0.45595  0.46071  1.0000
  H   H1087     1.0  0.62093  0.01778  0.40671  1.0000
  S   S181      1.0  0.60778  0.06428  0.48129  1.0000
  C   C1360     1.0  0.74414  0.46133  0.46902  1.0000
  C   C1361     1.0  0.81033  0.26051  0.47764  1.0000
  C   C1362     1.0  0.68926  0.16931  0.44248  1.0000
  C   C1363     1.0  0.98253  0.43533  0.38239  1.0000
  Fe  Fe94      1.0  0.86345  0.42080  0.48434  1.0000
  H   H1088     1.0  0.54179  0.13637  0.48095  1.0000
  H   H1089     1.0  0.72814  0.01317  0.26200  1.0000
  H   H1090     1.0  0.96110  0.01928  0.26439  1.0000
  H   H1091     1.0  0.55145  0.31345  0.47389  1.0000
  C   C1364     1.0  0.56347  0.04317  0.47879  1.0000
  H   H1092     1.0  0.68987  0.37022  0.47775  1.0000
  C   C1365     1.0  0.97056  0.39825  0.37911  1.0000
  C   C1366     1.0  0.83305  0.32594  0.48190  1.0000
  H   H1093     1.0  0.63395  0.24338  0.43532  1.0000
  H   H1094     1.0  0.94433  0.41701  0.47561  1.0000
  H   H1095     1.0  0.71448  0.18346  0.44634  1.0000
  H   H1096     1.0  0.70696  0.42860  0.45454  1.0000
  C   C1367     1.0  0.69373  0.36653  0.48986  1.0000
  C   C1368     1.0  0.60727  0.24048  0.43754  1.0000
  H   H1097     1.0  0.55495  0.20814  0.40122  1.0000
  C   C1369     1.0  0.53947  0.99722  0.42481  1.0000
  C   C1370     1.0  0.68477  0.45599  0.47068  1.0000
  C   C1371     1.0  0.57066  0.30176  0.47415  1.0000
  S   S182      1.0  0.60148  0.44944  0.45714  1.0000
  C   C1372     1.0  0.94407  0.06444  0.32685  1.0000
  H   H1098     1.0  0.74505  0.29075  0.48151  1.0000
  C   C1373     1.0  0.79943  0.32517  0.48234  1.0000
  C   C1374     1.0  0.56361  0.26993  0.48404  1.0000
  H   H1099     1.0  0.88548  0.00361  0.31667  1.0000
  C   C1375     1.0  0.53353  0.12554  0.47002  1.0000
  C   C1376     1.0  0.96186  0.04418  0.31990  1.0000
  C   C1377     1.0  0.98570  0.12095  0.31222  1.0000
  H   H1100     1.0  0.86407  0.29382  0.47911  1.0000
  S   S183      1.0  0.59348  0.39416  0.48862  1.0000
  C   C1378     1.0  0.55932  0.00413  0.37096  1.0000
  C   C1379     1.0  0.77103  0.29155  0.48097  1.0000
  H   H1101     1.0  0.88707  0.17420  0.47249  1.0000
  C   C1380     1.0  0.51134  0.33822  0.43200  1.0000
  C   C1381     1.0  0.90514  0.48048  0.40050  1.0000
  S   S184      1.0  0.86929  0.36622  0.48466  1.0000
  H   H1102     1.0  0.98319  0.39033  0.36916  1.0000
  H   H1103     1.0  0.82906  0.17531  0.47096  1.0000
  H   H1104     1.0  0.50526  0.18771  0.42430  1.0000
  C   C1382     1.0  0.87094  0.17428  0.48310  1.0000
  H   H1105     1.0  0.93913  0.07209  0.24139  1.0000
  S   S185      1.0  0.55411  0.45187  0.48976  1.0000
  C   C1383     1.0  0.95618  0.00712  0.24035  1.0000
  H   H1106     1.0  0.84316  0.39171  0.61426  1.0000
  C   C1384     1.0  0.79282  0.07948  0.59854  1.0000
  Fe  Fe95      1.0  0.61705  0.19032  0.49748  1.0000
  C   C1385     1.0  0.90314  0.14616  0.60998  1.0000
  C   C1386     1.0  0.93996  0.15721  0.58524  1.0000
  C   C1387     1.0  0.96212  0.29920  0.64886  1.0000
  H   H1107     1.0  0.95227  0.41828  0.53056  1.0000
  H   H1108     1.0  0.89578  0.13967  0.69970  1.0000
  H   H1109     1.0  0.58355  0.15514  0.60171  1.0000
  H   H1110     1.0  0.89694  0.15621  0.62087  1.0000
  S   S186      1.0  0.66482  0.21565  0.50932  1.0000
  H   H1111     1.0  0.89840  0.09941  0.63822  1.0000
  Fe  Fe96      1.0  0.52157  0.28850  0.62964  1.0000
  S   S187      1.0  0.59686  0.13500  0.51128  1.0000
  H   H1112     1.0  0.85590  0.05368  0.70258  1.0000
  C   C1388     1.0  0.62402  0.49008  0.61644  1.0000
  Fe  Fe97      1.0  0.64629  0.15860  0.52189  1.0000
  S   S188      1.0  0.63891  0.14606  0.54812  1.0000
  C   C1389     1.0  0.59203  0.29203  0.53963  1.0000
  H   H1113     1.0  0.79648  0.05578  0.59409  1.0000
  S   S189      1.0  0.52596  0.41764  0.63398  1.0000
  S   S190      1.0  0.56153  0.34298  0.61871  1.0000
  C   C1390     1.0  0.89140  0.43415  0.60250  1.0000
  S   S191      1.0  0.73642  0.45503  0.60421  1.0000
  Fe  Fe98      1.0  0.69755  0.21931  0.63506  1.0000
  S   S192      1.0  0.72160  0.26926  0.61760  1.0000
  S   S193      1.0  0.64114  0.18582  0.64363  1.0000
  Fe  Fe99      1.0  0.76695  0.21600  0.63962  1.0000
  S   S194      1.0  0.79698  0.26569  0.62257  1.0000
  S   S195      1.0  0.78941  0.18379  0.65400  1.0000
  Fe  Fe100     1.0  0.76213  0.29076  0.63401  1.0000
  S   S196      1.0  0.78792  0.34898  0.64140  1.0000
  Fe  Fe101     1.0  0.75428  0.24001  0.60782  1.0000
  S   S197      1.0  0.76700  0.23978  0.58187  1.0000
  S   S198      1.0  0.73522  0.24284  0.65228  1.0000
  S   S199      1.0  0.72704  0.18816  0.62395  1.0000
  H   H1114     1.0  0.95417  0.10197  0.60286  1.0000
  H   H1115     1.0  0.93933  0.03482  0.60055  1.0000
  C   C1391     1.0  0.51796  0.33035  0.55853  1.0000
  C   C1392     1.0  0.91733  0.42844  0.63082  1.0000
  S   S200      1.0  0.94760  0.21544  0.63597  1.0000
  Fe  Fe102     1.0  0.62673  0.11897  0.49222  1.0000
  H   H1116     1.0  0.95338  0.02675  0.71503  1.0000
  S   S201      1.0  0.67505  0.13761  0.50400  1.0000
  S   S202      1.0  0.93354  0.07446  0.68813  1.0000
  H   H1117     1.0  0.61675  0.30955  0.54290  1.0000
  C   C1393     1.0  0.98153  0.30282  0.67898  1.0000
  C   C1394     1.0  0.83422  0.19615  0.64949  1.0000
  C   C1395     1.0  0.85187  0.18491  0.66016  1.0000
  C   C1396     1.0  0.88704  0.19182  0.65632  1.0000
  C   C1397     1.0  0.90463  0.20984  0.64175  1.0000
  C   C1398     1.0  0.88725  0.22199  0.63124  1.0000
  C   C1399     1.0  0.85209  0.21524  0.63511  1.0000
  H   H1118     1.0  0.83813  0.17025  0.67129  1.0000
  H   H1119     1.0  0.90021  0.18234  0.66445  1.0000
  H   H1120     1.0  0.90075  0.23586  0.61992  1.0000
  H   H1121     1.0  0.83857  0.22355  0.62673  1.0000
  C   C1400     1.0  0.71624  0.08401  0.52186  1.0000
  C   C1401     1.0  0.88962  0.09921  0.59157  1.0000
  C   C1402     1.0  0.88304  0.17465  0.49762  1.0000
  H   H1122     1.0  0.94737  0.44492  0.71119  1.0000
  C   C1403     1.0  0.54805  0.28066  0.52240  1.0000
  C   C1404     1.0  0.75116  0.42788  0.61574  1.0000
  C   C1405     1.0  0.78101  0.44269  0.62318  1.0000
  C   C1406     1.0  0.79212  0.41856  0.63148  1.0000
  C   C1407     1.0  0.77311  0.37994  0.63241  1.0000
  C   C1408     1.0  0.74252  0.36583  0.62566  1.0000
  C   C1409     1.0  0.73201  0.38960  0.61717  1.0000
  H   H1123     1.0  0.79580  0.47237  0.62219  1.0000
  H   H1124     1.0  0.81573  0.42969  0.63685  1.0000
  H   H1125     1.0  0.72691  0.33650  0.62689  1.0000
  H   H1126     1.0  0.70931  0.37818  0.61131  1.0000
  C   C1410     1.0  0.87010  0.40879  0.61503  1.0000
  C   C1411     1.0  0.83100  0.40598  0.58481  1.0000
  C   C1412     1.0  0.58500  0.19521  0.65740  1.0000
  C   C1413     1.0  0.61096  0.20645  0.64456  1.0000
  H   H1127     1.0  0.68488  0.10670  0.55599  1.0000
  H   H1128     1.0  0.85377  0.12377  0.56627  1.0000
  C   C1414     1.0  0.56397  0.45796  0.62848  1.0000
  H   H1129     1.0  0.80770  0.13023  0.73194  1.0000
  H   H1130     1.0  0.54671  0.07458  0.49506  1.0000
  C   C1415     1.0  0.59475  0.45679  0.62121  1.0000
  H   H1131     1.0  0.76719  0.11276  0.50955  1.0000
  C   C1416     1.0  0.90847  0.43001  0.53942  1.0000
  H   H1132     1.0  0.59579  0.43037  0.61906  1.0000
  C   C1417     1.0  0.67333  0.17418  0.55768  1.0000
  C   C1418     1.0  0.70254  0.20200  0.54918  1.0000
  C   C1419     1.0  0.73106  0.22247  0.55674  1.0000
  C   C1420     1.0  0.73009  0.21569  0.57288  1.0000
  C   C1421     1.0  0.70019  0.18896  0.58153  1.0000
  C   C1422     1.0  0.67193  0.16798  0.57391  1.0000
  H   H1133     1.0  0.70310  0.20732  0.53675  1.0000
  H   H1134     1.0  0.75396  0.24348  0.55010  1.0000
  H   H1135     1.0  0.69906  0.18379  0.59402  1.0000
  H   H1136     1.0  0.64917  0.14670  0.58057  1.0000
  P   P49       1.0  0.87467  0.44006  0.58452  1.0000
  H   H1137     1.0  0.61436  0.29165  0.66398  1.0000
  C   C1423     1.0  0.55556  0.45252  0.59051  1.0000
  H   H1138     1.0  0.57413  0.39056  0.52109  1.0000
  H   H1139     1.0  0.60196  0.38377  0.54430  1.0000
  C   C1424     1.0  0.92206  0.04623  0.73050  1.0000
  C   C1425     1.0  0.61101  0.23192  0.63264  1.0000
  H   H1140     1.0  0.80220  0.19826  0.69166  1.0000
  H   H1141     1.0  0.81919  0.30398  0.66871  1.0000
  H   H1142     1.0  0.59694  0.32770  0.51901  1.0000
  H   H1143     1.0  0.50227  0.31368  0.56899  1.0000
  C   C1426     1.0  0.52176  0.42897  0.54827  1.0000
  S   S203      1.0  0.95634  0.18014  0.67932  1.0000
  C   C1427     1.0  0.88009  0.12963  0.71096  1.0000
  C   C1428     1.0  0.53825  0.19857  0.58487  1.0000
  H   H1144     1.0  0.92448  0.11321  0.56995  1.0000
  C   C1429     1.0  0.92709  0.04439  0.65971  1.0000
  C   C1430     1.0  0.55842  0.37342  0.53140  1.0000
  H   H1145     1.0  0.60947  0.33555  0.68676  1.0000
  H   H1146     1.0  0.80722  0.44547  0.58211  1.0000
  C   C1431     1.0  0.64341  0.36407  0.60272  1.0000
  C   C1432     1.0  0.65231  0.26775  0.57436  1.0000
  C   C1433     1.0  0.63911  0.23789  0.56534  1.0000
  C   C1434     1.0  0.64592  0.24331  0.54903  1.0000
  C   C1435     1.0  0.66697  0.27846  0.54166  1.0000
  C   C1436     1.0  0.68037  0.30865  0.55062  1.0000
  C   C1437     1.0  0.67284  0.30311  0.56704  1.0000
  P   P50       1.0  0.71120  0.35287  0.54147  1.0000
  C   C1438     1.0  0.75431  0.35433  0.54235  1.0000
  C   C1439     1.0  0.70425  0.35801  0.52125  1.0000
  C   C1440     1.0  0.72477  0.35043  0.50910  1.0000
  H   H1147     1.0  0.53864  0.28987  0.51250  1.0000
  H   H1148     1.0  0.78298  0.16784  0.61237  1.0000
  C   C1441     1.0  0.67279  0.37337  0.50185  1.0000
  C   C1442     1.0  0.67789  0.36905  0.51747  1.0000
  C   C1443     1.0  0.78308  0.38344  0.53404  1.0000
  C   C1444     1.0  0.81641  0.38431  0.53423  1.0000
  C   C1445     1.0  0.82145  0.35662  0.54301  1.0000
  C   C1446     1.0  0.79296  0.32732  0.55121  1.0000
  C   C1447     1.0  0.75947  0.32595  0.55082  1.0000
  C   C1448     1.0  0.70418  0.38889  0.55186  1.0000
  C   C1449     1.0  0.67016  0.38516  0.55689  1.0000
  C   C1450     1.0  0.66422  0.41187  0.56546  1.0000
  C   C1451     1.0  0.69207  0.44196  0.56955  1.0000
  C   C1452     1.0  0.72594  0.44589  0.56471  1.0000
  C   C1453     1.0  0.73214  0.41991  0.55566  1.0000
  H   H1149     1.0  0.64720  0.26325  0.58702  1.0000
  H   H1150     1.0  0.62413  0.21033  0.57096  1.0000
  H   H1151     1.0  0.63550  0.21993  0.54215  1.0000
  H   H1152     1.0  0.67290  0.28187  0.52903  1.0000
  H   H1153     1.0  0.68365  0.32587  0.57419  1.0000
  H   H1154     1.0  0.74481  0.34110  0.51157  1.0000
  H   H1155     1.0  0.98177  0.36752  0.68920  1.0000
  C   C1454     1.0  0.82899  0.17433  0.51058  1.0000
  H   H1156     1.0  0.94214  0.19519  0.71638  1.0000
  H   H1157     1.0  0.66120  0.37440  0.52650  1.0000
  H   H1158     1.0  0.77973  0.40558  0.52741  1.0000
  H   H1159     1.0  0.83831  0.40672  0.52758  1.0000
  H   H1160     1.0  0.84735  0.35761  0.54332  1.0000
  H   H1161     1.0  0.79673  0.30553  0.55790  1.0000
  H   H1162     1.0  0.73799  0.30272  0.55725  1.0000
  H   H1163     1.0  0.64802  0.36124  0.55454  1.0000
  H   H1164     1.0  0.63791  0.40826  0.56953  1.0000
  H   H1165     1.0  0.68749  0.46198  0.57669  1.0000
  H   H1166     1.0  0.74735  0.46886  0.56828  1.0000
  H   H1167     1.0  0.75874  0.42382  0.55216  1.0000
  H   H1168     1.0  0.73679  0.33117  0.58790  1.0000
  H   H1169     1.0  0.84331  0.15271  0.70591  1.0000
  C   C1455     1.0  0.64114  0.33360  0.61235  1.0000
  C   C1456     1.0  0.80324  0.41655  0.58338  1.0000
  H   H1170     1.0  0.63816  0.30787  0.60739  1.0000
  H   H1171     1.0  0.64109  0.31235  0.63553  1.0000
  S   S204      1.0  0.57607  0.21242  0.49590  1.0000
  H   H1172     1.0  0.66664  0.06102  0.53636  1.0000
  C   C1457     1.0  0.93519  0.21834  0.71887  1.0000
  C   C1458     1.0  0.91800  0.00195  0.68242  1.0000
  H   H1173     1.0  0.58430  0.26514  0.62448  1.0000
  H   H1174     1.0  0.78112  0.23800  0.67655  1.0000
  C   C1459     1.0  0.76950  0.38951  0.58410  1.0000
  P   P51       1.0  0.91786  0.29854  0.69360  1.0000
  H   H1175     1.0  0.52636  0.36563  0.65815  1.0000
  C   C1460     1.0  0.53860  0.23683  0.54490  1.0000
  Fe  Fe103     1.0  0.96941  0.13055  0.67603  1.0000
  H   H1176     1.0  0.74804  0.39781  0.58350  1.0000
  C   C1461     1.0  0.83157  0.14710  0.54948  1.0000
  C   C1462     1.0  0.93855  0.29828  0.66166  1.0000
  C   C1463     1.0  0.57414  0.36986  0.54463  1.0000
  S   S205      1.0  0.98143  0.14193  0.64992  1.0000
  H   H1177     1.0  0.88782  0.04393  0.61911  1.0000
  H   H1178     1.0  0.70810  0.06411  0.51324  1.0000
  C   C1464     1.0  0.92964  0.23914  0.70667  1.0000
  C   C1465     1.0  0.87409  0.27937  0.68865  1.0000
  C   C1466     1.0  0.85234  0.24199  0.69296  1.0000
  C   C1467     1.0  0.81876  0.22735  0.68875  1.0000
  C   C1468     1.0  0.80680  0.24979  0.68016  1.0000
  C   C1469     1.0  0.82835  0.28694  0.67572  1.0000
  C   C1470     1.0  0.86187  0.30175  0.67997  1.0000
  C   C1471     1.0  0.87510  0.09737  0.64546  1.0000
  H   H1179     1.0  0.71600  0.37998  0.66275  1.0000
  C   C1472     1.0  0.64767  0.39746  0.60909  1.0000
  H   H1180     1.0  0.87846  0.33045  0.67620  1.0000
  H   H1181     1.0  0.93162  0.23132  0.69484  1.0000
  H   H1182     1.0  0.66170  0.43611  0.51700  1.0000
  C   C1473     1.0  0.64265  0.33627  0.62840  1.0000
  C   C1474     1.0  0.66304  0.33965  0.66319  1.0000
  H   H1183     1.0  0.57831  0.12671  0.57636  1.0000
  C   C1475     1.0  0.76310  0.35198  0.58671  1.0000
  C   C1476     1.0  0.70499  0.43821  0.65144  1.0000
  C   C1477     1.0  0.70314  0.10798  0.54595  1.0000
  H   H1184     1.0  0.82133  0.14437  0.62457  1.0000
  H   H1185     1.0  0.94863  0.19617  0.60287  1.0000
  H   H1186     1.0  0.87281  0.17677  0.52231  1.0000
  C   C1478     1.0  0.58490  0.24602  0.63372  1.0000
  H   H1187     1.0  0.63066  0.24010  0.62254  1.0000
  Fe  Fe104     1.0  0.52026  0.36462  0.62329  1.0000
  H   H1188     1.0  0.63754  0.24691  0.67318  1.0000
  H   H1189     1.0  0.53867  0.25653  0.49107  1.0000
  H   H1190     1.0  0.82997  0.12637  0.54137  1.0000
  C   C1479     1.0  0.93223  0.16907  0.59965  1.0000
  H   H1191     1.0  0.81149  0.48725  0.56030  1.0000
  C   C1480     1.0  0.52262  0.35411  0.53147  1.0000
  C   C1481     1.0  0.64617  0.36942  0.63500  1.0000
  H   H1192     1.0  0.96924  0.41149  0.55691  1.0000
  H   H1193     1.0  0.75042  0.48932  0.64720  1.0000
  H   H1194     1.0  0.95425  0.29646  0.63724  1.0000
  H   H1195     1.0  0.56845  0.40783  0.58261  1.0000
  C   C1482     1.0  0.69289  0.08213  0.53491  1.0000
  H   H1196     1.0  0.90262  0.04128  0.72264  1.0000
  C   C1483     1.0  0.82025  0.17532  0.54590  1.0000
  H   H1197     1.0  0.97324  0.00448  0.61199  1.0000
  H   H1198     1.0  0.69920  0.26829  0.67738  1.0000
  C   C1484     1.0  0.74971  0.11211  0.51971  1.0000
  H   H1199     1.0  0.78567  0.31233  0.59020  1.0000
  H   H1200     1.0  0.85189  0.25330  0.52708  1.0000
  C   C1485     1.0  0.79064  0.34135  0.58806  1.0000
  C   C1486     1.0  0.73641  0.13633  0.54377  1.0000
  C   C1487     1.0  0.92555  0.03794  0.67591  1.0000
  H   H1201     1.0  0.80945  0.22072  0.55521  1.0000
  C   C1488     1.0  0.68910  0.28819  0.67354  1.0000
  H   H1202     1.0  0.84562  0.35935  0.58776  1.0000
  H   H1203     1.0  0.55846  0.20156  0.60701  1.0000
  H   H1204     1.0  0.98910  0.99762  0.69515  1.0000
  C   C1489     1.0  0.65427  0.27619  0.67128  1.0000
  H   H1205     1.0  0.73844  0.33477  0.67161  1.0000
  C   C1490     1.0  0.75984  0.13892  0.53053  1.0000
  C   C1491     1.0  0.93741  0.42188  0.54091  1.0000
  H   H1206     1.0  0.74363  0.15657  0.55231  1.0000
  C   C1492     1.0  0.71109  0.32567  0.67044  1.0000
  C   C1493     1.0  0.82456  0.36813  0.58672  1.0000
  C   C1494     1.0  0.53368  0.33979  0.67922  1.0000
  H   H1207     1.0  0.75701  0.07918  0.58227  1.0000
  H   H1208     1.0  0.79681  0.05366  0.70784  1.0000
  C   C1495     1.0  0.50798  0.13202  0.51941  1.0000
  C   C1496     1.0  0.97528  0.04206  0.73649  1.0000
  C   C1497     1.0  0.56008  0.21038  0.65875  1.0000
  H   H1209     1.0  0.64767  0.48923  0.61069  1.0000
  C   C1498     1.0  0.67115  0.45760  0.52485  1.0000
  C   C1499     1.0  0.69818  0.35134  0.66531  1.0000
  Fe  Fe105     1.0  0.68958  0.19287  0.49034  1.0000
  C   C1500     1.0  0.64126  0.30171  0.66611  1.0000
  H   H1210     1.0  0.71537  0.42436  0.64310  1.0000
  C   C1501     1.0  0.55564  0.18869  0.59606  1.0000
  S   S206      1.0  0.84132  0.48102  0.53031  1.0000
  H   H1211     1.0  0.54586  0.17862  0.52843  1.0000
  S   S207      1.0  0.57411  0.34035  0.57402  1.0000
  C   C1502     1.0  0.56653  0.14626  0.57888  1.0000
  H   H1212     1.0  0.87294  0.07250  0.58818  1.0000
  C   C1503     1.0  0.58080  0.30234  0.52621  1.0000
  C   C1504     1.0  0.84482  0.14538  0.56360  1.0000
  C   C1505     1.0  0.92544  0.45755  0.60453  1.0000
  C   C1506     1.0  0.64899  0.40017  0.62517  1.0000
  H   H1213     1.0  0.65204  0.42622  0.62986  1.0000
  C   C1507     1.0  0.80691  0.12931  0.61559  1.0000
  C   C1508     1.0  0.92808  0.42346  0.56905  1.0000
  C   C1509     1.0  0.67173  0.41936  0.65967  1.0000
  H   H1214     1.0  0.58453  0.17510  0.66649  1.0000
  C   C1510     1.0  0.96930  0.08861  0.60778  1.0000
  H   H1215     1.0  0.75024  0.13537  0.59134  1.0000
  C   C1511     1.0  0.92288  0.27064  0.70965  1.0000
  P   P52       1.0  0.64606  0.37216  0.65591  1.0000
  P   P53       1.0  0.80216  0.17676  0.52786  1.0000
  C   C1512     1.0  0.77074  0.09288  0.59169  1.0000
  H   H1216     1.0  0.58642  0.38375  0.64574  1.0000
  C   C1513     1.0  0.60191  0.35899  0.66493  1.0000
  C   C1514     1.0  0.55397  0.34763  0.55809  1.0000
  C   C1515     1.0  0.92037  0.28013  0.72513  1.0000
  H   H1217     1.0  0.79232  0.31515  0.51539  1.0000
  C   C1516     1.0  0.95066  0.03754  0.72622  1.0000
  C   C1517     1.0  0.52742  0.24751  0.53143  1.0000
  C   C1518     1.0  0.57088  0.25968  0.54909  1.0000
  H   H1218     1.0  0.57979  0.25288  0.55964  1.0000
  C   C1519     1.0  0.79402  0.28872  0.51783  1.0000
  C   C1520     1.0  0.96101  0.05090  0.60650  1.0000
  C   C1521     1.0  0.82750  0.25367  0.52445  1.0000
  Fe  Fe106     1.0  0.53811  0.32500  0.59666  1.0000
  C   C1522     1.0  0.65829  0.43823  0.67019  1.0000
  C   C1523     1.0  0.79850  0.22037  0.52409  1.0000
  C   C1524     1.0  0.81754  0.17519  0.49587  1.0000
  C   C1525     1.0  0.92196  0.01540  0.65006  1.0000
  C   C1526     1.0  0.86158  0.02360  0.61909  1.0000
  C   C1527     1.0  0.56966  0.16242  0.59310  1.0000
  H   H1219     1.0  0.52597  0.13214  0.50950  1.0000
  C   C1528     1.0  0.82526  0.28772  0.52126  1.0000
  H   H1220     1.0  0.84782  0.31343  0.52116  1.0000
  C   C1529     1.0  0.89943  0.43260  0.56760  1.0000
  H   H1221     1.0  0.79221  0.08913  0.67217  1.0000
  C   C1530     1.0  0.93844  0.45446  0.61858  1.0000
  C   C1531     1.0  0.85044  0.13685  0.71446  1.0000
  H   H1222     1.0  0.52134  0.22957  0.69281  1.0000
  C   C1532     1.0  0.94812  0.30020  0.67685  1.0000
  H   H1223     1.0  0.64987  0.42130  0.60160  1.0000
  H   H1224     1.0  0.96252  0.17511  0.57726  1.0000
  H   H1225     1.0  0.54287  0.44788  0.52423  1.0000
  C   C1533     1.0  0.83317  0.19823  0.57128  1.0000
  C   C1534     1.0  0.91856  0.12232  0.58116  1.0000
  H   H1226     1.0  0.54923  0.31772  0.69898  1.0000
  C   C1535     1.0  0.90141  0.35338  0.70740  1.0000
  C   C1536     1.0  0.54919  0.15614  0.56764  1.0000
  H   H1227     1.0  0.63247  0.42468  0.67654  1.0000
  C   C1537     1.0  0.88313  0.40579  0.62906  1.0000
  H   H1228     1.0  0.92726  0.42616  0.64175  1.0000
  H   H1229     1.0  0.53622  0.43531  0.59997  1.0000
  C   C1538     1.0  0.88917  0.43462  0.55273  1.0000
  H   H1230     1.0  0.89955  0.10538  0.66654  1.0000
  C   C1539     1.0  0.57850  0.36856  0.65721  1.0000
  H   H1231     1.0  0.50711  0.33174  0.68454  1.0000
  C   C1540     1.0  0.59140  0.34161  0.68026  1.0000
  H   H1232     1.0  0.86636  0.44022  0.55141  1.0000
  C   C1541     1.0  0.57371  0.43704  0.58072  1.0000
  H   H1233     1.0  0.83260  0.21734  0.57992  1.0000
  C   C1542     1.0  0.98056  0.03370  0.61303  1.0000
  C   C1543     1.0  0.88206  0.11082  0.60616  1.0000
  C   C1544     1.0  0.59825  0.45906  0.56835  1.0000
  C   C1545     1.0  0.76545  0.25571  0.51692  1.0000
  C   C1546     1.0  0.82021  0.20022  0.55712  1.0000
  H   H1234     1.0  0.91357  0.10566  0.71906  1.0000
  H   H1235     1.0  0.50250  0.23046  0.52810  1.0000
  H   H1236     1.0  0.62240  0.46273  0.52904  1.0000
  H   H1237     1.0  0.86135  0.22397  0.69931  1.0000
  C   C1547     1.0  0.84595  0.17117  0.57443  1.0000
  Fe  Fe107     1.0  0.97266  0.19363  0.65349  1.0000
  C   C1548     1.0  0.51982  0.43863  0.53275  1.0000
  C   C1549     1.0  0.55993  0.23581  0.64697  1.0000
  H   H1238     1.0  0.96476  0.47252  0.62004  1.0000
  H   H1239     1.0  0.91280  0.29520  0.65958  1.0000
  H   H1240     1.0  0.86631  0.38612  0.63862  1.0000
  C   C1550     1.0  0.81527  0.09101  0.66477  1.0000
  H   H1241     1.0  0.61095  0.44609  0.56059  1.0000
  H   H1242     1.0  0.84664  0.09977  0.68358  1.0000
  C   C1551     1.0  0.72483  0.47505  0.65377  1.0000
  H   H1243     1.0  0.54075  0.20210  0.66894  1.0000
  C   C1552     1.0  0.92754  0.34505  0.69913  1.0000
  C   C1553     1.0  0.88976  0.10957  0.72196  1.0000
  C   C1554     1.0  0.84591  0.09714  0.67119  1.0000
  C   C1555     1.0  0.81446  0.08794  0.64870  1.0000
  C   C1556     1.0  0.71970  0.35507  0.49348  1.0000
  H   H1244     1.0  0.87549  0.33210  0.71055  1.0000
  C   C1557     1.0  0.70583  0.47114  0.52752  1.0000
  C   C1558     1.0  0.83398  0.03486  0.61839  1.0000
  H   H1245     1.0  0.74571  0.19634  0.51849  1.0000
  P   P54       1.0  0.84222  0.08340  0.61851  1.0000
  C   C1559     1.0  0.87547  0.48644  0.58369  1.0000
  H   H1246     1.0  0.85585  0.16965  0.58545  1.0000
  Fe  Fe108     1.0  0.85075  0.47662  0.50451  1.0000
  C   C1560     1.0  0.78518  0.14281  0.60865  1.0000
  C   C1561     1.0  0.55730  0.33169  0.68730  1.0000
  C   C1562     1.0  0.94702  0.41825  0.55574  1.0000
  H   H1247     1.0  0.93200  0.07156  0.65454  1.0000
  C   C1563     1.0  0.90856  0.38929  0.71170  1.0000
  H   H1248     1.0  0.90871  0.17513  0.49824  1.0000
  C   C1564     1.0  0.84446  0.09146  0.63890  1.0000
  C   C1565     1.0  0.87578  0.10039  0.66154  1.0000
  C   C1566     1.0  0.67801  0.47535  0.67237  1.0000
  C   C1567     1.0  0.54444  0.35866  0.66429  1.0000
  H   H1249     1.0  0.64152  0.36150  0.59039  1.0000
  C   C1568     1.0  0.96102  0.37310  0.69543  1.0000
  H   H1250     1.0  0.72314  0.45950  0.52204  1.0000
  H   H1251     1.0  0.90097  0.43289  0.52793  1.0000
  C   C1569     1.0  0.76785  0.22157  0.51971  1.0000
  C   C1570     1.0  0.83363  0.02815  0.70651  1.0000
  C   C1571     1.0  0.50237  0.33310  0.54516  1.0000
  H   H1252     1.0  0.52783  0.21925  0.58727  1.0000
  S   S208      1.0  0.52867  0.25480  0.64966  1.0000
  C   C1572     1.0  0.81055  0.09726  0.61076  1.0000
  H   H1253     1.0  0.79259  0.17656  0.49494  1.0000
  C   C1573     1.0  0.80041  0.02797  0.70934  1.0000
  C   C1574     1.0  0.76689  0.12453  0.59677  1.0000
  C   C1575     1.0  0.86232  0.17505  0.51131  1.0000
  H   H1254     1.0  0.93579  0.42000  0.58039  1.0000
  H   H1255     1.0  0.94179  0.47836  0.59525  1.0000
  C   C1576     1.0  0.64898  0.47310  0.53159  1.0000
  H   H1256     1.0  0.88821  0.39555  0.71799  1.0000
  C   C1577     1.0  0.96809  0.40897  0.69978  1.0000
  H   H1257     1.0  0.74165  0.25661  0.51370  1.0000
  H   H1258     1.0  0.91502  0.30409  0.72782  1.0000
  H   H1259     1.0  0.85780  0.48228  0.60848  1.0000
  H   H1260     1.0  0.79032  0.08271  0.64401  1.0000
  H   H1261     1.0  0.54612  0.43020  0.55156  1.0000
  S   S209      1.0  0.89933  0.46947  0.49541  1.0000
  C   C1578     1.0  0.53458  0.18209  0.57064  1.0000
  H   H1262     1.0  0.65274  0.38228  0.49894  1.0000
  H   H1263     1.0  0.98946  0.30375  0.69059  1.0000
  C   C1579     1.0  0.51916  0.15844  0.53020  1.0000
  C   C1580     1.0  0.94187  0.41709  0.70787  1.0000
  C   C1581     1.0  0.83035  0.12403  0.72906  1.0000
  H   H1264     1.0  0.77811  0.01582  0.61982  1.0000
  H   H1265     1.0  0.92342  0.02077  0.63757  1.0000
  Fe  Fe109     1.0  0.53924  0.39040  0.49365  1.0000
  C   C1582     1.0  0.93329  0.22834  0.73418  1.0000
  H   H1266     1.0  0.66733  0.48999  0.68026  1.0000
  C   C1583     1.0  0.79996  0.00785  0.61948  1.0000
  H   H1267     1.0  0.54759  0.14365  0.55664  1.0000
  S   S210      1.0  0.81507  0.42502  0.49514  1.0000
  H   H1268     1.0  0.99396  0.43049  0.69685  1.0000
  S   S211      1.0  0.50266  0.35546  0.51460  1.0000
  P   P55       1.0  0.51096  0.19426  0.55655  1.0000
  C   C1584     1.0  0.56306  0.49039  0.58842  1.0000
  H   H1269     1.0  0.50075  0.26108  0.71345  1.0000
  S   S212      1.0  0.50110  0.26802  0.60717  1.0000
  S   S213      1.0  0.49952  0.35071  0.60043  1.0000
  C   C1585     1.0  0.49612  0.15895  0.54306  1.0000
  H   H1270     1.0  0.86420  0.99583  0.70589  1.0000
  H   H1271     1.0  0.91709  0.99655  0.69489  1.0000
  C   C1586     1.0  0.83834  0.99511  0.70839  1.0000
  C   C1587     1.0  0.77188  0.99457  0.71403  1.0000
  H   H1272     1.0  0.74608  0.99438  0.71619  1.0000
  C   C1588     1.0  0.86890  0.09524  0.73642  1.0000
  C   C1589     1.0  0.92569  0.25907  0.73732  1.0000
  C   C1590     1.0  0.83963  0.10350  0.74003  1.0000
  C   C1591     1.0  0.55542  0.00128  0.97391  1.0000
  S   S214      1.0  0.88540  0.35409  0.97067  1.0000
  C   C1592     1.0  0.90411  0.14277  0.79218  1.0000
  C   C1593     1.0  0.65089  0.38172  0.93878  1.0000
  Fe  Fe110     1.0  0.93248  0.34906  0.97853  1.0000
  H   H1273     1.0  0.64106  0.40160  0.93458  1.0000
  C   C1594     1.0  0.64431  0.18221  0.94181  1.0000
  C   C1595     1.0  0.79017  0.34636  0.93663  1.0000
  S   S215      1.0  0.61283  0.48049  0.96215  1.0000
  S   S216      1.0  0.81638  0.25343  0.96858  1.0000
  C   C1596     1.0  0.82341  0.41032  0.97800  1.0000
  C   C1597     1.0  0.69612  0.36870  0.94953  1.0000
  C   C1598     1.0  0.91324  0.13454  0.76465  1.0000
  S   S217      1.0  0.74982  0.44571  0.96716  1.0000
  S   S218      1.0  0.99179  0.13407  0.78067  1.0000
  H   H1274     1.0  0.73877  0.33586  0.93124  1.0000
  H   H1275     1.0  0.94051  0.07434  0.76661  1.0000
  C   C1599     1.0  0.58545  0.27779  0.98372  1.0000
  H   H1276     1.0  0.86727  0.09501  0.80669  1.0000
  C   C1600     1.0  0.77835  0.43419  0.97760  1.0000
  H   H1277     1.0  0.83968  0.39817  0.97211  1.0000
  C   C1601     1.0  0.56750  0.46747  0.96507  1.0000
  C   C1602     1.0  0.68400  0.39414  0.94340  1.0000
  H   H1278     1.0  0.72198  0.25488  0.94084  1.0000
  H   H1279     1.0  0.50174  0.46485  0.94445  1.0000
  H   H1280     1.0  0.80944  0.32349  0.97194  1.0000
  C   C1603     1.0  0.68015  0.09364  0.98762  1.0000
  H   H1281     1.0  0.94047  0.18504  0.77506  1.0000
  H   H1282     1.0  0.77981  0.99944  0.83651  1.0000
  H   H1283     1.0  0.52939  0.46169  0.90995  1.0000
  H   H1284     1.0  0.83808  0.35248  0.94531  1.0000
  H   H1285     1.0  0.60434  0.33409  0.93656  1.0000
  H   H1286     1.0  0.62135  0.24087  0.96348  1.0000
  H   H1287     1.0  0.62572  0.28918  0.94677  1.0000
  C   C1604     1.0  0.87142  0.08383  0.78247  1.0000
  C   C1605     1.0  0.51465  0.46251  0.95437  1.0000
  S   S219      1.0  0.58351  0.04805  0.96922  1.0000
  C   C1606     1.0  0.67548  0.33050  0.95093  1.0000
  H   H1288     1.0  0.89843  0.42244  0.95233  1.0000
  H   H1289     1.0  0.69989  0.42363  0.94285  1.0000
  H   H1290     1.0  0.79676  0.41156  0.95805  1.0000
  C   C1607     1.0  0.92080  0.15699  0.77705  1.0000
  Fe  Fe111     1.0  0.98010  0.12647  0.80687  1.0000
  C   C1608     1.0  0.74595  0.21990  0.97678  1.0000
  H   H1291     1.0  0.80258  0.35902  0.92501  1.0000
  C   C1609     1.0  0.75822  0.31332  0.96663  1.0000
  C   C1610     1.0  0.67990  0.20365  0.93833  1.0000
  C   C1611     1.0  0.87929  0.10633  0.79485  1.0000
  H   H1292     1.0  0.74402  0.22752  0.96482  1.0000
  C   C1612     1.0  0.94650  0.03986  0.79796  1.0000
  S   S220      1.0  0.64991  0.41286  0.97788  1.0000
  S   S221      1.0  0.92884  0.08344  0.81810  1.0000
  C   C1613     1.0  0.67317  0.25326  0.95242  1.0000
  C   C1614     1.0  0.69431  0.23909  0.94355  1.0000
  H   H1293     1.0  0.73470  0.15299  0.95742  1.0000
  H   H1294     1.0  0.63310  0.15455  0.93798  1.0000
  C   C1615     1.0  0.50473  0.45700  0.84351  1.0000
  C   C1616     1.0  0.92084  0.04235  0.80890  1.0000
  H   H1295     1.0  0.69063  0.19195  0.98319  1.0000
  H   H1296     1.0  0.74641  0.29996  0.97821  1.0000
  C   C1617     1.0  0.72626  0.99281  0.83916  1.0000
  S   S222      1.0  0.98381  0.37345  0.96274  1.0000
  P   P56       1.0  0.69135  0.29854  0.95973  1.0000
  C   C1618     1.0  0.55031  0.46995  0.95222  1.0000
  C   C1619     1.0  0.63769  0.23116  0.95609  1.0000
  H   H1297     1.0  0.69641  0.19267  0.93172  1.0000
  Fe  Fe112     1.0  0.70403  0.44783  0.98231  1.0000
  H   H1298     1.0  0.81002  0.02898  0.74183  1.0000
  C   C1620     1.0  0.63020  0.34375  0.93997  1.0000
  C   C1621     1.0  0.88856  0.09777  0.76727  1.0000
  C   C1622     1.0  0.72633  0.13515  0.96827  1.0000
  H   H1299     1.0  0.59567  0.17932  0.95368  1.0000
  C   C1623     1.0  0.85213  0.99974  0.76757  1.0000
  C   C1624     1.0  0.88855  0.01228  0.81213  1.0000
  C   C1625     1.0  0.79416  0.32649  0.96305  1.0000
  H   H1300     1.0  0.66484  0.23558  0.98422  1.0000
  H   H1301     1.0  0.51632  0.42114  0.82773  1.0000
  C   C1626     1.0  0.97180  0.05605  0.75088  1.0000
  C   C1627     1.0  0.54869  0.45671  0.98002  1.0000
  H   H1302     1.0  0.58441  0.27951  0.97125  1.0000
  H   H1303     1.0  0.92733  0.14556  0.75309  1.0000
  C   C1628     1.0  0.81019  0.34282  0.94805  1.0000
  C   C1629     1.0  0.64247  0.31821  0.94592  1.0000
  H   H1304     1.0  0.72144  0.37900  0.95348  1.0000
  C   C1630     1.0  0.75410  0.33334  0.94021  1.0000
  H   H1305     1.0  0.95483  0.43921  0.93570  1.0000
  H   H1306     1.0  0.85266  0.05554  0.78498  1.0000
  C   C1631     1.0  0.94343  0.06509  0.75511  1.0000
  C   C1632     1.0  0.79925  0.41803  0.97005  1.0000
  C   C1633     1.0  0.62319  0.19613  0.95060  1.0000
  H   H1307     1.0  0.91111  0.15960  0.80192  1.0000
  C   C1634     1.0  0.69098  0.11543  0.97330  1.0000
  H   H1308     1.0  0.67181  0.11762  0.96631  1.0000
  S   S223      1.0  0.90533  0.28817  0.98659  1.0000
  H   H1309     1.0  0.56475  0.47830  0.94063  1.0000
  C   C1635     1.0  0.73794  0.31685  0.95528  1.0000
  C   C1636     1.0  0.77865  0.22975  0.98180  1.0000
  C   C1637     1.0  0.91719  0.46964  0.96573  1.0000
  C   C1638     1.0  0.51298  0.44896  0.98216  1.0000
  H   H1310     1.0  0.97187  0.06221  0.79578  1.0000
  P   P57       1.0  0.88039  0.06929  0.75106  1.0000
  C   C1639     1.0  0.68083  0.29522  0.98078  1.0000
  H   H1311     1.0  0.69702  0.35459  0.98195  1.0000
  Fe  Fe113     1.0  0.63923  0.46391  0.98103  1.0000
  H   H1312     1.0  0.54618  0.38203  0.98587  1.0000
  H   H1313     1.0  0.92475  0.26700  0.74920  1.0000
  H   H1314     1.0  0.53038  0.31465  0.98450  1.0000
  H   H1315     1.0  0.77812  0.15096  0.97424  1.0000
  S   S224      1.0  0.55995  0.20238  0.98243  1.0000
  H   H1316     1.0  0.65529  0.02038  0.98859  1.0000
  C   C1640     1.0  0.95196  0.45727  0.94439  1.0000
  C   C1641     1.0  0.71570  0.19992  0.98719  1.0000
  H   H1317     1.0  0.60557  0.33698  0.98489  1.0000
  H   H1318     1.0  0.73262  0.02238  0.83823  1.0000
  S   S225      1.0  0.61792  0.14513  0.98311  1.0000
  C   C1642     1.0  0.49595  0.45248  0.96940  1.0000
  H   H1319     1.0  0.82407  0.09412  0.75140  1.0000
  Fe  Fe114     1.0  0.85736  0.29479  0.98074  1.0000
  C   C1643     1.0  0.68776  0.32766  0.98850  1.0000
  C   C1644     1.0  0.75084  0.13378  0.97774  1.0000
  C   C1645     1.0  0.92037  0.44750  0.95391  1.0000
  H   H1320     1.0  0.99082  0.05939  0.75892  1.0000
  H   H1321     1.0  0.93922  0.48796  0.83754  1.0000
  C   C1646     1.0  0.66976  0.26096  0.98975  1.0000
  C   C1647     1.0  0.91859  0.06082  0.74485  1.0000
  Fe  Fe115     1.0  0.58146  0.08533  0.98804  1.0000
  C   C1648     1.0  0.84641  0.02385  0.75682  1.0000
  H   H1322     1.0  0.97392  0.42525  0.98350  1.0000
  H   H1323     1.0  0.52483  0.48178  0.83734  1.0000
  C   C1649     1.0  0.51044  0.47892  0.88999  1.0000
  H   H1324     1.0  0.89283  0.46117  0.97329  1.0000
  H   H1325     1.0  0.86872  0.01399  0.82066  1.0000
  C   C1650     1.0  0.52498  0.48406  0.90406  1.0000
  H   H1326     1.0  0.50443  0.45260  0.88509  1.0000
  C   C1651     1.0  0.93961  0.00818  0.78984  1.0000
  H   H1327     1.0  0.93861  0.21287  0.74356  1.0000
  H   H1328     1.0  0.95949  0.00669  0.78126  1.0000
  C   C1652     1.0  0.49992  0.42259  0.83798  1.0000
  H   H1329     1.0  0.87647  0.00836  0.77243  1.0000
  C   C1653     1.0  0.81491  0.01155  0.75043  1.0000
  C   C1654     1.0  0.98006  0.48992  0.94634  1.0000
  H   H1330     1.0  0.56189  0.45531  0.98997  1.0000
  Fe  Fe116     1.0  0.92364  0.65751  0.18110  1.0000
  S   S226      1.0  0.89095  0.67832  0.19682  1.0000
  S   S227      1.0  0.90356  0.60568  0.16813  1.0000
  Fe  Fe117     1.0  0.93059  0.68746  0.21333  1.0000
  C   C1655     1.0  0.97553  0.87371  0.17139  1.0000
  Fe  Fe118     1.0  0.92689  0.73470  0.18576  1.0000
  S   S228      1.0  0.90180  0.77481  0.18246  1.0000
  H   H1331     1.0  0.84476  0.89694  0.17227  1.0000
  H   H1332     1.0  0.71541  0.66150  0.10421  1.0000
  S   S229      1.0  0.95682  0.71363  0.16852  1.0000
  S   S230      1.0  0.74859  0.54287  0.15173  1.0000
  C   C1656     1.0  0.70903  0.51204  0.05854  1.0000
  C   C1657     1.0  0.81162  0.79415  0.13016  1.0000
  Fe  Fe119     1.0  0.93077  0.93250  0.12821  1.0000
  S   S231      1.0  0.92587  0.87711  0.12013  1.0000
  H   H1333     1.0  0.84756  0.73183  0.16104  1.0000
  H   H1334     1.0  0.76206  0.53226  0.19182  1.0000
  C   C1658     1.0  0.86086  0.79576  0.11267  1.0000
  S   S232      1.0  0.70356  0.52080  0.02731  1.0000
  H   H1335     1.0  0.64915  0.82240  0.18646  1.0000
  C   C1659     1.0  0.95022  0.53312  0.01487  1.0000
  C   C1660     1.0  0.89020  0.96085  0.21185  1.0000
  C   C1661     1.0  0.78285  0.67713  0.18908  1.0000
  H   H1336     1.0  0.49950  0.98529  0.10610  1.0000
  H   H1337     1.0  0.82580  0.93420  0.20059  1.0000
  H   H1338     1.0  0.70362  0.59436  0.10515  1.0000
  H   H1339     1.0  0.86323  0.96535  0.23370  1.0000
  H   H1340     1.0  0.73962  0.56997  0.11934  1.0000
  H   H1341     1.0  0.98933  0.89204  0.14709  1.0000
  H   H1342     1.0  0.90007  0.73623  0.22515  1.0000
  C   C1662     1.0  0.90535  0.65737  0.12179  1.0000
  H   H1343     1.0  0.70196  0.51281  0.18539  1.0000
  C   C1663     1.0  0.91764  0.84620  0.13689  1.0000
  C   C1664     1.0  0.92554  0.81468  0.13644  1.0000
  C   C1665     1.0  0.92056  0.79178  0.15032  1.0000
  C   C1666     1.0  0.90726  0.80033  0.16448  1.0000
  C   C1667     1.0  0.89816  0.83074  0.16465  1.0000
  C   C1668     1.0  0.90383  0.85386  0.15104  1.0000
  H   H1344     1.0  0.93617  0.80850  0.12549  1.0000
  H   H1345     1.0  0.92704  0.76781  0.15011  1.0000
  H   H1346     1.0  0.88824  0.83757  0.17556  1.0000
  H   H1347     1.0  0.89787  0.87793  0.15166  1.0000
  C   C1669     1.0  0.86031  0.58809  0.16376  1.0000
  C   C1670     1.0  0.84929  0.55885  0.15409  1.0000
  C   C1671     1.0  0.81504  0.54453  0.15033  1.0000
  C   C1672     1.0  0.79158  0.55925  0.15634  1.0000
  C   C1673     1.0  0.80254  0.58812  0.16613  1.0000
  C   C1674     1.0  0.83675  0.60266  0.16978  1.0000
  H   H1348     1.0  0.86739  0.54747  0.14939  1.0000
  H   H1349     1.0  0.80685  0.52232  0.14273  1.0000
  H   H1350     1.0  0.78431  0.59888  0.17111  1.0000
  H   H1351     1.0  0.84478  0.62497  0.17730  1.0000
  C   C1675     1.0  0.59015  0.95520  0.01325  1.0000
  C   C1676     1.0  0.75814  0.67495  0.11786  1.0000
  C   C1677     1.0  0.77187  0.62329  0.12621  1.0000
  C   C1678     1.0  0.85318  0.75879  0.11766  1.0000
  H   H1352     1.0  0.90741  0.86119  0.19943  1.0000
  C   C1679     1.0  0.85675  0.67024  0.11492  1.0000
  H   H1353     1.0  0.85531  0.88872  0.19939  1.0000
  S   S233      1.0  0.94586  0.98567  0.11301  1.0000
  H   H1354     1.0  0.73625  0.63180  0.18478  1.0000
  C   C1680     1.0  0.89962  0.66669  0.13696  1.0000
  C   C1681     1.0  0.76039  0.65385  0.17956  1.0000
  Fe  Fe120     1.0  0.99172  0.71969  0.18726  1.0000
  C   C1682     1.0  0.72455  0.61310  0.11087  1.0000
  C   C1683     1.0  0.74674  0.50328  0.19064  1.0000
  H   H1355     1.0  0.77622  0.67326  0.20169  1.0000
  C   C1684     1.0  0.81636  0.79780  0.19248  1.0000
  P   P58       1.0  0.81397  0.69140  0.13549  1.0000
  C   C1685     1.0  0.80129  0.68584  0.15644  1.0000
  H   H1356     1.0  0.61722  0.95454  0.17844  1.0000
  C   C1686     1.0  0.52010  0.94976  0.99302  1.0000
  C   C1687     1.0  0.87229  0.67741  0.14124  1.0000
  C   C1688     1.0  0.67722  0.87581  0.19457  1.0000
  H   H1357     1.0  0.79849  0.77876  0.17065  1.0000
  H   H1358     1.0  0.88356  0.81119  0.10428  1.0000
  H   H1359     1.0  0.96409  0.73613  0.10499  1.0000
  C   C1689     1.0  0.87692  0.52803  0.99788  1.0000
  H   H1360     1.0  0.95270  0.56158  0.01338  1.0000
  H   H1361     1.0  0.68840  0.89037  0.23279  1.0000
  P   P59       1.0  0.71304  0.94516  0.20467  1.0000
  C   C1690     1.0  0.68764  0.89569  0.20761  1.0000
  C   C1691     1.0  0.75407  0.94963  0.19433  1.0000
  C   C1692     1.0  0.77696  0.93973  0.20231  1.0000
  C   C1693     1.0  0.80822  0.94170  0.19434  1.0000
  H   H1362     1.0  0.91589  0.66466  0.14557  1.0000
  H   H1363     1.0  0.95596  0.74832  0.23666  1.0000
  C   C1694     1.0  0.97908  0.75736  0.12691  1.0000
  C   C1695     1.0  0.92024  0.90120  0.23973  1.0000
  C   C1696     1.0  0.88849  0.87325  0.23765  1.0000
  S   S234      1.0  0.88730  0.93948  0.14297  1.0000
  C   C1697     1.0  0.68898  0.95867  0.23411  1.0000
  C   C1698     1.0  0.67948  0.87635  0.22256  1.0000
  H   H1364     1.0  0.87002  0.74601  0.11286  1.0000
  C   C1699     1.0  0.83606  0.86927  0.17799  1.0000
  C   C1700     1.0  0.88401  0.65932  0.11074  1.0000
  S   S235      1.0  0.96069  0.66179  0.19861  1.0000
  H   H1365     1.0  0.74776  0.86501  0.23656  1.0000
  H   H1366     1.0  0.80099  0.97215  0.15788  1.0000
  C   C1701     1.0  0.76956  0.65808  0.16331  1.0000
  H   H1367     1.0  0.76283  0.70406  0.11728  1.0000
  C   C1702     1.0  0.81713  0.95403  0.17843  1.0000
  H   H1368     1.0  0.64239  0.92260  0.19553  1.0000
  C   C1703     1.0  0.81011  0.80269  0.17707  1.0000
  C   C1704     1.0  0.71796  0.96689  0.22278  1.0000
  H   H1369     1.0  0.53813  0.72477  0.00086  1.0000
  H   H1370     1.0  0.96470  0.84964  0.19525  1.0000
  S   S236      1.0  0.91141  0.66911  0.23893  1.0000
  C   C1705     1.0  0.69685  0.49583  0.07400  1.0000
  C   C1706     1.0  0.84232  0.86448  0.19336  1.0000
  C   C1707     1.0  0.73119  0.65090  0.11039  1.0000
  C   C1708     1.0  0.64378  0.96854  0.18078  1.0000
  H   H1371     1.0  0.63263  0.78917  0.21312  1.0000
  H   H1372     1.0  0.79290  0.85949  0.21762  1.0000
  H   H1373     1.0  0.96310  0.91135  0.20312  1.0000
  H   H1374     1.0  0.89907  0.79751  0.21930  1.0000
  H   H1375     1.0  0.50899  0.93931  0.00501  1.0000
  C   C1709     1.0  0.60978  0.97488  0.99929  1.0000
  C   C1710     1.0  0.66846  0.93617  0.00571  1.0000
  C   C1711     1.0  0.51472  0.79637  0.99283  1.0000
  H   H1376     1.0  0.66361  0.93888  0.23220  1.0000
  H   H1377     1.0  0.99300  0.88374  0.12011  1.0000
  C   C1712     1.0  0.62746  0.87446  0.00208  1.0000
  H   H1378     1.0  0.56616  0.93121  0.01291  1.0000
  C   C1713     1.0  0.78831  0.84638  0.22938  1.0000
  P   P60       1.0  0.84183  0.82295  0.22043  1.0000
  C   C1714     1.0  0.87553  0.73916  0.22606  1.0000
  H   H1379     1.0  0.83186  0.72284  0.18972  1.0000
  H   H1380     1.0  0.84021  0.67121  0.10624  1.0000
  H   H1381     1.0  0.88815  0.65167  0.09901  1.0000
  H   H1382     1.0  0.95477  0.53489  0.03955  1.0000
  H   H1383     1.0  0.80902  0.76998  0.19779  1.0000
  C   C1715     1.0  0.82316  0.70986  0.16607  1.0000
  C   C1716     1.0  0.83276  0.82871  0.20069  1.0000
  C   C1717     1.0  0.82453  0.73920  0.12896  1.0000
  H   H1384     1.0  0.86808  0.68343  0.15320  1.0000
  H   H1385     1.0  0.60841  0.84773  0.00721  1.0000
  C   C1718     1.0  0.79418  0.96312  0.17030  1.0000
  C   C1719     1.0  0.81418  0.70512  0.18233  1.0000
  C   C1720     1.0  0.85047  0.67910  0.13025  1.0000
  C   C1721     1.0  0.84469  0.70801  0.23037  1.0000
  H   H1386     1.0  0.95063  0.61420  0.23283  1.0000
  C   C1722     1.0  0.94246  0.90022  0.21285  1.0000
  H   H1387     1.0  0.68066  0.95715  0.01344  1.0000
  H   H1388     1.0  0.88538  0.52435  0.00901  1.0000
  C   C1723     1.0  0.84379  0.52802  0.99785  1.0000
  C   C1724     1.0  0.98006  0.85335  0.18398  1.0000
  H   H1389     1.0  0.75214  0.63895  0.15627  1.0000
  C   C1725     1.0  0.90115  0.97448  0.19610  1.0000
  C   C1726     1.0  0.77865  0.66123  0.12587  1.0000
  C   C1727     1.0  0.84305  0.77794  0.22417  1.0000
  S   S237      1.0  0.96447  0.74557  0.20350  1.0000
  C   C1728     1.0  0.65828  0.95046  0.19036  1.0000
  C   C1729     1.0  0.84027  0.81351  0.11898  1.0000
  C   C1730     1.0  0.82003  0.83846  0.16983  1.0000
  C   C1731     1.0  0.68782  0.50054  0.04664  1.0000
  C   C1732     1.0  0.64364  0.90151  0.01199  1.0000
  H   H1390     1.0  0.96420  0.73111  0.13373  1.0000
  H   H1391     1.0  0.97185  0.93662  0.22894  1.0000
  C   C1733     1.0  0.80381  0.75715  0.13520  1.0000
  H   H1392     1.0  0.84710  0.84256  0.11539  1.0000
  H   H1393     1.0  0.95714  0.88668  0.17299  1.0000
  H   H1394     1.0  0.81628  0.84247  0.15776  1.0000
  C   C1734     1.0  0.74489  0.59935  0.11879  1.0000
  H   H1395     1.0  0.78735  0.61209  0.13232  1.0000
  H   H1396     1.0  0.78162  0.74249  0.14393  1.0000
  H   H1397     1.0  0.79567  0.80796  0.13500  1.0000
  H   H1398     1.0  0.73497  0.53334  0.05576  1.0000
  H   H1399     1.0  0.63675  0.89567  0.02457  1.0000
  H   H1400     1.0  0.82728  0.52445  0.00881  1.0000
  H   H1401     1.0  0.68425  0.88999  0.18289  1.0000
  S   S238      1.0  0.96988  0.95776  0.14450  1.0000
  C   C1735     1.0  0.97912  0.76020  0.11070  1.0000
  H   H1402     1.0  0.65224  0.82343  0.23607  1.0000
  C   C1736     1.0  0.80798  0.82686  0.23400  1.0000
  C   C1737     1.0  0.94463  0.51113  0.00217  1.0000
  C   C1738     1.0  0.60139  0.96659  0.02758  1.0000
  C   C1739     1.0  0.87242  0.97675  0.22167  1.0000
  H   H1403     1.0  0.77078  0.93069  0.21472  1.0000
  C   C1740     1.0  0.65747  0.83752  0.19654  1.0000
  C   C1741     1.0  0.95139  0.51810  0.02972  1.0000
  C   C1742     1.0  0.88315  0.85893  0.22308  1.0000
  C   C1743     1.0  0.65945  0.83812  0.22448  1.0000
  H   H1404     1.0  0.71337  0.50460  0.08311  1.0000
  C   C1744     1.0  0.94730  0.91472  0.22736  1.0000
  C   C1745     1.0  0.64831  0.81876  0.21151  1.0000
  C   C1746     1.0  0.91065  0.87213  0.21074  1.0000
  C   C1747     1.0  0.76253  0.96053  0.17816  1.0000
  C   C1748     1.0  0.76260  0.84961  0.24009  1.0000
  H   H1405     1.0  0.74486  0.96688  0.17151  1.0000
  H   H1406     1.0  0.58616  0.95126  0.03841  1.0000
  H   H1407     1.0  0.92599  0.64808  0.11875  1.0000
  C   C1749     1.0  0.81205  0.74642  0.22840  1.0000
  C   C1750     1.0  0.69295  0.96839  0.19311  1.0000
  C   C1751     1.0  0.54062  0.75212  0.99657  1.0000
  S   S239      1.0  0.92112  0.95222  0.18395  1.0000
  C   C1752     1.0  0.51156  0.76100  0.99811  1.0000
  H   H1408     1.0  0.78725  0.74881  0.22934  1.0000
  C   C1753     1.0  0.87480  0.77397  0.22287  1.0000
  H   H1409     1.0  0.89477  0.93745  0.21639  1.0000
  C   C1754     1.0  0.81291  0.71159  0.23150  1.0000
  Fe  Fe121     1.0  0.92763  0.96870  0.15825  1.0000
  H   H1410     1.0  0.78903  0.68739  0.23488  1.0000
  H   H1411     1.0  0.84189  0.95661  0.17239  1.0000
  H   H1412     1.0  0.84564  0.68115  0.23284  1.0000
  C   C1755     1.0  0.99416  0.87689  0.15663  1.0000
  C   C1756     1.0  0.71278  0.49230  0.18709  1.0000
  C   C1757     1.0  0.97637  0.75764  0.25874  1.0000
  C   C1758     1.0  0.71273  0.85865  0.31049  1.0000
  C   C1759     1.0  0.60906  0.72227  0.32558  1.0000
  C   C1760     1.0  0.67214  0.84825  0.36372  1.0000
  C   C1761     1.0  0.75592  0.53942  0.43229  1.0000
  H   H1413     1.0  0.68401  0.54434  0.46352  1.0000
  S   S240      1.0  0.92612  0.85584  0.32616  1.0000
  H   H1414     1.0  0.69654  0.86722  0.30368  1.0000
  Fe  Fe122     1.0  0.54882  0.78707  0.28011  1.0000
  S   S241      1.0  0.54613  0.81296  0.30243  1.0000
  S   S242      1.0  0.60047  0.80618  0.26463  1.0000
  C   C1762     1.0  0.51666  0.57789  0.45949  1.0000
  H   H1415     1.0  0.54035  0.62911  0.37980  1.0000
  H   H1416     1.0  0.86813  0.86323  0.24743  1.0000
  H   H1417     1.0  0.62356  0.53038  0.45905  1.0000
  H   H1418     1.0  0.91655  0.65457  0.27106  1.0000
  S   S243      1.0  0.79140  0.93959  0.25880  1.0000
  H   H1419     1.0  0.95641  0.69135  0.28898  1.0000
  H   H1420     1.0  0.95428  0.92793  0.33713  1.0000
  C   C1763     1.0  0.83213  0.94231  0.34638  1.0000
  C   C1764     1.0  0.75652  0.83364  0.25549  1.0000
  C   C1765     1.0  0.56510  0.89894  0.44310  1.0000
  S   S244      1.0  0.52061  0.67296  0.42192  1.0000
  C   C1766     1.0  0.97573  0.98751  0.33801  1.0000
  H   H1421     1.0  0.51507  0.97363  0.42822  1.0000
  C   C1767     1.0  0.62356  0.79138  0.30980  1.0000
  H   H1422     1.0  0.89407  0.51660  0.38439  1.0000
  S   S245      1.0  0.54690  0.77820  0.41966  1.0000
  H   H1423     1.0  0.75502  0.87571  0.29167  1.0000
  C   C1768     1.0  0.53635  0.56377  0.46786  1.0000
  C   C1769     1.0  0.53079  0.81271  0.41673  1.0000
  C   C1770     1.0  0.54177  0.87513  0.40622  1.0000
  C   C1771     1.0  0.55278  0.84615  0.40818  1.0000
  H   H1424     1.0  0.55904  0.90088  0.39961  1.0000
  H   H1425     1.0  0.57849  0.84972  0.40310  1.0000
  H   H1426     1.0  0.56428  0.84393  0.44226  1.0000
  H   H1427     1.0  0.67066  0.96760  0.25724  1.0000
  C   C1772     1.0  0.76660  0.85126  0.31201  1.0000
  C   C1773     1.0  0.90260  0.97488  0.33371  1.0000
  H   H1428     1.0  0.55863  0.96803  0.35283  1.0000
  H   H1429     1.0  0.73711  0.83670  0.26388  1.0000
  H   H1430     1.0  0.55672  0.52496  0.42130  1.0000
  H   H1431     1.0  0.76128  0.68714  0.47338  1.0000
  H   H1432     1.0  0.84836  0.91351  0.36364  1.0000
  H   H1433     1.0  0.68223  0.57824  0.40128  1.0000
  S   S246      1.0  0.94444  0.55072  0.45975  1.0000
  S   S247      1.0  0.52154  0.72853  0.29140  1.0000
  H   H1434     1.0  0.79660  0.58271  0.46882  1.0000
  C   C1774     1.0  0.63252  0.84676  0.27017  1.0000
  C   C1775     1.0  0.62325  0.87276  0.27783  1.0000
  C   C1776     1.0  0.64888  0.90445  0.28257  1.0000
  C   C1777     1.0  0.68400  0.91051  0.27967  1.0000
  C   C1778     1.0  0.69344  0.88503  0.27165  1.0000
  C   C1779     1.0  0.66775  0.85316  0.26695  1.0000
  H   H1435     1.0  0.59630  0.86874  0.27995  1.0000
  H   H1436     1.0  0.64142  0.92437  0.28847  1.0000
  H   H1437     1.0  0.72041  0.88941  0.26942  1.0000
  H   H1438     1.0  0.67512  0.83305  0.26114  1.0000
  H   H1439     1.0  0.92429  0.55971  0.42808  1.0000
  C   C1780     1.0  0.79620  0.54620  0.45113  1.0000
  H   H1440     1.0  0.74411  0.52635  0.42234  1.0000
  C   C1781     1.0  0.50310  0.69299  0.37874  1.0000
  C   C1782     1.0  0.62589  0.75477  0.33267  1.0000
  C   C1783     1.0  0.89167  0.94970  0.34719  1.0000
  S   S248      1.0  0.53701  0.74886  0.33603  1.0000
  H   H1441     1.0  0.68356  0.86323  0.38693  1.0000
  C   C1784     1.0  0.90214  0.86368  0.31190  1.0000
  C   C1785     1.0  0.90263  0.84920  0.29739  1.0000
  C   C1786     1.0  0.88342  0.85562  0.28611  1.0000
  C   C1787     1.0  0.86434  0.87733  0.28913  1.0000
  C   C1788     1.0  0.86370  0.89178  0.30366  1.0000
  C   C1789     1.0  0.88208  0.88433  0.31513  1.0000
  C   C1790     1.0  0.77607  0.81442  0.26019  1.0000
  H   H1442     1.0  0.88379  0.84413  0.27494  1.0000
  H   H1443     1.0  0.84915  0.90869  0.30607  1.0000
  H   H1444     1.0  0.88140  0.89522  0.32638  1.0000
  H   H1445     1.0  0.58282  0.90987  0.43237  1.0000
  C   C1791     1.0  0.55240  0.92179  0.45131  1.0000
  C   C1792     1.0  0.51429  0.71334  0.35095  1.0000
  H   H1446     1.0  0.56050  0.95059  0.44704  1.0000
  H   H1447     1.0  0.83150  0.76005  0.43510  1.0000
  H   H1448     1.0  0.53660  0.74793  0.36902  1.0000
  C   C1793     1.0  0.60702  0.79932  0.37857  1.0000
  S   S249      1.0  0.99231  0.85592  0.28976  1.0000
  C   C1794     1.0  0.64754  0.82556  0.35474  1.0000
  C   C1795     1.0  0.61461  0.80175  0.36226  1.0000
  P   P61       1.0  0.65589  0.83160  0.33362  1.0000
  C   C1796     1.0  0.64218  0.86782  0.32796  1.0000
  C   C1797     1.0  0.70036  0.84222  0.32589  1.0000
  C   C1798     1.0  0.72132  0.82982  0.33421  1.0000
  C   C1799     1.0  0.75451  0.83475  0.32733  1.0000
  C   C1800     1.0  0.63198  0.82114  0.38746  1.0000
  C   C1801     1.0  0.66611  0.90488  0.32514  1.0000
  C   C1802     1.0  0.65487  0.93293  0.32143  1.0000
  C   C1803     1.0  0.61965  0.92426  0.32073  1.0000
  C   C1804     1.0  0.59568  0.88749  0.32369  1.0000
  C   C1805     1.0  0.60686  0.85937  0.32738  1.0000
  H   H1449     1.0  0.58157  0.78095  0.38438  1.0000
  H   H1450     1.0  0.69698  0.86830  0.35808  1.0000
  H   H1451     1.0  0.59462  0.78541  0.35549  1.0000
  H   H1452     1.0  0.71174  0.81549  0.34581  1.0000
  H   H1453     1.0  0.77070  0.82510  0.33369  1.0000
  S   S250      1.0  0.80758  0.95590  0.29525  1.0000
  H   H1454     1.0  0.69352  0.91221  0.32556  1.0000
  H   H1455     1.0  0.52935  0.92027  0.32405  1.0000
  H   H1456     1.0  0.61105  0.94588  0.31756  1.0000
  H   H1457     1.0  0.56844  0.88060  0.32291  1.0000
  H   H1458     1.0  0.58798  0.83096  0.32969  1.0000
  C   C1806     1.0  0.63247  0.78953  0.32497  1.0000
  H   H1459     1.0  0.60586  0.58118  0.45142  1.0000
  C   C1807     1.0  0.53719  0.52916  0.46496  1.0000
  C   C1808     1.0  0.65638  0.62432  0.45232  1.0000
  C   C1809     1.0  0.90224  0.51346  0.39569  1.0000
  H   H1460     1.0  0.56271  0.85548  0.37396  1.0000
  H   H1461     1.0  0.57959  0.62176  0.33273  1.0000
  H   H1462     1.0  0.96810  0.62407  0.28090  1.0000
  H   H1463     1.0  0.65763  0.52402  0.42130  1.0000
  Fe  Fe123     1.0  0.50659  0.72083  0.42747  1.0000
  H   H1464     1.0  0.50736  0.69923  0.39063  1.0000
  C   C1810     1.0  0.90931  0.54215  0.40556  1.0000
  C   C1811     1.0  0.78211  0.63030  0.48809  1.0000
  C   C1812     1.0  0.95233  0.97430  0.30689  1.0000
  C   C1813     1.0  0.50791  0.95143  0.36617  1.0000
  C   C1814     1.0  0.51455  0.95350  0.30838  1.0000
  Fe  Fe124     1.0  0.77180  0.96309  0.27901  1.0000
  C   C1815     1.0  0.98308  0.94634  0.28989  1.0000
  H   H1465     1.0  0.60309  0.69557  0.33176  1.0000
  C   C1816     1.0  0.60723  0.75885  0.30267  1.0000
  C   C1817     1.0  0.59957  0.72430  0.31062  1.0000
  C   C1818     1.0  0.77572  0.69089  0.46184  1.0000
  C   C1819     1.0  0.51825  0.50857  0.45368  1.0000
  Fe  Fe125     1.0  0.51604  0.75511  0.31353  1.0000
  H   H1466     1.0  0.59466  0.49773  0.43108  1.0000
  C   C1820     1.0  0.93344  0.68322  0.26753  1.0000
  C   C1821     1.0  0.64090  0.53582  0.41664  1.0000
  H   H1467     1.0  0.77498  0.49593  0.48524  1.0000
  S   S251      1.0  0.84153  0.88560  0.27447  1.0000
  C   C1822     1.0  0.70099  0.60385  0.45923  1.0000
  H   H1468     1.0  0.82695  0.70589  0.42034  1.0000
  C   C1823     1.0  0.95977  0.94179  0.27908  1.0000
  C   C1824     1.0  0.81521  0.73221  0.44025  1.0000
  C   C1825     1.0  0.95582  0.61528  0.25739  1.0000
  H   H1469     1.0  0.91724  0.83240  0.29496  1.0000
  C   C1826     1.0  0.53546  0.82683  0.35556  1.0000
  C   C1827     1.0  0.50893  0.87128  0.41306  1.0000
  C   C1828     1.0  0.79669  0.72681  0.45518  1.0000
  C   C1829     1.0  0.74528  0.56507  0.43949  1.0000
  C   C1830     1.0  0.75949  0.58084  0.45284  1.0000
  H   H1470     1.0  0.60026  0.76045  0.29101  1.0000
  C   C1831     1.0  0.78524  0.57137  0.45853  1.0000
  H   H1471     1.0  0.92932  0.50184  0.43657  1.0000
  H   H1472     1.0  0.62925  0.81789  0.30342  1.0000
  C   C1832     1.0  0.65467  0.56626  0.40535  1.0000
  C   C1833     1.0  0.54536  0.85524  0.36550  1.0000
  H   H1473     1.0  0.79004  0.64248  0.43191  1.0000
  H   H1474     1.0  0.81525  0.53800  0.45587  1.0000
  H   H1475     1.0  0.53169  0.95181  0.29847  1.0000
  C   C1834     1.0  0.49762  0.55718  0.44831  1.0000
  C   C1835     1.0  0.77339  0.66004  0.45365  1.0000
  Fe  Fe126     1.0  0.49544  0.81211  0.29678  1.0000
  H   H1476     1.0  0.79192  0.85430  0.30651  1.0000
  C   C1836     1.0  0.85657  0.93334  0.35341  1.0000
  Fe  Fe127     1.0  0.97566  0.85221  0.31564  1.0000
  Fe  Fe128     1.0  0.82996  0.93664  0.27441  1.0000
  H   H1477     1.0  0.50454  0.80341  0.33728  1.0000
  C   C1837     1.0  0.58377  0.53618  0.41633  1.0000
  C   C1838     1.0  0.51280  0.93514  0.32291  1.0000
  H   H1478     1.0  0.58613  0.69920  0.30516  1.0000
  C   C1839     1.0  0.97344  0.95142  0.34172  1.0000
  H   H1479     1.0  0.62571  0.81935  0.40008  1.0000
  C   C1840     1.0  0.74572  0.86321  0.30361  1.0000
  P   P62       1.0  0.74552  0.61382  0.46220  1.0000
  H   H1480     1.0  0.55122  0.57982  0.47648  1.0000
  C   C1841     1.0  0.99231  0.53612  0.47515  1.0000
  C   C1842     1.0  0.67654  0.56695  0.46053  1.0000
  H   H1481     1.0  0.90882  0.98017  0.29747  1.0000
  H   H1482     1.0  0.72575  0.57223  0.43471  1.0000
  H   H1483     1.0  0.70867  0.66124  0.45399  1.0000
  H   H1484     1.0  0.55268  0.51862  0.47132  1.0000
  C   C1843     1.0  0.64232  0.55889  0.45786  1.0000
  S   S252      1.0  0.51707  0.62189  0.46285  1.0000
  C   C1844     1.0  0.95565  0.70419  0.27776  1.0000
  H   H1485     1.0  0.96258  0.92859  0.26859  1.0000
  S   S253      1.0  0.50031  0.79096  0.27341  1.0000
  H   H1486     1.0  0.53841  0.90313  0.37326  1.0000
  H   H1487     1.0  0.63354  0.75270  0.34415  1.0000
  C   C1845     1.0  0.54337  0.97398  0.36238  1.0000
  C   C1846     1.0  0.66450  0.84571  0.38004  1.0000
  H   H1488     1.0  0.54441  0.64364  0.35142  1.0000
  H   H1489     1.0  0.82411  0.97534  0.32778  1.0000
  H   H1490     1.0  0.98715  0.72538  0.31565  1.0000
  H   H1491     1.0  0.80435  0.64808  0.47995  1.0000
  C   C1847     1.0  0.55453  0.86176  0.44862  1.0000
  H   H1492     1.0  0.77222  0.80321  0.27227  1.0000
  C   C1848     1.0  0.59604  0.59530  0.35086  1.0000
  C   C1849     1.0  0.57839  0.61585  0.34523  1.0000
  C   C1850     1.0  0.55862  0.62820  0.35573  1.0000
  C   C1851     1.0  0.55659  0.62013  0.37184  1.0000
  C   C1852     1.0  0.57496  0.60030  0.37762  1.0000
  C   C1853     1.0  0.59410  0.58721  0.36700  1.0000
  P   P63       1.0  0.56989  0.58843  0.39844  1.0000
  C   C1854     1.0  0.78131  0.52995  0.43813  1.0000
  C   C1855     1.0  0.59716  0.56611  0.40468  1.0000
  H   H1493     1.0  0.78886  0.50921  0.43290  1.0000
  H   H1494     1.0  0.56464  0.96421  0.41424  1.0000
  C   C1856     1.0  0.91928  0.53784  0.42024  1.0000
  H   H1495     1.0  0.90667  0.56753  0.40195  1.0000
  C   C1857     1.0  0.63294  0.58157  0.39948  1.0000
  C   C1858     1.0  0.69271  0.97525  0.24821  1.0000
  C   C1859     1.0  0.69057  0.63253  0.45514  1.0000
  H   H1496     1.0  0.61085  0.58520  0.34269  1.0000
  C   C1860     1.0  0.58191  0.62937  0.40901  1.0000
  C   C1861     1.0  0.59770  0.66519  0.40114  1.0000
  C   C1862     1.0  0.60881  0.69640  0.40964  1.0000
  C   C1863     1.0  0.60488  0.69208  0.42600  1.0000
  C   C1864     1.0  0.58989  0.65655  0.43387  1.0000
  C   C1865     1.0  0.57833  0.62532  0.42542  1.0000
  H   H1497     1.0  0.54548  0.80552  0.35622  1.0000
  C   C1866     1.0  0.93303  0.95404  0.28193  1.0000
  C   C1867     1.0  0.49850  0.52268  0.44539  1.0000
  C   C1868     1.0  0.52900  0.90746  0.46500  1.0000
  H   H1498     1.0  0.53183  0.51018  0.39424  1.0000
  C   C1869     1.0  0.72326  0.49500  0.48761  1.0000
  C   C1870     1.0  0.49936  0.85325  0.34405  1.0000
  C   C1871     1.0  0.98619  0.55303  0.46186  1.0000
  H   H1499     1.0  0.81733  0.79703  0.25354  1.0000
  H   H1500     1.0  0.64409  0.60587  0.39112  1.0000
  H   H1501     1.0  0.79856  0.75049  0.46160  1.0000
  S   S254      1.0  0.71514  0.94945  0.28672  1.0000
  H   H1502     1.0  0.90985  0.94216  0.35290  1.0000
  H   H1503     1.0  0.60157  0.66936  0.38851  1.0000
  H   H1504     1.0  0.61988  0.72399  0.40356  1.0000
  H   H1505     1.0  0.61259  0.71625  0.43260  1.0000
  H   H1506     1.0  0.58624  0.65320  0.44656  1.0000
  H   H1507     1.0  0.56653  0.59798  0.43170  1.0000
  C   C1872     1.0  0.51981  0.72065  0.36643  1.0000
  H   H1508     1.0  0.64847  0.64649  0.44911  1.0000
  C   C1873     1.0  0.81266  0.70168  0.43194  1.0000
  C   C1874     1.0  0.79172  0.66570  0.43857  1.0000
  H   H1509     1.0  0.60698  0.57024  0.37108  1.0000
  H   H1510     1.0  0.80496  0.92961  0.35115  1.0000
  C   C1875     1.0  0.52473  0.55788  0.40296  1.0000
  C   C1876     1.0  0.97958  0.96264  0.30366  1.0000
  C   C1877     1.0  0.63229  0.58753  0.45366  1.0000
  H   H1511     1.0  0.67370  0.96126  0.31867  1.0000
  C   C1878     1.0  0.80171  0.81105  0.24952  1.0000
  C   C1879     1.0  0.93477  0.69840  0.25237  1.0000
  H   H1512     1.0  0.51966  0.92576  0.47111  1.0000
  C   C1880     1.0  0.75002  0.61043  0.48282  1.0000
  H   H1513     1.0  0.92829  0.59972  0.26097  1.0000
  S   S255      1.0  0.85268  0.51496  0.48401  1.0000
  C   C1881     1.0  0.97766  0.74125  0.27329  1.0000
  H   H1514     1.0  0.97122  0.52136  0.48432  1.0000
  C   C1882     1.0  0.95558  0.73597  0.24813  1.0000
  C   C1883     1.0  0.53077  0.84720  0.46217  1.0000
  C   C1884     1.0  0.97828  0.62907  0.26858  1.0000
  H   H1515     1.0  0.52268  0.81817  0.46612  1.0000
  C   C1885     1.0  0.51338  0.52097  0.39913  1.0000
  C   C1886     1.0  0.51761  0.86990  0.47043  1.0000
  H   H1516     1.0  0.91460  0.95012  0.27362  1.0000
  H   H1517     1.0  0.50970  0.97809  0.45771  1.0000
  C   C1887     1.0  0.92957  0.97072  0.29567  1.0000
  H   H1518     1.0  0.92339  0.91250  0.25094  1.0000
  C   C1888     1.0  0.87778  0.98380  0.32684  1.0000
  H   H1519     1.0  0.92869  0.98971  0.24262  1.0000
  C   C1889     1.0  0.53199  0.88254  0.36487  1.0000
  C   C1890     1.0  0.60548  0.52091  0.42213  1.0000
  H   H1520     1.0  0.50816  0.60023  0.41113  1.0000
  C   C1891     1.0  0.50020  0.57156  0.40867  1.0000
  C   C1892     1.0  0.50446  0.99017  0.38695  1.0000
  C   C1893     1.0  0.84282  0.96782  0.33318  1.0000
  Fe  Fe129     1.0  0.89902  0.50425  0.47411  1.0000
  C   C1894     1.0  0.50928  0.88200  0.35398  1.0000
  C   C1895     1.0  0.92224  0.50494  0.42505  1.0000
  C   C1896     1.0  0.51246  0.82576  0.34486  1.0000
  C   C1897     1.0  0.56754  0.99185  0.41698  1.0000
  C   C1898     1.0  0.49757  0.80841  0.42343  1.0000
  S   S256      1.0  0.49699  0.90906  0.41050  1.0000
  S   S257      1.0  0.99200  0.80595  0.32188  1.0000
  H   H1521     1.0  0.99256  0.78652  0.25532  1.0000
  C   C1899     1.0  0.96844  0.62337  0.24148  1.0000
  H   H1522     1.0  0.69733  0.57062  0.48995  1.0000
  C   C1900     1.0  0.79682  0.75415  0.72067  1.0000
  H   H1523     1.0  0.58981  0.55166  0.62785  1.0000
  Fe  Fe130     1.0  0.78004  0.59118  0.61802  1.0000
  S   S258      1.0  0.75746  0.61749  0.60109  1.0000
  S   S259      1.0  0.80728  0.61931  0.63799  1.0000
  Fe  Fe131     1.0  0.70936  0.56511  0.60704  1.0000
  S   S260      1.0  0.65686  0.56690  0.61213  1.0000
  Fe  Fe132     1.0  0.77391  0.58517  0.58335  1.0000
  S   S261      1.0  0.79481  0.60329  0.55784  1.0000
  S   S262      1.0  0.73053  0.54091  0.62517  1.0000
  S   S263      1.0  0.80099  0.56344  0.59985  1.0000
  Fe  Fe133     1.0  0.96157  0.86388  0.67022  1.0000
  S   S264      1.0  0.95921  0.87899  0.64516  1.0000
  H   H1524     1.0  0.90735  0.94549  0.67787  1.0000
  Fe  Fe134     1.0  0.88342  0.82407  0.67754  1.0000
  S   S265      1.0  0.87490  0.83637  0.65302  1.0000
  S   S266      1.0  0.83400  0.78871  0.69306  1.0000
  Fe  Fe135     1.0  0.91927  0.82071  0.64561  1.0000
  S   S267      1.0  0.91565  0.78674  0.62488  1.0000
  Fe  Fe136     1.0  0.91503  0.89329  0.65466  1.0000
  S   S268      1.0  0.91000  0.94414  0.64401  1.0000
  S   S269      1.0  0.92525  0.80406  0.66998  1.0000
  S   S270      1.0  0.91999  0.88229  0.67984  1.0000
  C   C1901     1.0  0.82533  0.78526  0.71361  1.0000
  H   H1525     1.0  0.78200  0.73307  0.71357  1.0000
  H   H1526     1.0  0.62199  0.55005  0.65808  1.0000
  H   H1527     1.0  0.97954  0.90657  0.61197  1.0000
  H   H1528     1.0  0.59320  0.54189  0.57464  1.0000
  C   C1902     1.0  0.91563  0.97976  0.65650  1.0000
  C   C1903     1.0  0.91319  0.97300  0.67273  1.0000
  H   H1529     1.0  0.50347  0.92455  0.49951  1.0000
  C   C1904     1.0  0.78160  0.88150  0.72539  1.0000
  H   H1530     1.0  0.84121  0.54930  0.51525  1.0000
  C   C1905     1.0  0.83815  0.66544  0.63398  1.0000
  C   C1906     1.0  0.85181  0.68567  0.64646  1.0000
  C   C1907     1.0  0.87561  0.72281  0.64376  1.0000
  C   C1908     1.0  0.88681  0.73967  0.62846  1.0000
  C   C1909     1.0  0.87397  0.71912  0.61589  1.0000
  C   C1910     1.0  0.84931  0.68221  0.61864  1.0000
  H   H1531     1.0  0.84376  0.67270  0.65827  1.0000
  H   H1532     1.0  0.88533  0.73830  0.65352  1.0000
  H   H1533     1.0  0.88249  0.73203  0.60403  1.0000
  H   H1534     1.0  0.83905  0.66676  0.60892  1.0000
  H   H1535     1.0  0.79240  0.53392  0.57113  1.0000
  H   H1536     1.0  0.87375  0.89602  0.70340  1.0000
  C   C1911     1.0  0.80986  0.96130  0.71279  1.0000
  C   C1912     1.0  0.90897  0.76021  0.73711  1.0000
  C   C1913     1.0  0.72156  0.73420  0.69976  1.0000
  C   C1914     1.0  0.82153  0.95915  0.62107  1.0000
  C   C1915     1.0  0.93508  0.79546  0.73821  1.0000
  C   C1916     1.0  0.80335  0.53784  0.55902  1.0000
  H   H1537     1.0  0.76143  0.59933  0.52684  1.0000
  S   S271      1.0  0.72363  0.53563  0.58783  1.0000
  C   C1917     1.0  0.72139  0.76588  0.69186  1.0000
  C   C1918     1.0  0.80709  0.56932  0.54963  1.0000
  C   C1919     1.0  0.82061  0.57336  0.53377  1.0000
  C   C1920     1.0  0.62209  0.52439  0.61870  1.0000
  C   C1921     1.0  0.66141  0.50249  0.54107  1.0000
  H   H1538     1.0  0.82380  0.59774  0.52644  1.0000
  C   C1922     1.0  0.80962  0.85626  0.67578  1.0000
  C   C1923     1.0  0.81926  0.88265  0.66292  1.0000
  C   C1924     1.0  0.82789  0.91996  0.66526  1.0000
  C   C1925     1.0  0.82698  0.93099  0.68044  1.0000
  C   C1926     1.0  0.81713  0.90461  0.69347  1.0000
  C   C1927     1.0  0.80891  0.86718  0.69100  1.0000
  H   H1539     1.0  0.93748  0.83480  0.70189  1.0000
  C   C1928     1.0  0.64328  0.60062  0.66943  1.0000
  H   H1540     1.0  0.56274  0.52416  0.55013  1.0000
  C   C1929     1.0  0.64518  0.57403  0.65956  1.0000
  H   H1541     1.0  0.87669  0.97730  0.62122  1.0000
  C   C1930     1.0  0.51355  0.85452  0.50457  1.0000
  C   C1931     1.0  0.91093  0.91704  0.71952  1.0000
  C   C1932     1.0  0.49830  0.85349  0.51995  1.0000
  H   H1542     1.0  0.71832  0.73116  0.71246  1.0000
  S   S272      1.0  0.65704  0.49287  0.49032  1.0000
  H   H1543     1.0  0.80379  0.82742  0.67398  1.0000
  H   H1544     1.0  0.82119  0.87440  0.65114  1.0000
  H   H1545     1.0  0.83668  0.94061  0.65529  1.0000
  H   H1546     1.0  0.83482  0.96022  0.68184  1.0000
  H   H1547     1.0  0.80257  0.84640  0.70080  1.0000
  H   H1548     1.0  0.83835  0.64330  0.69782  1.0000
  H   H1549     1.0  0.61853  0.59709  0.67577  1.0000
  H   H1550     1.0  0.79942  0.72186  0.68145  1.0000
  C   C1933     1.0  0.57390  0.52799  0.53802  1.0000
  H   H1551     1.0  0.69720  0.82206  0.72499  1.0000
  H   H1552     1.0  0.55231  0.53913  0.50166  1.0000
  H   H1553     1.0  0.71795  0.78731  0.69844  1.0000
  H   H1554     1.0  0.75404  0.93578  0.71912  1.0000
  C   C1934     1.0  0.60098  0.53790  0.50639  1.0000
  C   C1935     1.0  0.56770  0.53661  0.51063  1.0000
  C   C1936     1.0  0.94484  0.82244  0.72544  1.0000
  C   C1937     1.0  0.72214  0.58677  0.49365  1.0000
  C   C1938     1.0  0.60719  0.52860  0.53384  1.0000
  C   C1939     1.0  0.62069  0.53421  0.51793  1.0000
  P   P64       1.0  0.63337  0.52451  0.54867  1.0000
  H   H1555     1.0  0.79619  0.59453  0.68420  1.0000
  C   C1940     1.0  0.59139  0.52527  0.62606  1.0000
  C   C1941     1.0  0.83050  0.54599  0.52743  1.0000
  H   H1556     1.0  0.87792  0.58649  0.58322  1.0000
  C   C1942     1.0  0.67699  0.57861  0.65133  1.0000
  C   C1943     1.0  0.88647  0.54562  0.56953  1.0000
  C   C1944     1.0  0.78751  0.74975  0.73687  1.0000
  C   C1945     1.0  0.85741  0.92677  0.72034  1.0000
  H   H1557     1.0  0.75555  0.60876  0.66956  1.0000
  H   H1558     1.0  0.86718  0.83595  0.71756  1.0000
  H   H1559     1.0  0.74529  0.51063  0.53911  1.0000
  C   C1946     1.0  0.78605  0.62663  0.50393  1.0000
  C   C1947     1.0  0.66014  0.57026  0.55349  1.0000
  C   C1948     1.0  0.66959  0.57576  0.56863  1.0000
  C   C1949     1.0  0.69215  0.61073  0.57207  1.0000
  C   C1950     1.0  0.70603  0.64023  0.56040  1.0000
  C   C1951     1.0  0.69689  0.63495  0.54528  1.0000
  C   C1952     1.0  0.67392  0.60014  0.54183  1.0000
  C   C1953     1.0  0.56263  0.49225  0.63109  1.0000
  H   H1560     1.0  0.81681  0.92994  0.62221  1.0000
  C   C1954     1.0  0.74898  0.86482  0.72014  1.0000
  H   H1561     1.0  0.83970  0.70722  0.69628  1.0000
  H   H1562     1.0  0.64637  0.53536  0.51436  1.0000
  H   H1563     1.0  0.73564  0.74691  0.65433  1.0000
  C   C1955     1.0  0.86784  0.53598  0.59743  1.0000
  H   H1564     1.0  0.59382  0.86344  0.51244  1.0000
  H   H1565     1.0  0.96481  0.84976  0.72573  1.0000
  H   H1566     1.0  0.67818  0.55819  0.64350  1.0000
  C   C1956     1.0  0.56714  0.86064  0.51454  1.0000
  C   C1957     1.0  0.87770  0.55880  0.58340  1.0000
  C   C1958     1.0  0.79384  0.97011  0.62063  1.0000
  C   C1959     1.0  0.88566  0.50972  0.56965  1.0000
  C   C1960     1.0  0.85536  0.98589  0.62038  1.0000
  H   H1567     1.0  0.66010  0.55303  0.57776  1.0000
  H   H1568     1.0  0.69918  0.61474  0.58380  1.0000
  H   H1569     1.0  0.72414  0.66703  0.56306  1.0000
  H   H1570     1.0  0.70795  0.65774  0.53618  1.0000
  H   H1571     1.0  0.66754  0.59653  0.53001  1.0000
  H   H1572     1.0  0.94261  0.94004  0.73770  1.0000
  C   C1961     1.0  0.84480  0.81219  0.72295  1.0000
  C   C1962     1.0  0.92928  0.81403  0.71178  1.0000
  C   C1963     1.0  0.72637  0.58279  0.50942  1.0000
  C   C1964     1.0  0.86628  0.49982  0.59755  1.0000
  H   H1573     1.0  0.92814  0.90508  0.71423  1.0000
  C   C1965     1.0  0.90344  0.77893  0.71083  1.0000
  C   C1966     1.0  0.60496  0.49686  0.56575  1.0000
  H   H1574     1.0  0.89101  0.77247  0.70036  1.0000
  C   C1967     1.0  0.58781  0.51259  0.57614  1.0000
  H   H1575     1.0  0.74440  0.87466  0.70900  1.0000
  H   H1576     1.0  0.81089  0.64172  0.50794  1.0000
  H   H1577     1.0  0.52842  0.53083  0.52973  1.0000
  C   C1968     1.0  0.88011  0.91202  0.71337  1.0000
  C   C1969     1.0  0.71129  0.49375  0.66416  1.0000
  H   H1578     1.0  0.72606  0.79467  0.66937  1.0000
  C   C1970     1.0  0.55426  0.53188  0.52645  1.0000
  H   H1579     1.0  0.89320  0.56297  0.55857  1.0000
  C   C1971     1.0  0.55186  0.85984  0.52980  1.0000
  H   H1580     1.0  0.98905  0.79151  0.71032  1.0000
  H   H1581     1.0  0.87237  0.72532  0.72289  1.0000
  C   C1972     1.0  0.81392  0.75102  0.62934  1.0000
  C   C1973     1.0  0.79915  0.73919  0.61574  1.0000
  C   C1974     1.0  0.76733  0.70882  0.61672  1.0000
  C   C1975     1.0  0.75040  0.69006  0.63130  1.0000
  C   C1976     1.0  0.76583  0.70076  0.64499  1.0000
  C   C1977     1.0  0.79758  0.73173  0.64387  1.0000
  P   P65       1.0  0.74384  0.67820  0.66411  1.0000
  C   C1978     1.0  0.73276  0.71143  0.67486  1.0000
  C   C1979     1.0  0.70528  0.63702  0.66259  1.0000
  C   C1980     1.0  0.67317  0.63199  0.67096  1.0000
  H   H1582     1.0  0.70663  0.53785  0.55137  1.0000
  C   C1981     1.0  0.51744  0.85622  0.53250  1.0000
  C   C1982     1.0  0.70694  0.60991  0.65279  1.0000
  C   C1983     1.0  0.72709  0.70699  0.69131  1.0000
  H   H1583     1.0  0.97996  0.95868  0.62707  1.0000
  C   C1984     1.0  0.75820  0.60277  0.51460  1.0000
  C   C1985     1.0  0.72608  0.77005  0.67549  1.0000
  C   C1986     1.0  0.73160  0.74289  0.66700  1.0000
  C   C1987     1.0  0.77380  0.66645  0.67458  1.0000
  C   C1988     1.0  0.79811  0.69386  0.68214  1.0000
  C   C1989     1.0  0.82102  0.68552  0.69062  1.0000
  C   C1990     1.0  0.82014  0.64962  0.69152  1.0000
  C   C1991     1.0  0.79627  0.62212  0.68394  1.0000
  C   C1992     1.0  0.77312  0.63041  0.67554  1.0000
  H   H1584     1.0  0.83872  0.77449  0.62857  1.0000
  H   H1585     1.0  0.81264  0.75334  0.60445  1.0000
  H   H1586     1.0  0.75587  0.69957  0.60617  1.0000
  H   H1587     1.0  0.72539  0.66733  0.63168  1.0000
  H   H1588     1.0  0.80995  0.74111  0.65418  1.0000
  H   H1589     1.0  0.67092  0.65232  0.67856  1.0000
  C   C1993     1.0  0.81385  0.51108  0.55282  1.0000
  H   H1590     1.0  0.73130  0.61327  0.64604  1.0000
  H   H1591     1.0  0.72796  0.68300  0.69762  1.0000
  P   P66       1.0  0.81654  0.91857  0.71318  1.0000
  C   C1994     1.0  0.89300  0.75219  0.72355  1.0000
  H   H1592     1.0  0.70519  0.56350  0.51758  1.0000
  C   C1995     1.0  0.72228  0.83486  0.72908  1.0000
  H   H1593     1.0  0.76754  0.94930  0.62148  1.0000
  H   H1594     1.0  0.50558  0.85563  0.54433  1.0000
  C   C1996     1.0  0.77651  0.96128  0.71570  1.0000
  Fe  Fe137     1.0  0.74942  0.51566  0.60547  1.0000
  C   C1997     1.0  0.54808  0.85794  0.50195  1.0000
  C   C1998     1.0  0.86613  0.94703  0.73341  1.0000
  H   H1595     1.0  0.86074  0.54610  0.60817  1.0000
  H   H1596     1.0  0.89261  0.50061  0.55869  1.0000
  H   H1597     1.0  0.72643  0.52265  0.66563  1.0000
  C   C1999     1.0  0.82743  0.51500  0.53707  1.0000
  H   H1598     1.0  0.54996  0.50256  0.59646  1.0000
  C   C2000     1.0  0.91917  0.93678  0.73268  1.0000
  H   H1599     1.0  0.56671  0.86206  0.53953  1.0000
  H   H1600     1.0  0.53897  0.49331  0.63670  1.0000
  C   C2001     1.0  0.69619  0.51547  0.54400  1.0000
  H   H1601     1.0  0.72795  0.51379  0.49672  1.0000
  H   H1602     1.0  0.61148  0.54129  0.49412  1.0000
  C   C2002     1.0  0.71835  0.50013  0.53705  1.0000
  C   C2003     1.0  0.89685  0.95193  0.73955  1.0000
  C   C2004     1.0  0.78719  0.86722  0.73961  1.0000
  H   H1603     1.0  0.84891  0.95846  0.73902  1.0000
  C   C2005     1.0  0.83516  0.80799  0.73935  1.0000
  H   H1604     1.0  0.56043  0.85863  0.49024  1.0000
  C   C2006     1.0  0.78934  0.97598  0.75505  1.0000
  Fe  Fe138     1.0  0.81224  0.81135  0.78357  1.0000
  S   S273      1.0  0.79040  0.79076  0.80862  1.0000
  S   S274      1.0  0.79243  0.76850  0.76655  1.0000
  Fe  Fe139     1.0  0.85611  0.88764  0.79222  1.0000
  S   S275      1.0  0.83790  0.87370  0.81797  1.0000
  S   S276      1.0  0.89865  0.94073  0.78142  1.0000
  Fe  Fe140     1.0  0.84464  0.82082  0.81399  1.0000
  S   S277      1.0  0.86480  0.79134  0.83082  1.0000
  Fe  Fe141     1.0  0.78533  0.84494  0.81018  1.0000
  S   S278      1.0  0.73676  0.84629  0.82310  1.0000
  S   S279      1.0  0.86688  0.83688  0.78881  1.0000
  S   S280      1.0  0.80292  0.86358  0.78464  1.0000
  H   H1605     1.0  0.92271  0.84451  0.80926  1.0000
  C   C2007     1.0  0.98908  0.56128  0.85597  1.0000
  H   H1606     1.0  0.70766  0.79734  0.75008  1.0000
  Fe  Fe142     1.0  0.54770  0.72378  0.81621  1.0000
  S   S281      1.0  0.51536  0.67319  0.83264  1.0000
  S   S282      1.0  0.59840  0.72955  0.80249  1.0000
  C   C2008     1.0  0.76050  0.83703  0.74842  1.0000
  H   H1607     1.0  0.61593  0.94689  0.82796  1.0000
  C   C2009     1.0  0.55137  0.64368  0.88647  1.0000
  C   C2010     1.0  0.58620  0.89703  0.93005  1.0000
  H   H1608     1.0  0.96437  0.76207  0.78294  1.0000
  S   S283      1.0  0.54520  0.76430  0.83321  1.0000
  H   H1609     1.0  0.76988  0.70762  0.85698  1.0000
  H   H1610     1.0  0.53041  0.64851  0.88190  1.0000
  H   H1611     1.0  0.93659  0.84532  0.77942  1.0000
  H   H1612     1.0  0.81938  0.76385  0.86196  1.0000
  C   C2011     1.0  0.97410  0.57638  0.97976  1.0000
  C   C2012     1.0  0.55320  0.55316  0.96028  1.0000
  H   H1613     1.0  0.90327  0.96725  0.74975  1.0000
  H   H1614     1.0  0.84187  0.74887  0.78707  1.0000
  C   C2013     1.0  0.95745  0.86506  0.77127  1.0000
  C   C2014     1.0  0.69877  0.81285  0.81756  1.0000
  C   C2015     1.0  0.66742  0.80203  0.82746  1.0000
  C   C2016     1.0  0.63656  0.77652  0.82294  1.0000
  C   C2017     1.0  0.63685  0.76147  0.80853  1.0000
  C   C2018     1.0  0.66841  0.77172  0.79877  1.0000
  C   C2019     1.0  0.69933  0.79739  0.80326  1.0000
  H   H1615     1.0  0.66690  0.81367  0.83858  1.0000
  H   H1616     1.0  0.61266  0.76843  0.83068  1.0000
  H   H1617     1.0  0.66891  0.75999  0.78767  1.0000
  H   H1618     1.0  0.72352  0.80541  0.79560  1.0000
  C   C2020     1.0  0.57113  0.62897  0.87723  1.0000
  H   H1619     1.0  0.71422  0.77519  0.84588  1.0000
  H   H1620     1.0  0.58845  0.68181  0.83191  1.0000
  C   C2021     1.0  0.93750  0.75850  0.78339  1.0000
  H   H1621     1.0  0.90065  0.74808  0.84071  1.0000
  H   H1622     1.0  0.66196  0.56138  0.86011  1.0000
  C   C2022     1.0  0.50797  0.55903  0.83899  1.0000
  H   H1623     1.0  0.57227  0.97258  0.83546  1.0000
  H   H1624     1.0  0.50382  0.55704  0.95995  1.0000
  C   C2023     1.0  0.66086  0.91696  0.97953  1.0000
  H   H1625     1.0  0.52325  0.92021  0.95661  1.0000
  H   H1626     1.0  0.94085  0.60290  0.97267  1.0000
  C   C2024     1.0  0.59004  0.91465  0.94387  1.0000
  H   H1627     1.0  0.55846  0.83247  0.80700  1.0000
  C   C2025     1.0  0.79515  0.95237  0.76593  1.0000
  C   C2026     1.0  0.91840  0.76987  0.83216  1.0000
  H   H1628     1.0  0.81669  0.82540  0.85889  1.0000
  C   C2027     1.0  0.60136  0.84952  0.94195  1.0000
  C   C2028     1.0  0.52582  0.54590  0.90361  1.0000
  H   H1629     1.0  0.67540  0.61727  0.84208  1.0000
  H   H1630     1.0  0.67035  0.72506  0.87118  1.0000
  H   H1631     1.0  0.61290  0.72831  0.87546  1.0000
  H   H1632     1.0  0.64429  0.67571  0.82794  1.0000
  H   H1633     1.0  0.71511  0.73954  0.90073  1.0000
  H   H1634     1.0  0.71116  0.68609  0.87963  1.0000
  C   C2029     1.0  0.90731  0.97837  0.79288  1.0000
  C   C2030     1.0  0.51176  0.54102  0.88945  1.0000
  C   C2031     1.0  0.96873  0.90275  0.77360  1.0000
  C   C2032     1.0  0.85171  0.53368  0.96953  1.0000
  H   H1635     1.0  0.76383  0.83082  0.85109  1.0000
  H   H1636     1.0  0.52409  0.60161  0.81977  1.0000
  H   H1637     1.0  0.69759  0.73069  0.81679  1.0000
  C   C2033     1.0  0.95916  0.51477  0.83904  1.0000
  S   S284      1.0  0.51650  0.84925  0.90836  1.0000
  H   H1638     1.0  0.64539  0.74849  0.94942  1.0000
  H   H1639     1.0  0.76541  0.72539  0.74214  1.0000
  H   H1640     1.0  0.95927  0.75022  0.83231  1.0000
  C   C2034     1.0  0.70364  0.82614  0.96231  1.0000
  H   H1641     1.0  0.92195  0.72295  0.80488  1.0000
  H   H1642     1.0  0.88356  0.78713  0.76471  1.0000
  C   C2035     1.0  0.56791  0.59803  0.82934  1.0000
  H   H1643     1.0  0.83133  0.94610  0.78054  1.0000
  H   H1644     1.0  0.60631  0.58818  0.84124  1.0000
  C   C2036     1.0  0.99368  0.64196  0.97138  1.0000
  H   H1645     1.0  0.53038  0.57125  0.90922  1.0000
  C   C2037     1.0  0.74475  0.94184  0.83951  1.0000
  H   H1646     1.0  0.67302  0.56760  0.88780  1.0000
  P   P67       1.0  0.95740  0.80440  0.75537  1.0000
  C   C2038     1.0  0.51871  0.54063  0.85034  1.0000
  C   C2039     1.0  0.58528  0.84446  0.80922  1.0000
  C   C2040     1.0  0.61112  0.84146  0.79860  1.0000
  C   C2041     1.0  0.64559  0.85637  0.80157  1.0000
  C   C2042     1.0  0.65420  0.87380  0.81527  1.0000
  C   C2043     1.0  0.62829  0.87634  0.82619  1.0000
  C   C2044     1.0  0.59367  0.86143  0.82303  1.0000
  P   P68       1.0  0.63857  0.89585  0.84462  1.0000
  C   C2045     1.0  0.63346  0.85989  0.85955  1.0000
  C   C2046     1.0  0.68315  0.92924  0.84236  1.0000
  C   C2047     1.0  0.98069  0.53738  0.82600  1.0000
  H   H1647     1.0  0.51412  0.72470  0.90645  1.0000
  H   H1648     1.0  0.58546  0.93978  0.94459  1.0000
  C   C2048     1.0  0.88187  0.98012  0.80421  1.0000
  C   C2049     1.0  0.71008  0.91662  0.84172  1.0000
  C   C2050     1.0  0.60920  0.82366  0.85890  1.0000
  C   C2051     1.0  0.60265  0.79664  0.87122  1.0000
  C   C2052     1.0  0.62020  0.80557  0.88433  1.0000
  C   C2053     1.0  0.64464  0.84161  0.88505  1.0000
  C   C2054     1.0  0.65121  0.86877  0.87272  1.0000
  C   C2055     1.0  0.60835  0.91661  0.85054  1.0000
  C   C2056     1.0  0.96440  0.82579  0.80985  1.0000
  H   H1649     1.0  0.90083  0.73873  0.74670  1.0000
  H   H1650     1.0  0.51489  0.78007  0.86234  1.0000
  Fe  Fe143     1.0  0.50965  0.71430  0.84879  1.0000
  S   S285      1.0  0.50750  0.81716  0.95361  1.0000
  C   C2057     1.0  0.96693  0.60655  0.97447  1.0000
  H   H1651     1.0  0.60430  0.82681  0.78826  1.0000
  H   H1652     1.0  0.66554  0.85319  0.79355  1.0000
  H   H1653     1.0  0.68098  0.88403  0.81738  1.0000
  H   H1654     1.0  0.57286  0.86198  0.83136  1.0000
  H   H1655     1.0  0.98519  0.73599  0.85409  1.0000
  C   C2058     1.0  0.97331  0.85320  0.75874  1.0000
  C   C2059     1.0  0.69087  0.79227  0.95571  1.0000
  H   H1656     1.0  0.60501  0.82407  0.94090  1.0000
  H   H1657     1.0  0.70432  0.88715  0.84261  1.0000
  H   H1658     1.0  0.59471  0.81644  0.84907  1.0000
  H   H1659     1.0  0.58327  0.76898  0.87068  1.0000
  H   H1660     1.0  0.61446  0.78469  0.89397  1.0000
  H   H1661     1.0  0.65805  0.84873  0.89527  1.0000
  H   H1662     1.0  0.66945  0.89686  0.87364  1.0000
  H   H1663     1.0  0.58675  0.62003  0.82112  1.0000
  C   C2060     1.0  0.58912  0.90740  0.86556  1.0000
  C   C2061     1.0  0.63292  0.79111  0.95990  1.0000
  C   C2062     1.0  0.75287  0.97994  0.83824  1.0000
  C   C2063     1.0  0.89223  0.77283  0.77328  1.0000
  C   C2064     1.0  0.94530  0.50236  0.96786  1.0000
  C   C2065     1.0  0.59172  0.86440  0.92910  1.0000
  C   C2066     1.0  0.57887  0.58002  0.84064  1.0000
  C   C2067     1.0  0.97673  0.51256  0.95794  1.0000
  C   C2068     1.0  0.51418  0.74852  0.89977  1.0000
  C   C2069     1.0  0.53252  0.58759  0.82855  1.0000
  C   C2070     1.0  0.72808  0.82093  0.74321  1.0000
  C   C2071     1.0  0.91350  0.73634  0.79591  1.0000
  C   C2072     1.0  0.53122  0.56919  0.95546  1.0000
  H   H1664     1.0  0.77548  0.92477  0.76951  1.0000
  H   H1665     1.0  0.94738  0.66889  0.85867  1.0000
  H   H1666     1.0  0.76517  0.82545  0.75916  1.0000
  C   C2073     1.0  0.51519  0.77990  0.87486  1.0000
  H   H1667     1.0  0.57245  0.70803  0.85556  1.0000
  C   C2074     1.0  0.90761  0.79581  0.82540  1.0000
  H   H1668     1.0  0.59245  0.88851  0.87411  1.0000
  C   C2075     1.0  0.82655  0.96432  0.77217  1.0000
  H   H1669     1.0  0.50681  0.56326  0.88392  1.0000
  H   H1670     1.0  0.56538  0.62251  0.86548  1.0000
  C   C2076     1.0  0.69149  0.96759  0.84120  1.0000
  C   C2077     1.0  0.69560  0.70443  0.93892  1.0000
  C   C2078     1.0  0.71559  0.72371  0.92492  1.0000
  C   C2079     1.0  0.69965  0.72400  0.91150  1.0000
  C   C2080     1.0  0.66379  0.70447  0.91200  1.0000
  C   C2081     1.0  0.64369  0.68399  0.92589  1.0000
  C   C2082     1.0  0.65970  0.68514  0.93948  1.0000
  P   P69       1.0  0.59721  0.66009  0.92673  1.0000
  C   C2083     1.0  0.57945  0.69264  0.93352  1.0000
  C   C2084     1.0  0.58630  0.64725  0.90750  1.0000
  C   C2085     1.0  0.55848  0.65229  0.90163  1.0000
  C   C2086     1.0  0.51602  0.81089  0.89868  1.0000
  H   H1671     1.0  0.84131  0.53450  0.95860  1.0000
  C   C2087     1.0  0.59808  0.62261  0.88318  1.0000
  C   C2088     1.0  0.60554  0.63151  0.89831  1.0000
  C   C2089     1.0  0.56343  0.68882  0.94899  1.0000
  C   C2090     1.0  0.54891  0.71363  0.95384  1.0000
  C   C2091     1.0  0.55104  0.74294  0.94347  1.0000
  C   C2092     1.0  0.56857  0.74810  0.92834  1.0000
  C   C2093     1.0  0.58269  0.72304  0.92337  1.0000
  C   C2094     1.0  0.58010  0.61715  0.93924  1.0000
  C   C2095     1.0  0.60151  0.59921  0.94323  1.0000
  C   C2096     1.0  0.58812  0.56756  0.95389  1.0000
  C   C2097     1.0  0.51424  0.92528  0.98125  1.0000
  H   H1672     1.0  0.67139  0.97821  0.84186  1.0000
  C   C2098     1.0  0.54461  0.60096  0.94492  1.0000
  H   H1673     1.0  0.70789  0.70442  0.94937  1.0000
  H   H1674     1.0  0.65179  0.70556  0.90158  1.0000
  H   H1675     1.0  0.64448  0.67099  0.95051  1.0000
  H   H1676     1.0  0.54191  0.66249  0.90871  1.0000
  C   C2099     1.0  0.98928  0.65129  0.85306  1.0000
  H   H1677     1.0  0.51763  0.83565  0.87565  1.0000
  H   H1678     1.0  0.61309  0.61076  0.87608  1.0000
  H   H1679     1.0  0.62628  0.62617  0.90285  1.0000
  H   H1680     1.0  0.56143  0.66643  0.95728  1.0000
  H   H1681     1.0  0.53499  0.70958  0.96553  1.0000
  H   H1682     1.0  0.53871  0.76132  0.94716  1.0000
  H   H1683     1.0  0.57029  0.77091  0.92034  1.0000
  H   H1684     1.0  0.59532  0.72678  0.91147  1.0000
  H   H1685     1.0  0.62850  0.60956  0.93829  1.0000
  C   C2100     1.0  0.92694  0.77664  0.77189  1.0000
  C   C2101     1.0  0.93071  0.82401  0.81432  1.0000
  H   H1686     1.0  0.52741  0.61338  0.94144  1.0000
  C   C2102     1.0  0.72457  0.71226  0.79887  1.0000
  C   C2103     1.0  0.74443  0.69160  0.79555  1.0000
  C   C2104     1.0  0.75105  0.67163  0.80770  1.0000
  C   C2105     1.0  0.73760  0.67210  0.82318  1.0000
  C   C2106     1.0  0.71688  0.69208  0.82657  1.0000
  C   C2107     1.0  0.71132  0.71297  0.81434  1.0000
  P   P70       1.0  0.70302  0.69649  0.84661  1.0000
  C   C2108     1.0  0.69538  0.65582  0.85940  1.0000
  C   C2109     1.0  0.73750  0.73688  0.85195  1.0000
  C   C2110     1.0  0.73625  0.77196  0.85014  1.0000
  C   C2111     1.0  0.76444  0.80367  0.85300  1.0000
  C   C2112     1.0  0.79418  0.80065  0.85745  1.0000
  C   C2113     1.0  0.79562  0.76584  0.85922  1.0000
  C   C2114     1.0  0.76754  0.73407  0.85635  1.0000
  C   C2115     1.0  0.68082  0.62039  0.85408  1.0000
  C   C2116     1.0  0.67292  0.58870  0.86429  1.0000
  C   C2117     1.0  0.67910  0.59218  0.87990  1.0000
  C   C2118     1.0  0.69304  0.62736  0.88534  1.0000
  C   C2119     1.0  0.70093  0.65909  0.87517  1.0000
  C   C2120     1.0  0.66208  0.70115  0.84903  1.0000
  C   C2121     1.0  0.63823  0.68787  0.83825  1.0000
  C   C2122     1.0  0.60616  0.69066  0.84059  1.0000
  C   C2123     1.0  0.59729  0.70577  0.85386  1.0000
  C   C2124     1.0  0.62034  0.71772  0.86495  1.0000
  C   C2125     1.0  0.65269  0.71558  0.86253  1.0000
  H   H1687     1.0  0.72073  0.72901  0.78951  1.0000
  H   H1688     1.0  0.75559  0.69216  0.78358  1.0000
  H   H1689     1.0  0.76739  0.65663  0.80512  1.0000
  H   H1690     1.0  0.74417  0.65774  0.83250  1.0000
  C   C2126     1.0  0.60206  0.94021  0.83972  1.0000
  H   H1691     1.0  0.86098  0.71727  0.80740  1.0000
  C   C2127     1.0  0.86842  0.75099  0.78591  1.0000
  H   H1692     1.0  0.90056  0.53635  0.95840  1.0000
  P   P71       1.0  0.94044  0.53016  0.98340  1.0000
  S   S286      1.0  0.50268  0.72467  0.80448  1.0000
  H   H1693     1.0  0.85684  0.95713  0.80661  1.0000
  C   C2128     1.0  0.57266  0.77829  0.98936  1.0000
  H   H1694     1.0  0.69767  0.63001  0.89746  1.0000
  H   H1695     1.0  0.59979  0.91263  0.96769  1.0000
  C   C2129     1.0  0.88510  0.53438  0.96950  1.0000
  H   H1696     1.0  0.74342  0.73864  0.92450  1.0000
  C   C2130     1.0  0.96334  0.52673  0.85402  1.0000
  H   H1697     1.0  0.59488  0.77098  0.98859  1.0000
  H   H1698     1.0  0.57807  0.90814  0.92018  1.0000
  C   C2131     1.0  0.51675  0.81138  0.88239  1.0000
  S   S287      1.0  0.51392  0.70944  0.87443  1.0000
  C   C2132     1.0  0.51405  0.74847  0.88357  1.0000
  C   C2133     1.0  0.95164  0.77120  0.82748  1.0000
  C   C2134     1.0  0.52821  0.93896  0.96575  1.0000
  H   H1699     1.0  0.54303  0.52115  0.92198  1.0000
  C   C2135     1.0  0.99158  0.78767  0.75217  1.0000
  H   H1700     1.0  0.81224  0.87848  0.74381  1.0000
  C   C2136     1.0  0.60510  0.86692  0.95598  1.0000
  H   H1701     1.0  0.53877  0.95618  0.86205  1.0000
  H   H1702     1.0  0.60097  0.96608  0.98817  1.0000
  C   C2137     1.0  0.87910  0.73295  0.79729  1.0000
  H   H1703     1.0  0.76528  0.93167  0.83863  1.0000
  C   C2138     1.0  0.55439  0.55140  0.85110  1.0000
  C   C2139     1.0  0.55834  0.94543  0.85886  1.0000
  H   H1704     1.0  0.56324  0.53749  0.85972  1.0000
  H   H1705     1.0  0.70840  0.77962  0.95155  1.0000
  H   H1706     1.0  0.58759  0.85027  0.91848  1.0000
  H   H1707     1.0  0.54302  0.52920  0.96882  1.0000
  C   C2140     1.0  0.97500  0.67768  0.85514  1.0000
  C   C2141     1.0  0.63574  0.88210  0.98575  1.0000
  C   C2142     1.0  0.57725  0.95467  0.84390  1.0000
  H   H1708     1.0  0.98201  0.84729  0.80118  1.0000
  H   H1709     1.0  0.99189  0.57016  0.86767  1.0000
  C   C2143     1.0  0.59874  0.89935  0.95689  1.0000
  H   H1710     1.0  0.54828  0.84964  0.98140  1.0000
  C   C2144     1.0  0.80634  0.77659  0.74627  1.0000
  C   C2145     1.0  0.51438  0.77933  0.90737  1.0000
  S   S288      1.0  0.69479  0.49997  0.98341  1.0000
  C   C2146     1.0  0.53282  0.51761  0.91083  1.0000
  H   H1711     1.0  0.51371  0.77888  0.91995  1.0000
  Fe  Fe144     1.0  0.49750  0.76090  0.82304  1.0000
  H   H1712     1.0  0.60468  0.55397  0.95725  1.0000
  H   H1713     1.0  0.95620  0.91158  0.78331  1.0000
  C   C2147     1.0  0.56425  0.92177  0.86967  1.0000
  H   H1714     1.0  0.56023  0.98740  0.95013  1.0000
  C   C2148     1.0  0.50375  0.50749  0.88255  1.0000
  C   C2149     1.0  0.54662  0.82249  0.98551  1.0000
  H   H1715     1.0  0.95703  0.73341  0.74671  1.0000
  H   H1716     1.0  0.54909  0.91391  0.88119  1.0000
  H   H1717     1.0  0.85007  0.82872  0.74658  1.0000
  H   H1718     1.0  0.66788  0.92332  0.96697  1.0000
  H   H1719     1.0  0.94661  0.50921  0.86413  1.0000
  C   C2150     1.0  0.68107  0.84261  0.96767  1.0000
  H   H1720     1.0  0.97225  0.62223  0.85511  1.0000
  C   C2151     1.0  0.97467  0.79899  0.81628  1.0000
  C   C2152     1.0  0.54908  0.97687  0.96211  1.0000
  H   H1721     1.0  0.60563  0.77713  0.95899  1.0000
  H   H1722     1.0  0.76502  0.96662  0.75017  1.0000
  H   H1723     1.0  0.97742  0.52808  0.81438  1.0000
  H   H1724     1.0  0.69598  0.97090  0.98460  1.0000
  C   C2153     1.0  0.67705  0.94390  0.98948  1.0000
  H   H1725     1.0  0.98806  0.66515  0.96726  1.0000
  H   H1726     1.0  0.73110  0.83971  0.96328  1.0000
  C   C2154     1.0  0.65548  0.77475  0.95451  1.0000
  H   H1727     1.0  0.69168  0.86884  0.97269  1.0000
  P   P72       1.0  0.61600  0.84675  0.97288  1.0000
  C   C2155     1.0  0.98351  0.75147  0.74779  1.0000
  C   C2156     1.0  0.64542  0.82522  0.96648  1.0000
  C   C2157     1.0  0.89796  0.53141  0.98368  1.0000
  C   C2158     1.0  0.54040  0.98780  0.98934  1.0000
  C   C2159     1.0  0.57556  0.81326  0.98323  1.0000
  H   H1728     1.0  0.80485  0.52898  0.98370  1.0000
  C   C2160     1.0  0.83112  0.53063  0.98369  1.0000
