data_image0
_chemical_formula_structural       FeCSFeSFe2SCH2SFeS2FeS2FeSFeHS2FeS2CSHS2C6H4C6H6CHPCHCHC6HCH3SCHCHCH3C4H4CHSC4PC10HC7HCH10CH8C3HC6H5CHC2H3PCHC6H2C11SCHCH4CH4C2HC2H3C4HCHC2HFeC5H2C5HCH3C3H3CHC3H3C2PCH2C6PC2H2C12H14CHCHCHCHC2H3CHCSCH6CHCH2C3HC3HCHC5FeC2H6C3HSC4H3CFeSFeS2FeS2FeHFeS3FeS2CHCHSFeSFeS2FeHS2CSCHC7H6C2HC6H4C6H4CH2C3PH3CP2CHC2H4CH2C7PC4HC2HC7HCH6CH6C2H2CHCHC2HC6HCHC4H5C3H2CH2C2H3C6HC2HC2HCH3C2HC9HCHC4HCSCHC3H3CH2CH2SHCHCHC4H2C3H2CHC2FeC3H4CH2CH6CH3C2H2CH4C2HSH2C2SHC2H2FeS2FeSHFeSFeCS2H3S2FeSCFeSFeS2HFeSH2SFeSHC3H3C6H2CH2C2H3C2H2CH2C6H2C6H9C3HC5HCH2C2H4CHC6PC8H10CHC2HC3PC15HC2HCH13CH3C4HCPHFeC3PC2SH3C7HC2HC2H2SHC2H5CHCHCHC4PCH2C5SH2C5SH2C2H6C2SHC2H2C2H3C3HC2H4SHCH2C9HC3HC2HC2H2C2HC2FeHC2HSPCSCHCSC3HC2HCH3CH2SC2HC2H2C2H2FeSHFeS2FeSFeS3HFeSFeS2FeCS2HSCHSHC2FeSCSHCHC7HCH2C4HC3H2C2HC6H4C6H4C2PC8HCHCH2CH6CHC10PC9HFeC7H10CH9C2HC6PC2HCHC3HSHSCH3PCH2CH2C8PC18H7CH16CH6C3H3CHCHCHC2H2C3HFeHC3H2C2HC2SH5C2HCH2C3HCSH2PHSHCHFeHCHCSC2H2FeS2FeS2FeSFeS3CHCSCFeCSFeSFeS2CFeSHC3H2C6H4C2PC2HC2HC3HC6H7CHCH2C2HC4PC11PCH6CHC2HCH3C3HCH7C7PC18H2CH8C2H7C2H2SCHCS2H3C4SHCHC3H2CHC3HCH3C2HC2H4C2HCHC2HCH3CH2CHCHSH9C2HPC3HFeS2FeS2FeCFeS3HFeSC8H4C6H4CH6C2SC2HCH2CHCH3C4HCHCHC3H2CHCH2CH2C2H2CHC2HCH3C2PHC2H2C3HC3HCSCHCHCHCHC2HC2H3C2H2C2HCH4CH2C3H2C2HCPCHC2HC4HC3H3CFeHSFeS2Fe2HS2CHFeHSFeSFeS3HCS2HC6H4CHC3H3CHCH2C6H4C3H4CHFeHCH2C4HC3H3CHC2HCPCHC3PHC3HC6HC3SHC4SH2C2HC4H4CH8CH2C2H2CH2C6PC3H2C4HC5HC2H6SCHCHCH5SHCH2C4HC4H2CSHC2H2CPC5HCH2C5HCHC2H3C5H3CH2FeSCFeSHFeS2FeCFeS3CHCH2C3H3C6H4PCH7C6HC3PC4HC9HCH2C3H5C2H3SC4PCHCPCH3C2H2C2HCHC2SH3C5HCH3C3HCHCH2C3PH5CHCHC11H3C6HCH3CH3C2HCHC4HCSC3H4CH2CHCH6C3FeSCFeS2FeSFeCS2H2SHCHC7H5C7H3C3H5CH3C4H2C5H2C2HC3HCHCHCFeH2C3HC3H3CH3C3H4SCH7C3PHCHC2HPC15H2C3HSH7CH2CH2CH2SC2FeSFeSCFeSFe2S2FeS2FeSFeS3FeSC2HCSH4C6H5CHCH2CH3C6H5SH3C2H2CH2CH2CHC3SC2H3CFeH4C6PC4H2C10HCH6C3H8C4HC4HPC6S2H2CH4CHCHC2HCH2PC2H3CHC6SC3HCH5C5PC13HC6H3C2H6CHCH2CHCHC4PC7HC9H5CHCH3C3H4C3H3CHCH6C3HSCHPHC2PH2C2H2C4H3SFeS2FeSHFeSFeS2HCHC5H4C2HC6H4CPHCH2C2HC2H2C3HCHC2HC3PH2CHC2H3CHCHC4H2CH6CHC4HCHCH2CH2C2HC4HSH2CHCHCHC4HC2HC2H4CHCH4C3HCHCHC3H2CH2CPHC4HC2HC5HC2FeS2FeCSFeCFeS2HFeS2HCSCFeSFeCSFeS3CHC8H4CHC4H3CHC6H4CPHCFeHCHCHC3PC14H3C2HCHCHC2H3CH3CH3CHCH2C3H4PHCHCSHC2HC7H2C5HC2HC4HCHC2H2CH3C2HCSH2C2H2C2H2SH2C8PC3SH2C2H2C6HCHCH3C2H10C4HCHCH3C2HCHCHC2H2C6H7CHCHSHFeHSFeSFeS2CFeS2FeSFeSFeS3FeS2FeHFeSC4H2C3HC4HCHC6H4C5H2C6H4C3H7CH2C2HCH3CH2CHCHCSPC14HC6HCH6CH3C3H2CHCHC4H2CH3FeC2H4C3PC3HCHC8H2C2H4CH8SHCH2C9PC3HC11SHCH7C2HCFeCH7C6PC4H3C6H8C4H2C2HC2SC5H4CHCHSH3FeS2FeSCFeCFeS3HSFeS2FeSFeS2HFeSFeS2HCHSCH4SFeCHC6H4C3H2C3H2CSHC2HC5HC6H4CH2CH2CHC9PH2SHCH2CFeC3HC2H2CPC3HC10H6C7H8C10PC13SCH19PCH4CH2CH2CHCHC4H2C2HCH2CHC7H2CH3C3HSC6H2CHCH2PH2C5HCH2CHSHC4H2C2SC6H2C3H7FeS2FeSFeHS2FeS2FeS2FeSFeS3CHSFeSFeCSFeS2HC6H2CHC6H4C6H4C6H5C5H3C3HC2H2C6PC3H3C13HCH4CSH11C3H2CH2CH3C5H2C2HC2H3C8HC2HCHPCHCHC2HC4HCH2C2HC2H2C3H4CHC2HC2HCHCHSPCH2CH2FeCHC2HC2HCH2C7HC2HC2HC4HCPCH3C2H2C2H2CH4C3H2CHCH2C2H2C2H2CFeH3C2HC2HCHC5HCHC3HC2H2CHCHC2H2CSHC3H2CSHCHC3HCHCFeS2FeSFeS3FeS2Fe2S3FeSCFeS2FeSFeS3CFeSCHC6H4C6H4CHC6H2CHCHC2HC3PHC2HC3HC2HC2HC2HCHCH2C3H2C7PC5HC9HPCH6CH8C2HCHCH4C2HC2HC3HCHC2H4C6H4C3H2CH8CHC2HC3PSCHC2HCH2C3H4CHCPH3C3HC4HC3H2CH4CH2CH2C2H3CH3C2H3C3HCSCH2C2HCSCHFeS2C4H2CH2PC2HCHC2
_chemical_formula_sum              "Fe144 C2160 S288 H1728 P72"
_cell_length_a       48.3504
_cell_length_b       48.1535
_cell_length_c       52.4976
_cell_angle_alpha    91.977
_cell_angle_beta     88.7869
_cell_angle_gamma    118.103

_space_group_name_H-M_alt    "P 1"
_space_group_IT_number       1

loop_
  _space_group_symop_operation_xyz
  'x, y, z'

loop_
  _atom_site_type_symbol
  _atom_site_label
  _atom_site_symmetry_multiplicity
  _atom_site_fract_x
  _atom_site_fract_y
  _atom_site_fract_z
  _atom_site_occupancy
  Fe  Fe1       1.0  0.17558  0.38753  0.20792  1.0000
  C   C1        1.0  0.33703  0.42818  0.20139  1.0000
  S   S1        1.0  0.21030  0.37857  0.18305  1.0000
  Fe  Fe2       1.0  0.10551  0.35974  0.22241  1.0000
  S   S2        1.0  0.05739  0.32337  0.20835  1.0000
  Fe  Fe3       1.0  0.14723  0.43090  0.22428  1.0000
  Fe  Fe4       1.0  0.37412  0.47571  0.11146  1.0000
  S   S3        1.0  0.13591  0.39417  0.19321  1.0000
  C   C2        1.0  0.01547  0.39824  0.21270  1.0000
  H   H1        1.0  0.39254  0.00992  0.12233  1.0000
  H   H2        1.0  0.21907  0.28756  0.00569  1.0000
  S   S4        1.0  0.38675  0.17473  0.19263  1.0000
  Fe  Fe5       1.0  0.23416  0.18309  0.04292  1.0000
  S   S5        1.0  0.27243  0.19475  0.01393  1.0000
  S   S6        1.0  0.18707  0.17885  0.03146  1.0000
  Fe  Fe6       1.0  0.27371  0.17527  0.08510  1.0000
  S   S7        1.0  0.31478  0.18752  0.05881  1.0000
  S   S8        1.0  0.27150  0.16182  0.12664  1.0000
  Fe  Fe7       1.0  0.30413  0.22544  0.04549  1.0000
  S   S9        1.0  0.33767  0.27626  0.03694  1.0000
  Fe  Fe8       1.0  0.27862  0.15532  0.03018  1.0000
  H   H3        1.0  0.42208  0.04353  0.08006  1.0000
  S   S10       1.0  0.26553  0.21551  0.07367  1.0000
  S   S11       1.0  0.23798  0.14132  0.05714  1.0000
  Fe  Fe9       1.0  0.40346  0.43269  0.11280  1.0000
  S   S12       1.0  0.37514  0.44016  0.08316  1.0000
  S   S13       1.0  0.38911  0.38274  0.12448  1.0000
  C   C3        1.0  0.30729  0.40270  0.20503  1.0000
  S   S14       1.0  0.28792  0.11926  0.00726  1.0000
  H   H4        1.0  0.99681  0.39372  0.10197  1.0000
  S   S15       1.0  0.45008  0.46863  0.09739  1.0000
  S   S16       1.0  0.40055  0.46670  0.14195  1.0000
  C   C4        1.0  0.35033  0.30516  0.06186  1.0000
  C   C5        1.0  0.34779  0.29718  0.08750  1.0000
  C   C6        1.0  0.35986  0.32107  0.10665  1.0000
  C   C7        1.0  0.37401  0.35301  0.10030  1.0000
  C   C8        1.0  0.37598  0.36085  0.07473  1.0000
  C   C9        1.0  0.36431  0.33705  0.05567  1.0000
  H   H5        1.0  0.33719  0.27267  0.09252  1.0000
  H   H6        1.0  0.35841  0.31472  0.12636  1.0000
  H   H7        1.0  0.38694  0.38531  0.06957  1.0000
  H   H8        1.0  0.36621  0.34349  0.03605  1.0000
  C   C10       1.0  0.35455  0.17183  0.17484  1.0000
  C   C11       1.0  0.32457  0.16080  0.18553  1.0000
  C   C12       1.0  0.29947  0.15801  0.17054  1.0000
  C   C13       1.0  0.30403  0.16627  0.14477  1.0000
  C   C14       1.0  0.33406  0.17761  0.13416  1.0000
  C   C15       1.0  0.35915  0.18035  0.14914  1.0000
  H   H9        1.0  0.32063  0.15410  0.20524  1.0000
  H   H10       1.0  0.27634  0.14922  0.17892  1.0000
  H   H11       1.0  0.33795  0.18410  0.11439  1.0000
  H   H12       1.0  0.38223  0.18889  0.14068  1.0000
  H   H13       1.0  0.38885  0.05972  0.04937  1.0000
  H   H14       1.0  0.21311  0.31275  0.22086  1.0000
  C   C16       1.0  0.00641  0.41208  0.19388  1.0000
  H   H15       1.0  0.14016  0.28266  0.18918  1.0000
  P   P1        1.0  0.05269  0.40295  0.13026  1.0000
  C   C17       1.0  0.11434  0.43316  0.14849  1.0000
  H   H16       1.0  0.28846  0.01659  0.19606  1.0000
  C   C18       1.0  0.03117  0.35952  0.08918  1.0000
  H   H17       1.0  0.16189  0.45835  0.16201  1.0000
  C   C19       1.0  0.24274  0.40656  0.16534  1.0000
  C   C20       1.0  0.24701  0.43689  0.16140  1.0000
  C   C21       1.0  0.27358  0.45867  0.14792  1.0000
  C   C22       1.0  0.29642  0.45061  0.13852  1.0000
  C   C23       1.0  0.29183  0.42003  0.14204  1.0000
  C   C24       1.0  0.26491  0.39803  0.15505  1.0000
  H   H18       1.0  0.22993  0.44363  0.16883  1.0000
  C   C25       1.0  0.38765  0.26936  0.22657  1.0000
  H   H19       1.0  0.30896  0.41334  0.13465  1.0000
  H   H20       1.0  0.26165  0.37451  0.15767  1.0000
  H   H21       1.0  0.26037  0.38798  0.21920  1.0000
  S   S17       1.0  0.32960  0.47922  0.12189  1.0000
  C   C26       1.0  0.43557  0.00759  0.08745  1.0000
  H   H22       1.0  0.41767  0.42206  0.99769  1.0000
  C   C27       1.0  0.34830  0.05445  0.07097  1.0000
  H   H23       1.0  0.42816  0.38699  0.03340  1.0000
  C   C28       1.0  0.26811  0.23362  0.20179  1.0000
  H   H24       1.0  0.27416  0.09321  0.11370  1.0000
  H   H25       1.0  0.99058  0.28709  0.20198  1.0000
  H   H26       1.0  0.08382  0.15940  0.05945  1.0000
  C   C29       1.0  0.43292  0.26445  0.23926  1.0000
  C   C30       1.0  0.31051  0.06611  0.12872  1.0000
  C   C31       1.0  0.20655  0.23994  0.01582  1.0000
  C   C32       1.0  0.18357  0.20833  0.01453  1.0000
  H   H27       1.0  0.34280  0.10632  0.19483  1.0000
  H   H28       1.0  0.42076  0.24996  0.99183  1.0000
  H   H29       1.0  0.22781  0.24659  0.02639  1.0000
  H   H30       1.0  0.40261  0.33467  0.21181  1.0000
  C   C33       1.0  0.28881  0.01123  0.21584  1.0000
  H   H31       1.0  0.30458  0.09085  0.05739  1.0000
  S   S18       1.0  0.18898  0.42608  0.23773  1.0000
  C   C34       1.0  0.35437  0.09977  0.15602  1.0000
  C   C35       1.0  0.28338  0.24859  0.15069  1.0000
  C   C36       1.0  0.25588  0.24771  0.16099  1.0000
  C   C37       1.0  0.24855  0.24042  0.18678  1.0000
  P   P2        1.0  0.22870  0.25154  0.13995  1.0000
  C   C38       1.0  0.20193  0.26250  0.15656  1.0000
  C   C39       1.0  0.25221  0.28127  0.11733  1.0000
  C   C40       1.0  0.27500  0.31103  0.12625  1.0000
  C   C41       1.0  0.29428  0.33388  0.10911  1.0000
  C   C42       1.0  0.29117  0.32708  0.08293  1.0000
  C   C43       1.0  0.26860  0.29756  0.07386  1.0000
  C   C44       1.0  0.24910  0.27474  0.09096  1.0000
  C   C45       1.0  0.20188  0.29104  0.15176  1.0000
  C   C46       1.0  0.17944  0.29798  0.16329  1.0000
  C   C47       1.0  0.07521  0.17308  0.04947  1.0000
  H   H32       1.0  0.08822  0.47046  0.12054  1.0000
  C   C48       1.0  0.32274  0.08368  0.05599  1.0000
  C   C49       1.0  0.20485  0.21386  0.12415  1.0000
  C   C50       1.0  0.17653  0.20774  0.11256  1.0000
  C   C51       1.0  0.15917  0.17955  0.09875  1.0000
  C   C52       1.0  0.16946  0.15688  0.09703  1.0000
  C   C53       1.0  0.19676  0.16212  0.10954  1.0000
  C   C54       1.0  0.21439  0.19047  0.12302  1.0000
  H   H33       1.0  0.02635  0.48568  0.07278  1.0000
  C   C55       1.0  0.34285  0.08545  0.13220  1.0000
  H   H34       1.0  0.28923  0.25324  0.13069  1.0000
  H   H35       1.0  0.08666  0.45609  0.22161  1.0000
  H   H36       1.0  0.27801  0.31652  0.14647  1.0000
  H   H37       1.0  0.31229  0.35663  0.11606  1.0000
  H   H38       1.0  0.30685  0.34444  0.06972  1.0000
  H   H39       1.0  0.26682  0.29207  0.05357  1.0000
  H   H40       1.0  0.23210  0.25191  0.08345  1.0000
  H   H41       1.0  0.21864  0.30790  0.13888  1.0000
  H   H42       1.0  0.17930  0.31982  0.15928  1.0000
  H   H43       1.0  0.17731  0.21813  0.17572  1.0000
  C   C56       1.0  0.01556  0.32932  0.07797  1.0000
  H   H44       1.0  0.35440  0.21071  0.99983  1.0000
  H   H45       1.0  0.16789  0.22472  0.11406  1.0000
  H   H46       1.0  0.13802  0.17540  0.08898  1.0000
  H   H47       1.0  0.15650  0.13541  0.08576  1.0000
  H   H48       1.0  0.20478  0.14454  0.10837  1.0000
  H   H49       1.0  0.23572  0.19407  0.13206  1.0000
  H   H50       1.0  0.19870  0.01995  0.04972  1.0000
  H   H51       1.0  0.01994  0.33893  0.15160  1.0000
  C   C57       1.0  0.05970  0.48107  0.09621  1.0000
  C   C58       1.0  0.26124  0.05087  0.09011  1.0000
  C   C59       1.0  0.23987  0.03055  0.07180  1.0000
  H   H52       1.0  0.18696  0.34418  0.00745  1.0000
  C   C60       1.0  0.21057  0.05977  0.07524  1.0000
  C   C61       1.0  0.23173  0.08009  0.09344  1.0000
  C   C62       1.0  0.00839  0.43831  0.08597  1.0000
  C   C63       1.0  0.07287  0.48305  0.19751  1.0000
  C   C64       1.0  0.28964  0.43774  0.22503  1.0000
  C   C65       1.0  0.20152  0.26309  0.00407  1.0000
  H   H53       1.0  0.32328  0.24128  0.15731  1.0000
  H   H54       1.0  0.40733  0.24420  0.20455  1.0000
  H   H55       1.0  0.35523  0.99376  0.15830  1.0000
  H   H56       1.0  0.19129  0.06352  0.06925  1.0000
  H   H57       1.0  0.22884  0.09950  0.10173  1.0000
  C   C66       1.0  0.25731  0.07611  0.10049  1.0000
  H   H58       1.0  0.02147  0.30888  0.99820  1.0000
  C   C67       1.0  0.32382  0.30805  0.21813  1.0000
  C   C68       1.0  0.06193  0.18941  0.06305  1.0000
  H   H59       1.0  0.30233  0.37940  0.19808  1.0000
  H   H60       1.0  0.36934  0.26410  0.21281  1.0000
  H   H61       1.0  0.39730  0.27197  0.02393  1.0000
  P   P3        1.0  0.03060  0.22524  0.06768  1.0000
  C   C69       1.0  0.02685  0.25284  0.04734  1.0000
  H   H62       1.0  0.27882  0.00293  0.14155  1.0000
  C   C70       1.0  0.40891  0.28509  0.00710  1.0000
  C   C71       1.0  0.41080  0.31460  0.00370  1.0000
  C   C72       1.0  0.33380  0.09491  0.17648  1.0000
  C   C73       1.0  0.46882  0.06382  0.09479  1.0000
  C   C74       1.0  0.05406  0.27909  0.03892  1.0000
  C   C75       1.0  0.05203  0.29949  0.02158  1.0000
  H   H63       1.0  0.46959  0.41777  0.06442  1.0000
  H   H64       1.0  0.13911  0.23165  0.19720  1.0000
  C   C76       1.0  0.36065  0.01166  0.22453  1.0000
  C   C77       1.0  0.05280  0.24761  0.09533  1.0000
  C   C78       1.0  0.08461  0.25567  0.09788  1.0000
  C   C79       1.0  0.10113  0.27177  0.11981  1.0000
  C   C80       1.0  0.08611  0.28018  0.13928  1.0000
  C   C81       1.0  0.05492  0.27357  0.13642  1.0000
  C   C82       1.0  0.03848  0.25776  0.11436  1.0000
  C   C83       1.0  0.37894  0.32977  0.20732  1.0000
  C   C84       1.0  0.30279  0.24171  0.16572  1.0000
  C   C85       1.0  0.04399  0.42896  0.11205  1.0000
  C   C86       1.0  0.06607  0.46092  0.11059  1.0000
  S   S19       1.0  0.14398  0.34926  0.23450  1.0000
  C   C87       1.0  0.35420  0.31401  0.22461  1.0000
  H   H65       1.0  0.28657  0.38440  0.05319  1.0000
  C   C88       1.0  0.15717  0.27687  0.17997  1.0000
  H   H66       1.0  0.07691  0.28308  0.04501  1.0000
  H   H67       1.0  0.31748  0.37640  0.00458  1.0000
  H   H68       1.0  0.35926  0.08989  0.11664  1.0000
  H   H69       1.0  0.18546  0.45396  0.12079  1.0000
  C   C89       1.0  0.05185  0.20720  0.02334  1.0000
  H   H70       1.0  0.09676  0.24956  0.08305  1.0000
  H   H71       1.0  0.12561  0.27780  0.12170  1.0000
  H   H72       1.0  0.09879  0.29252  0.15638  1.0000
  H   H73       1.0  0.04358  0.28072  0.15142  1.0000
  C   C90       1.0  0.02284  0.29370  0.01241  1.0000
  C   C91       1.0  0.00261  0.30683  0.11976  1.0000
  H   H74       1.0  0.27668  0.48212  0.14505  1.0000
  C   C92       1.0  0.37036  0.06635  0.05124  1.0000
  C   C93       1.0  0.34478  0.09543  0.03625  1.0000
  H   H75       1.0  0.01432  0.25271  0.11242  1.0000
  H   H76       1.0  0.98601  0.42989  0.07656  1.0000
  H   H77       1.0  0.01421  0.32641  0.05739  1.0000
  C   C94       1.0  0.99749  0.24766  0.03854  1.0000
  C   C95       1.0  0.15607  0.20007  0.00072  1.0000
  C   C96       1.0  0.27772  0.99027  0.12390  1.0000
  C   C97       1.0  0.46021  0.39450  0.00166  1.0000
  H   H78       1.0  0.04197  0.21922  0.01262  1.0000
  C   C98       1.0  0.29505  0.23399  0.19120  1.0000
  H   H79       1.0  0.30969  0.22780  0.20256  1.0000
  C   C99       1.0  0.22688  0.32502  0.23753  1.0000
  C   C100      1.0  0.31837  0.31770  0.19475  1.0000
  H   H80       1.0  0.21965  0.09226  0.00844  1.0000
  Fe  Fe10      1.0  0.38370  0.15963  0.23375  1.0000
  C   C101      1.0  0.21473  0.03513  0.06431  1.0000
  C   C102      1.0  0.09468  0.41750  0.12776  1.0000
  C   C103      1.0  0.03941  0.40263  0.16285  1.0000
  C   C104      1.0  0.04859  0.38902  0.18200  1.0000
  C   C105      1.0  0.03669  0.38690  0.20679  1.0000
  H   H81       1.0  0.30421  0.29555  0.23077  1.0000
  H   H82       1.0  0.30395  0.43632  0.07520  1.0000
  C   C106      1.0  0.01855  0.41460  0.16913  1.0000
  C   C107      1.0  0.10836  0.41599  0.10418  1.0000
  C   C108      1.0  0.14094  0.42889  0.10171  1.0000
  C   C109      1.0  0.16020  0.44378  0.12264  1.0000
  C   C110      1.0  0.03308  0.36365  0.11587  1.0000
  H   H83       1.0  0.08623  0.16043  0.01230  1.0000
  C   C111      1.0  0.03100  0.46980  0.08384  1.0000
  H   H84       1.0  0.27090  0.44086  0.23405  1.0000
  H   H85       1.0  0.06473  0.37970  0.17778  1.0000
  H   H86       1.0  0.04396  0.37641  0.22145  1.0000
  C   C112      1.0  0.09415  0.47368  0.20714  1.0000
  C   C113      1.0  0.30159  0.07625  0.17307  1.0000
  C   C114      1.0  0.01471  0.41793  0.10022  1.0000
  H   H87       1.0  0.09409  0.40536  0.08754  1.0000
  H   H88       1.0  0.15134  0.42776  0.08351  1.0000
  H   H89       1.0  0.26489  0.04739  0.14708  1.0000
  C   C115      1.0  0.40641  0.00615  0.03133  1.0000
  H   H90       1.0  0.36637  0.47794  0.20673  1.0000
  C   C116      1.0  0.37340  0.33956  0.18409  1.0000
  C   C117      1.0  0.34315  0.33358  0.17782  1.0000
  C   C118      1.0  0.28996  0.06188  0.14933  1.0000
  H   H91       1.0  0.39258  0.35175  0.17080  1.0000
  H   H92       1.0  0.33904  0.34113  0.15970  1.0000
  H   H93       1.0  0.29488  0.31245  0.18951  1.0000
  C   C119      1.0  0.07663  0.17366  0.02288  1.0000
  C   C120      1.0  0.45239  0.39769  0.02714  1.0000
  P   P4        1.0  0.29504  0.04645  0.09834  1.0000
  C   C121      1.0  0.15673  0.24827  0.18457  1.0000
  H   H94       1.0  0.37924  0.11529  0.15864  1.0000
  H   H95       1.0  0.23023  0.34903  0.04573  1.0000
  C   C122      1.0  0.14665  0.36453  0.13270  1.0000
  C   C123      1.0  0.11459  0.35448  0.13016  1.0000
  C   C124      1.0  0.10041  0.34412  0.10635  1.0000
  C   C125      1.0  0.11842  0.34463  0.08501  1.0000
  C   C126      1.0  0.15094  0.35625  0.08723  1.0000
  C   C127      1.0  0.16471  0.36513  0.11144  1.0000
  P   P5        1.0  0.17358  0.35416  0.06020  1.0000
  C   C128      1.0  0.16609  0.31381  0.05911  1.0000
  C   C129      1.0  0.16264  0.36410  0.03053  1.0000
  H   H96       1.0  0.44945  0.25556  0.23542  1.0000
  H   H97       1.0  0.13850  0.17563  0.99929  1.0000
  C   C130      1.0  0.14459  0.37994  0.02994  1.0000
  C   C131      1.0  0.18146  0.30400  0.07617  1.0000
  C   C132      1.0  0.17592  0.27280  0.07542  1.0000
  C   C133      1.0  0.15436  0.25093  0.05823  1.0000
  C   C134      1.0  0.13812  0.26033  0.04185  1.0000
  C   C135      1.0  0.14394  0.29164  0.04221  1.0000
  C   C136      1.0  0.21498  0.38053  0.06424  1.0000
  C   C137      1.0  0.22516  0.41050  0.07575  1.0000
  C   C138      1.0  0.25715  0.43042  0.07972  1.0000
  C   C139      1.0  0.27919  0.42085  0.07183  1.0000
  C   C140      1.0  0.26934  0.39152  0.05956  1.0000
  C   C141      1.0  0.23737  0.37150  0.05556  1.0000
  H   H98       1.0  0.15771  0.37169  0.15118  1.0000
  H   H99       1.0  0.10061  0.35403  0.14674  1.0000
  H   H100      1.0  0.07538  0.33524  0.10454  1.0000
  H   H101      1.0  0.10692  0.33572  0.06687  1.0000
  H   H102      1.0  0.18932  0.37222  0.11418  1.0000
  H   H103      1.0  0.26207  0.22737  0.22152  1.0000
  H   H104      1.0  0.13782  0.38787  0.04732  1.0000
  H   H105      1.0  0.19822  0.32061  0.08970  1.0000
  H   H106      1.0  0.18894  0.26589  0.08779  1.0000
  H   H107      1.0  0.15077  0.22692  0.05707  1.0000
  H   H108      1.0  0.12191  0.24366  0.02810  1.0000
  H   H109      1.0  0.13161  0.29843  0.02885  1.0000
  H   H110      1.0  0.20846  0.41840  0.08194  1.0000
  H   H111      1.0  0.26503  0.45330  0.08913  1.0000
  C   C142      1.0  0.39587  0.01480  0.00990  1.0000
  H   H112      1.0  0.34328  0.11133  0.02285  1.0000
  C   C143      1.0  0.40921  0.25816  0.22175  1.0000
  H   H113      1.0  0.99810  0.19786  0.11671  1.0000
  C   C144      1.0  0.14691  0.44613  0.14591  1.0000
  H   H114      1.0  0.22758  0.23931  0.19532  1.0000
  C   C145      1.0  0.99512  0.29137  0.22219  1.0000
  H   H115      1.0  0.10481  0.43602  0.16658  1.0000
  C   C146      1.0  0.05070  0.20712  0.05012  1.0000
  C   C147      1.0  0.17870  0.24090  0.17265  1.0000
  H   H116      1.0  0.43129  0.01381  0.03317  1.0000
  H   H117      1.0  0.04136  0.37965  0.07696  1.0000
  H   H118      1.0  0.38567  0.09603  0.01858  1.0000
  C   C148      1.0  0.12537  0.48799  0.19877  1.0000
  H   H119      1.0  0.07314  0.31906  0.01428  1.0000
  C   C149      1.0  0.36856  0.08678  0.03385  1.0000
  S   S20       1.0  0.15383  0.47897  0.21206  1.0000
  C   C150      1.0  0.28431  0.00509  0.10028  1.0000
  H   H120      1.0  0.31216  0.06015  0.22865  1.0000
  H   H121      1.0  0.34996  0.03859  0.08429  1.0000
  H   H122      1.0  0.47250  0.08778  0.09410  1.0000
  H   H123      1.0  0.28565  0.07307  0.18886  1.0000
  H   H124      1.0  0.05993  0.18782  0.08360  1.0000
  H   H125      1.0  0.40114  0.32409  0.01823  1.0000
  C   C151      1.0  0.99299  0.19245  0.07549  1.0000
  H   H126      1.0  0.35319  0.02600  0.21416  1.0000
  C   C152      1.0  0.32425  0.06296  0.07345  1.0000
  H   H127      1.0  0.28701  0.99800  0.05948  1.0000
  H   H128      1.0  0.04923  0.47278  0.20487  1.0000
  C   C153      1.0  0.28369  0.40750  0.21693  1.0000
  C   C154      1.0  0.44034  0.03869  0.08676  1.0000
  C   C155      1.0  0.25796  0.33084  0.23947  1.0000
  H   H129      1.0  0.01163  0.42606  0.15509  1.0000
  C   C156      1.0  0.06502  0.19073  0.00985  1.0000
  C   C157      1.0  0.17247  0.35583  0.00750  1.0000
  C   C158      1.0  0.01894  0.33691  0.13103  1.0000
  H   H130      1.0  0.26810  0.32267  0.22441  1.0000
  C   C159      1.0  0.45960  0.00205  0.09651  1.0000
  H   H131      1.0  0.98825  0.27965  0.08454  1.0000
  C   C160      1.0  0.99558  0.26797  0.02105  1.0000
  C   C161      1.0  0.22557  0.07482  0.00020  1.0000
  C   C162      1.0  0.47589  0.41485  0.04493  1.0000
  C   C163      1.0  0.02615  0.30882  0.23078  1.0000
  C   C164      1.0  0.30234  0.03592  0.23424  1.0000
  Fe  Fe11      1.0  0.42175  0.47864  0.06929  1.0000
  C   C165      1.0  0.25702  0.08168  0.99809  1.0000
  C   C166      1.0  0.36386  0.00468  0.00680  1.0000
  H   H132      1.0  0.36923  0.42433  0.00909  1.0000
  H   H133      1.0  0.41261  0.02895  0.99549  1.0000
  H   H134      1.0  0.24294  0.01166  0.06285  1.0000
  H   H135      1.0  0.35520  0.42460  0.19172  1.0000
  H   H136      1.0  0.00637  0.39661  0.23196  1.0000
  H   H137      1.0  0.00759  0.46778  0.23734  1.0000
  C   C167      1.0  0.36783  0.40223  0.00208  1.0000
  C   C168      1.0  0.39537  0.40083  0.99575  1.0000
  C   C169      1.0  0.13495  0.38561  0.00659  1.0000
  H   H138      1.0  0.12039  0.39715  0.00602  1.0000
  S   S21       1.0  0.43219  0.48381  0.02621  1.0000
  C   C170      1.0  0.33877  0.37528  0.99951  1.0000
  C   C171      1.0  0.00103  0.30299  0.09324  1.0000
  C   C172      1.0  0.34315  0.45845  0.20964  1.0000
  C   C173      1.0  0.31933  0.46351  0.22114  1.0000
  H   H139      1.0  0.27627  0.48471  0.19718  1.0000
  H   H140      1.0  0.99101  0.28652  0.13173  1.0000
  H   H141      1.0  0.99058  0.42160  0.19861  1.0000
  C   C174      1.0  0.41304  0.29242  0.26688  1.0000
  Fe  Fe12      1.0  0.15509  0.38831  0.26369  1.0000
  S   S22       1.0  0.17037  0.38814  0.30489  1.0000
  Fe  Fe13      1.0  0.18040  0.27588  0.41358  1.0000
  S   S23       1.0  0.19186  0.31435  0.44349  1.0000
  S   S24       1.0  0.16628  0.27729  0.37222  1.0000
  Fe  Fe14      1.0  0.19100  0.23346  0.45129  1.0000
  S   S25       1.0  0.20248  0.26940  0.48295  1.0000
  S   S26       1.0  0.18770  0.18611  0.46123  1.0000
  Fe  Fe15      1.0  0.16144  0.27497  0.46992  1.0000
  H   H142      1.0  0.29981  0.35137  0.26213  1.0000
  Fe  Fe16      1.0  0.23152  0.30454  0.45359  1.0000
  S   S27       1.0  0.28161  0.33932  0.46480  1.0000
  S   S28       1.0  0.14797  0.23696  0.43954  1.0000
  S   S29       1.0  0.22196  0.26820  0.42235  1.0000
  Fe  Fe17      1.0  0.43603  0.41394  0.38588  1.0000
  S   S30       1.0  0.44655  0.38555  0.41329  1.0000
  S   S31       1.0  0.38569  0.40321  0.37854  1.0000
  C   C175      1.0  0.34677  0.41764  0.32225  1.0000
  H   H143      1.0  0.46017  0.02124  0.27305  1.0000
  C   C176      1.0  0.22336  0.04758  0.46286  1.0000
  H   H144      1.0  0.23423  0.33146  0.33926  1.0000
  S   S32       1.0  0.46363  0.40694  0.35355  1.0000
  Fe  Fe18      1.0  0.35274  0.10932  0.27321  1.0000
  S   S33       1.0  0.31789  0.05932  0.28385  1.0000
  Fe  Fe19      1.0  0.37770  0.17952  0.28844  1.0000
  S   S34       1.0  0.47631  0.46080  0.39772  1.0000
  S   S35       1.0  0.36947  0.21636  0.31095  1.0000
  Fe  Fe20      1.0  0.42297  0.15278  0.27653  1.0000
  H   H145      1.0  0.40309  0.01128  0.34845  1.0000
  S   S36       1.0  0.34212  0.14718  0.25957  1.0000
  S   S37       1.0  0.38390  0.14033  0.30486  1.0000
  C   C177      1.0  0.30263  0.02914  0.25991  1.0000
  S   S38       1.0  0.11449  0.39688  0.25302  1.0000
  C   C178      1.0  0.47952  0.37257  0.30066  1.0000
  H   H146      1.0  0.38820  0.35226  0.34071  1.0000
  C   C179      1.0  0.38933  0.35601  0.32036  1.0000
  C   C180      1.0  0.44776  0.30365  0.35164  1.0000
  C   C181      1.0  0.41714  0.29952  0.35068  1.0000
  C   C182      1.0  0.39340  0.27257  0.33833  1.0000
  C   C183      1.0  0.40014  0.24990  0.32624  1.0000
  C   C184      1.0  0.43087  0.25433  0.32679  1.0000
  C   C185      1.0  0.45444  0.28089  0.33963  1.0000
  H   H147      1.0  0.41159  0.31665  0.36008  1.0000
  H   H148      1.0  0.36961  0.26906  0.33837  1.0000
  H   H149      1.0  0.43644  0.23717  0.31751  1.0000
  H   H150      1.0  0.18423  0.13576  0.49109  1.0000
  H   H151      1.0  0.32497  0.31057  0.34638  1.0000
  H   H152      1.0  0.27970  0.39030  0.36301  1.0000
  C   C186      1.0  0.01947  0.45165  0.44019  1.0000
  C   C187      1.0  0.30705  0.02100  0.42139  1.0000
  H   H153      1.0  0.25804  0.41688  0.29130  1.0000
  C   C188      1.0  0.31030  0.35617  0.44051  1.0000
  C   C189      1.0  0.30183  0.35617  0.41519  1.0000
  C   C190      1.0  0.32514  0.37089  0.39650  1.0000
  C   C191      1.0  0.35710  0.38489  0.40269  1.0000
  C   C192      1.0  0.36559  0.38458  0.42798  1.0000
  C   C193      1.0  0.34228  0.37063  0.44685  1.0000
  H   H154      1.0  0.27730  0.34530  0.41008  1.0000
  H   H155      1.0  0.31833  0.37132  0.37716  1.0000
  H   H156      1.0  0.39011  0.39554  0.43308  1.0000
  H   H157      1.0  0.34912  0.37097  0.46636  1.0000
  C   C194      1.0  0.16830  0.35673  0.32343  1.0000
  C   C195      1.0  0.17889  0.36308  0.34883  1.0000
  C   C196      1.0  0.17852  0.33924  0.36405  1.0000
  C   C197      1.0  0.16734  0.30851  0.35408  1.0000
  C   C198      1.0  0.15675  0.30216  0.32868  1.0000
  C   C199      1.0  0.15711  0.32600  0.31348  1.0000
  H   H158      1.0  0.18734  0.38662  0.35683  1.0000
  H   H159      1.0  0.18684  0.34460  0.38347  1.0000
  H   H160      1.0  0.14804  0.27852  0.32072  1.0000
  H   H161      1.0  0.14873  0.32059  0.29408  1.0000
  C   C200      1.0  0.14954  0.00408  0.40379  1.0000
  H   H162      1.0  0.37286  0.45181  0.25497  1.0000
  H   H163      1.0  0.05555  0.32731  0.26386  1.0000
  C   C201      1.0  0.24947  0.19926  0.46995  1.0000
  C   C202      1.0  0.21756  0.17916  0.47418  1.0000
  C   C203      1.0  0.30758  0.33941  0.32931  1.0000
  P   P6        1.0  0.36210  0.30194  0.25470  1.0000
  H   H164      1.0  0.25652  0.22039  0.45927  1.0000
  H   H165      1.0  0.32926  0.35324  0.31918  1.0000
  H   H166      1.0  0.47156  0.41179  0.29262  1.0000
  C   C204      1.0  0.40303  0.38666  0.31149  1.0000
  P   P7        1.0  0.33305  0.99147  0.38938  1.0000
  P   P8        1.0  0.28509  0.37755  0.30847  1.0000
  C   C205      1.0  0.27069  0.40298  0.35216  1.0000
  H   H167      1.0  0.45513  0.35685  0.30495  1.0000
  C   C206      1.0  0.20884  0.15160  0.48788  1.0000
  C   C207      1.0  0.39488  0.08861  0.35424  1.0000
  H   H168      1.0  0.08476  0.21856  0.47662  1.0000
  H   H169      1.0  0.41224  0.40645  0.32499  1.0000
  H   H170      1.0  0.18948  0.99962  0.45464  1.0000
  H   H171      1.0  0.36718  0.07180  0.44800  1.0000
  C   C208      1.0  0.24785  0.43682  0.32503  1.0000
  H   H172      1.0  0.47801  0.28382  0.34030  1.0000
  H   H173      1.0  0.41052  0.01834  0.27152  1.0000
  C   C209      1.0  0.33472  0.41878  0.27787  1.0000
  C   C210      1.0  0.24856  0.43883  0.35164  1.0000
  C   C211      1.0  0.43461  0.28124  0.26195  1.0000
  C   C212      1.0  0.29802  0.10688  0.33542  1.0000
  C   C213      1.0  0.33453  0.15551  0.35673  1.0000
  C   C214      1.0  0.33983  0.13857  0.37558  1.0000
  C   C215      1.0  0.32337  0.10549  0.37434  1.0000
  P   P9        1.0  0.36971  0.15946  0.39942  1.0000
  C   C216      1.0  0.36169  0.13566  0.42744  1.0000
  C   C217      1.0  0.40729  0.16766  0.38540  1.0000
  C   C218      1.0  0.42970  0.16356  0.39917  1.0000
  C   C219      1.0  0.34513  0.12495  0.47172  1.0000
  H   H174      1.0  0.99900  0.46948  0.38393  1.0000
  C   C220      1.0  0.41479  0.17921  0.36063  1.0000
  C   C221      1.0  0.35043  0.14315  0.45016  1.0000
  H   H175      1.0  0.11314  0.01785  0.40735  1.0000
  C   C222      1.0  0.36732  0.10950  0.42677  1.0000
  C   C223      1.0  0.36909  0.19619  0.40671  1.0000
  C   C224      1.0  0.34059  0.19600  0.41296  1.0000
  C   C225      1.0  0.33949  0.22433  0.41708  1.0000
  C   C226      1.0  0.36673  0.25307  0.41461  1.0000
  C   C227      1.0  0.39515  0.25350  0.40827  1.0000
  C   C228      1.0  0.39641  0.22523  0.40443  1.0000
  H   H176      1.0  0.44708  0.00428  0.36448  1.0000
  C   C229      1.0  0.37749  0.44106  0.31809  1.0000
  H   H177      1.0  0.23023  0.28853  0.36583  1.0000
  H   H178      1.0  0.34695  0.18103  0.35707  1.0000
  H   H179      1.0  0.32687  0.09165  0.38837  1.0000
  H   H180      1.0  0.42560  0.15663  0.41883  1.0000
  H   H181      1.0  0.39882  0.18428  0.35002  1.0000
  H   H182      1.0  0.34597  0.16315  0.45165  1.0000
  C   C230      1.0  0.03176  0.31401  0.25699  1.0000
  H   H183      1.0  0.37605  0.10321  0.40954  1.0000
  H   H184      1.0  0.31914  0.17394  0.41445  1.0000
  H   H185      1.0  0.31742  0.22399  0.42194  1.0000
  H   H186      1.0  0.24658  0.01827  0.29999  1.0000
  H   H187      1.0  0.41621  0.27582  0.40597  1.0000
  H   H188      1.0  0.41868  0.22633  0.39928  1.0000
  C   C231      1.0  0.38870  0.04827  0.38356  1.0000
  C   C232      1.0  0.34457  0.04201  0.35845  1.0000
  H   H189      1.0  0.27506  0.00588  0.48106  1.0000
  H   H190      1.0  0.01127  0.30493  0.29470  1.0000
  C   C233      1.0  0.25031  0.00028  0.33605  1.0000
  H   H191      1.0  0.45222  0.28511  0.27602  1.0000
  C   C234      1.0  0.23696  0.01224  0.31910  1.0000
  H   H192      1.0  0.03152  0.24452  0.46221  1.0000
  C   C235      1.0  0.09688  0.36821  0.44977  1.0000
  C   C236      1.0  0.25871  0.41805  0.31193  1.0000
  H   H193      1.0  0.41450  0.30484  0.28476  1.0000
  C   C237      1.0  0.21903  0.02096  0.42177  1.0000
  C   C238      1.0  0.24785  0.07523  0.45346  1.0000
  C   C239      1.0  0.36561  0.44200  0.27369  1.0000
  C   C240      1.0  0.29492  0.21891  0.28357  1.0000
  C   C241      1.0  0.45805  0.16875  0.38764  1.0000
  C   C242      1.0  0.39269  0.00691  0.25717  1.0000
  H   H194      1.0  0.25868  0.09626  0.46567  1.0000
  C   C243      1.0  0.20895  0.02059  0.44712  1.0000
  H   H195      1.0  0.44862  0.19295  0.32993  1.0000
  C   C244      1.0  0.35117  0.09928  0.47093  1.0000
  C   C245      1.0  0.25810  0.07585  0.42828  1.0000
  C   C246      1.0  0.24377  0.04884  0.41246  1.0000
  C   C247      1.0  0.23120  0.35129  0.27854  1.0000
  H   H196      1.0  0.39926  0.04005  0.39734  1.0000
  H   H197      1.0  0.43357  0.09642  0.30186  1.0000
  H   H198      1.0  0.23800  0.44906  0.31453  1.0000
  H   H199      1.0  0.21997  0.35796  0.29384  1.0000
  H   H200      1.0  0.20089  0.02560  0.31357  1.0000
  C   C248      1.0  0.11849  0.99835  0.40670  1.0000
  C   C249      1.0  0.02857  0.25975  0.47640  1.0000
  C   C250      1.0  0.05037  0.29170  0.47788  1.0000
  H   H201      1.0  0.23959  0.45294  0.36173  1.0000
  H   H202      1.0  0.26048  0.42338  0.38584  1.0000
  C   C251      1.0  0.31384  0.13974  0.33673  1.0000
  H   H203      1.0  0.29042  0.06433  0.35311  1.0000
  H   H204      1.0  0.30866  0.30472  0.27935  1.0000
  C   C252      1.0  0.25427  0.32720  0.34063  1.0000
  C   C253      1.0  0.42119  0.48707  0.49061  1.0000
  H   H205      1.0  0.16795  0.02816  0.40232  1.0000
  H   H206      1.0  0.27687  0.09744  0.42101  1.0000
  H   H207      1.0  0.25160  0.05012  0.39289  1.0000
  C   C254      1.0  0.29344  0.02475  0.44419  1.0000
  C   C255      1.0  0.44324  0.18459  0.34924  1.0000
  C   C256      1.0  0.00876  0.21614  0.36273  1.0000
  C   C257      1.0  0.03179  0.21858  0.37965  1.0000
  C   C258      1.0  0.02507  0.21466  0.40570  1.0000
  C   C259      1.0  0.99551  0.20888  0.41488  1.0000
  H   H208      1.0  0.41922  0.45038  0.46483  1.0000
  C   C260      1.0  0.19877  0.00845  0.35138  1.0000
  C   C261      1.0  0.30251  0.08978  0.35437  1.0000
  H   H209      1.0  0.33665  0.13099  0.48923  1.0000
  C   C262      1.0  0.40506  0.39179  0.28535  1.0000
  C   C263      1.0  0.13220  0.36010  0.47691  1.0000
  H   H210      1.0  0.32031  0.02883  0.35271  1.0000
  C   C264      1.0  0.28521  0.00267  0.46326  1.0000
  H   H211      1.0  0.05478  0.22321  0.37255  1.0000
  H   H212      1.0  0.04279  0.21598  0.41874  1.0000
  H   H213      1.0  0.99047  0.20548  0.43508  1.0000
  C   C265      1.0  0.45666  0.10493  0.30991  1.0000
  C   C266      1.0  0.98685  0.48445  0.26710  1.0000
  H   H214      1.0  0.31074  0.15317  0.32191  1.0000
  C   C267      1.0  0.41782  0.45716  0.48455  1.0000
  C   C268      1.0  0.26284  0.35848  0.28012  1.0000
  C   C269      1.0  0.00662  0.30126  0.27446  1.0000
  C   C270      1.0  0.25187  0.30276  0.35566  1.0000
  C   C271      1.0  0.38700  0.45310  0.29378  1.0000
  C   C272      1.0  0.37702  0.33040  0.30308  1.0000
  C   C273      1.0  0.37830  0.33531  0.27676  1.0000
  C   C274      1.0  0.39281  0.36626  0.26799  1.0000
  C   C275      1.0  0.31298  0.99525  0.41773  1.0000
  H   H215      1.0  0.39288  0.05040  0.24814  1.0000
  C   C276      1.0  0.32663  0.27225  0.26905  1.0000
  H   H216      1.0  0.47503  0.16506  0.39816  1.0000
  C   C277      1.0  0.48364  0.04023  0.27573  1.0000
  C   C278      1.0  0.27316  0.22742  0.29424  1.0000
  C   C279      1.0  0.27807  0.25831  0.29244  1.0000
  C   C280      1.0  0.30478  0.28069  0.28003  1.0000
  H   H217      1.0  0.03912  0.45996  0.45313  1.0000
  C   C281      1.0  0.26008  0.42201  0.36519  1.0000
  S   S39       1.0  0.41856  0.19390  0.26191  1.0000
  C   C282      1.0  0.35714  0.03007  0.37636  1.0000
  H   H218      1.0  0.34738  0.08548  0.48783  1.0000
  C   C283      1.0  0.32526  0.40596  0.30209  1.0000
  C   C284      1.0  0.30515  0.31504  0.34452  1.0000
  C   C285      1.0  0.21200  0.99628  0.36848  1.0000
  H   H219      1.0  0.36651  0.30676  0.31025  1.0000
  H   H220      1.0  0.41633  0.41560  0.27852  1.0000
  H   H221      1.0  0.28959  0.99216  0.28672  1.0000
  C   C286      1.0  0.02211  0.46795  0.41802  1.0000
  H   H222      1.0  0.25275  0.21020  0.30427  1.0000
  H   H223      1.0  0.26147  0.26506  0.30114  1.0000
  C   C287      1.0  0.27224  0.19141  0.47879  1.0000
  H   H224      1.0  0.35384  0.07950  0.33285  1.0000
  H   H225      1.0  0.39390  0.44969  0.33384  1.0000
  S   S40       1.0  0.47164  0.16261  0.28910  1.0000
  H   H226      1.0  0.28270  0.09465  0.31948  1.0000
  C   C288      1.0  0.28962  0.99756  0.26694  1.0000
  H   H227      1.0  0.40959  0.11093  0.34537  1.0000
  C   C289      1.0  0.27736  0.29685  0.35782  1.0000
  H   H228      1.0  0.01389  0.21876  0.34247  1.0000
  C   C290      1.0  0.40747  0.07731  0.37242  1.0000
  C   C291      1.0  0.11719  0.37293  0.42907  1.0000
  C   C292      1.0  0.14490  0.37111  0.43224  1.0000
  C   C293      1.0  0.38971  0.28702  0.24900  1.0000
  H   H229      1.0  0.07517  0.36900  0.44679  1.0000
  H   H230      1.0  0.33982  0.40881  0.34131  1.0000
  C   C294      1.0  0.21126  0.01639  0.32678  1.0000
  C   C295      1.0  0.36348  0.07093  0.34725  1.0000
  C   C296      1.0  0.28236  0.34609  0.32775  1.0000
  H   H231      1.0  0.11124  0.37750  0.41042  1.0000
  H   H232      1.0  0.16032  0.37413  0.41607  1.0000
  C   C297      1.0  0.27587  0.34733  0.26075  1.0000
  H   H233      1.0  0.33847  0.23413  0.26359  1.0000
  C   C298      1.0  0.32156  0.24118  0.27101  1.0000
  C   C299      1.0  0.47936  0.13616  0.30655  1.0000
  Fe  Fe21      1.0  0.47628  0.38094  0.38160  1.0000
  C   C300      1.0  0.46464  0.17890  0.36257  1.0000
  C   C301      1.0  0.99142  0.42481  0.44577  1.0000
  C   C302      1.0  0.26965  0.40052  0.32542  1.0000
  H   H234      1.0  0.31357  0.03861  0.40704  1.0000
  H   H235      1.0  0.28983  0.04513  0.44744  1.0000
  H   H236      1.0  0.44652  0.06026  0.32538  1.0000
  H   H237      1.0  0.43203  0.09088  0.37748  1.0000
  C   C303      1.0  0.36231  0.09160  0.44846  1.0000
  H   H238      1.0  0.27558  0.27829  0.36994  1.0000
  H   H239      1.0  0.36584  0.27506  0.41742  1.0000
  C   C304      1.0  0.46407  0.08446  0.32330  1.0000
  H   H240      1.0  0.29163  0.19519  0.28552  1.0000
  H   H241      1.0  0.31825  0.41139  0.26233  1.0000
  H   H242      1.0  0.21516  0.04716  0.48232  1.0000
  H   H243      1.0  0.99567  0.30372  0.45574  1.0000
  H   H244      1.0  0.29678  0.20677  0.47494  1.0000
  H   H245      1.0  0.17377  0.36318  0.45862  1.0000
  C   C305      1.0  0.15243  0.36486  0.45617  1.0000
  H   H246      1.0  0.17880  0.01174  0.35684  1.0000
  H   H247      1.0  0.06963  0.30055  0.46437  1.0000
  H   H248      1.0  0.27007  0.99690  0.32992  1.0000
  C   C306      1.0  0.21349  0.33505  0.25718  1.0000
  C   C307      1.0  0.43613  0.99323  0.34649  1.0000
  H   H249      1.0  0.98796  0.26357  0.42243  1.0000
  H   H250      1.0  0.37262  0.00197  0.43414  1.0000
  C   C308      1.0  0.10420  0.36172  0.47390  1.0000
  H   H251      1.0  0.05400  0.47766  0.26248  1.0000
  H   H252      1.0  0.18924  0.33012  0.25602  1.0000
  H   H253      1.0  0.39474  0.37093  0.24788  1.0000
  H   H254      1.0  0.47554  0.07362  0.25502  1.0000
  C   C309      1.0  0.23818  0.99272  0.36074  1.0000
  C   C310      1.0  0.99675  0.45724  0.40139  1.0000
  H   H255      1.0  0.18885  0.42399  0.48615  1.0000
  S   S41       1.0  0.39237  0.11964  0.24556  1.0000
  H   H256      1.0  0.99002  0.41209  0.46259  1.0000
  H   H257      1.0  0.41085  0.47127  0.29061  1.0000
  C   C311      1.0  0.00989  0.47739  0.25661  1.0000
  C   C312      1.0  0.41137  0.99727  0.33741  1.0000
  S   S42       1.0  0.47811  0.33608  0.36832  1.0000
  H   H258      1.0  0.03124  0.17819  0.48942  1.0000
  C   C313      1.0  0.38306  0.02539  0.24370  1.0000
  C   C314      1.0  0.03623  0.48294  0.27080  1.0000
  H   H259      1.0  0.29980  0.47641  0.28155  1.0000
  H   H260      1.0  0.32234  0.48008  0.32409  1.0000
  Fe  Fe22      1.0  0.27652  0.09409  0.58372  1.0000
  S   S43       1.0  0.31839  0.11746  0.55791  1.0000
  S   S44       1.0  0.27455  0.11164  0.62447  1.0000
  Fe  Fe23      1.0  0.23762  0.04521  0.54157  1.0000
  S   S45       1.0  0.27707  0.06628  0.51343  1.0000
  H   H261      1.0  0.30991  0.32394  0.55765  1.0000
  Fe  Fe24      1.0  0.30736  0.06792  0.54604  1.0000
  S   S46       1.0  0.34103  0.04832  0.53723  1.0000
  Fe  Fe25      1.0  0.28333  0.11330  0.52820  1.0000
  C   C315      1.0  0.26034  0.41925  0.61043  1.0000
  S   S47       1.0  0.26742  0.04440  0.57363  1.0000
  S   S48       1.0  0.24206  0.09236  0.55458  1.0000
  H   H262      1.0  0.41896  0.48403  0.55521  1.0000
  H   H263      1.0  0.23489  0.15428  0.62848  1.0000
  H   H264      1.0  0.36582  0.33178  0.64941  1.0000
  S   S49       1.0  0.39158  0.21501  0.68800  1.0000
  S   S50       1.0  0.20629  0.33799  0.71890  1.0000
  Fe  Fe26      1.0  0.28080  0.41748  0.70352  1.0000
  S   S51       1.0  0.25515  0.37926  0.67403  1.0000
  C   C316      1.0  0.02834  0.32561  0.59701  1.0000
  Fe  Fe27      1.0  0.21085  0.37566  0.69181  1.0000
  S   S52       1.0  0.16748  0.36823  0.66944  1.0000
  Fe  Fe28      1.0  0.25355  0.34652  0.70411  1.0000
  S   S53       1.0  0.27001  0.31083  0.69357  1.0000
  S   S54       1.0  0.23619  0.41554  0.72009  1.0000
  H   H265      1.0  0.33997  0.15373  0.61038  1.0000
  Fe  Fe29      1.0  0.09776  0.47020  0.60299  1.0000
  S   S55       1.0  0.06416  0.46410  0.63521  1.0000
  H   H266      1.0  0.29973  0.35968  0.58703  1.0000
  H   H267      1.0  0.04849  0.25727  0.61977  1.0000
  S   S56       1.0  0.02071  0.47597  0.59412  1.0000
  Fe  Fe30      1.0  0.02698  0.43498  0.60640  1.0000
  S   S57       1.0  0.06067  0.43904  0.57483  1.0000
  H   H268      1.0  0.00880  0.47729  0.65516  1.0000
  C   C317      1.0  0.26347  0.16387  0.49254  1.0000
  C   C318      1.0  0.02833  0.20452  0.52250  1.0000
  C   C319      1.0  0.04451  0.23217  0.53722  1.0000
  H   H269      1.0  0.16330  0.32136  0.62756  1.0000
  H   H270      1.0  0.03342  0.23626  0.55397  1.0000
  H   H271      1.0  0.44067  0.99005  0.70216  1.0000
  C   C320      1.0  0.16157  0.39774  0.65449  1.0000
  C   C321      1.0  0.13076  0.39275  0.65084  1.0000
  C   C322      1.0  0.12493  0.41448  0.63757  1.0000
  C   C323      1.0  0.14979  0.44106  0.62703  1.0000
  C   C324      1.0  0.18059  0.44608  0.63073  1.0000
  C   C325      1.0  0.18650  0.42477  0.64456  1.0000
  H   H272      1.0  0.11126  0.37193  0.65832  1.0000
  H   H273      1.0  0.10117  0.41034  0.63499  1.0000
  C   C326      1.0  0.30413  0.33810  0.62091  1.0000
  H   H274      1.0  0.21031  0.42894  0.64706  1.0000
  H   H275      1.0  0.31020  0.31278  0.65119  1.0000
  C   C327      1.0  0.40470  0.46196  0.67360  1.0000
  C   C328      1.0  0.37378  0.45308  0.68221  1.0000
  H   H276      1.0  0.41504  0.44683  0.67702  1.0000
  H   H277      1.0  0.36067  0.43138  0.69225  1.0000
  H   H278      1.0  0.07233  0.31156  0.66208  1.0000
  C   C329      1.0  0.30677  0.28706  0.71264  1.0000
  C   C330      1.0  0.28733  0.30071  0.71848  1.0000
  H   H279      1.0  0.13852  0.35474  0.49498  1.0000
  H   H280      1.0  0.31264  0.28474  0.69306  1.0000
  C   C331      1.0  0.35455  0.33605  0.51535  1.0000
  H   H281      1.0  0.35707  0.29252  0.51624  1.0000
  H   H282      1.0  0.35480  0.00077  0.65814  1.0000
  C   C332      1.0  0.35823  0.03784  0.56215  1.0000
  C   C333      1.0  0.37375  0.02002  0.55629  1.0000
  C   C334      1.0  0.38739  0.02143  0.60085  1.0000
  C   C335      1.0  0.37209  0.03949  0.60673  1.0000
  C   C336      1.0  0.35736  0.04747  0.58749  1.0000
  C   C337      1.0  0.09019  0.24991  0.50855  1.0000
  H   H283      1.0  0.37170  0.04745  0.62618  1.0000
  H   H284      1.0  0.34594  0.06164  0.59211  1.0000
  C   C338      1.0  0.30746  0.14024  0.64187  1.0000
  C   C339      1.0  0.30400  0.14568  0.66798  1.0000
  C   C340      1.0  0.32957  0.16801  0.68249  1.0000
  C   C341      1.0  0.35883  0.18564  0.67092  1.0000
  C   C342      1.0  0.36227  0.18019  0.64482  1.0000
  C   C343      1.0  0.33683  0.15757  0.63040  1.0000
  H   H285      1.0  0.28144  0.13236  0.67709  1.0000
  H   H286      1.0  0.32663  0.17171  0.70258  1.0000
  H   H287      1.0  0.38479  0.19356  0.63566  1.0000
  H   H288      1.0  0.21817  0.40243  0.50912  1.0000
  H   H289      1.0  0.44596  0.03204  0.67239  1.0000
  H   H290      1.0  0.30437  0.26817  0.49803  1.0000
  H   H291      1.0  0.44730  0.32803  0.67513  1.0000
  H   H292      1.0  0.32108  0.28348  0.57457  1.0000
  H   H293      1.0  0.25741  0.39560  0.61151  1.0000
  C   C344      1.0  0.31666  0.29859  0.58784  1.0000
  C   C345      1.0  0.42479  0.31685  0.66563  1.0000
  C   C346      1.0  0.03711  0.35605  0.63643  1.0000
  H   H294      1.0  0.99450  0.38356  0.56390  1.0000
  C   C347      1.0  0.32897  0.08196  0.66792  1.0000
  C   C348      1.0  0.46730  0.42424  0.55370  1.0000
  C   C349      1.0  0.20480  0.41235  0.54667  1.0000
  C   C350      1.0  0.36019  0.47263  0.67827  1.0000
  C   C351      1.0  0.02518  0.36560  0.49799  1.0000
  H   H295      1.0  0.02619  0.33016  0.67086  1.0000
  C   C352      1.0  0.14268  0.19375  0.51595  1.0000
  H   H296      1.0  0.18512  0.42324  0.58066  1.0000
  H   H297      1.0  0.28526  0.43466  0.64603  1.0000
  C   C353      1.0  0.28768  0.26065  0.51365  1.0000
  C   C354      1.0  0.07541  0.25425  0.53062  1.0000
  H   H298      1.0  0.00328  0.23026  0.70130  1.0000
  H   H299      1.0  0.37478  0.01268  0.53674  1.0000
  H   H300      1.0  0.41322  0.41414  0.49879  1.0000
  H   H301      1.0  0.04507  0.37574  0.59921  1.0000
  C   C355      1.0  0.42073  0.05410  0.69023  1.0000
  H   H302      1.0  0.33600  0.07245  0.70628  1.0000
  C   C356      1.0  0.24936  0.22733  0.67365  1.0000
  C   C357      1.0  0.25713  0.21038  0.69057  1.0000
  C   C358      1.0  0.28577  0.21005  0.68801  1.0000
  C   C359      1.0  0.30684  0.22697  0.66876  1.0000
  C   C360      1.0  0.29953  0.24465  0.65198  1.0000
  C   C361      1.0  0.27028  0.24415  0.65426  1.0000
  P   P10       1.0  0.32730  0.26692  0.62748  1.0000
  C   C362      1.0  0.32824  0.24022  0.60286  1.0000
  C   C363      1.0  0.35226  0.25125  0.58446  1.0000
  C   C364      1.0  0.35292  0.23098  0.56501  1.0000
  C   C365      1.0  0.32986  0.19946  0.56403  1.0000
  C   C366      1.0  0.30635  0.18809  0.58266  1.0000
  C   C367      1.0  0.30561  0.20834  0.60209  1.0000
  C   C368      1.0  0.41261  0.28578  0.65648  1.0000
  C   C369      1.0  0.38333  0.27096  0.64466  1.0000
  H   H303      1.0  0.22749  0.22817  0.67604  1.0000
  H   H304      1.0  0.24121  0.19788  0.70589  1.0000
  H   H305      1.0  0.29195  0.19717  0.70128  1.0000
  H   H306      1.0  0.32895  0.22648  0.66732  1.0000
  H   H307      1.0  0.26364  0.25713  0.64152  1.0000
  H   H308      1.0  0.33037  0.18376  0.54895  1.0000
  H   H309      1.0  0.28889  0.16343  0.58224  1.0000
  H   H310      1.0  0.28762  0.19883  0.61657  1.0000
  H   H311      1.0  0.42556  0.27281  0.65904  1.0000
  H   H312      1.0  0.37420  0.24663  0.63818  1.0000
  C   C370      1.0  0.02653  0.25022  0.70003  1.0000
  H   H313      1.0  0.35602  0.35516  0.70720  1.0000
  C   C371      1.0  0.11935  0.20321  0.55423  1.0000
  C   C372      1.0  0.11725  0.19446  0.52844  1.0000
  H   H314      1.0  0.40010  0.99810  0.57069  1.0000
  C   C373      1.0  0.17022  0.20151  0.52926  1.0000
  C   C374      1.0  0.17257  0.21024  0.55527  1.0000
  C   C375      1.0  0.14680  0.21086  0.56770  1.0000
  P   P11       1.0  0.20766  0.21872  0.57273  1.0000
  C   C376      1.0  0.21057  0.24459  0.59961  1.0000
  C   C377      1.0  0.20560  0.18227  0.58296  1.0000
  C   C378      1.0  0.22179  0.18203  0.60478  1.0000
  C   C379      1.0  0.22212  0.15440  0.61176  1.0000
  C   C380      1.0  0.20675  0.12694  0.59675  1.0000
  C   C381      1.0  0.19096  0.12705  0.57479  1.0000
  C   C382      1.0  0.19041  0.15458  0.56786  1.0000
  C   C383      1.0  0.22611  0.27746  0.59727  1.0000
  C   C384      1.0  0.22660  0.29712  0.61771  1.0000
  C   C385      1.0  0.21192  0.28425  0.64071  1.0000
  C   C386      1.0  0.19601  0.25161  0.64312  1.0000
  C   C387      1.0  0.19517  0.23182  0.62266  1.0000
  C   C388      1.0  0.24087  0.23732  0.55140  1.0000
  C   C389      1.0  0.24301  0.26085  0.53516  1.0000
  C   C390      1.0  0.26647  0.27259  0.51648  1.0000
  H   H315      1.0  0.02800  0.32445  0.57640  1.0000
  C   C391      1.0  0.28635  0.23794  0.53018  1.0000
  C   C392      1.0  0.26309  0.22631  0.54899  1.0000
  H   H316      1.0  0.09950  0.20379  0.56373  1.0000
  C   C393      1.0  0.41948  0.07301  0.71053  1.0000
  H   H317      1.0  0.04353  0.37843  0.64621  1.0000
  H   H318      1.0  0.18948  0.20037  0.51918  1.0000
  H   H319      1.0  0.14764  0.21705  0.58774  1.0000
  H   H320      1.0  0.23481  0.20332  0.61606  1.0000
  H   H321      1.0  0.17963  0.10588  0.56284  1.0000
  H   H322      1.0  0.17873  0.15425  0.55040  1.0000
  H   H323      1.0  0.23760  0.28809  0.57971  1.0000
  H   H324      1.0  0.23828  0.32244  0.61578  1.0000
  H   H325      1.0  0.21282  0.29958  0.65669  1.0000
  H   H326      1.0  0.18430  0.24172  0.66092  1.0000
  H   H327      1.0  0.18214  0.20655  0.62474  1.0000
  H   H328      1.0  0.22565  0.26906  0.53613  1.0000
  H   H329      1.0  0.36308  0.47607  0.73480  1.0000
  C   C394      1.0  0.30515  0.03665  0.63901  1.0000
  H   H330      1.0  0.31900  0.08432  0.62853  1.0000
  H   H331      1.0  0.26184  0.20774  0.56074  1.0000
  H   H332      1.0  0.25326  0.35442  0.55329  1.0000
  C   C395      1.0  0.17152  0.32503  0.60794  1.0000
  C   C396      1.0  0.31023  0.32160  0.57807  1.0000
  C   C397      1.0  0.44270  0.08415  0.72923  1.0000
  C   C398      1.0  0.26025  0.40099  0.54426  1.0000
  H   H333      1.0  0.14600  0.27589  0.59679  1.0000
  C   C399      1.0  0.99718  0.18091  0.60510  1.0000
  P   P12       1.0  0.22869  0.39990  0.56403  1.0000
  H   H334      1.0  0.31373  0.01496  0.69826  1.0000
  Fe  Fe31      1.0  0.05694  0.48231  0.56432  1.0000
  C   C400      1.0  0.40067  0.35780  0.55303  1.0000
  C   C401      1.0  0.39068  0.37838  0.54331  1.0000
  C   C402      1.0  0.36662  0.36689  0.52517  1.0000
  P   P13       1.0  0.40733  0.41872  0.55491  1.0000
  C   C403      1.0  0.38111  0.41975  0.57948  1.0000
  C   C404      1.0  0.44618  0.43163  0.56728  1.0000
  S   S58       1.0  0.29300  0.15475  0.50294  1.0000
  H   H335      1.0  0.33873  0.10717  0.67141  1.0000
  H   H336      1.0  0.40095  0.07966  0.71140  1.0000
  H   H337      1.0  0.24594  0.46705  0.57247  1.0000
  C   C405      1.0  0.26662  0.37535  0.54244  1.0000
  C   C406      1.0  0.36004  0.43139  0.57467  1.0000
  C   C407      1.0  0.34130  0.43385  0.59438  1.0000
  C   C408      1.0  0.34308  0.42417  0.61882  1.0000
  C   C409      1.0  0.36288  0.41119  0.62340  1.0000
  C   C410      1.0  0.38155  0.40861  0.60375  1.0000
  C   C411      1.0  0.41281  0.44531  0.52958  1.0000
  H   H338      1.0  0.09629  0.28399  0.73144  1.0000
  C   C412      1.0  0.31480  0.02986  0.68288  1.0000
  C   C413      1.0  0.02459  0.20976  0.60472  1.0000
  H   H339      1.0  0.39704  0.39881  0.60771  1.0000
  C   C414      1.0  0.04771  0.31136  0.49711  1.0000
  C   C415      1.0  0.29018  0.37628  0.52599  1.0000
  H   H340      1.0  0.41826  0.36569  0.56780  1.0000
  H   H341      1.0  0.35784  0.38205  0.51804  1.0000
  S   S59       1.0  0.40572  0.01172  0.62540  1.0000
  H   H342      1.0  0.16281  0.28491  0.55142  1.0000
  C   C416      1.0  0.36581  0.28710  0.64190  1.0000
  C   C417      1.0  0.32743  0.06235  0.68752  1.0000
  H   H343      1.0  0.35841  0.43912  0.55590  1.0000
  H   H344      1.0  0.32596  0.44398  0.59085  1.0000
  H   H345      1.0  0.32943  0.42700  0.63435  1.0000
  H   H346      1.0  0.36415  0.40364  0.64235  1.0000
  H   H347      1.0  0.99478  0.16174  0.59228  1.0000
  C   C418      1.0  0.18629  0.42339  0.56002  1.0000
  H   H348      1.0  0.33689  0.32785  0.50055  1.0000
  C   C419      1.0  0.16977  0.43558  0.54686  1.0000
  H   H349      1.0  0.15806  0.44550  0.51016  1.0000
  C   C420      1.0  0.02721  0.23495  0.62044  1.0000
  H   H350      1.0  0.39732  0.31161  0.55003  1.0000
  C   C421      1.0  0.30361  0.01673  0.65853  1.0000
  C   C422      1.0  0.30294  0.42921  0.51448  1.0000
  C   C423      1.0  0.41418  0.43652  0.50395  1.0000
  C   C424      1.0  0.07904  0.28021  0.71700  1.0000
  P   P14       1.0  0.07600  0.35265  0.49964  1.0000
  C   C425      1.0  0.99277  0.37467  0.70856  1.0000
  H   H351      1.0  0.32553  0.40328  0.49834  1.0000
  H   H352      1.0  0.20004  0.46655  0.62276  1.0000
  C   C426      1.0  0.04332  0.19968  0.50079  1.0000
  C   C427      1.0  0.09310  0.35854  0.53097  1.0000
  C   C428      1.0  0.26961  0.48102  0.60823  1.0000
  C   C429      1.0  0.02356  0.29822  0.51530  1.0000
  C   C430      1.0  0.00154  0.26635  0.51351  1.0000
  S   S60       1.0  0.19051  0.00603  0.52775  1.0000
  H   H353      1.0  0.46082  0.41164  0.53547  1.0000
  H   H354      1.0  0.04260  0.23889  0.73425  1.0000
  C   C431      1.0  0.10575  0.33927  0.53849  1.0000
  C   C432      1.0  0.11746  0.34216  0.56310  1.0000
  C   C433      1.0  0.11671  0.36440  0.58046  1.0000
  C   C434      1.0  0.10396  0.38358  0.57322  1.0000
  C   C435      1.0  0.09190  0.38051  0.54872  1.0000
  S   S61       1.0  0.12880  0.27947  0.50046  1.0000
  H   H355      1.0  0.02158  0.31261  0.53081  1.0000
  H   H356      1.0  0.27521  0.44859  0.53230  1.0000
  C   C436      1.0  0.18819  0.42384  0.50679  1.0000
  C   C437      1.0  0.20495  0.41182  0.51990  1.0000
  H   H357      1.0  0.12692  0.32698  0.56871  1.0000
  H   H358      1.0  0.12605  0.36682  0.59948  1.0000
  H   H359      1.0  0.10349  0.40101  0.58659  1.0000
  H   H360      1.0  0.08156  0.39525  0.54407  1.0000
  H   H361      1.0  0.37044  0.27553  0.58526  1.0000
  H   H362      1.0  0.00947  0.27581  0.60037  1.0000
  C   C438      1.0  0.30430  0.34158  0.59459  1.0000
  C   C439      1.0  0.46726  0.07648  0.72757  1.0000
  S   S62       1.0  0.14348  0.46742  0.60779  1.0000
  H   H363      1.0  0.04353  0.21265  0.59187  1.0000
  C   C440      1.0  0.30807  0.40304  0.51180  1.0000
  C   C441      1.0  0.06383  0.43076  0.49766  1.0000
  H   H364      1.0  0.30229  0.22805  0.52758  1.0000
  H   H365      1.0  0.37140  0.23951  0.55076  1.0000
  C   C442      1.0  0.41766  0.47592  0.53554  1.0000
  C   C443      1.0  0.01797  0.29807  0.61075  1.0000
  H   H366      1.0  0.39454  0.33726  0.71862  1.0000
  H   H367      1.0  0.10633  0.32182  0.52529  1.0000
  H   H368      1.0  0.24811  0.99285  0.68573  1.0000
  C   C444      1.0  0.31733  0.29544  0.61433  1.0000
  C   C445      1.0  0.31046  0.31509  0.63071  1.0000
  C   C446      1.0  0.01801  0.29955  0.63753  1.0000
  H   H369      1.0  0.11088  0.31990  0.69513  1.0000
  C   C447      1.0  0.38854  0.32695  0.54324  1.0000
  C   C448      1.0  0.05788  0.37774  0.49703  1.0000
  H   H370      1.0  0.98692  0.37660  0.50096  1.0000
  H   H371      1.0  0.29904  0.35316  0.63388  1.0000
  H   H372      1.0  0.33321  0.26539  0.72721  1.0000
  H   H373      1.0  0.41724  0.35738  0.66989  1.0000
  S   S63       1.0  0.32190  0.46367  0.68980  1.0000
  H   H374      1.0  0.09583  0.18799  0.51812  1.0000
  C   C449      1.0  0.08724  0.30052  0.69659  1.0000
  H   H375      1.0  0.19809  0.37499  0.61364  1.0000
  H   H376      1.0  0.08797  0.27451  0.54303  1.0000
  C   C450      1.0  0.44503  0.04611  0.68867  1.0000
  C   C451      1.0  0.19163  0.35554  0.60000  1.0000
  C   C452      1.0  0.02700  0.32865  0.65025  1.0000
  C   C453      1.0  0.20270  0.36065  0.57473  1.0000
  C   C454      1.0  0.25376  0.45921  0.58857  1.0000
  C   C455      1.0  0.04877  0.25491  0.71861  1.0000
  C   C456      1.0  0.03424  0.27123  0.67999  1.0000
  C   C457      1.0  0.24830  0.42787  0.58982  1.0000
  C   C458      1.0  0.37841  0.31850  0.65102  1.0000
  H   H377      1.0  0.15627  0.44490  0.55742  1.0000
  C   C459      1.0  0.19139  0.33504  0.55715  1.0000
  C   C460      1.0  0.06509  0.29588  0.67797  1.0000
  C   C461      1.0  0.40778  0.33326  0.66276  1.0000
  H   H378      1.0  0.29395  0.35587  0.52352  1.0000
  C   C462      1.0  0.36477  0.35861  0.72650  1.0000
  C   C463      1.0  0.17139  0.30453  0.56516  1.0000
  H   H379      1.0  0.44108  0.45764  0.60016  1.0000
  C   C464      1.0  0.16170  0.29948  0.59062  1.0000
  C   C465      1.0  0.07378  0.22249  0.49355  1.0000
  H   H380      1.0  0.20766  0.10575  0.60191  1.0000
  H   H381      1.0  0.19792  0.33859  0.53717  1.0000
  C   C466      1.0  0.36577  0.31618  0.52421  1.0000
  C   C467      1.0  0.38808  0.01167  0.57554  1.0000
  H   H382      1.0  0.10233  0.42034  0.49539  1.0000
  C   C468      1.0  0.17075  0.43587  0.52027  1.0000
  C   C469      1.0  0.03808  0.35457  0.60985  1.0000
  Fe  Fe32      1.0  0.39344  0.23086  0.72986  1.0000
  H   H383      1.0  0.02116  0.43423  0.50177  1.0000
  C   C470      1.0  0.27629  0.44124  0.62996  1.0000
  C   C471      1.0  0.31783  0.06909  0.64372  1.0000
  H   H384      1.0  0.29704  0.02752  0.62001  1.0000
  S   S64       1.0  0.39839  0.27865  0.74121  1.0000
  P   P15       1.0  0.00545  0.26462  0.65591  1.0000
  C   C472      1.0  0.27919  0.42825  0.53069  1.0000
  S   S65       1.0  0.28114  0.38462  0.73274  1.0000
  C   C473      1.0  0.00221  0.23153  0.63646  1.0000
  H   H385      1.0  0.00988  0.38676  0.69375  1.0000
  C   C474      1.0  0.99308  0.48182  0.51640  1.0000
  S   S66       1.0  0.99065  0.17439  0.53175  1.0000
  C   C475      1.0  0.31886  0.27653  0.73206  1.0000
  C   C476      1.0  0.07707  0.41047  0.49616  1.0000
  C   C477      1.0  0.28077  0.47198  0.62899  1.0000
  H   H386      1.0  0.40339  0.04631  0.67520  1.0000
  C   C478      1.0  0.38638  0.34848  0.73294  1.0000
  C   C479      1.0  0.46846  0.05711  0.70738  1.0000
  H   H387      1.0  0.33596  0.37879  0.73998  1.0000
  C   C480      1.0  0.99878  0.38575  0.73386  1.0000
  H   H388      1.0  0.98531  0.27423  0.70780  1.0000
  H   H389      1.0  0.00963  0.34060  0.49815  1.0000
  H   H390      1.0  0.31699  0.44999  0.50355  1.0000
  C   C481      1.0  0.01207  0.38598  0.49948  1.0000
  H   H391      1.0  0.98841  0.47111  0.53485  1.0000
  H   H392      1.0  0.26732  0.28988  0.50334  1.0000
  S   S67       1.0  0.98786  0.38795  0.61891  1.0000
  C   C482      1.0  0.03138  0.41850  0.49982  1.0000
  C   C483      1.0  0.45605  0.44991  0.58995  1.0000
  H   H393      1.0  0.22443  0.12280  0.50764  1.0000
  C   C484      1.0  0.00388  0.24716  0.49394  1.0000
  C   C485      1.0  0.99573  0.48042  0.71905  1.0000
  H   H394      1.0  0.07873  0.45607  0.49789  1.0000
  H   H395      1.0  0.14100  0.18703  0.49588  1.0000
  C   C486      1.0  0.99924  0.46919  0.67395  1.0000
  C   C487      1.0  0.23161  0.14414  0.49724  1.0000
  H   H396      1.0  0.98734  0.22224  0.49306  1.0000
  H   H397      1.0  0.02072  0.40632  0.73872  1.0000
  Fe  Fe33      1.0  0.05506  0.23323  0.94276  1.0000
  S   S68       1.0  0.08050  0.27187  0.97167  1.0000
  H   H398      1.0  0.34216  0.25310  0.98824  1.0000
  Fe  Fe34      1.0  0.10107  0.27169  0.89935  1.0000
  S   S69       1.0  0.12835  0.31270  0.92609  1.0000
  S   S70       1.0  0.11404  0.27047  0.85689  1.0000
  Fe  Fe35      1.0  0.12491  0.27628  0.95383  1.0000
  S   S71       1.0  0.16762  0.28499  0.97738  1.0000
  Fe  Fe36      1.0  0.08101  0.30386  0.94123  1.0000
  S   S72       1.0  0.06579  0.33990  0.95446  1.0000
  S   S73       1.0  0.09983  0.23549  0.92651  1.0000
  S   S74       1.0  0.05338  0.26490  0.91290  1.0000
  H   H399      1.0  0.41875  0.27722  0.91440  1.0000
  Fe  Fe37      1.0  0.36291  0.25254  0.77136  1.0000
  S   S75       1.0  0.32461  0.26493  0.78242  1.0000
  Fe  Fe38      1.0  0.39485  0.21296  0.78519  1.0000
  S   S76       1.0  0.43272  0.23697  0.75591  1.0000
  S   S77       1.0  0.38639  0.17016  0.80839  1.0000
  Fe  Fe39      1.0  0.43361  0.28244  0.77029  1.0000
  C   C488      1.0  0.17368  0.25486  0.99067  1.0000
  S   S78       1.0  0.39820  0.25844  0.80107  1.0000
  S   S79       1.0  0.35554  0.20466  0.75835  1.0000
  H   H400      1.0  0.27405  0.99675  0.79062  1.0000
  S   S80       1.0  0.22307  0.37650  0.78944  1.0000
  C   C489      1.0  0.36483  0.34547  0.98411  1.0000
  H   H401      1.0  0.24607  0.01187  0.97002  1.0000
  S   S81       1.0  0.46110  0.05354  0.85330  1.0000
  H   H402      1.0  0.45500  0.41490  0.87759  1.0000
  C   C490      1.0  0.35337  0.37202  0.74520  1.0000
  C   C491      1.0  0.24029  0.02939  0.97822  1.0000
  Fe  Fe40      1.0  0.43036  0.01731  0.88157  1.0000
  S   S82       1.0  0.43574  0.05265  0.91252  1.0000
  C   C492      1.0  0.20898  0.02328  0.97902  1.0000
  S   S83       1.0  0.47117  0.13663  0.87983  1.0000
  H   H403      1.0  0.34376  0.99291  0.83964  1.0000
  C   C493      1.0  0.44510  0.01105  0.76817  1.0000
  H   H404      1.0  0.48065  0.25728  0.79712  1.0000
  C   C494      1.0  0.29247  0.05282  0.83368  1.0000
  C   C495      1.0  0.41248  0.16161  0.82590  1.0000
  C   C496      1.0  0.44063  0.18508  0.83606  1.0000
  C   C497      1.0  0.45883  0.17700  0.85192  1.0000
  C   C498      1.0  0.44944  0.14536  0.85742  1.0000
  C   C499      1.0  0.42183  0.12182  0.84651  1.0000
  C   C500      1.0  0.40339  0.13006  0.83115  1.0000
  H   H405      1.0  0.44806  0.20942  0.83217  1.0000
  C   C501      1.0  0.43881  0.38478  0.94687  1.0000
  H   H406      1.0  0.41418  0.09737  0.85055  1.0000
  H   H407      1.0  0.38186  0.11193  0.82327  1.0000
  C   C502      1.0  0.31173  0.27984  0.75757  1.0000
  C   C503      1.0  0.32123  0.34207  0.82651  1.0000
  C   C504      1.0  0.29311  0.29436  0.76342  1.0000
  C   C505      1.0  0.39538  0.43345  0.86137  1.0000
  H   H408      1.0  0.28744  0.29673  0.78305  1.0000
  C   C506      1.0  0.27866  0.10099  0.82097  1.0000
  C   C507      1.0  0.43510  0.29628  0.87709  1.0000
  C   C508      1.0  0.46133  0.36674  0.80813  1.0000
  H   H409      1.0  0.44870  0.39852  0.82903  1.0000
  H   H410      1.0  0.43739  0.34981  0.80379  1.0000
  C   C509      1.0  0.35052  0.05291  0.80319  1.0000
  C   C510      1.0  0.37465  0.28966  0.87126  1.0000
  H   H411      1.0  0.43106  0.19034  0.90366  1.0000
  C   C511      1.0  0.14360  0.30092  0.83825  1.0000
  C   C512      1.0  0.16508  0.33007  0.84893  1.0000
  C   C513      1.0  0.18907  0.35278  0.83374  1.0000
  C   C514      1.0  0.19172  0.34707  0.80752  1.0000
  C   C515      1.0  0.16995  0.31808  0.79673  1.0000
  C   C516      1.0  0.14615  0.29524  0.81199  1.0000
  H   H412      1.0  0.16331  0.33509  0.86896  1.0000
  H   H413      1.0  0.20559  0.37508  0.84236  1.0000
  H   H414      1.0  0.17147  0.31330  0.77662  1.0000
  H   H415      1.0  0.12952  0.27300  0.80336  1.0000
  C   C517      1.0  0.04919  0.35422  0.93197  1.0000
  C   C518      1.0  0.05119  0.34902  0.90576  1.0000
  C   C519      1.0  0.03834  0.36132  0.88831  1.0000
  C   C520      1.0  0.02269  0.37816  0.89691  1.0000
  C   C521      1.0  0.02040  0.38306  0.92313  1.0000
  C   C522      1.0  0.03383  0.37134  0.94056  1.0000
  H   H416      1.0  0.06319  0.33608  0.89891  1.0000
  H   H417      1.0  0.04064  0.35786  0.86807  1.0000
  H   H418      1.0  0.13604  0.38022  0.96568  1.0000
  H   H419      1.0  0.03226  0.37558  0.96078  1.0000
  C   C523      1.0  0.37937  0.41480  0.81781  1.0000
  C   C524      1.0  0.41057  0.43270  0.80974  1.0000
  P   P16       1.0  0.34914  0.39329  0.79461  1.0000
  C   C525      1.0  0.31605  0.36050  0.80897  1.0000
  C   C526      1.0  0.33972  0.42211  0.78169  1.0000
  C   C527      1.0  0.35744  0.44057  0.76135  1.0000
  C   C528      1.0  0.28512  0.35200  0.80192  1.0000
  C   C529      1.0  0.25983  0.32676  0.81342  1.0000
  C   C530      1.0  0.26520  0.30911  0.83135  1.0000
  C   C531      1.0  0.36393  0.37598  0.77042  1.0000
  C   C532      1.0  0.38533  0.36531  0.77681  1.0000
  H   H420      1.0  0.44217  0.09948  0.74464  1.0000
  C   C533      1.0  0.31398  0.08443  0.83900  1.0000
  H   H421      1.0  0.06568  0.19076  0.98918  1.0000
  C   C534      1.0  0.39412  0.37224  0.98741  1.0000
  H   H422      1.0  0.99834  0.44363  0.83687  1.0000
  H   H423      1.0  0.41684  0.43303  0.78978  1.0000
  C   C535      1.0  0.42544  0.33184  0.98200  1.0000
  H   H424      1.0  0.28028  0.36440  0.78733  1.0000
  H   H425      1.0  0.23606  0.32069  0.80804  1.0000
  H   H426      1.0  0.24562  0.28927  0.83986  1.0000
  H   H427      1.0  0.39314  0.36717  0.79626  1.0000
  H   H428      1.0  0.36322  0.32328  0.97732  1.0000
  H   H429      1.0  0.00301  0.47391  0.96271  1.0000
  C   C536      1.0  0.46533  0.42732  0.91732  1.0000
  H   H430      1.0  0.44400  0.31574  0.83944  1.0000
  C   C537      1.0  0.02902  0.48328  0.78218  1.0000
  C   C538      1.0  0.26309  0.04539  0.82351  1.0000
  C   C539      1.0  0.30785  0.44892  0.78168  1.0000
  C   C540      1.0  0.32474  0.46620  0.76074  1.0000
  C   C541      1.0  0.22617  0.09959  0.94169  1.0000
  C   C542      1.0  0.21656  0.07105  0.92817  1.0000
  C   C543      1.0  0.23718  0.06727  0.91110  1.0000
  C   C544      1.0  0.26747  0.09199  0.90760  1.0000
  C   C545      1.0  0.27739  0.12060  0.92137  1.0000
  C   C546      1.0  0.25654  0.12425  0.93850  1.0000
  P   P17       1.0  0.31704  0.15157  0.91740  1.0000
  C   C547      1.0  0.32518  0.18355  0.94024  1.0000
  C   C548      1.0  0.34199  0.13369  0.92262  1.0000
  C   C549      1.0  0.33710  0.11566  0.94436  1.0000
  C   C550      1.0  0.35672  0.10256  0.94941  1.0000
  C   C551      1.0  0.38091  0.10664  0.93244  1.0000
  C   C552      1.0  0.38497  0.12316  0.91015  1.0000
  C   C553      1.0  0.36549  0.13646  0.90506  1.0000
  C   C554      1.0  0.31752  0.20735  0.93421  1.0000
  C   C555      1.0  0.15118  0.22312  0.98869  1.0000
  H   H431      1.0  0.36550  0.27083  0.90894  1.0000
  Fe  Fe41      1.0  0.23379  0.37805  0.74638  1.0000
  C   C556      1.0  0.33864  0.18503  0.96405  1.0000
  C   C557      1.0  0.32238  0.16879  0.88644  1.0000
  C   C558      1.0  0.29661  0.16114  0.87054  1.0000
  C   C559      1.0  0.30054  0.17730  0.84797  1.0000
  C   C560      1.0  0.33023  0.20072  0.84088  1.0000
  C   C561      1.0  0.35592  0.20849  0.85664  1.0000
  C   C562      1.0  0.35192  0.19304  0.87954  1.0000
  H   H432      1.0  0.21041  0.10216  0.95544  1.0000
  H   H433      1.0  0.19342  0.05151  0.93151  1.0000
  H   H434      1.0  0.22980  0.04486  0.90108  1.0000
  H   H435      1.0  0.28337  0.08857  0.89457  1.0000
  H   H436      1.0  0.26376  0.14562  0.94999  1.0000
  H   H437      1.0  0.31826  0.11203  0.95763  1.0000
  H   H438      1.0  0.99896  0.29685  0.80613  1.0000
  H   H439      1.0  0.40340  0.12569  0.89685  1.0000
  H   H440      1.0  0.36892  0.14853  0.88738  1.0000
  H   H441      1.0  0.30638  0.20647  0.91634  1.0000
  C   C563      1.0  0.26422  0.05859  0.98744  1.0000
  H   H442      1.0  0.34765  0.40362  0.85014  1.0000
  H   H443      1.0  0.45818  0.46365  0.82117  1.0000
  H   H444      1.0  0.34397  0.16680  0.96983  1.0000
  H   H445      1.0  0.27345  0.14302  0.87559  1.0000
  H   H446      1.0  0.28064  0.17159  0.83579  1.0000
  H   H447      1.0  0.33333  0.21281  0.82313  1.0000
  H   H448      1.0  0.37897  0.22653  0.85107  1.0000
  H   H449      1.0  0.37183  0.20009  0.89197  1.0000
  H   H450      1.0  0.46095  0.03586  0.76620  1.0000
  C   C564      1.0  0.45025  0.40659  0.89689  1.0000
  C   C565      1.0  0.30741  0.10843  0.83210  1.0000
  H   H451      1.0  0.33877  0.06639  0.79846  1.0000
  C   C566      1.0  0.28705  0.01989  0.91648  1.0000
  C   C567      1.0  0.31571  0.02586  0.92690  1.0000
  C   C568      1.0  0.34139  0.03230  0.91092  1.0000
  C   C569      1.0  0.33833  0.03220  0.88448  1.0000
  C   C570      1.0  0.30918  0.02483  0.87384  1.0000
  C   C571      1.0  0.28377  0.01937  0.89008  1.0000
  P   P18       1.0  0.30346  0.02272  0.83980  1.0000
  C   C572      1.0  0.37177  0.41599  0.84366  1.0000
  C   C573      1.0  0.42914  0.37513  0.90134  1.0000
  H   H452      1.0  0.39628  0.09661  0.93629  1.0000
  C   C574      1.0  0.42315  0.36430  0.92626  1.0000
  H   H453      1.0  0.48023  0.19541  0.86014  1.0000
  C   C575      1.0  0.25627  0.06948  0.81714  1.0000
  C   C576      1.0  0.35346  0.01167  0.82611  1.0000
  C   C577      1.0  0.33769  0.23391  0.97479  1.0000
  H   H454      1.0  0.45342  0.26067  0.83646  1.0000
  S   S84       1.0  0.46946  0.00882  0.89515  1.0000
  H   H455      1.0  0.04656  0.46406  0.81047  1.0000
  S   S85       1.0  0.00671  0.39322  0.87453  1.0000
  C   C578      1.0  0.47520  0.26973  0.89721  1.0000
  H   H456      1.0  0.31791  0.02523  0.94733  1.0000
  H   H457      1.0  0.36361  0.03679  0.91896  1.0000
  H   H458      1.0  0.35870  0.03742  0.87268  1.0000
  P   P19       1.0  0.42987  0.37097  0.97905  1.0000
  C   C579      1.0  0.29589  0.31656  0.83772  1.0000
  H   H459      1.0  0.32502  0.13283  0.83483  1.0000
  H   H460      1.0  0.23381  0.06372  0.80882  1.0000
  C   C580      1.0  0.47744  0.27828  0.83321  1.0000
  H   H461      1.0  0.17031  0.35472  0.96659  1.0000
  H   H462      1.0  0.33629  0.09053  0.84774  1.0000
  C   C581      1.0  0.42653  0.45048  0.85326  1.0000
  C   C582      1.0  0.31575  0.42747  0.79250  1.0000
  C   C583      1.0  0.17919  0.13231  0.87720  1.0000
  C   C584      1.0  0.21010  0.14477  0.88558  1.0000
  C   C585      1.0  0.23038  0.17704  0.88394  1.0000
  C   C586      1.0  0.21974  0.19685  0.87397  1.0000
  C   C587      1.0  0.18863  0.18456  0.86563  1.0000
  C   C588      1.0  0.16842  0.15208  0.86730  1.0000
  P   P20       1.0  0.17482  0.21099  0.85447  1.0000
  C   C589      1.0  0.18579  0.24285  0.87782  1.0000
  C   C590      1.0  0.19089  0.22585  0.82349  1.0000
  C   C591      1.0  0.17677  0.23956  0.80887  1.0000
  C   C592      1.0  0.18838  0.25064  0.78463  1.0000
  C   C593      1.0  0.99921  0.47886  0.98233  1.0000
  C   C594      1.0  0.22816  0.23414  0.78905  1.0000
  C   C595      1.0  0.21674  0.22323  0.81338  1.0000
  C   C596      1.0  0.19137  0.27293  0.87073  1.0000
  C   C597      1.0  0.19962  0.29720  0.88912  1.0000
  C   C598      1.0  0.20192  0.29156  0.91470  1.0000
  C   C599      1.0  0.19612  0.26166  0.92191  1.0000
  C   C600      1.0  0.18779  0.23731  0.90366  1.0000
  C   C601      1.0  0.13269  0.19089  0.85106  1.0000
  C   C602      1.0  0.11354  0.19750  0.86793  1.0000
  C   C603      1.0  0.08105  0.18255  0.86463  1.0000
  C   C604      1.0  0.06741  0.16082  0.84448  1.0000
  C   C605      1.0  0.08631  0.15413  0.82752  1.0000
  C   C606      1.0  0.11886  0.16921  0.83071  1.0000
  H   H463      1.0  0.16335  0.10734  0.87876  1.0000
  H   H464      1.0  0.21813  0.12943  0.89365  1.0000
  H   H465      1.0  0.25421  0.18680  0.89075  1.0000
  H   H466      1.0  0.23557  0.22191  0.87318  1.0000
  H   H467      1.0  0.14419  0.14192  0.86152  1.0000
  H   H468      1.0  0.15673  0.24172  0.81626  1.0000
  H   H469      1.0  0.39428  0.00559  0.81844  1.0000
  C   C607      1.0  0.28114  0.30504  0.74401  1.0000
  H   H470      1.0  0.24825  0.23228  0.78135  1.0000
  H   H471      1.0  0.22814  0.21273  0.82400  1.0000
  H   H472      1.0  0.18887  0.27777  0.85121  1.0000
  H   H473      1.0  0.20367  0.32029  0.88360  1.0000
  H   H474      1.0  0.20755  0.31016  0.92905  1.0000
  H   H475      1.0  0.19748  0.25720  0.94180  1.0000
  H   H476      1.0  0.18244  0.21411  0.90989  1.0000
  H   H477      1.0  0.12361  0.21479  0.88326  1.0000
  H   H478      1.0  0.06657  0.18840  0.87746  1.0000
  H   H479      1.0  0.04223  0.14951  0.84186  1.0000
  H   H480      1.0  0.07574  0.13753  0.81174  1.0000
  H   H481      1.0  0.13329  0.16415  0.81723  1.0000
  H   H482      1.0  0.40617  0.34004  0.92948  1.0000
  H   H483      1.0  0.35304  0.08918  0.96646  1.0000
  H   H484      1.0  0.34488  0.34722  0.83129  1.0000
  H   H485      1.0  0.17759  0.26153  0.77359  1.0000
  C   C608      1.0  0.41567  0.99728  0.75654  1.0000
  H   H486      1.0  0.45148  0.33294  0.94776  1.0000
  H   H487      1.0  0.30004  0.30232  0.85107  1.0000
  H   H488      1.0  0.30258  0.41472  0.80893  1.0000
  H   H489      1.0  0.38901  0.07884  0.77765  1.0000
  H   H490      1.0  0.42801  0.23563  0.88621  1.0000
  H   H491      1.0  0.24545  0.02118  0.82033  1.0000
  C   C609      1.0  0.21392  0.24774  0.77465  1.0000
  C   C610      1.0  0.47876  0.21754  0.91597  1.0000
  C   C611      1.0  0.14393  0.37625  0.98376  1.0000
  H   H492      1.0  0.27383  0.11961  0.81513  1.0000
  H   H493      1.0  0.41315  0.34362  0.76302  1.0000
  H   H494      1.0  0.38953  0.43401  0.88136  1.0000
  C   C612      1.0  0.38191  0.01863  0.81393  1.0000
  H   H495      1.0  0.41766  0.04954  0.78824  1.0000
  C   C613      1.0  0.39498  0.04317  0.79679  1.0000
  H   H496      1.0  0.35123  0.28674  0.86876  1.0000
  C   C614      1.0  0.33837  0.02979  0.82181  1.0000
  H   H497      1.0  0.31746  0.25045  0.94689  1.0000
  C   C615      1.0  0.43905  0.31953  0.96410  1.0000
  C   C616      1.0  0.45085  0.21370  0.90547  1.0000
  H   H498      1.0  0.99255  0.29155  0.93626  1.0000
  H   H499      1.0  0.41741  0.35925  0.88543  1.0000
  C   C617      1.0  0.32383  0.23242  0.95140  1.0000
  C   C618      1.0  0.39693  0.30252  0.85183  1.0000
  C   C619      1.0  0.37895  0.05983  0.79099  1.0000
  H   H500      1.0  0.44493  0.46393  0.86691  1.0000
  Fe  Fe42      1.0  0.46902  0.08863  0.88536  1.0000
  H   H501      1.0  0.39076  0.30957  0.83431  1.0000
  C   C620      1.0  0.46787  0.39443  0.82255  1.0000
  C   C621      1.0  0.43403  0.45032  0.82744  1.0000
  C   C622      1.0  0.38266  0.28059  0.89379  1.0000
  H   H502      1.0  0.26713  0.01495  0.92880  1.0000
  H   H503      1.0  0.22274  0.25612  0.75578  1.0000
  C   C623      1.0  0.41284  0.28410  0.89678  1.0000
  C   C624      1.0  0.39668  0.35187  0.75806  1.0000
  H   H504      1.0  0.00863  0.39623  0.92997  1.0000
  C   C625      1.0  0.44914  0.23957  0.89584  1.0000
  C   C626      1.0  0.34479  0.21010  0.98122  1.0000
  S   S86       1.0  0.01512  0.18718  0.95728  1.0000
  H   H505      1.0  0.28841  0.06342  0.98607  1.0000
  H   H506      1.0  0.28819  0.45163  0.78926  1.0000
  H   H507      1.0  0.37684  0.43786  0.75326  1.0000
  H   H508      1.0  0.26114  0.01392  0.88229  1.0000
  H   H509      1.0  0.31820  0.48229  0.75192  1.0000
  C   C627      1.0  0.42706  0.30586  0.85473  1.0000
  C   C628      1.0  0.99970  0.45566  0.81938  1.0000
  H   H510      1.0  0.99193  0.31040  0.85103  1.0000
  C   C629      1.0  0.02695  0.46729  0.80450  1.0000
  H   H511      1.0  0.47071  0.43313  0.95788  1.0000
  H   H512      1.0  0.44812  0.28071  0.95392  1.0000
  C   C630      1.0  0.45940  0.41655  0.94226  1.0000
  C   C631      1.0  0.33726  0.34695  0.99039  1.0000
  C   C632      1.0  0.34990  0.46246  0.75092  1.0000
  H   H513      1.0  0.99563  0.17570  0.89546  1.0000
  C   C633      1.0  0.43729  0.29003  0.96758  1.0000
  S   S87       1.0  0.17839  0.98884  0.96458  1.0000
  H   H514      1.0  0.48038  0.19717  0.92243  1.0000
  H   H515      1.0  0.26634  0.31572  0.74883  1.0000
  P   P21       1.0  0.47444  0.30207  0.88140  1.0000
  H   H516      1.0  0.48173  0.45177  0.91384  1.0000
  S   S88       1.0  0.47907  0.32799  0.77895  1.0000
  H   H517      1.0  0.12980  0.21642  0.97825  1.0000
  C   C634      1.0  0.16304  0.36176  0.98424  1.0000
  H   H518      1.0  0.31475  0.32599  0.98861  1.0000
  Fe  Fe43      1.0  0.47667  0.04610  0.92498  1.0000
  H   H519      1.0  0.47712  0.00345  0.79132  1.0000
  C   C635      1.0  0.00366  0.48757  0.77447  1.0000
  H   H520      1.0  0.40892  0.01136  0.74504  1.0000
  C   C636      1.0  0.42207  0.27275  0.98902  1.0000
  S   S89       1.0  0.48142  0.04095  0.96777  1.0000
  C   C637      1.0  0.20175  0.04591  0.99052  1.0000
  C   C638      1.0  0.45417  0.99282  0.78244  1.0000
  H   H521      1.0  0.35568  0.01119  0.99008  1.0000
  H   H522      1.0  0.17760  0.04137  0.99139  1.0000
  Fe  Fe44      1.0  0.02554  0.58848  0.11733  1.0000
  S   S90       1.0  0.06081  0.61036  0.08603  1.0000
  S   S91       1.0  0.28134  0.89387  0.23675  1.0000
  Fe  Fe45      1.0  0.05799  0.55125  0.13678  1.0000
  S   S92       1.0  0.09496  0.57060  0.10627  1.0000
  S   S93       1.0  0.05350  0.51614  0.16725  1.0000
  Fe  Fe46      1.0  0.09658  0.61750  0.11586  1.0000
  S   S94       1.0  0.14375  0.66153  0.12193  1.0000
  Fe  Fe47      1.0  0.05510  0.56126  0.07954  1.0000
  S   S95       1.0  0.05178  0.54058  0.03893  1.0000
  S   S96       1.0  0.06149  0.59855  0.14760  1.0000
  S   S97       1.0  0.01792  0.53911  0.10956  1.0000
  C   C639      1.0  0.01963  0.50964  0.02216  1.0000
  H   H523      1.0  0.21815  0.80833  0.00123  1.0000
  C   C640      1.0  0.45711  0.96197  0.21238  1.0000
  S   S98       1.0  0.46040  0.94837  0.14357  1.0000
  C   C641      1.0  0.98509  0.61854  0.07640  1.0000
  Fe  Fe48      1.0  0.21177  0.82834  0.19790  1.0000
  C   C642      1.0  0.35380  0.52456  0.18479  1.0000
  S   S99       1.0  0.16680  0.78940  0.17998  1.0000
  Fe  Fe49      1.0  0.24969  0.89991  0.20949  1.0000
  S   S100      1.0  0.25970  0.94922  0.19917  1.0000
  Fe  Fe50      1.0  0.28309  0.86022  0.20660  1.0000
  S   S101      1.0  0.32635  0.85607  0.19233  1.0000
  S   S102      1.0  0.25298  0.86788  0.17857  1.0000
  C   C643      1.0  0.25189  0.88765  0.02234  1.0000
  Fe  Fe51      1.0  0.44442  0.50412  0.12363  1.0000
  S   S103      1.0  0.41787  0.51563  0.09469  1.0000
  H   H524      1.0  0.12058  0.53775  0.15574  1.0000
  C   C644      1.0  0.11305  0.51994  0.17004  1.0000
  C   C645      1.0  0.27450  0.95542  0.07932  1.0000
  C   C646      1.0  0.37343  0.54761  0.16796  1.0000
  H   H525      1.0  0.03655  0.77884  0.11749  1.0000
  H   H526      1.0  0.02199  0.68906  0.00419  1.0000
  C   C647      1.0  0.42244  0.92209  0.15573  1.0000
  C   C648      1.0  0.40256  0.93429  0.16483  1.0000
  C   C649      1.0  0.37292  0.91452  0.17566  1.0000
  C   C650      1.0  0.36280  0.88222  0.17772  1.0000
  C   C651      1.0  0.38259  0.87007  0.16843  1.0000
  C   C652      1.0  0.41207  0.88974  0.15737  1.0000
  H   H527      1.0  0.41025  0.95925  0.16366  1.0000
  H   H528      1.0  0.35809  0.92431  0.18264  1.0000
  H   H529      1.0  0.37512  0.84517  0.16992  1.0000
  H   H530      1.0  0.42700  0.87993  0.15057  1.0000
  C   C653      1.0  0.02659  0.81195  0.02293  1.0000
  C   C654      1.0  0.10876  0.73021  0.23245  1.0000
  P   P22       1.0  0.32759  0.50240  0.23254  1.0000
  C   C655      1.0  0.03485  0.78792  0.01876  1.0000
  C   C656      1.0  0.01741  0.78124  0.19896  1.0000
  H   H531      1.0  0.02000  0.76485  0.02620  1.0000
  C   C657      1.0  0.08195  0.50592  0.17872  1.0000
  C   C658      1.0  0.27148  0.49579  0.21371  1.0000
  H   H532      1.0  0.99872  0.55596  0.05588  1.0000
  C   C659      1.0  0.42062  0.91404  0.03573  1.0000
  C   C660      1.0  0.35318  0.53211  0.21082  1.0000
  C   C661      1.0  0.99259  0.70890  0.99319  1.0000
  H   H533      1.0  0.46149  0.61642  0.19047  1.0000
  C   C662      1.0  0.14991  0.69585  0.14006  1.0000
  C   C663      1.0  0.12491  0.69993  0.14982  1.0000
  C   C664      1.0  0.13062  0.72815  0.16299  1.0000
  C   C665      1.0  0.16132  0.75276  0.16640  1.0000
  C   C666      1.0  0.18642  0.74831  0.15735  1.0000
  C   C667      1.0  0.18070  0.72005  0.14417  1.0000
  H   H534      1.0  0.10118  0.68163  0.14655  1.0000
  H   H535      1.0  0.11106  0.73119  0.17009  1.0000
  H   H536      1.0  0.21019  0.76697  0.15981  1.0000
  H   H537      1.0  0.20024  0.71711  0.13676  1.0000
  H   H538      1.0  0.21680  0.51620  0.23615  1.0000
  H   H539      1.0  0.37400  0.54142  0.14795  1.0000
  H   H540      1.0  0.44891  0.56808  0.16385  1.0000
  C   C668      1.0  0.32513  0.92415  0.12480  1.0000
  H   H541      1.0  0.26480  0.94725  0.14345  1.0000
  C   C669      1.0  0.41839  0.89262  0.05396  1.0000
  H   H542      1.0  0.25918  0.79142  0.00397  1.0000
  H   H543      1.0  0.40736  0.59630  0.16375  1.0000
  C   C670      1.0  0.12678  0.76243  0.23799  1.0000
  C   C671      1.0  0.34576  0.93331  0.10396  1.0000
  H   H544      1.0  0.33585  0.96181  0.06019  1.0000
  C   C672      1.0  0.06273  0.79393  0.00538  1.0000
  C   C673      1.0  0.99026  0.49162  0.03354  1.0000
  C   C674      1.0  0.09941  0.62532  0.20870  1.0000
  C   C675      1.0  0.16158  0.66925  0.19871  1.0000
  P   P23       1.0  0.00237  0.73597  0.15946  1.0000
  C   C676      1.0  0.02989  0.72649  0.14241  1.0000
  C   C677      1.0  0.01989  0.75488  0.18946  1.0000
  C   C678      1.0  0.03552  0.74257  0.20388  1.0000
  C   C679      1.0  0.01983  0.69784  0.12873  1.0000
  C   C680      1.0  0.04147  0.69146  0.11507  1.0000
  C   C681      1.0  0.07316  0.71368  0.11471  1.0000
  C   C682      1.0  0.08336  0.74228  0.12821  1.0000
  C   C683      1.0  0.06194  0.74852  0.14227  1.0000
  C   C684      1.0  0.11217  0.65528  0.22077  1.0000
  C   C685      1.0  0.46140  0.93543  0.21449  1.0000
  C   C686      1.0  0.39077  0.58650  0.20253  1.0000
  P   P24       1.0  0.39886  0.97515  0.07693  1.0000
  C   C687      1.0  0.26981  0.95847  0.12513  1.0000
  H   H545      1.0  0.03755  0.72213  0.19692  1.0000
  H   H546      1.0  0.42446  0.87415  0.04887  1.0000
  H   H547      1.0  0.03369  0.66913  0.10482  1.0000
  H   H548      1.0  0.08991  0.70852  0.10429  1.0000
  H   H549      1.0  0.10807  0.75936  0.12820  1.0000
  H   H550      1.0  0.07037  0.77075  0.15279  1.0000
  C   C688      1.0  0.02796  0.65267  0.18167  1.0000
  H   H551      1.0  0.15132  0.96050  0.01680  1.0000
  C   C689      1.0  0.13468  0.51131  0.18027  1.0000
  C   C690      1.0  0.24430  0.49918  0.21446  1.0000
  H   H552      1.0  0.36288  0.88990  0.23838  1.0000
  C   C691      1.0  0.05448  0.65884  0.19583  1.0000
  H   H553      1.0  0.98867  0.57087  0.17235  1.0000
  H   H554      1.0  0.29115  0.87963  0.02979  1.0000
  H   H555      1.0  0.09520  0.72283  0.21509  1.0000
  C   C692      1.0  0.26829  0.94108  0.10292  1.0000
  C   C693      1.0  0.14883  0.63924  0.18720  1.0000
  C   C694      1.0  0.11789  0.61715  0.19244  1.0000
  H   H556      1.0  0.04020  0.86058  0.01599  1.0000
  C   C695      1.0  0.40986  0.89597  0.07902  1.0000
  H   H557      1.0  0.00537  0.79110  0.18829  1.0000
  H   H558      1.0  0.36760  0.94508  0.99854  1.0000
  H   H559      1.0  0.02901  0.65195  0.16101  1.0000
  H   H560      1.0  0.02874  0.81562  0.22972  1.0000
  H   H561      1.0  0.16267  0.63338  0.17366  1.0000
  H   H562      1.0  0.10798  0.59397  0.18323  1.0000
  H   H563      1.0  0.34283  0.91600  0.08909  1.0000
  C   C696      1.0  0.41429  0.93882  0.04250  1.0000
  C   C697      1.0  0.25879  0.86673  0.06152  1.0000
  C   C698      1.0  0.26952  0.87837  0.03726  1.0000
  C   C699      1.0  0.99428  0.76203  0.14054  1.0000
  C   C700      1.0  0.22364  0.88544  0.03168  1.0000
  C   C701      1.0  0.21336  0.87515  0.05648  1.0000
  C   C702      1.0  0.23073  0.86490  0.07104  1.0000
  P   P25       1.0  0.17721  0.87322  0.06885  1.0000
  C   C703      1.0  0.16877  0.90128  0.05309  1.0000
  C   C704      1.0  0.14568  0.83390  0.06293  1.0000
  C   C705      1.0  0.11971  0.82085  0.07949  1.0000
  C   C706      1.0  0.09520  0.79055  0.07458  1.0000
  C   C707      1.0  0.09631  0.77318  0.05309  1.0000
  C   C708      1.0  0.12176  0.78626  0.03628  1.0000
  C   C709      1.0  0.14627  0.81656  0.04107  1.0000
  C   C710      1.0  0.19309  0.93136  0.04743  1.0000
  C   C711      1.0  0.18679  0.95257  0.03436  1.0000
  C   C712      1.0  0.15610  0.94429  0.02741  1.0000
  C   C713      1.0  0.13167  0.91482  0.03359  1.0000
  C   C714      1.0  0.13793  0.89324  0.04616  1.0000
  C   C715      1.0  0.18159  0.88240  0.10276  1.0000
  C   C716      1.0  0.17845  0.85932  0.11995  1.0000
  C   C717      1.0  0.18312  0.86663  0.14604  1.0000
  C   C718      1.0  0.19085  0.89693  0.15526  1.0000
  C   C719      1.0  0.19356  0.91991  0.13841  1.0000
  C   C720      1.0  0.18901  0.91276  0.11226  1.0000
  H   H564      1.0  0.27205  0.85883  0.07292  1.0000
  H   H565      1.0  0.20982  0.89165  0.01944  1.0000
  C   C721      1.0  0.46698  0.48977  0.00928  1.0000
  H   H566      1.0  0.46874  0.97815  0.19711  1.0000
  H   H567      1.0  0.22280  0.85550  0.08975  1.0000
  H   H568      1.0  0.11813  0.83418  0.09598  1.0000
  H   H569      1.0  0.07509  0.78058  0.08719  1.0000
  H   H570      1.0  0.07705  0.74991  0.04912  1.0000
  H   H571      1.0  0.36991  0.57019  0.23916  1.0000
  H   H572      1.0  0.16520  0.82659  0.02733  1.0000
  H   H573      1.0  0.21699  0.93816  0.05263  1.0000
  C   C722      1.0  0.07413  0.84775  0.99956  1.0000
  C   C723      1.0  0.27607  0.97964  0.22286  1.0000
  H   H574      1.0  0.10787  0.90843  0.02818  1.0000
  H   H575      1.0  0.11863  0.87024  0.05004  1.0000
  H   H576      1.0  0.17266  0.83566  0.11328  1.0000
  H   H577      1.0  0.18091  0.84879  0.15916  1.0000
  H   H578      1.0  0.19490  0.90265  0.17548  1.0000
  H   H579      1.0  0.19965  0.94343  0.14567  1.0000
  H   H580      1.0  0.19162  0.93113  0.09967  1.0000
  C   C724      1.0  0.04639  0.84184  0.01313  1.0000
  C   C725      1.0  0.23805  0.51384  0.23557  1.0000
  H   H581      1.0  0.02862  0.55877  0.19051  1.0000
  H   H582      1.0  0.39873  0.92385  0.10571  1.0000
  S   S104      1.0  0.24181  0.81845  0.22423  1.0000
  C   C726      1.0  0.02513  0.65352  0.23495  1.0000
  H   H583      1.0  0.12205  0.77331  0.01907  1.0000
  C   C727      1.0  0.48004  0.61108  0.18457  1.0000
  S   S105      1.0  0.99223  0.80608  0.04046  1.0000
  S   S106      1.0  0.98638  0.60085  0.12581  1.0000
  H   H584      1.0  0.41742  0.95571  0.02825  1.0000
  H   H585      1.0  0.07588  0.66329  0.18581  1.0000
  H   H586      1.0  0.07498  0.60845  0.21135  1.0000
  C   C728      1.0  0.32852  0.94595  0.14433  1.0000
  C   C729      1.0  0.99614  0.52384  0.21565  1.0000
  C   C730      1.0  0.39207  0.57852  0.17684  1.0000
  C   C731      1.0  0.14347  0.67726  0.21552  1.0000
  S   S107      1.0  0.20514  0.86157  0.22588  1.0000
  H   H587      1.0  0.15879  0.52278  0.17377  1.0000
  C   C732      1.0  0.47284  0.58365  0.16947  1.0000
  H   H588      1.0  0.07703  0.50555  0.09470  1.0000
  C   C733      1.0  0.43662  0.96673  0.22896  1.0000
  C   C734      1.0  0.01521  0.78009  0.12143  1.0000
  C   C735      1.0  0.99861  0.64749  0.22069  1.0000
  H   H589      1.0  0.42862  0.91222  0.01660  1.0000
  H   H590      1.0  0.26225  0.91649  0.10419  1.0000
  C   C736      1.0  0.44582  0.91399  0.23366  1.0000
  H   H591      1.0  0.02388  0.81253  0.09118  1.0000
  C   C737      1.0  0.35727  0.96089  0.23232  1.0000
  C   C738      1.0  0.04837  0.75641  0.22751  1.0000
  C   C739      1.0  0.00825  0.79949  0.10652  1.0000
  H   H592      1.0  0.22786  0.49032  0.19876  1.0000
  C   C740      1.0  0.99997  0.64679  0.19404  1.0000
  H   H593      1.0  0.47344  0.64890  0.10663  1.0000
  H   H594      1.0  0.30682  0.89998  0.12612  1.0000
  H   H595      1.0  0.33004  0.96868  0.20423  1.0000
  C   C741      1.0  0.05317  0.65868  0.22258  1.0000
  C   C742      1.0  0.08288  0.82402  0.99606  1.0000
  H   H596      1.0  0.20571  0.97511  0.02885  1.0000
  C   C743      1.0  0.00459  0.54670  0.19719  1.0000
  C   C744      1.0  0.34775  0.97942  0.21887  1.0000
  H   H597      1.0  0.40498  0.61059  0.20931  1.0000
  H   H598      1.0  0.31261  0.93872  0.16055  1.0000
  H   H599      1.0  0.43313  0.98705  0.22642  1.0000
  H   H600      1.0  0.34752  0.93609  0.22726  1.0000
  C   C745      1.0  0.37111  0.56347  0.21943  1.0000
  C   C746      1.0  0.37061  0.96419  0.10287  1.0000
  H   H601      1.0  0.98642  0.49637  0.05321  1.0000
  C   C747      1.0  0.40547  0.94224  0.06762  1.0000
  H   H602      1.0  0.40910  0.87998  0.09341  1.0000
  C   C748      1.0  0.04602  0.78275  0.23681  1.0000
  C   C749      1.0  0.02385  0.50301  0.99648  1.0000
  H   H603      1.0  0.18532  0.68663  0.19404  1.0000
  C   C750      1.0  0.40379  0.92086  0.08591  1.0000
  H   H604      1.0  0.33901  0.50097  0.17728  1.0000
  H   H605      1.0  0.01420  0.51912  0.22288  1.0000
  H   H606      1.0  0.47666  0.66060  0.15324  1.0000
  C   C751      1.0  0.03055  0.79516  0.22253  1.0000
  H   H607      1.0  0.27320  0.94184  0.06209  1.0000
  H   H608      1.0  0.00310  0.61188  0.07203  1.0000
  C   C752      1.0  0.29247  0.50672  0.23418  1.0000
  H   H609      1.0  0.47619  0.93114  0.20079  1.0000
  C   C753      1.0  0.38501  0.98733  0.04990  1.0000
  H   H610      1.0  0.99545  0.68029  0.12859  1.0000
  S   S108      1.0  0.48013  0.89682  0.09188  1.0000
  H   H611      1.0  0.06880  0.77514  0.00239  1.0000
  H   H612      1.0  0.45668  0.97840  0.09738  1.0000
  H   H613      1.0  0.44883  0.89316  0.23500  1.0000
  H   H614      1.0  0.00350  0.56034  0.00957  1.0000
  H   H615      1.0  0.15391  0.70092  0.22368  1.0000
  H   H616      1.0  0.25987  0.89616  0.00333  1.0000
  H   H617      1.0  0.12696  0.77955  0.22501  1.0000
  H   H618      1.0  0.08893  0.87078  0.99202  1.0000
  H   H619      1.0  0.31749  0.97727  0.02219  1.0000
  C   C754      1.0  0.35284  0.97686  0.04646  1.0000
  C   C755      1.0  0.35258  0.97694  0.14306  1.0000
  H   H620      1.0  0.06025  0.74677  0.23857  1.0000
  P   P26       1.0  0.08762  0.66634  0.24068  1.0000
  C   C756      1.0  0.34235  0.98560  0.02499  1.0000
  C   C757      1.0  0.37365  0.98603  0.12251  1.0000
  C   C758      1.0  0.28232  0.98725  0.07795  1.0000
  H   H621      1.0  0.33653  0.98580  0.33368  1.0000
  Fe  Fe52      1.0  0.09691  0.81951  0.40216  1.0000
  S   S109      1.0  0.12569  0.80667  0.42752  1.0000
  S   S110      1.0  0.11017  0.83389  0.36063  1.0000
  Fe  Fe53      1.0  0.04846  0.81021  0.44533  1.0000
  S   S111      1.0  0.07510  0.79767  0.47309  1.0000
  S   S112      1.0  0.00486  0.81374  0.45900  1.0000
  Fe  Fe54      1.0  0.11866  0.83782  0.45729  1.0000
  C   C759      1.0  0.07512  0.64373  0.26950  1.0000
  Fe  Fe55      1.0  0.07918  0.76808  0.44066  1.0000
  S   S113      1.0  0.06829  0.71836  0.45002  1.0000
  S   S114      1.0  0.09211  0.85273  0.43130  1.0000
  S   S115      1.0  0.05038  0.77862  0.41346  1.0000
  H   H622      1.0  0.07181  0.76458  0.36010  1.0000
  Fe  Fe56      1.0  0.23685  0.85320  0.25145  1.0000
  S   S116      1.0  0.22640  0.84236  0.29387  1.0000
  C   C760      1.0  0.98919  0.67326  0.47462  1.0000
  C   C761      1.0  0.28998  0.97640  0.45939  1.0000
  C   C762      1.0  0.14232  0.83537  0.34231  1.0000
  C   C763      1.0  0.16381  0.82677  0.35214  1.0000
  C   C764      1.0  0.18929  0.82901  0.33706  1.0000
  C   C765      1.0  0.19348  0.83948  0.31186  1.0000
  C   C766      1.0  0.17185  0.84782  0.30196  1.0000
  C   C767      1.0  0.14648  0.84577  0.31709  1.0000
  H   H623      1.0  0.16090  0.81853  0.37142  1.0000
  H   H624      1.0  0.20583  0.82247  0.34495  1.0000
  H   H625      1.0  0.17479  0.85613  0.28271  1.0000
  H   H626      1.0  0.13007  0.85251  0.30925  1.0000
  C   C768      1.0  0.04950  0.68783  0.42684  1.0000
  C   C769      1.0  0.03656  0.65629  0.43403  1.0000
  C   C770      1.0  0.02149  0.63151  0.41602  1.0000
  C   C771      1.0  0.02002  0.63814  0.39052  1.0000
  C   C772      1.0  0.03296  0.66965  0.38331  1.0000
  C   C773      1.0  0.04736  0.69442  0.40145  1.0000
  H   H627      1.0  0.03806  0.65091  0.45361  1.0000
  H   H628      1.0  0.03193  0.67495  0.36364  1.0000
  H   H629      1.0  0.05739  0.71859  0.39569  1.0000
  H   H630      1.0  0.34936  0.94489  0.36463  1.0000
  C   C774      1.0  0.18865  0.89855  0.39925  1.0000
  H   H631      1.0  0.20053  0.87538  0.42820  1.0000
  H   H632      1.0  0.29971  0.94875  0.30166  1.0000
  H   H633      1.0  0.26679  0.94870  0.25419  1.0000
  H   H634      1.0  0.07955  0.60334  0.25455  1.0000
  H   H635      1.0  0.37966  0.51175  0.33077  1.0000
  H   H636      1.0  0.40730  0.98013  0.44632  1.0000
  C   C775      1.0  0.44712  0.97545  0.33216  1.0000
  C   C776      1.0  0.21390  0.92360  0.43896  1.0000
  S   S117      1.0  0.00335  0.60773  0.36702  1.0000
  C   C777      1.0  0.35833  0.97522  0.39838  1.0000
  C   C778      1.0  0.00890  0.71008  0.32639  1.0000
  H   H637      1.0  0.22169  0.97073  0.44611  1.0000
  C   C779      1.0  0.36177  0.95293  0.38250  1.0000
  H   H638      1.0  0.38418  0.92359  0.37719  1.0000
  H   H639      1.0  0.04675  0.59576  0.33163  1.0000
  C   C780      1.0  0.05691  0.63897  0.31351  1.0000
  H   H640      1.0  0.23242  0.90184  0.36052  1.0000
  C   C781      1.0  0.38158  0.94074  0.38954  1.0000
  H   H641      1.0  0.08265  0.91861  0.41106  1.0000
  H   H642      1.0  0.99923  0.68580  0.45725  1.0000
  H   H643      1.0  0.01171  0.60731  0.42174  1.0000
  C   C782      1.0  0.40941  0.96685  0.29893  1.0000
  C   C783      1.0  0.10827  0.68012  0.48026  1.0000
  C   C784      1.0  0.05465  0.60903  0.31429  1.0000
  C   C785      1.0  0.20130  0.89718  0.42253  1.0000
  H   H644      1.0  0.13050  0.70181  0.28263  1.0000
  C   C786      1.0  0.29307  0.94692  0.32166  1.0000
  H   H645      1.0  0.28335  0.83221  0.28437  1.0000
  C   C787      1.0  0.05838  0.74991  0.34410  1.0000
  H   H646      1.0  0.30298  0.53220  0.27058  1.0000
  C   C788      1.0  0.38955  0.52539  0.29157  1.0000
  C   C789      1.0  0.25509  0.92056  0.35488  1.0000
  C   C790      1.0  0.14654  0.75072  0.27585  1.0000
  H   H647      1.0  0.39273  0.53417  0.25158  1.0000
  H   H648      1.0  0.15084  0.67819  0.47076  1.0000
  C   C791      1.0  0.02921  0.50971  0.48259  1.0000
  H   H649      1.0  0.28339  0.95920  0.47418  1.0000
  C   C792      1.0  0.30355  0.97252  0.43664  1.0000
  H   H650      1.0  0.06101  0.57314  0.29348  1.0000
  H   H651      1.0  0.34405  0.92737  0.30877  1.0000
  C   C793      1.0  0.33877  0.90831  0.29509  1.0000
  H   H652      1.0  0.16032  0.79767  0.26352  1.0000
  H   H653      1.0  0.41468  0.53862  0.29437  1.0000
  C   C794      1.0  0.21304  0.95114  0.43255  1.0000
  C   C795      1.0  0.06667  0.65608  0.29117  1.0000
  H   H654      1.0  0.05967  0.49890  0.30693  1.0000
  H   H655      1.0  0.09793  0.76837  0.31849  1.0000
  C   C796      1.0  0.13231  0.94810  0.40589  1.0000
  H   H656      1.0  0.10881  0.69247  0.46321  1.0000
  C   C797      1.0  0.32314  0.85824  0.26002  1.0000
  C   C798      1.0  0.37940  0.97431  0.25190  1.0000
  H   H657      1.0  0.99768  0.64383  0.32400  1.0000
  C   C799      1.0  0.06265  0.59635  0.29282  1.0000
  H   H658      1.0  0.31674  0.83900  0.24616  1.0000
  H   H659      1.0  0.26858  0.93862  0.39302  1.0000
  H   H660      1.0  0.17810  0.87783  0.38678  1.0000
  C   C800      1.0  0.02389  0.71257  0.30266  1.0000
  C   C801      1.0  0.30527  0.96544  0.36580  1.0000
  P   P27       1.0  0.39216  0.94992  0.26830  1.0000
  H   H661      1.0  0.24769  0.90697  0.31504  1.0000
  C   C802      1.0  0.34952  0.88722  0.25579  1.0000
  C   C803      1.0  0.27574  0.94147  0.37320  1.0000
  H   H662      1.0  0.02352  0.65373  0.25552  1.0000
  H   H663      1.0  0.16180  0.75888  0.29233  1.0000
  C   C804      1.0  0.02641  0.72915  0.34704  1.0000
  C   C805      1.0  0.30436  0.85439  0.28155  1.0000
  C   C806      1.0  0.99031  0.49655  0.29222  1.0000
  H   H664      1.0  0.05274  0.52064  0.47478  1.0000
  C   C807      1.0  0.05594  0.73330  0.29987  1.0000
  C   C808      1.0  0.42011  0.94479  0.24780  1.0000
  C   C809      1.0  0.27669  0.97292  0.24851  1.0000
  H   H665      1.0  0.00929  0.52029  0.45005  1.0000
  C   C810      1.0  0.31204  0.87948  0.29898  1.0000
  S   S118      1.0  0.16054  0.87030  0.48210  1.0000
  C   C811      1.0  0.32485  0.49050  0.28423  1.0000
  H   H666      1.0  0.22306  0.92216  0.45722  1.0000
  C   C812      1.0  0.10923  0.70794  0.24875  1.0000
  H   H667      1.0  0.47765  0.94738  0.48408  1.0000
  C   C813      1.0  0.26371  0.92333  0.32916  1.0000
  H   H668      1.0  0.01580  0.72801  0.36555  1.0000
  C   C814      1.0  0.39802  0.95059  0.41248  1.0000
  H   H669      1.0  0.29680  0.87656  0.31525  1.0000
  C   C815      1.0  0.39464  0.97262  0.42845  1.0000
  C   C816      1.0  0.07315  0.75202  0.32058  1.0000
  H   H670      1.0  0.30721  0.95206  0.43409  1.0000
  C   C817      1.0  0.35791  0.91239  0.27352  1.0000
  C   C818      1.0  0.07307  0.61367  0.27059  1.0000
  H   H671      1.0  0.05103  0.64885  0.33033  1.0000
  H   H672      1.0  0.01082  0.69851  0.28633  1.0000
  H   H673      1.0  0.44300  0.94890  0.29760  1.0000
  C   C819      1.0  0.39784  0.98391  0.31387  1.0000
  C   C820      1.0  0.12862  0.71846  0.27034  1.0000
  H   H674      1.0  0.25450  0.53728  0.27195  1.0000
  H   H675      1.0  0.17837  0.92674  0.37433  1.0000
  C   C821      1.0  0.20023  0.95263  0.40923  1.0000
  C   C822      1.0  0.33753  0.49250  0.30833  1.0000
  H   H676      1.0  0.06775  0.67902  0.29095  1.0000
  C   C823      1.0  0.31379  0.96787  0.33986  1.0000
  H   H677      1.0  0.41324  0.90165  0.26491  1.0000
  H   H678      1.0  0.24909  0.98391  0.37376  1.0000
  H   H679      1.0  0.06760  0.73496  0.28173  1.0000
  H   H680      1.0  0.41329  0.94105  0.41799  1.0000
  C   C824      1.0  0.14891  0.92139  0.48939  1.0000
  H   H681      1.0  0.13675  0.92814  0.40625  1.0000
  H   H682      1.0  0.46631  0.97232  0.33928  1.0000
  C   C825      1.0  0.43389  0.96232  0.30844  1.0000
  C   C826      1.0  0.18867  0.92631  0.39237  1.0000
  C   C827      1.0  0.36984  0.51025  0.31208  1.0000
  H   H683      1.0  0.98814  0.59821  0.29581  1.0000
  H   H684      1.0  0.01851  0.51024  0.32610  1.0000
  C   C828      1.0  0.00457  0.50949  0.46846  1.0000
  C   C829      1.0  0.14567  0.77269  0.25965  1.0000
  H   H685      1.0  0.12705  0.90745  0.47944  1.0000
  C   C830      1.0  0.37487  0.98488  0.42148  1.0000
  P   P28       1.0  0.19735  0.98724  0.40076  1.0000
  C   C831      1.0  0.13194  0.67199  0.48451  1.0000
  H   H686      1.0  0.05626  0.79361  0.25505  1.0000
  C   C832      1.0  0.42550  0.91879  0.25043  1.0000
  C   C833      1.0  0.15676  0.97899  0.40316  1.0000
  H   H687      1.0  0.14689  0.80198  0.48865  1.0000
  C   C834      1.0  0.25925  0.52555  0.25578  1.0000
  C   C835      1.0  0.03953  0.49509  0.29576  1.0000
  C   C836      1.0  0.01654  0.50179  0.30647  1.0000
  C   C837      1.0  0.10130  0.94249  0.40880  1.0000
  H   H688      1.0  0.04375  0.48886  0.41370  1.0000
  C   C838      1.0  0.28655  0.52230  0.25502  1.0000
  C   C839      1.0  0.34437  0.50657  0.26373  1.0000
  C   C840      1.0  0.09437  0.96757  0.40918  1.0000
  H   H689      1.0  0.07034  0.96314  0.41166  1.0000
  H   H690      1.0  0.37859  0.98719  0.30720  1.0000
  H   H691      1.0  0.42508  0.50341  0.47559  1.0000
  C   C841      1.0  0.37695  0.52313  0.26736  1.0000
  Fe  Fe57      1.0  0.43635  0.93752  0.57686  1.0000
  H   H692      1.0  0.46813  0.92090  0.72146  1.0000
  S   S119      1.0  0.45326  0.93918  0.53542  1.0000
  Fe  Fe58      1.0  0.38832  0.90078  0.61982  1.0000
  S   S120      1.0  0.41440  0.93966  0.64868  1.0000
  S   S121      1.0  0.34726  0.85554  0.63482  1.0000
  Fe  Fe59      1.0  0.41724  0.97172  0.61726  1.0000
  Fe  Fe60      1.0  0.45826  0.94109  0.63178  1.0000
  H   H693      1.0  0.42779  0.67194  0.70086  1.0000
  S   S122      1.0  0.38909  0.93285  0.58913  1.0000
  S   S123      1.0  0.43249  0.90065  0.60435  1.0000
  C   C842      1.0  0.03280  0.80081  0.53259  1.0000
  H   H694      1.0  0.42634  0.52054  0.52084  1.0000
  Fe  Fe61      1.0  0.17709  0.78245  0.70161  1.0000
  H   H695      1.0  0.00683  0.74338  0.69754  1.0000
  S   S124      1.0  0.21077  0.82451  0.67786  1.0000
  Fe  Fe62      1.0  0.10719  0.74169  0.71617  1.0000
  S   S125      1.0  0.05621  0.72608  0.70691  1.0000
  Fe  Fe63      1.0  0.15065  0.71242  0.71351  1.0000
  S   S126      1.0  0.15539  0.66851  0.70250  1.0000
  S   S127      1.0  0.14470  0.78912  0.73018  1.0000
  S   S128      1.0  0.13787  0.73781  0.68478  1.0000
  H   H696      1.0  0.23818  0.79923  0.60946  1.0000
  C   C843      1.0  0.04644  0.82290  0.69376  1.0000
  S   S129      1.0  0.05576  0.54465  0.64258  1.0000
  S   S130      1.0  0.09770  0.51439  0.58940  1.0000
  H   H697      1.0  0.11759  0.76100  0.57595  1.0000
  C   C844      1.0  0.08429  0.57944  0.65832  1.0000
  C   C845      1.0  0.11501  0.58496  0.66217  1.0000
  C   C846      1.0  0.13644  0.61236  0.67564  1.0000
  C   C847      1.0  0.12761  0.63480  0.68509  1.0000
  C   C848      1.0  0.09703  0.62955  0.68084  1.0000
  C   C849      1.0  0.07547  0.60191  0.66770  1.0000
  H   H698      1.0  0.12213  0.56789  0.65514  1.0000
  H   H699      1.0  0.16002  0.61616  0.67881  1.0000
  H   H700      1.0  0.08985  0.64650  0.68804  1.0000
  H   H701      1.0  0.05174  0.59784  0.66489  1.0000
  C   C850      1.0  0.16955  0.90904  0.49281  1.0000
  H   H702      1.0  0.19294  0.94196  0.60046  1.0000
  C   C851      1.0  0.17837  0.92168  0.58852  1.0000
  C   C852      1.0  0.26735  0.96222  0.57660  1.0000
  C   C853      1.0  0.40864  0.50963  0.65659  1.0000
  H   H703      1.0  0.34779  0.88716  0.72912  1.0000
  H   H704      1.0  0.36779  0.51637  0.66235  1.0000
  H   H705      1.0  0.42182  0.53151  0.64680  1.0000
  C   C854      1.0  0.14026  0.86938  0.55774  1.0000
  H   H706      1.0  0.12602  0.53729  0.52836  1.0000
  C   C855      1.0  0.20383  0.81221  0.59657  1.0000
  H   H707      1.0  0.45872  0.88387  0.66910  1.0000
  H   H708      1.0  0.00045  0.66942  0.64590  1.0000
  C   C856      1.0  0.31006  0.84824  0.64774  1.0000
  C   C857      1.0  0.29153  0.81968  0.66002  1.0000
  C   C858      1.0  0.26142  0.81225  0.66974  1.0000
  C   C859      1.0  0.24914  0.83310  0.66691  1.0000
  C   C860      1.0  0.26763  0.86156  0.65453  1.0000
  C   C861      1.0  0.29804  0.86937  0.64535  1.0000
  H   H709      1.0  0.30046  0.80304  0.66189  1.0000
  H   H710      1.0  0.24754  0.79015  0.67905  1.0000
  H   H711      1.0  0.25824  0.87754  0.65175  1.0000
  H   H712      1.0  0.31179  0.89133  0.63581  1.0000
  C   C862      1.0  0.37789  0.50093  0.66543  1.0000
  C   C863      1.0  0.13615  0.56163  0.53509  1.0000
  C   C864      1.0  0.18414  0.96978  0.51295  1.0000
  H   H713      1.0  0.21403  0.91826  0.50851  1.0000
  H   H714      1.0  0.17395  0.82686  0.63477  1.0000
  H   H715      1.0  0.00898  0.71530  0.49786  1.0000
  H   H716      1.0  0.22138  0.87877  0.56409  1.0000
  C   C865      1.0  0.00031  0.78364  0.53558  1.0000
  H   H717      1.0  0.07658  0.79929  0.53288  1.0000
  Fe  Fe64      1.0  0.06156  0.50607  0.61992  1.0000
  H   H718      1.0  0.45376  0.64850  0.72587  1.0000
  C   C866      1.0  0.00494  0.73697  0.54499  1.0000
  H   H719      1.0  0.09171  0.80056  0.58893  1.0000
  H   H720      1.0  0.18435  0.79133  0.60404  1.0000
  C   C867      1.0  0.46291  0.71977  0.70875  1.0000
  C   C868      1.0  0.13526  0.81391  0.60866  1.0000
  C   C869      1.0  0.17834  0.89292  0.59162  1.0000
  C   C870      1.0  0.00386  0.54583  0.56385  1.0000
  H   H721      1.0  0.02458  0.72979  0.59515  1.0000
  C   C871      1.0  0.12973  0.80313  0.65389  1.0000
  C   C872      1.0  0.09715  0.78928  0.65185  1.0000
  C   C873      1.0  0.08355  0.78872  0.62847  1.0000
  H   H722      1.0  0.14038  0.80409  0.67211  1.0000
  H   H723      1.0  0.08253  0.77914  0.66846  1.0000
  H   H724      1.0  0.05833  0.77874  0.62711  1.0000
  C   C874      1.0  0.15962  0.92439  0.56991  1.0000
  H   H725      1.0  0.06393  0.50928  0.72598  1.0000
  C   C875      1.0  0.14039  0.89818  0.55471  1.0000
  C   C876      1.0  0.19882  0.83508  0.58455  1.0000
  H   H726      1.0  0.35966  0.86248  0.69146  1.0000
  C   C877      1.0  0.01792  0.66189  0.56730  1.0000
  P   P29       1.0  0.98738  0.69527  0.55067  1.0000
  C   C878      1.0  0.34398  0.97934  0.66883  1.0000
  H   H727      1.0  0.09247  0.56266  0.53334  1.0000
  C   C879      1.0  0.01434  0.55726  0.53952  1.0000
  C   C880      1.0  0.10727  0.58838  0.73497  1.0000
  C   C881      1.0  0.13109  0.65564  0.50627  1.0000
  P   P30       1.0  0.15946  0.82955  0.58068  1.0000
  H   H728      1.0  0.06640  0.67296  0.61717  1.0000
  C   C882      1.0  0.14339  0.80271  0.55362  1.0000
  C   C883      1.0  0.15244  0.81368  0.52884  1.0000
  C   C884      1.0  0.15602  0.95143  0.49971  1.0000
  H   H729      1.0  0.16858  0.83828  0.52572  1.0000
  C   C885      1.0  0.47394  0.94531  0.71926  1.0000
  C   C886      1.0  0.16792  0.57823  0.54128  1.0000
  C   C887      1.0  0.29054  0.95567  0.56618  1.0000
  C   C888      1.0  0.31235  0.95378  0.58211  1.0000
  C   C889      1.0  0.31140  0.95898  0.60841  1.0000
  C   C890      1.0  0.28840  0.96599  0.61901  1.0000
  H   H730      1.0  0.05634  0.78860  0.71117  1.0000
  C   C891      1.0  0.19792  0.92760  0.50573  1.0000
  C   C892      1.0  0.42237  0.49028  0.66071  1.0000
  C   C893      1.0  0.24730  0.95389  0.66318  1.0000
  S   S131      1.0  0.19194  0.75692  0.72868  1.0000
  H   H731      1.0  0.01594  0.54950  0.60353  1.0000
  C   C894      1.0  0.18491  0.92028  0.67997  1.0000
  C   C895      1.0  0.19760  0.90565  0.66364  1.0000
  C   C896      1.0  0.22853  0.92249  0.65501  1.0000
  C   C897      1.0  0.02460  0.82765  0.68006  1.0000
  S   S132      1.0  0.47979  0.57049  0.60268  1.0000
  H   H732      1.0  0.27487  0.88572  0.56940  1.0000
  H   H733      1.0  0.00003  0.72057  0.64977  1.0000
  C   C898      1.0  0.02823  0.70945  0.59162  1.0000
  C   C899      1.0  0.31124  0.96170  0.66997  1.0000
  H   H734      1.0  0.13940  0.96033  0.49769  1.0000
  C   C900      1.0  0.36294  0.96869  0.68025  1.0000
  C   C901      1.0  0.34935  0.94047  0.69325  1.0000
  C   C902      1.0  0.31672  0.92326  0.69535  1.0000
  C   C903      1.0  0.29768  0.93387  0.68384  1.0000
  H   H735      1.0  0.02932  0.85134  0.67577  1.0000
  H   H736      1.0  0.12516  0.84956  0.54565  1.0000
  H   H737      1.0  0.33072  0.94927  0.57401  1.0000
  H   H738      1.0  0.32913  0.95814  0.62008  1.0000
  C   C904      1.0  0.44955  0.68709  0.71061  1.0000
  H   H739      1.0  0.14960  0.64946  0.50903  1.0000
  H   H740      1.0  0.04011  0.63565  0.58115  1.0000
  H   H741      1.0  0.16092  0.90719  0.68664  1.0000
  H   H742      1.0  0.18359  0.88113  0.65787  1.0000
  H   H743      1.0  0.23798  0.91091  0.64222  1.0000
  H   H744      1.0  0.18252  0.56676  0.53935  1.0000
  H   H745      1.0  0.09669  0.72489  0.53849  1.0000
  H   H746      1.0  0.45153  0.73001  0.69764  1.0000
  C   C905      1.0  0.23426  0.81638  0.59943  1.0000
  H   H747      1.0  0.99090  0.68175  0.70496  1.0000
  H   H748      1.0  0.46819  0.84470  0.69209  1.0000
  C   C906      1.0  0.02684  0.71218  0.73107  1.0000
  C   C907      1.0  0.12380  0.77036  0.55704  1.0000
  H   H749      1.0  0.30602  0.90103  0.70502  1.0000
  H   H750      1.0  0.27252  0.91976  0.68533  1.0000
  C   C908      1.0  0.03990  0.79242  0.69995  1.0000
  H   H751      1.0  0.12592  0.90037  0.54023  1.0000
  H   H752      1.0  0.29207  0.95275  0.54573  1.0000
  C   C909      1.0  0.13445  0.70406  0.59940  1.0000
  C   C910      1.0  0.14437  0.69499  0.62092  1.0000
  C   C911      1.0  0.14148  0.66481  0.62176  1.0000
  C   C912      1.0  0.12853  0.64352  0.60124  1.0000
  C   C913      1.0  0.11895  0.65254  0.57932  1.0000
  C   C914      1.0  0.12183  0.68297  0.57863  1.0000
  P   P31       1.0  0.10471  0.62568  0.55201  1.0000
  C   C915      1.0  0.06488  0.59521  0.55695  1.0000
  C   C916      1.0  0.10641  0.64723  0.52395  1.0000
  C   C917      1.0  0.08285  0.65578  0.51965  1.0000
  H   H753      1.0  0.28342  0.84612  0.59205  1.0000
  H   H754      1.0  0.06815  0.84283  0.70001  1.0000
  C   C918      1.0  0.23435  0.96853  0.67946  1.0000
  C   C919      1.0  0.37285  0.86658  0.70893  1.0000
  C   C920      1.0  0.04480  0.58155  0.53600  1.0000
  C   C921      1.0  0.01320  0.68839  0.57110  1.0000
  H   H755      1.0  0.04334  0.82514  0.52689  1.0000
  C   C922      1.0  0.02378  0.55892  0.58473  1.0000
  C   C923      1.0  0.05420  0.58346  0.58135  1.0000
  C   C924      1.0  0.12960  0.60732  0.54735  1.0000
  C   C925      1.0  0.16172  0.62409  0.55308  1.0000
  C   C926      1.0  0.18075  0.60951  0.55014  1.0000
  H   H756      1.0  0.11071  0.74538  0.49478  1.0000
  C   C927      1.0  0.05185  0.67747  0.60420  1.0000
  C   C928      1.0  0.11706  0.57610  0.53806  1.0000
  H   H757      1.0  0.13698  0.72758  0.59877  1.0000
  H   H758      1.0  0.15459  0.71135  0.63693  1.0000
  H   H759      1.0  0.14971  0.65807  0.63828  1.0000
  H   H760      1.0  0.12664  0.62022  0.60235  1.0000
  H   H761      1.0  0.11490  0.69075  0.56203  1.0000
  H   H762      1.0  0.06361  0.64954  0.53298  1.0000
  S   S133      1.0  0.05569  0.49632  0.52319  1.0000
  C   C929      1.0  0.04760  0.70406  0.60799  1.0000
  H   H763      1.0  0.05282  0.58894  0.51678  1.0000
  C   C930      1.0  0.26628  0.96735  0.60289  1.0000
  H   H764      1.0  0.02389  0.51525  0.69135  1.0000
  C   C931      1.0  0.14042  0.79309  0.50776  1.0000
  H   H765      1.0  0.06934  0.59251  0.59779  1.0000
  H   H766      1.0  0.17206  0.64833  0.55999  1.0000
  H   H767      1.0  0.20539  0.62236  0.55498  1.0000
  H   H768      1.0  0.42704  0.93486  0.70936  1.0000
  H   H769      1.0  0.24881  0.97343  0.61057  1.0000
  S   S134      1.0  0.46408  0.97793  0.60363  1.0000
  H   H770      1.0  0.36415  0.93170  0.70111  1.0000
  C   C932      1.0  0.14876  0.81573  0.63249  1.0000
  H   H771      1.0  0.06545  0.67844  0.49439  1.0000
  H   H772      1.0  0.19327  0.96316  0.70026  1.0000
  C   C933      1.0  0.12008  0.76118  0.51124  1.0000
  C   C934      1.0  0.08380  0.67213  0.49787  1.0000
  C   C935      1.0  0.41408  0.86367  0.73214  1.0000
  C   C936      1.0  0.20542  0.95801  0.51541  1.0000
  H   H773      1.0  0.16010  0.94685  0.56708  1.0000
  C   C937      1.0  0.03760  0.75443  0.54198  1.0000
  C   C938      1.0  0.11211  0.74973  0.53589  1.0000
  C   C939      1.0  0.99013  0.77112  0.67781  1.0000
  C   C940      1.0  0.39681  0.85819  0.70980  1.0000
  H   H774      1.0  0.43295  0.85750  0.73260  1.0000
  H   H775      1.0  0.40210  0.84768  0.69303  1.0000
  C   C941      1.0  0.09988  0.55734  0.72835  1.0000
  S   S135      1.0  0.46157  0.50068  0.65068  1.0000
  H   H776      1.0  0.05887  0.72010  0.62399  1.0000
  C   C942      1.0  0.25499  0.86534  0.57711  1.0000
  C   C943      1.0  0.10252  0.80103  0.60693  1.0000
  H   H777      1.0  0.22713  0.97191  0.52552  1.0000
  H   H778      1.0  0.05224  0.74317  0.54342  1.0000
  C   C944      1.0  0.25982  0.84291  0.58971  1.0000
  P   P32       1.0  0.28763  0.97472  0.65274  1.0000
  C   C945      1.0  0.45086  0.95324  0.71235  1.0000
  C   C946      1.0  0.22461  0.86139  0.57436  1.0000
  C   C947      1.0  0.15967  0.86667  0.57596  1.0000
  C   C948      1.0  0.05148  0.78625  0.53598  1.0000
  C   C949      1.0  0.46441  0.67389  0.72477  1.0000
  H   H779      1.0  0.11782  0.55215  0.72029  1.0000
  C   C950      1.0  0.01184  0.76667  0.69205  1.0000
  H   H780      1.0  0.99917  0.54661  0.52320  1.0000
  H   H781      1.0  0.19301  0.89118  0.60610  1.0000
  C   C951      1.0  0.99589  0.69093  0.72423  1.0000
  C   C952      1.0  0.20320  0.95176  0.68774  1.0000
  C   C953      1.0  0.03705  0.65644  0.58387  1.0000
  C   C954      1.0  0.00789  0.49065  0.69461  1.0000
  C   C955      1.0  0.06925  0.53316  0.73150  1.0000
  H   H782      1.0  0.38817  0.98176  0.67805  1.0000
  C   C956      1.0  0.45877  0.98468  0.70822  1.0000
  H   H783      1.0  0.25076  0.96420  0.56421  1.0000
  C   C957      1.0  0.02370  0.49596  0.50664  1.0000
  C   C958      1.0  0.36612  0.88043  0.73038  1.0000
  H   H784      1.0  0.27320  0.50495  0.60743  1.0000
  H   H785      1.0  0.13095  0.60720  0.73225  1.0000
  H   H786      1.0  0.03312  0.64070  0.72879  1.0000
  C   C959      1.0  0.04573  0.53986  0.74137  1.0000
  C   C960      1.0  0.99466  0.68996  0.49788  1.0000
  C   C961      1.0  0.48237  0.88904  0.67385  1.0000
  C   C962      1.0  0.42165  0.49663  0.51610  1.0000
  C   C963      1.0  0.99634  0.80189  0.67241  1.0000
  H   H787      1.0  0.00673  0.64514  0.55181  1.0000
  H   H788      1.0  0.98600  0.77430  0.62423  1.0000
  H   H789      1.0  0.98579  0.79478  0.53235  1.0000
  C   C964      1.0  0.98636  0.75180  0.54166  1.0000
  H   H790      1.0  0.29298  0.48873  0.64439  1.0000
  H   H791      1.0  0.42951  0.94975  0.93716  1.0000
  Fe  Fe65      1.0  0.15771  0.76127  0.75642  1.0000
  S   S136      1.0  0.17043  0.77366  0.79856  1.0000
  C   C965      1.0  0.36284  0.83511  0.94867  1.0000
  Fe  Fe66      1.0  0.15447  0.87487  0.95993  1.0000
  S   S137      1.0  0.14075  0.90190  0.93349  1.0000
  H   H792      1.0  0.31429  0.94748  0.86794  1.0000
  Fe  Fe67      1.0  0.22493  0.91589  0.94639  1.0000
  S   S138      1.0  0.21496  0.94472  0.91904  1.0000
  S   S139      1.0  0.27541  0.93045  0.95653  1.0000
  Fe  Fe68      1.0  0.18212  0.94556  0.94970  1.0000
  C   C966      1.0  0.39692  0.90564  0.85507  1.0000
  Fe  Fe69      1.0  0.17527  0.89795  0.90580  1.0000
  S   S140      1.0  0.16334  0.88507  0.86365  1.0000
  S   S141      1.0  0.19372  0.91859  0.97769  1.0000
  S   S142      1.0  0.18741  0.86903  0.93146  1.0000
  C   C967      1.0  0.05128  0.56076  0.93991  1.0000
  H   H793      1.0  0.11052  0.69835  0.85323  1.0000
  C   C968      1.0  0.32952  0.92219  0.79348  1.0000
  H   H794      1.0  0.03925  0.72811  0.92957  1.0000
  H   H795      1.0  0.47081  0.71236  0.85390  1.0000
  C   C969      1.0  0.30443  0.94588  0.93240  1.0000
  C   C970      1.0  0.29665  0.94100  0.90654  1.0000
  C   C971      1.0  0.32051  0.95190  0.88786  1.0000
  H   H796      1.0  0.37618  0.82911  0.83989  1.0000
  H   H797      1.0  0.44133  0.94704  0.79633  1.0000
  H   H798      1.0  0.27231  0.92813  0.90097  1.0000
  C   C972      1.0  0.16741  0.80415  0.81656  1.0000
  C   C973      1.0  0.15544  0.82262  0.80613  1.0000
  C   C974      1.0  0.15384  0.84683  0.82096  1.0000
  C   C975      1.0  0.16432  0.85307  0.84635  1.0000
  C   C976      1.0  0.17607  0.83445  0.85687  1.0000
  C   C977      1.0  0.17754  0.81012  0.84206  1.0000
  H   H799      1.0  0.14738  0.81823  0.78662  1.0000
  H   H800      1.0  0.14461  0.86100  0.81264  1.0000
  H   H801      1.0  0.18426  0.83893  0.87634  1.0000
  H   H802      1.0  0.18667  0.79589  0.85037  1.0000
  P   P33       1.0  0.00623  0.50831  0.74563  1.0000
  C   C978      1.0  0.35994  0.97320  0.92072  1.0000
  H   H803      1.0  0.17086  0.65499  0.78154  1.0000
  H   H804      1.0  0.42736  0.64461  0.81878  1.0000
  H   H805      1.0  0.05730  0.78957  0.94525  1.0000
  H   H806      1.0  0.45872  0.63923  0.85326  1.0000
  H   H807      1.0  0.44848  0.49233  0.97294  1.0000
  H   H808      1.0  0.45052  0.66111  0.77620  1.0000
  H   H809      1.0  0.07319  0.56185  0.93344  1.0000
  C   C979      1.0  0.34657  0.79064  0.90853  1.0000
  C   C980      1.0  0.38102  0.85323  0.83742  1.0000
  C   C981      1.0  0.02723  0.78977  0.88700  1.0000
  C   C982      1.0  0.39117  0.87465  0.85815  1.0000
  C   C983      1.0  0.00635  0.56724  0.85153  1.0000
  C   C984      1.0  0.00114  0.63408  0.79796  1.0000
  H   H810      1.0  0.37204  0.95510  0.75099  1.0000
  C   C985      1.0  0.04432  0.62890  0.86961  1.0000
  C   C986      1.0  0.03986  0.62267  0.84327  1.0000
  C   C987      1.0  0.02102  0.59157  0.83438  1.0000
  P   P34       1.0  0.05933  0.65357  0.82064  1.0000
  C   C988      1.0  0.06792  0.69156  0.83493  1.0000
  C   C989      1.0  0.09537  0.65421  0.80977  1.0000
  C   C990      1.0  0.12016  0.68219  0.80078  1.0000
  C   C991      1.0  0.14734  0.68247  0.79086  1.0000
  H   H811      1.0  0.40438  0.92233  0.87111  1.0000
  C   C992      1.0  0.05622  0.79528  0.92563  1.0000
  C   C993      1.0  0.09828  0.62650  0.80869  1.0000
  C   C994      1.0  0.09507  0.70833  0.84969  1.0000
  C   C995      1.0  0.10317  0.73868  0.85921  1.0000
  C   C996      1.0  0.08410  0.75243  0.85435  1.0000
  C   C997      1.0  0.05669  0.73567  0.84019  1.0000
  C   C998      1.0  0.04856  0.70533  0.83056  1.0000
  C   C999      1.0  0.03331  0.64458  0.79382  1.0000
  C   C1000     1.0  0.33637  0.89942  0.78185  1.0000
  H   H812      1.0  0.31616  0.85184  0.76576  1.0000
  C   C1001     1.0  0.33609  0.96240  0.93935  1.0000
  H   H813      1.0  0.23274  0.94391  0.77682  1.0000
  H   H814      1.0  0.22899  0.91020  0.85215  1.0000
  C   C1002     1.0  0.27401  0.98392  0.82974  1.0000
  C   C1003     1.0  0.37180  0.93552  0.98082  1.0000
  C   C1004     1.0  0.12554  0.62687  0.79876  1.0000
  H   H815      1.0  0.05669  0.74044  0.76180  1.0000
  H   H816      1.0  0.01774  0.58606  0.81416  1.0000
  H   H817      1.0  0.11840  0.70383  0.80090  1.0000
  H   H818      1.0  0.16616  0.70417  0.78369  1.0000
  H   H819      1.0  0.99181  0.63243  0.81712  1.0000
  C   C1005     1.0  0.02955  0.60442  0.88677  1.0000
  C   C1006     1.0  0.01042  0.57363  0.87771  1.0000
  H   H820      1.0  0.09091  0.77627  0.86120  1.0000
  H   H821      1.0  0.04210  0.74650  0.83615  1.0000
  H   H822      1.0  0.02757  0.69311  0.81928  1.0000
  S   S143      1.0  0.11814  0.71414  0.74397  1.0000
  C   C1007     1.0  0.02814  0.78022  0.91182  1.0000
  C   C1008     1.0  0.40339  0.94721  0.77506  1.0000
  C   C1009     1.0  0.46472  0.65923  0.79101  1.0000
  C   C1010     1.0  0.26673  0.85199  0.95385  1.0000
  P   P35       1.0  0.99291  0.75076  0.92646  1.0000
  C   C1011     1.0  0.08331  0.81852  0.91432  1.0000
  H   H823      1.0  0.05369  0.82055  0.85668  1.0000
  C   C1012     1.0  0.00830  0.71441  0.77421  1.0000
  P   P36       1.0  0.37637  0.90626  0.77992  1.0000
  C   C1013     1.0  0.40122  0.95050  0.96906  1.0000
  H   H824      1.0  0.36864  0.84586  0.79778  1.0000
  H   H825      1.0  0.24986  0.88343  0.78867  1.0000
  H   H826      1.0  0.03302  0.60922  0.90708  1.0000
  C   C1014     1.0  0.33252  0.81024  0.91063  1.0000
  C   C1015     1.0  0.99466  0.53181  0.94358  1.0000
  H   H827      1.0  0.26151  0.84253  0.76934  1.0000
  H   H828      1.0  0.26510  0.81869  0.90576  1.0000
  C   C1016     1.0  0.04466  0.64688  0.76873  1.0000
  C   C1017     1.0  0.02297  0.53386  0.93454  1.0000
  H   H829      1.0  0.06931  0.65528  0.76490  1.0000
  C   C1018     1.0  0.36875  0.79330  0.92642  1.0000
  H   H830      1.0  0.39434  0.86720  0.87662  1.0000
  C   C1019     1.0  0.43362  0.96087  0.78552  1.0000
  C   C1020     1.0  0.37702  0.86287  0.81353  1.0000
  S   S144      1.0  0.11896  0.83093  0.98090  1.0000
  H   H831      1.0  0.12753  0.60536  0.79767  1.0000
  H   H832      1.0  0.20969  0.90082  0.80775  1.0000
  H   H833      1.0  0.27915  0.86562  0.83515  1.0000
  C   C1021     1.0  0.05436  0.81315  0.87581  1.0000
  C   C1022     1.0  0.39482  0.96543  0.75998  1.0000
  C   C1023     1.0  0.28989  0.84231  0.95503  1.0000
  C   C1024     1.0  0.02615  0.72297  0.94731  1.0000
  C   C1025     1.0  0.34060  0.83270  0.93071  1.0000
  H   H834      1.0  0.10326  0.84582  0.88092  1.0000
  C   C1026     1.0  0.14998  0.65479  0.78970  1.0000
  H   H835      1.0  0.36940  0.85211  0.96443  1.0000
  H   H836      1.0  0.39610  0.93904  0.82966  1.0000
  H   H837      1.0  0.34016  0.77328  0.89306  1.0000
  C   C1027     1.0  0.45146  0.64982  0.81518  1.0000
  C   C1028     1.0  0.08238  0.82744  0.88946  1.0000
  C   C1029     1.0  0.39256  0.91520  0.83132  1.0000
  H   H838      1.0  0.38428  0.98514  0.92641  1.0000
  C   C1030     1.0  0.02303  0.58413  0.96281  1.0000
  H   H839      1.0  0.01308  0.72417  0.79341  1.0000
  C   C1031     1.0  0.23875  0.92919  0.83876  1.0000
  H   H840      1.0  0.07947  0.60447  0.81512  1.0000
  H   H841      1.0  0.99876  0.55456  0.89087  1.0000
  C   C1032     1.0  0.35226  0.96764  0.89487  1.0000
  C   C1033     1.0  0.35284  0.89579  0.94655  1.0000
  C   C1034     1.0  0.38271  0.91066  0.93515  1.0000
  P   P37       1.0  0.32309  0.85859  0.93347  1.0000
  H   H842      1.0  0.39408  0.81760  0.96038  1.0000
  H   H843      1.0  0.02338  0.60363  0.97402  1.0000
  H   H844      1.0  0.05914  0.65252  0.87697  1.0000
  H   H845      1.0  0.24620  0.82176  0.86322  1.0000
  H   H846      1.0  0.37959  0.77808  0.92481  1.0000
  C   C1035     1.0  0.01660  0.70086  0.98935  1.0000
  H   H847      1.0  0.26864  0.86921  0.94019  1.0000
  C   C1036     1.0  0.46834  0.49305  0.98263  1.0000
  H   H848      1.0  0.42179  0.88267  0.77048  1.0000
  C   C1037     1.0  0.26153  0.95908  0.84684  1.0000
  C   C1038     1.0  0.40663  0.93811  0.94620  1.0000
  C   C1039     1.0  0.34756  0.90852  0.96950  1.0000
  C   C1040     1.0  0.30906  0.86180  0.90255  1.0000
  C   C1041     1.0  0.32738  0.88673  0.88655  1.0000
  C   C1042     1.0  0.31677  0.88788  0.86221  1.0000
  C   C1043     1.0  0.28755  0.86451  0.85384  1.0000
  C   C1044     1.0  0.26897  0.83978  0.86970  1.0000
  C   C1045     1.0  0.27971  0.83830  0.89388  1.0000
  C   C1046     1.0  0.26411  0.97808  0.80425  1.0000
  C   C1047     1.0  0.38356  0.89418  0.81016  1.0000
  H   H849      1.0  0.38768  0.90084  0.91790  1.0000
  H   H850      1.0  0.10493  0.82996  0.92506  1.0000
  H   H851      1.0  0.34222  0.96646  0.95925  1.0000
  C   C1048     1.0  0.22799  0.92388  0.81368  1.0000
  C   C1049     1.0  0.37687  0.81553  0.94647  1.0000
  C   C1050     1.0  0.24088  0.94822  0.79634  1.0000
  C   C1051     1.0  0.98511  0.72373  0.97410  1.0000
  C   C1052     1.0  0.38315  0.88577  0.75301  1.0000
  C   C1053     1.0  0.03304  0.72371  0.75628  1.0000
  H   H852      1.0  0.00552  0.77943  0.87640  1.0000
  C   C1054     1.0  0.27400  0.88802  0.78678  1.0000
  H   H853      1.0  0.34962  0.90564  0.89277  1.0000
  H   H854      1.0  0.33104  0.90737  0.85010  1.0000
  H   H855      1.0  0.31542  0.80771  0.89656  1.0000
  C   C1055     1.0  0.28058  0.86490  0.77587  1.0000
  H   H856      1.0  0.05181  0.70133  0.96332  1.0000
  H   H857      1.0  0.00755  0.72500  0.87949  1.0000
  H   H858      1.0  0.12472  0.75195  0.86979  1.0000
  C   C1056     1.0  0.00249  0.73178  0.95133  1.0000
  C   C1057     1.0  0.03329  0.70773  0.96634  1.0000
  H   H859      1.0  0.02298  0.51421  0.92385  1.0000
  C   C1058     1.0  0.99453  0.55694  0.95788  1.0000
  H   H860      1.0  0.29336  0.93416  0.80492  1.0000
  C   C1059     1.0  0.40753  0.87771  0.75361  1.0000
  C   C1060     1.0  0.31162  0.87039  0.77368  1.0000
  C   C1061     1.0  0.99214  0.62761  0.75244  1.0000
  C   C1062     1.0  0.46910  0.64674  0.83459  1.0000
  H   H861      1.0  0.08979  0.61969  0.74859  1.0000
  C   C1063     1.0  0.08396  0.59539  0.74431  1.0000
  S   S145      1.0  0.38179  0.97840  0.87109  1.0000
  C   C1064     1.0  0.28712  0.82051  0.97332  1.0000
  C   C1065     1.0  0.29845  0.91654  0.79581  1.0000
  C   C1066     1.0  0.05331  0.57127  0.74766  1.0000
  H   H862      1.0  0.22309  0.84719  0.96923  1.0000
  H   H863      1.0  0.07331  0.60648  0.95865  1.0000
  H   H864      1.0  0.98837  0.53902  0.78709  1.0000
  H   H865      1.0  0.34810  0.94413  0.80110  1.0000
  C   C1067     1.0  0.05131  0.58589  0.95405  1.0000
  H   H866      1.0  0.00079  0.78854  0.97339  1.0000
  H   H867      1.0  0.04639  0.51663  0.98743  1.0000
  C   C1068     1.0  0.24087  0.83960  0.97033  1.0000
  H   H868      1.0  0.26913  0.96252  0.86644  1.0000
  C   C1069     1.0  0.02413  0.63838  0.74813  1.0000
  H   H869      1.0  0.99175  0.54331  0.84455  1.0000
  H   H870      1.0  0.30473  0.81284  0.97487  1.0000
  H   H871      1.0  0.03571  0.57739  0.75484  1.0000
  H   H872      1.0  0.32486  0.89777  0.97879  1.0000
  H   H873      1.0  0.41987  0.97176  0.97759  1.0000
  H   H874      1.0  0.05042  0.49219  0.77110  1.0000
  C   C1070     1.0  0.26131  0.80832  0.98993  1.0000
  C   C1071     1.0  0.23815  0.81778  0.98838  1.0000
  C   C1072     1.0  0.93670  0.32542  0.07387  1.0000
  Fe  Fe70      1.0  0.84679  0.12209  0.02663  1.0000
  S   S146      1.0  0.86213  0.09529  0.05160  1.0000
  C   C1073     1.0  0.97400  0.17271  0.05571  1.0000
  Fe  Fe71      1.0  0.77802  0.08413  0.04568  1.0000
  S   S147      1.0  0.78981  0.05526  0.07179  1.0000
  S   S148      1.0  0.72816  0.07518  0.03905  1.0000
  Fe  Fe72      1.0  0.83185  0.10184  0.08200  1.0000
  S   S149      1.0  0.85129  0.11756  0.12224  1.0000
  Fe  Fe73      1.0  0.81845  0.05197  0.03858  1.0000
  C   C1074     1.0  0.95445  0.15871  0.10628  1.0000
  S   S150      1.0  0.81846  0.13094  0.05765  1.0000
  S   S151      1.0  0.80466  0.07868  0.01198  1.0000
  H   H875      1.0  0.77713  0.12569  0.18160  1.0000
  H   H876      1.0  0.66539  0.09391  0.12590  1.0000
  S   S152      1.0  0.83290  0.21899  0.19258  1.0000
  H   H877      1.0  0.98133  0.17747  0.03596  1.0000
  C   C1075     1.0  0.70919  0.10579  0.10672  1.0000
  H   H878      1.0  0.79783  0.25914  0.15174  1.0000
  C   C1076     1.0  0.96989  0.27918  0.23967  1.0000
  C   C1077     1.0  0.84498  0.14496  0.14189  1.0000
  C   C1078     1.0  0.85735  0.15216  0.16671  1.0000
  C   C1079     1.0  0.85347  0.17432  0.18267  1.0000
  C   C1080     1.0  0.83718  0.18961  0.17393  1.0000
  C   C1081     1.0  0.82459  0.18217  0.14920  1.0000
  C   C1082     1.0  0.82842  0.16002  0.13327  1.0000
  H   H879      1.0  0.87023  0.14070  0.17359  1.0000
  H   H880      1.0  0.86339  0.17982  0.20160  1.0000
  H   H881      1.0  0.81184  0.19369  0.14229  1.0000
  H   H882      1.0  0.81873  0.15481  0.11427  1.0000
  H   H883      1.0  0.72552  0.01393  0.21092  1.0000
  C   C1083     1.0  0.92602  0.36430  0.05452  1.0000
  C   C1084     1.0  0.64623  0.01211  0.09116  1.0000
  C   C1085     1.0  0.64084  0.02488  0.06945  1.0000
  C   C1086     1.0  0.66601  0.04351  0.05325  1.0000
  C   C1087     1.0  0.69667  0.04918  0.05843  1.0000
  C   C1088     1.0  0.70173  0.03507  0.07942  1.0000
  C   C1089     1.0  0.67670  0.01685  0.09578  1.0000
  H   H884      1.0  0.66178  0.05416  0.03699  1.0000
  H   H885      1.0  0.72509  0.03912  0.08364  1.0000
  H   H886      1.0  0.65764  0.42484  0.22576  1.0000
  C   C1090     1.0  0.73777  0.10524  0.10765  1.0000
  C   C1091     1.0  0.49192  0.40776  0.99451  1.0000
  C   C1092     1.0  0.94541  0.14649  0.06121  1.0000
  H   H887      1.0  0.75437  0.11450  0.09203  1.0000
  H   H888      1.0  0.78255  0.01247  0.12010  1.0000
  H   H889      1.0  0.96901  0.36174  0.04924  1.0000
  H   H890      1.0  0.68398  0.01079  0.00263  1.0000
  H   H891      1.0  0.97300  0.26326  0.01360  1.0000
  C   C1093     1.0  0.51540  0.42492  0.01233  1.0000
  H   H892      1.0  0.49648  0.99050  0.04265  1.0000
  H   H893      1.0  0.73434  0.01413  0.01557  1.0000
  H   H894      1.0  0.66675  0.01906  0.15245  1.0000
  C   C1094     1.0  0.78490  0.02742  0.13668  1.0000
  C   C1095     1.0  0.69445  0.08052  0.14751  1.0000
  C   C1096     1.0  0.96985  0.46103  0.99364  1.0000
  C   C1097     1.0  0.67094  0.00707  0.16767  1.0000
  H   H895      1.0  0.76673  0.09143  0.12825  1.0000
  H   H896      1.0  0.68111  0.00670  0.11222  1.0000
  C   C1098     1.0  0.94206  0.30755  0.18405  1.0000
  C   C1099     1.0  0.76377  0.11794  0.19916  1.0000
  C   C1100     1.0  0.93988  0.31935  0.13983  1.0000
  C   C1101     1.0  0.48793  0.02718  0.10468  1.0000
  C   C1102     1.0  0.49434  0.98932  0.02211  1.0000
  H   H897      1.0  0.83897  0.07478  0.18033  1.0000
  H   H898      1.0  0.93315  0.38427  0.04222  1.0000
  C   C1103     1.0  0.72231  0.07818  0.14787  1.0000
  C   C1104     1.0  0.75979  0.03249  0.14452  1.0000
  H   H899      1.0  0.50621  0.02255  0.11180  1.0000
  C   C1105     1.0  0.92311  0.38317  0.23815  1.0000
  C   C1106     1.0  0.93381  0.43358  0.20729  1.0000
  C   C1107     1.0  0.73951  0.08692  0.20117  1.0000
  H   H900      1.0  0.53981  0.43614  0.00642  1.0000
  C   C1108     1.0  0.81337  0.04255  0.14968  1.0000
  H   H901      1.0  0.88086  0.36100  0.06304  1.0000
  C   C1109     1.0  0.89649  0.35110  0.06621  1.0000
  H   H902      1.0  0.86392  0.31515  0.09043  1.0000
  C   C1110     1.0  0.77124  0.13918  0.21992  1.0000
  Fe  Fe74      1.0  0.84695  0.23369  0.23421  1.0000
  H   H903      1.0  0.89863  0.22207  0.12305  1.0000
  H   H904      1.0  0.91305  0.11959  0.09078  1.0000
  C   C1111     1.0  0.49262  0.05805  0.10374  1.0000
  C   C1112     1.0  0.74440  0.09157  0.12812  1.0000
  C   C1113     1.0  0.68765  0.09368  0.12674  1.0000
  H   H905      1.0  0.94299  0.45400  0.02833  1.0000
  C   C1114     1.0  0.93543  0.13970  0.08647  1.0000
  C   C1115     1.0  0.94619  0.35154  0.05845  1.0000
  C   C1116     1.0  0.72215  0.07784  0.22399  1.0000
  H   H906      1.0  0.97604  0.22773  0.04458  1.0000
  H   H907      1.0  0.90406  0.17951  0.10056  1.0000
  H   H908      1.0  0.94934  0.33601  0.12471  1.0000
  C   C1117     1.0  0.81662  0.06245  0.17071  1.0000
  H   H909      1.0  0.79488  0.08341  0.19473  1.0000
  H   H910      1.0  0.93098  0.13144  0.04581  1.0000
  H   H911      1.0  0.95237  0.31558  0.07658  1.0000
  C   C1118     1.0  0.69903  0.02117  0.18152  1.0000
  C   C1119     1.0  0.79155  0.06756  0.17863  1.0000
  C   C1120     1.0  0.70370  0.00384  0.20044  1.0000
  H   H912      1.0  0.90715  0.26157  0.19568  1.0000
  H   H913      1.0  0.91087  0.18006  0.05355  1.0000
  H   H914      1.0  0.61750  0.02148  0.06570  1.0000
  H   H915      1.0  0.83321  0.03956  0.14306  1.0000
  S   S153      1.0  0.82312  0.00981  0.02251  1.0000
  C   C1121     1.0  0.91653  0.27775  0.18010  1.0000
  H   H916      1.0  0.73805  0.02115  0.13392  1.0000
  H   H917      1.0  0.69783  0.08607  0.99227  1.0000
  H   H918      1.0  0.93788  0.45278  0.19501  1.0000
  H   H919      1.0  0.52556  0.44237  0.05118  1.0000
  H   H920      1.0  0.70358  0.11515  0.09027  1.0000
  H   H921      1.0  0.95269  0.31461  0.20275  1.0000
  H   H922      1.0  0.91864  0.39927  0.17624  1.0000
  C   C1122     1.0  0.93928  0.43883  0.23361  1.0000
  C   C1123     1.0  0.92298  0.40324  0.19654  1.0000
  C   C1124     1.0  0.91756  0.37804  0.21197  1.0000
  P   P38       1.0  0.73050  0.05983  0.17413  1.0000
  H   H923      1.0  0.67760  0.07148  0.16294  1.0000
  C   C1125     1.0  0.96559  0.46755  0.01935  1.0000
  H   H924      1.0  0.94679  0.15304  0.12587  1.0000
  C   C1126     1.0  0.90251  0.26883  0.15613  1.0000
  C   C1127     1.0  0.91400  0.28946  0.13574  1.0000
  H   H925      1.0  0.90883  0.35446  0.20373  1.0000
  P   P39       1.0  0.89480  0.27763  0.10504  1.0000
  C   C1128     1.0  0.90345  0.24861  0.08910  1.0000
  C   C1129     1.0  0.85281  0.25927  0.10986  1.0000
  C   C1130     1.0  0.83261  0.23630  0.09232  1.0000
  C   C1131     1.0  0.80014  0.22180  0.09615  1.0000
  C   C1132     1.0  0.78758  0.23015  0.11747  1.0000
  C   C1133     1.0  0.80749  0.25312  0.13492  1.0000
  C   C1134     1.0  0.83996  0.26781  0.13107  1.0000
  C   C1135     1.0  0.90701  0.24845  0.06243  1.0000
  C   C1136     1.0  0.91035  0.22415  0.04981  1.0000
  C   C1137     1.0  0.90961  0.19950  0.06355  1.0000
  C   C1138     1.0  0.90588  0.19928  0.09000  1.0000
  C   C1139     1.0  0.90283  0.22369  0.10274  1.0000
  C   C1140     1.0  0.90694  0.31178  0.08549  1.0000
  C   C1141     1.0  0.95370  0.32830  0.16393  1.0000
  C   C1142     1.0  0.63964  0.41419  0.24022  1.0000
  H   H926      1.0  0.70275  0.05444  0.22590  1.0000
  H   H927      1.0  0.97344  0.35135  0.16710  1.0000
  C   C1143     1.0  0.88695  0.32500  0.08169  1.0000
  C   C1144     1.0  0.76304  0.05284  0.16539  1.0000
  C   C1145     1.0  0.49010  0.01248  0.00946  1.0000
  H   H928      1.0  0.88215  0.24602  0.15373  1.0000
  S   S154      1.0  0.88096  0.16197  0.00141  1.0000
  H   H929      1.0  0.84181  0.22929  0.07575  1.0000
  H   H930      1.0  0.78473  0.20379  0.08273  1.0000
  H   H931      1.0  0.76246  0.21854  0.12065  1.0000
  H   H932      1.0  0.85490  0.28542  0.14491  1.0000
  H   H933      1.0  0.90583  0.26621  0.05112  1.0000
  H   H934      1.0  0.91216  0.22362  0.02919  1.0000
  H   H935      1.0  0.61794  0.36850  0.22143  1.0000
  C   C1146     1.0  0.98336  0.18465  0.10090  1.0000
  H   H936      1.0  0.91366  0.12369  0.99969  1.0000
  H   H937      1.0  0.94613  0.26548  0.23289  1.0000
  C   C1147     1.0  0.61725  0.38248  0.23781  1.0000
  H   H938      1.0  0.51471  0.07746  0.10997  1.0000
  H   H939      1.0  0.48926  0.03147  0.02047  1.0000
  C   C1148     1.0  0.50739  0.42854  0.03752  1.0000
  H   H940      1.0  0.79022  0.16298  0.21835  1.0000
  H   H941      1.0  0.58214  0.48201  0.09499  1.0000
  S   S155      1.0  0.61655  0.99326  0.11439  1.0000
  C   C1149     1.0  0.72874  0.01251  0.99550  1.0000
  C   C1150     1.0  0.92905  0.14638  0.99185  1.0000
  Fe  Fe75      1.0  0.60698  0.03443  0.39432  1.0000
  S   S156      1.0  0.63341  0.06632  0.42689  1.0000
  Fe  Fe76      1.0  0.56368  0.06765  0.38369  1.0000
  S   S157      1.0  0.59178  0.10197  0.41763  1.0000
  C   C1151     1.0  0.62657  0.00120  0.27860  1.0000
  Fe  Fe77      1.0  0.63669  0.10465  0.40176  1.0000
  S   S158      1.0  0.68316  0.14996  0.39612  1.0000
  Fe  Fe78      1.0  0.58594  0.06006  0.43954  1.0000
  Fe  Fe79      1.0  0.48854  0.43207  0.42361  1.0000
  S   S159      1.0  0.61185  0.07272  0.36883  1.0000
  S   S160      1.0  0.55975  0.02549  0.40824  1.0000
  Fe  Fe80      1.0  0.82485  0.21413  0.28935  1.0000
  S   S161      1.0  0.81214  0.23927  0.26027  1.0000
  S   S162      1.0  0.78621  0.17116  0.30937  1.0000
  Fe  Fe81      1.0  0.89519  0.25367  0.27619  1.0000
  S   S163      1.0  0.94466  0.26720  0.28852  1.0000
  Fe  Fe82      1.0  0.85301  0.28387  0.27545  1.0000
  S   S164      1.0  0.84857  0.32791  0.28593  1.0000
  S   S165      1.0  0.86360  0.25898  0.30594  1.0000
  S   S166      1.0  0.85775  0.20608  0.26235  1.0000
  Fe  Fe83      1.0  0.50552  0.45085  0.36803  1.0000
  S   S167      1.0  0.51990  0.42461  0.39468  1.0000
  C   C1152     1.0  0.82165  0.15833  0.44750  1.0000
  C   C1153     1.0  0.52260  0.09431  0.26950  1.0000
  H   H942      1.0  0.95322  0.29500  0.48690  1.0000
  C   C1154     1.0  0.54411  0.32708  0.30088  1.0000
  S   S168      1.0  0.95381  0.44965  0.34370  1.0000
  H   H943      1.0  0.61585  0.43298  0.29636  1.0000
  H   H944      1.0  0.62585  0.38691  0.32127  1.0000
  H   H945      1.0  0.91844  0.36357  0.25023  1.0000
  H   H946      1.0  0.77298  0.01612  0.46669  1.0000
  C   C1155     1.0  0.87798  0.36125  0.30239  1.0000
  C   C1156     1.0  0.90742  0.36388  0.30748  1.0000
  C   C1157     1.0  0.93036  0.39104  0.32021  1.0000
  C   C1158     1.0  0.92409  0.41574  0.32809  1.0000
  C   C1159     1.0  0.89469  0.41309  0.32298  1.0000
  C   C1160     1.0  0.87176  0.38597  0.31023  1.0000
  H   H947      1.0  0.91266  0.34518  0.30134  1.0000
  H   H948      1.0  0.95315  0.39297  0.32389  1.0000
  H   H949      1.0  0.88966  0.43203  0.32878  1.0000
  H   H950      1.0  0.84905  0.38414  0.30643  1.0000
  H   H951      1.0  0.94318  0.30180  0.35638  1.0000
  C   C1161     1.0  0.52410  0.31027  0.28055  1.0000
  H   H952      1.0  0.52086  0.01033  0.35403  1.0000
  C   C1162     1.0  0.94792  0.33461  0.41578  1.0000
  H   H953      1.0  0.94136  0.41342  0.48387  1.0000
  H   H954      1.0  0.83584  0.15710  0.36199  1.0000
  C   C1163     1.0  0.51661  0.12636  0.33062  1.0000
  H   H955      1.0  0.65630  0.45684  0.26341  1.0000
  H   H956      1.0  0.53976  0.13502  0.33842  1.0000
  H   H957      1.0  0.84818  0.43475  0.28890  1.0000
  C   C1164     1.0  0.71170  0.15571  0.37189  1.0000
  C   C1165     1.0  0.70505  0.13488  0.35092  1.0000
  C   C1166     1.0  0.72773  0.14078  0.33158  1.0000
  C   C1167     1.0  0.75763  0.16715  0.33306  1.0000
  C   C1168     1.0  0.76457  0.18774  0.35426  1.0000
  C   C1169     1.0  0.74161  0.18227  0.37336  1.0000
  H   H958      1.0  0.68229  0.11432  0.34950  1.0000
  H   H959      1.0  0.72208  0.12474  0.31531  1.0000
  H   H960      1.0  0.78771  0.20770  0.35607  1.0000
  H   H961      1.0  0.74717  0.19849  0.38955  1.0000
  H   H962      1.0  0.63179  0.47242  0.32994  1.0000
  S   S169      1.0  0.90665  0.47390  0.39317  1.0000
  H   H963      1.0  0.71656  0.09216  0.26238  1.0000
  H   H964      1.0  0.91235  0.13738  0.38873  1.0000
  H   H965      1.0  0.85542  0.20135  0.33262  1.0000
  C   C1170     1.0  0.69721  0.23722  0.39629  1.0000
  C   C1171     1.0  0.48875  0.40353  0.29386  1.0000
  H   H966      1.0  0.61961  0.01752  0.27094  1.0000
  H   H967      1.0  0.83987  0.04470  0.42657  1.0000
  C   C1172     1.0  0.91756  0.15925  0.45163  1.0000
  H   H968      1.0  0.75234  0.25686  0.26173  1.0000
  H   H969      1.0  0.62021  0.41303  0.39940  1.0000
  C   C1173     1.0  0.91019  0.13540  0.40926  1.0000
  H   H970      1.0  0.66968  0.04780  0.35091  1.0000
  H   H971      1.0  0.57918  0.45974  0.34774  1.0000
  C   C1174     1.0  0.76471  0.29590  0.28836  1.0000
  H   H972      1.0  0.56360  0.32244  0.33639  1.0000
  C   C1175     1.0  0.50342  0.47776  0.48293  1.0000
  C   C1176     1.0  0.81639  0.01923  0.47937  1.0000
  C   C1177     1.0  0.69570  0.07444  0.46181  1.0000
  S   S170      1.0  0.62057  0.99853  0.37849  1.0000
  C   C1178     1.0  0.80428  0.01209  0.40129  1.0000
  C   C1179     1.0  0.96558  0.41442  0.42953  1.0000
  H   H973      1.0  0.81350  0.99543  0.40083  1.0000
  H   H974      1.0  0.90650  0.36295  0.38339  1.0000
  H   H975      1.0  0.69380  0.05485  0.39267  1.0000
  C   C1180     1.0  0.72971  0.09923  0.24471  1.0000
  Fe  Fe84      1.0  0.94629  0.48747  0.36542  1.0000
  H   H976      1.0  0.65064  0.40627  0.36323  1.0000
  H   H977      1.0  0.76558  0.31189  0.27398  1.0000
  H   H978      1.0  0.63291  0.02117  0.31673  1.0000
  H   H979      1.0  0.67303  0.24381  0.42893  1.0000
  C   C1181     1.0  0.82370  0.26449  0.41208  1.0000
  C   C1182     1.0  0.84701  0.26359  0.39644  1.0000
  C   C1183     1.0  0.85029  0.27338  0.37134  1.0000
  C   C1184     1.0  0.83055  0.28440  0.36180  1.0000
  C   C1185     1.0  0.80688  0.28513  0.37732  1.0000
  C   C1186     1.0  0.80377  0.27530  0.40262  1.0000
  P   P40       1.0  0.78153  0.29967  0.36515  1.0000
  C   C1187     1.0  0.80050  0.34225  0.36711  1.0000
  C   C1188     1.0  0.77217  0.28640  0.33227  1.0000
  C   C1189     1.0  0.77203  0.30663  0.31367  1.0000
  C   C1190     1.0  0.91640  0.33475  0.47408  1.0000
  H   H980      1.0  0.52776  0.44879  0.28592  1.0000
  H   H981      1.0  0.50231  0.23524  0.29812  1.0000
  C   C1191     1.0  0.76539  0.25557  0.32495  1.0000
  C   C1192     1.0  0.78265  0.35822  0.36550  1.0000
  C   C1193     1.0  0.79722  0.39116  0.36687  1.0000
  C   C1194     1.0  0.82967  0.40839  0.36991  1.0000
  C   C1195     1.0  0.84757  0.39267  0.37144  1.0000
  C   C1196     1.0  0.83318  0.35979  0.36961  1.0000
  C   C1197     1.0  0.74590  0.28277  0.38414  1.0000
  C   C1198     1.0  0.74196  0.30008  0.40474  1.0000
  C   C1199     1.0  0.71558  0.28619  0.42062  1.0000
  C   C1200     1.0  0.69324  0.25477  0.41641  1.0000
  H   H982      1.0  0.68030  0.21256  0.39341  1.0000
  C   C1201     1.0  0.72333  0.25112  0.38020  1.0000
  H   H983      1.0  0.82093  0.25669  0.43153  1.0000
  H   H984      1.0  0.86252  0.25523  0.40366  1.0000
  H   H985      1.0  0.86831  0.27252  0.35931  1.0000
  H   H986      1.0  0.83371  0.29232  0.34232  1.0000
  H   H987      1.0  0.78587  0.27573  0.41510  1.0000
  H   H988      1.0  0.77830  0.33090  0.31829  1.0000
  C   C1202     1.0  0.89642  0.10276  0.44631  1.0000
  C   C1203     1.0  0.50932  0.14675  0.31696  1.0000
  C   C1204     1.0  0.97558  0.28383  0.26592  1.0000
  H   H989      1.0  0.76631  0.23995  0.33870  1.0000
  H   H990      1.0  0.75749  0.34520  0.36287  1.0000
  H   H991      1.0  0.78348  0.40347  0.36542  1.0000
  H   H992      1.0  0.84095  0.43395  0.37082  1.0000
  H   H993      1.0  0.87277  0.40603  0.37375  1.0000
  H   H994      1.0  0.84773  0.34833  0.37017  1.0000
  H   H995      1.0  0.75946  0.32408  0.40896  1.0000
  H   H996      1.0  0.71265  0.29965  0.43645  1.0000
  C   C1205     1.0  0.87835  0.17645  0.38414  1.0000
  C   C1206     1.0  0.55640  0.01389  0.30906  1.0000
  C   C1207     1.0  0.59400  0.36878  0.25650  1.0000
  C   C1208     1.0  0.68323  0.04368  0.47030  1.0000
  H   H997      1.0  0.76038  0.14640  0.25875  1.0000
  C   C1209     1.0  0.50197  0.36234  0.30329  1.0000
  C   C1210     1.0  0.92262  0.33143  0.36772  1.0000
  C   C1211     1.0  0.91831  0.34926  0.38747  1.0000
  C   C1212     1.0  0.93055  0.35064  0.41180  1.0000
  H   H998      1.0  0.49739  0.01315  0.29895  1.0000
  P   P41       1.0  0.93020  0.37842  0.43556  1.0000
  C   C1213     1.0  0.89578  0.38339  0.43273  1.0000
  C   C1214     1.0  0.89763  0.41308  0.43716  1.0000
  C   C1215     1.0  0.87036  0.41629  0.43824  1.0000
  C   C1216     1.0  0.84106  0.38986  0.43497  1.0000
  C   C1217     1.0  0.83902  0.36012  0.43075  1.0000
  C   C1218     1.0  0.86630  0.35686  0.42962  1.0000
  S   S171      1.0  0.56971  0.05397  0.48135  1.0000
  S   S172      1.0  0.88654  0.28103  0.24649  1.0000
  H   H999      1.0  0.92587  0.17961  0.46437  1.0000
  H   H1000     1.0  0.81884  0.08215  0.42897  1.0000
  C   C1219     1.0  0.75740  0.26494  0.28143  1.0000
  H   H1001     1.0  0.74145  0.01860  0.38124  1.0000
  H   H1002     1.0  0.91359  0.33092  0.34889  1.0000
  H   H1003     1.0  0.94909  0.42275  0.39402  1.0000
  H   H1004     1.0  0.92004  0.43373  0.44038  1.0000
  C   C1220     1.0  0.96849  0.43070  0.40717  1.0000
  H   H1005     1.0  0.82002  0.39252  0.43572  1.0000
  C   C1221     1.0  0.56506  0.00009  0.32839  1.0000
  H   H1006     1.0  0.86439  0.33364  0.42686  1.0000
  C   C1222     1.0  0.87020  0.20170  0.34802  1.0000
  C   C1223     1.0  0.63419  0.00332  0.30435  1.0000
  H   H1007     1.0  0.72608  0.01800  0.43411  1.0000
  C   C1224     1.0  0.51768  0.99379  0.48231  1.0000
  H   H1008     1.0  0.86900  0.15693  0.39694  1.0000
  H   H1009     1.0  0.56722  0.10913  0.28700  1.0000
  P   P42       1.0  0.56298  0.36977  0.30220  1.0000
  C   C1225     1.0  0.58125  0.38393  0.33293  1.0000
  C   C1226     1.0  0.59291  0.38680  0.27776  1.0000
  H   H1010     1.0  0.72594  0.23664  0.36519  1.0000
  H   H1011     1.0  0.96158  0.20769  0.35820  1.0000
  H   H1012     1.0  0.83929  0.20688  0.43787  1.0000
  C   C1227     1.0  0.93385  0.38895  0.48801  1.0000
  H   H1013     1.0  0.93818  0.41706  0.26929  1.0000
  C   C1228     1.0  0.56419  0.38765  0.35352  1.0000
  C   C1229     1.0  0.57821  0.39788  0.37743  1.0000
  C   C1230     1.0  0.60939  0.40480  0.38089  1.0000
  C   C1231     1.0  0.62647  0.40095  0.36054  1.0000
  C   C1232     1.0  0.61239  0.39022  0.33671  1.0000
  C   C1233     1.0  0.53383  0.38286  0.29862  1.0000
  S   S173      1.0  0.50187  0.06738  0.34968  1.0000
  C   C1234     1.0  0.89388  0.45308  0.27128  1.0000
  C   C1235     1.0  0.54289  0.41411  0.29227  1.0000
  C   C1236     1.0  0.91594  0.22742  0.45100  1.0000
  H   H1014     1.0  0.80988  0.19403  0.39710  1.0000
  C   C1237     1.0  0.90029  0.22697  0.35117  1.0000
  H   H1015     1.0  0.52706  0.17087  0.31439  1.0000
  H   H1016     1.0  0.54000  0.38248  0.35126  1.0000
  H   H1017     1.0  0.56481  0.40033  0.39332  1.0000
  H   H1018     1.0  0.70234  0.06269  0.31160  1.0000
  H   H1019     1.0  0.59213  0.05200  0.26460  1.0000
  C   C1238     1.0  0.74732  0.99915  0.32366  1.0000
  C   C1239     1.0  0.50497  0.03554  0.29015  1.0000
  C   C1240     1.0  0.49237  0.06964  0.26549  1.0000
  C   C1241     1.0  0.80828  0.17536  0.40896  1.0000
  C   C1242     1.0  0.61575  0.41859  0.28005  1.0000
  P   P43       1.0  0.56290  0.05412  0.31298  1.0000
  C   C1243     1.0  0.55325  0.06156  0.34540  1.0000
  C   C1244     1.0  0.60175  0.07930  0.30002  1.0000
  C   C1245     1.0  0.62423  0.10642  0.31292  1.0000
  C   C1246     1.0  0.65359  0.12510  0.30189  1.0000
  C   C1247     1.0  0.66095  0.11706  0.27785  1.0000
  C   C1248     1.0  0.63870  0.09055  0.26460  1.0000
  C   C1249     1.0  0.60923  0.07195  0.27551  1.0000
  C   C1250     1.0  0.56316  0.09501  0.35500  1.0000
  C   C1251     1.0  0.54969  0.10116  0.37947  1.0000
  C   C1252     1.0  0.52647  0.07395  0.39505  1.0000
  C   C1253     1.0  0.51620  0.04056  0.38566  1.0000
  C   C1254     1.0  0.52987  0.03430  0.36107  1.0000
  C   C1255     1.0  0.53562  0.05992  0.29372  1.0000
  H   H1020     1.0  0.75267  0.22089  0.29440  1.0000
  C   C1256     1.0  0.91904  0.16234  0.42506  1.0000
  C   C1257     1.0  0.93926  0.31494  0.37198  1.0000
  C   C1258     1.0  0.79450  0.03028  0.47700  1.0000
  C   C1259     1.0  0.54421  0.08950  0.28353  1.0000
  C   C1260     1.0  0.87029  0.45557  0.28552  1.0000
  C   C1261     1.0  0.90587  0.12953  0.46217  1.0000
  H   H1021     1.0  0.61976  0.11367  0.33143  1.0000
  H   H1022     1.0  0.67070  0.14594  0.31207  1.0000
  H   H1023     1.0  0.68377  0.13162  0.26942  1.0000
  C   C1262     1.0  0.95181  0.31642  0.39605  1.0000
  C   C1263     1.0  0.50928  0.27730  0.27953  1.0000
  H   H1024     1.0  0.57704  0.11472  0.34316  1.0000
  H   H1025     1.0  0.55564  0.12506  0.38539  1.0000
  H   H1026     1.0  0.51636  0.07842  0.41229  1.0000
  H   H1027     1.0  0.83352  0.16365  0.46574  1.0000
  H   H1028     1.0  0.51985  0.32270  0.26557  1.0000
  H   H1029     1.0  0.49400  0.26437  0.26380  1.0000
  C   C1264     1.0  0.75766  0.24474  0.29977  1.0000
  H   H1030     1.0  0.49847  0.02114  0.39613  1.0000
  C   C1265     1.0  0.85921  0.17659  0.36456  1.0000
  H   H1031     1.0  0.56724  0.43098  0.28965  1.0000
  H   H1032     1.0  0.49439  0.33872  0.30972  1.0000
  C   C1266     1.0  0.53367  0.27731  0.31926  1.0000
  H   H1033     1.0  0.96550  0.30439  0.39910  1.0000
  C   C1267     1.0  0.49407  0.09493  0.33368  1.0000
  H   H1034     1.0  0.95934  0.33700  0.43385  1.0000
  C   C1268     1.0  0.54874  0.31028  0.32027  1.0000
  C   C1269     1.0  0.80235  0.12695  0.44008  1.0000
  C   C1270     1.0  0.78674  0.11939  0.41657  1.0000
  C   C1271     1.0  0.78925  0.14394  0.40135  1.0000
  P   P44       1.0  0.76002  0.07873  0.40822  1.0000
  C   C1272     1.0  0.77854  0.05366  0.40500  1.0000
  C   C1273     1.0  0.73056  0.06499  0.43296  1.0000
  C   C1274     1.0  0.71909  0.08502  0.44304  1.0000
  C   C1275     1.0  0.69453  0.02369  0.46030  1.0000
  C   C1276     1.0  0.71813  0.03420  0.44174  1.0000
  C   C1277     1.0  0.80674  0.06099  0.41740  1.0000
  C   C1278     1.0  0.81924  0.04003  0.41575  1.0000
  H   H1035     1.0  0.64414  0.08465  0.24569  1.0000
  C   C1279     1.0  0.77675  0.00502  0.38834  1.0000
  C   C1280     1.0  0.76367  0.02542  0.39043  1.0000
  C   C1281     1.0  0.74156  0.07542  0.37791  1.0000
  C   C1282     1.0  0.75999  0.08406  0.35565  1.0000
  C   C1283     1.0  0.74590  0.07954  0.33180  1.0000
  C   C1284     1.0  0.71329  0.06596  0.33001  1.0000
  C   C1285     1.0  0.69486  0.05756  0.35210  1.0000
  C   C1286     1.0  0.70882  0.06209  0.37596  1.0000
  C   C1287     1.0  0.59108  0.47949  0.33532  1.0000
  H   H1036     1.0  0.76033  0.08707  0.31477  1.0000
  H   H1037     1.0  0.78527  0.09431  0.35677  1.0000
  H   H1038     1.0  0.79899  0.10868  0.45313  1.0000
  H   H1039     1.0  0.77602  0.13912  0.38390  1.0000
  H   H1040     1.0  0.72775  0.10864  0.43611  1.0000
  C   C1288     1.0  0.91951  0.22698  0.37073  1.0000
  H   H1041     1.0  0.90994  0.31672  0.45919  1.0000
  C   C1289     1.0  0.82473  0.18257  0.43190  1.0000
  H   H1042     1.0  0.57497  0.01280  0.34604  1.0000
  H   H1043     1.0  0.68661  0.08983  0.46927  1.0000
  H   H1044     1.0  0.94288  0.24661  0.37271  1.0000
  C   C1290     1.0  0.75434  0.12983  0.24270  1.0000
  C   C1291     1.0  0.92770  0.36651  0.46813  1.0000
  C   C1292     1.0  0.54488  0.99684  0.28598  1.0000
  H   H1045     1.0  0.76001  0.02440  0.32701  1.0000
  H   H1046     1.0  0.52243  0.99127  0.46239  1.0000
  H   H1047     1.0  0.88925  0.43016  0.26367  1.0000
  H   H1048     1.0  0.81632  0.33963  0.42839  1.0000
  C   C1293     1.0  0.90908  0.20123  0.38686  1.0000
  C   C1294     1.0  0.51399  0.26082  0.29889  1.0000
  C   C1295     1.0  0.80093  0.06022  0.48724  1.0000
  H   H1049     1.0  0.57716  0.34420  0.25422  1.0000
  H   H1050     1.0  0.53707  0.26449  0.33438  1.0000
  H   H1051     1.0  0.87210  0.43937  0.44191  1.0000
  C   C1296     1.0  0.92288  0.47986  0.26729  1.0000
  H   H1052     1.0  0.89373  0.20602  0.45017  1.0000
  C   C1297     1.0  0.52043  0.42437  0.28998  1.0000
  H   H1053     1.0  0.89212  0.08502  0.40759  1.0000
  H   H1054     1.0  0.68454  0.99975  0.46650  1.0000
  H   H1055     1.0  0.52901  0.11741  0.26232  1.0000
  H   H1056     1.0  0.53902  0.00714  0.27032  1.0000
  H   H1057     1.0  0.90236  0.24642  0.48392  1.0000
  H   H1058     1.0  0.90902  0.24617  0.33798  1.0000
  C   C1298     1.0  0.92062  0.25034  0.46995  1.0000
  C   C1299     1.0  0.94036  0.23141  0.43410  1.0000
  C   C1300     1.0  0.62093  0.48668  0.32508  1.0000
  H   H1059     1.0  0.66444  0.03517  0.48429  1.0000
  S   S174      1.0  0.50282  0.44528  0.46527  1.0000
  C   C1301     1.0  0.94935  0.27778  0.47167  1.0000
  H   H1060     1.0  0.48644  0.18265  0.35348  1.0000
  P   P45       1.0  0.93496  0.20058  0.41097  1.0000
  H   H1061     1.0  0.90445  0.12729  0.48271  1.0000
  C   C1302     1.0  0.93413  0.41346  0.24892  1.0000
  C   C1303     1.0  0.89880  0.10572  0.41986  1.0000
  P   P46       1.0  0.95341  0.47770  0.24804  1.0000
  H   H1062     1.0  0.88770  0.07980  0.45460  1.0000
  H   H1063     1.0  0.78394  0.06858  0.48503  1.0000
  C   C1304     1.0  0.63890  0.43221  0.26137  1.0000
  C   C1305     1.0  0.87534  0.48473  0.29576  1.0000
  H   H1064     1.0  0.85728  0.48657  0.30722  1.0000
  H   H1065     1.0  0.70295  0.99840  0.32106  1.0000
  C   C1306     1.0  0.97331  0.28256  0.45424  1.0000
  C   C1307     1.0  0.96888  0.25950  0.43549  1.0000
  C   C1308     1.0  0.97255  0.20738  0.39811  1.0000
  C   C1309     1.0  0.97911  0.21022  0.37183  1.0000
  H   H1066     1.0  0.78851  0.99293  0.32635  1.0000
  H   H1067     1.0  0.62656  0.07205  0.72482  1.0000
  H   H1068     1.0  0.52994  0.45867  0.59354  1.0000
  S   S175      1.0  0.77598  0.15908  0.70174  1.0000
  Fe  Fe85      1.0  0.91854  0.22243  0.55072  1.0000
  S   S176      1.0  0.94747  0.21308  0.57853  1.0000
  S   S177      1.0  0.93206  0.27226  0.53948  1.0000
  Fe  Fe86      1.0  0.87854  0.15183  0.53599  1.0000
  S   S178      1.0  0.90515  0.13817  0.56303  1.0000
  H   H1069     1.0  0.80671  0.02825  0.61509  1.0000
  Fe  Fe87      1.0  0.90085  0.17298  0.59085  1.0000
  S   S179      1.0  0.88858  0.16123  0.63304  1.0000
  Fe  Fe88      1.0  0.94895  0.17968  0.54809  1.0000
  S   S180      1.0  0.87192  0.18461  0.56453  1.0000
  S   S181      1.0  0.92217  0.19110  0.51958  1.0000
  H   H1070     1.0  0.75916  0.05399  0.67808  1.0000
  C   C1310     1.0  0.95577  0.32485  0.60565  1.0000
  H   H1071     1.0  0.71062  0.12966  0.68192  1.0000
  C   C1311     1.0  0.69382  0.12667  0.69688  1.0000
  C   C1312     1.0  0.68988  0.45824  0.73191  1.0000
  C   C1313     1.0  0.94962  0.30347  0.56226  1.0000
  C   C1314     1.0  0.94389  0.29880  0.58840  1.0000
  C   C1315     1.0  0.71552  0.05593  0.67852  1.0000
  H   H1072     1.0  0.98297  0.25637  0.52759  1.0000
  H   H1073     1.0  0.95608  0.19818  0.65036  1.0000
  H   H1074     1.0  0.86958  0.30538  0.73521  1.0000
  H   H1075     1.0  0.92952  0.27529  0.59526  1.0000
  C   C1316     1.0  0.55663  0.10380  0.71606  1.0000
  C   C1317     1.0  0.51269  0.07960  0.65765  1.0000
  H   H1076     1.0  0.59993  0.00443  0.68061  1.0000
  C   C1318     1.0  0.80733  0.15915  0.68300  1.0000
  C   C1319     1.0  0.80994  0.16700  0.65713  1.0000
  C   C1320     1.0  0.83447  0.16767  0.64156  1.0000
  C   C1321     1.0  0.85685  0.16049  0.65167  1.0000
  C   C1322     1.0  0.85422  0.15262  0.67753  1.0000
  C   C1323     1.0  0.82968  0.15194  0.69310  1.0000
  H   H1077     1.0  0.79289  0.17270  0.64907  1.0000
  H   H1078     1.0  0.83615  0.17396  0.62180  1.0000
  H   H1079     1.0  0.87136  0.14708  0.68564  1.0000
  H   H1080     1.0  0.82810  0.14587  0.71291  1.0000
  C   C1324     1.0  0.52733  0.03685  0.63123  1.0000
  P   P47       1.0  0.50126  0.04891  0.70382  1.0000
  H   H1081     1.0  0.50646  0.09604  0.66747  1.0000
  C   C1325     1.0  0.53039  0.02431  0.52179  1.0000
  H   H1082     1.0  0.95083  0.32116  0.62580  1.0000
  H   H1083     1.0  0.54504  0.04578  0.53243  1.0000
  C   C1326     1.0  0.51151  0.48168  0.50885  1.0000
  C   C1327     1.0  0.60082  0.05647  0.61233  1.0000
  H   H1084     1.0  0.51755  0.10105  0.62130  1.0000
  C   C1328     1.0  0.65838  0.02961  0.72455  1.0000
  C   C1329     1.0  0.84431  0.25483  0.73403  1.0000
  H   H1085     1.0  0.53219  0.01974  0.62096  1.0000
  H   H1086     1.0  0.76032  0.99083  0.51562  1.0000
  C   C1330     1.0  0.61294  0.00474  0.69722  1.0000
  C   C1331     1.0  0.71221  0.46080  0.71330  1.0000
  C   C1332     1.0  0.91915  0.34841  0.51919  1.0000
  H   H1087     1.0  0.82286  0.20446  0.73743  1.0000
  C   C1333     1.0  0.70990  0.08725  0.64595  1.0000
  H   H1088     1.0  0.93341  0.26235  0.72567  1.0000
  C   C1334     1.0  0.67872  0.14947  0.73288  1.0000
  C   C1335     1.0  0.62272  0.07996  0.65353  1.0000
  H   H1089     1.0  0.95994  0.33963  0.68260  1.0000
  C   C1336     1.0  0.80421  0.09039  0.57146  1.0000
  C   C1337     1.0  0.60546  0.07852  0.63202  1.0000
  C   C1338     1.0  0.96812  0.25771  0.66948  1.0000
  P   P48       1.0  0.66104  0.06310  0.68151  1.0000
  H   H1090     1.0  0.74925  0.10949  0.62026  1.0000
  H   H1091     1.0  0.59581  0.09465  0.63053  1.0000
  C   C1339     1.0  0.80537  0.04534  0.60299  1.0000
  H   H1092     1.0  0.50054  0.46465  0.71059  1.0000
  C   C1340     1.0  0.82216  0.09989  0.59362  1.0000
  C   C1341     1.0  0.82570  0.00204  0.55788  1.0000
  H   H1093     1.0  0.59832  0.14672  0.72620  1.0000
  H   H1094     1.0  0.68107  0.04897  0.72931  1.0000
  H   H1095     1.0  0.83598  0.12472  0.59840  1.0000
  C   C1342     1.0  0.97393  0.35559  0.59692  1.0000
  H   H1096     1.0  0.97268  0.33767  0.53355  1.0000
  C   C1343     1.0  0.74514  0.06278  0.66879  1.0000
  H   H1097     1.0  0.80433  0.10792  0.55898  1.0000
  C   C1344     1.0  0.51901  0.08258  0.63147  1.0000
  C   C1345     1.0  0.73952  0.09404  0.63623  1.0000
  C   C1346     1.0  0.65254  0.12037  0.73698  1.0000
  C   C1347     1.0  0.66774  0.09725  0.70109  1.0000
  H   H1098     1.0  0.77426  0.05173  0.54706  1.0000
  H   H1099     1.0  0.87242  0.08229  0.51305  1.0000
  C   C1348     1.0  0.70673  0.43522  0.69692  1.0000
  H   H1100     1.0  0.50014  0.00210  0.55401  1.0000
  H   H1101     1.0  0.83749  0.08511  0.62621  1.0000
  H   H1102     1.0  0.74442  0.00732  0.62136  1.0000
  H   H1103     1.0  0.67518  0.38678  0.68682  1.0000
  H   H1104     1.0  0.51789  0.46538  0.51727  1.0000
  H   H1105     1.0  0.96398  0.44016  0.74084  1.0000
  C   C1349     1.0  0.51291  0.00020  0.71819  1.0000
  H   H1106     1.0  0.63564  0.46955  0.73184  1.0000
  C   C1350     1.0  0.65759  0.40352  0.71858  1.0000
  C   C1351     1.0  0.78692  0.03555  0.58085  1.0000
  C   C1352     1.0  0.78696  0.05838  0.56487  1.0000
  C   C1353     1.0  0.51307  0.05478  0.67071  1.0000
  H   H1107     1.0  0.87148  0.00960  0.54557  1.0000
  C   C1354     1.0  0.91254  0.24048  0.66389  1.0000
  H   H1108     1.0  0.70712  0.04154  0.69499  1.0000
  C   C1355     1.0  0.94221  0.33271  0.72127  1.0000
  H   H1109     1.0  0.94358  0.24213  0.63350  1.0000
  H   H1110     1.0  0.89214  0.23100  0.65165  1.0000
  C   C1356     1.0  0.53278  0.07500  0.72467  1.0000
  H   H1111     1.0  0.51352  0.42802  0.55266  1.0000
  H   H1112     1.0  0.73407  0.48243  0.71161  1.0000
  C   C1357     1.0  0.96515  0.26428  0.69540  1.0000
  C   C1358     1.0  0.96830  0.33407  0.55367  1.0000
  H   H1113     1.0  0.49326  0.47293  0.61719  1.0000
  C   C1359     1.0  0.64320  0.02948  0.70198  1.0000
  C   C1360     1.0  0.49725  0.43358  0.56335  1.0000
  C   C1361     1.0  0.57992  0.12449  0.73285  1.0000
  C   C1362     1.0  0.61310  0.03556  0.61429  1.0000
  H   H1114     1.0  0.95143  0.15458  0.62211  1.0000
  S   S182      1.0  0.83760  0.11822  0.51050  1.0000
  H   H1115     1.0  0.90388  0.30138  0.50427  1.0000
  H   H1116     1.0  0.83540  0.02323  0.56975  1.0000
  C   C1363     1.0  0.63561  0.05936  0.65542  1.0000
  H   H1117     1.0  0.69701  0.09770  0.63725  1.0000
  C   C1364     1.0  0.50489  0.99949  0.53413  1.0000
  H   H1118     1.0  0.92078  0.31211  0.71579  1.0000
  C   C1365     1.0  0.84641  0.99442  0.54413  1.0000
  H   H1119     1.0  0.93492  0.39744  0.52866  1.0000
  C   C1366     1.0  0.52108  0.03379  0.65736  1.0000
  C   C1367     1.0  0.67932  0.40665  0.69943  1.0000
  C   C1368     1.0  0.75727  0.08211  0.64784  1.0000
  C   C1369     1.0  0.53699  0.02174  0.49580  1.0000
  H   H1120     1.0  0.78077  0.08857  0.64103  1.0000
  C   C1370     1.0  0.97818  0.43745  0.67741  1.0000
  C   C1371     1.0  0.69925  0.15265  0.71275  1.0000
  H   H1121     1.0  0.72009  0.17497  0.70995  1.0000
  C   C1372     1.0  0.96845  0.48178  0.50233  1.0000
  C   C1373     1.0  0.50653  0.45090  0.58632  1.0000
  H   H1122     1.0  0.60947  0.01851  0.59899  1.0000
  H   H1123     1.0  0.94495  0.47107  0.51019  1.0000
  H   H1124     1.0  0.94883  0.40264  0.70414  1.0000
  H   H1125     1.0  0.91584  0.34138  0.53891  1.0000
  C   C1374     1.0  0.69781  0.06853  0.66748  1.0000
  H   H1126     1.0  0.74060  0.04639  0.73757  1.0000
  C   C1375     1.0  0.90946  0.24575  0.68987  1.0000
  H   H1127     1.0  0.97159  0.42089  0.66130  1.0000
  H   H1128     1.0  0.67906  0.99822  0.63218  1.0000
  H   H1129     1.0  0.88660  0.24025  0.69776  1.0000
  H   H1130     1.0  0.62635  0.09753  0.66834  1.0000
  C   C1376     1.0  0.64685  0.09442  0.72106  1.0000
  C   C1377     1.0  0.48989  0.00846  0.71118  1.0000
  C   C1378     1.0  0.51849  0.48753  0.71727  1.0000
  H   H1131     1.0  0.58765  0.05556  0.59556  1.0000
  C   C1379     1.0  0.82292  0.07743  0.60931  1.0000
  H   H1132     1.0  0.55722  0.11051  0.69653  1.0000
  C   C1380     1.0  0.93581  0.25795  0.70559  1.0000
  H   H1133     1.0  0.64020  0.02102  0.63689  1.0000
  C   C1381     1.0  0.63043  0.03700  0.63574  1.0000
  C   C1382     1.0  0.94175  0.24664  0.65368  1.0000
  C   C1383     1.0  0.52601  0.06100  0.61820  1.0000
  H   H1134     1.0  0.52988  0.06266  0.59775  1.0000
  H   H1135     1.0  0.63669  0.38114  0.72092  1.0000
  C   C1384     1.0  0.91246  0.32585  0.49956  1.0000
  H   H1136     1.0  0.53727  0.01786  0.71973  1.0000
  H   H1137     1.0  0.52150  0.01433  0.66671  1.0000
  C   C1385     1.0  0.71494  0.99739  0.72522  1.0000
  P   P49       1.0  0.76617  0.99426  0.57162  1.0000
  H   H1138     1.0  0.72397  0.43743  0.68249  1.0000
  C   C1386     1.0  0.96453  0.34815  0.70228  1.0000
  C   C1387     1.0  0.82926  0.07947  0.50002  1.0000
  C   C1388     1.0  0.64432  0.00489  0.74144  1.0000
  C   C1389     1.0  0.97423  0.44854  0.72235  1.0000
  H   H1139     1.0  0.82778  0.25360  0.71983  1.0000
  C   C1390     1.0  0.92990  0.37996  0.51342  1.0000
  C   C1391     1.0  0.96549  0.42719  0.70157  1.0000
  H   H1140     1.0  0.86156  0.03001  0.49445  1.0000
  C   C1392     1.0  0.84440  0.03823  0.49257  1.0000
  C   C1393     1.0  0.97276  0.17692  0.62178  1.0000
  C   C1394     1.0  0.48591  0.45898  0.59961  1.0000
  C   C1395     1.0  0.98058  0.36004  0.57087  1.0000
  C   C1396     1.0  0.97535  0.20200  0.63761  1.0000
  H   H1141     1.0  0.72131  0.00207  0.70540  1.0000
  C   C1397     1.0  0.85066  0.06797  0.50310  1.0000
  C   C1398     1.0  0.66304  0.42906  0.73501  1.0000
  Fe  Fe89      1.0  0.89715  0.37238  0.89000  1.0000
  S   S183      1.0  0.93213  0.40085  0.86016  1.0000
  S   S184      1.0  0.85076  0.32995  0.87809  1.0000
  Fe  Fe90      1.0  0.93679  0.41873  0.93370  1.0000
  C   C1399     1.0  0.82257  0.05930  0.95314  1.0000
  S   S185      1.0  0.93799  0.43023  0.97663  1.0000
  Fe  Fe91      1.0  0.93460  0.44380  0.88092  1.0000
  C   C1400     1.0  0.85201  0.07241  0.96469  1.0000
  Fe  Fe92      1.0  0.96784  0.40359  0.88844  1.0000
  S   S186      1.0  0.89733  0.41523  0.90925  1.0000
  S   S187      1.0  0.93275  0.37291  0.91726  1.0000
  H   H1142     1.0  0.49113  0.36522  0.86557  1.0000
  Fe  Fe93      1.0  0.50147  0.04906  0.87001  1.0000
  S   S188      1.0  0.53850  0.04314  0.84548  1.0000
  S   S189      1.0  0.51108  0.08601  0.90089  1.0000
  H   H1143     1.0  0.52446  0.29577  0.90686  1.0000
  C   C1401     1.0  0.89514  0.47537  0.82748  1.0000
  S   S190      1.0  0.50574  0.45250  0.84510  1.0000
  C   C1402     1.0  0.63071  0.10396  0.92824  1.0000
  Fe  Fe94      1.0  0.74590  0.09692  0.78367  1.0000
  S   S191      1.0  0.73338  0.04672  0.79296  1.0000
  Fe  Fe95      1.0  0.78538  0.16699  0.79893  1.0000
  C   C1403     1.0  0.97792  0.31238  0.83603  1.0000
  S   S192      1.0  0.82826  0.20084  0.82225  1.0000
  Fe  Fe96      1.0  0.71497  0.13918  0.78711  1.0000
  S   S193      1.0  0.67156  0.14393  0.80029  1.0000
  S   S194      1.0  0.74187  0.12752  0.81546  1.0000
  S   S195      1.0  0.79230  0.13496  0.76988  1.0000
  C   C1404     1.0  0.71895  0.01627  0.76928  1.0000
  H   H1144     1.0  0.50158  0.32253  0.93327  1.0000
  C   C1405     1.0  0.74659  0.01937  0.88160  1.0000
  C   C1406     1.0  0.69338  0.13121  0.88920  1.0000
  C   C1407     1.0  0.57620  0.07176  0.83446  1.0000
  C   C1408     1.0  0.58628  0.10418  0.83657  1.0000
  C   C1409     1.0  0.61544  0.12581  0.82605  1.0000
  C   C1410     1.0  0.63527  0.11550  0.81370  1.0000
  C   C1411     1.0  0.62526  0.08311  0.81170  1.0000
  C   C1412     1.0  0.59595  0.06145  0.82195  1.0000
  H   H1145     1.0  0.57138  0.11259  0.84595  1.0000
  H   H1146     1.0  0.62269  0.15076  0.82757  1.0000
  H   H1147     1.0  0.63983  0.07470  0.80183  1.0000
  H   H1148     1.0  0.58842  0.03647  0.82000  1.0000
  C   C1413     1.0  0.72494  0.15219  0.89463  1.0000
  H   H1149     1.0  0.85547  0.44599  0.92661  1.0000
  C   C1414     1.0  0.97601  0.47499  0.78922  1.0000
  C   C1415     1.0  0.51683  0.38359  0.80511  1.0000
  C   C1416     1.0  0.52339  0.41109  0.81989  1.0000
  C   C1417     1.0  0.49893  0.41696  0.82835  1.0000
  H   H1150     1.0  0.53598  0.37969  0.79818  1.0000
  H   H1151     1.0  0.54739  0.42807  0.82418  1.0000
  H   H1152     1.0  0.85893  0.20691  0.77118  1.0000
  C   C1418     1.0  0.49306  0.30279  0.85117  1.0000
  H   H1153     1.0  0.89202  0.45163  0.82771  1.0000
  C   C1419     1.0  0.84533  0.29472  0.86177  1.0000
  C   C1420     1.0  0.81546  0.27357  0.85225  1.0000
  C   C1421     1.0  0.81002  0.24514  0.83953  1.0000
  C   C1422     1.0  0.83438  0.23735  0.83645  1.0000
  C   C1423     1.0  0.86430  0.25862  0.84575  1.0000
  C   C1424     1.0  0.86977  0.28713  0.85830  1.0000
  H   H1154     1.0  0.79637  0.27918  0.85481  1.0000
  H   H1155     1.0  0.78689  0.22905  0.83246  1.0000
  H   H1156     1.0  0.88334  0.25294  0.84338  1.0000
  H   H1157     1.0  0.89273  0.30307  0.86564  1.0000
  C   C1425     1.0  0.67646  0.07154  0.85099  1.0000
  P   P50       1.0  0.77120  0.01217  0.92711  1.0000
  H   H1158     1.0  0.95332  0.45111  0.82348  1.0000
  C   C1426     1.0  0.96929  0.20483  0.97083  1.0000
  Fe  Fe97      1.0  0.76344  0.14691  0.74387  1.0000
  H   H1159     1.0  0.80842  0.10680  0.87364  1.0000
  C   C1427     1.0  0.72002  0.48523  0.77928  1.0000
  H   H1160     1.0  0.53736  0.34380  0.86046  1.0000
  C   C1428     1.0  0.66748  0.01893  0.83900  1.0000
  H   H1161     1.0  0.86866  0.01180  0.95423  1.0000
  C   C1429     1.0  0.88592  0.25757  0.77144  1.0000
  C   C1430     1.0  0.88949  0.28560  0.76110  1.0000
  C   C1431     1.0  0.91903  0.16924  0.99082  1.0000
  P   P51       1.0  0.92012  0.32356  0.77199  1.0000
  C   C1432     1.0  0.90097  0.34577  0.78415  1.0000
  C   C1433     1.0  0.94226  0.31885  0.79732  1.0000
  C   C1434     1.0  0.93872  0.32667  0.82278  1.0000
  C   C1435     1.0  0.71446  0.00909  0.94378  1.0000
  C   C1436     1.0  0.79278  0.06579  0.89675  1.0000
  C   C1437     1.0  0.97431  0.45964  0.81176  1.0000
  C   C1438     1.0  0.73376  0.08665  0.96714  1.0000
  C   C1439     1.0  0.91320  0.37801  0.77950  1.0000
  C   C1440     1.0  0.89854  0.39490  0.78995  1.0000
  C   C1441     1.0  0.87182  0.37983  0.80525  1.0000
  C   C1442     1.0  0.85947  0.34777  0.80983  1.0000
  C   C1443     1.0  0.87382  0.33073  0.79925  1.0000
  C   C1444     1.0  0.94796  0.34375  0.74677  1.0000
  C   C1445     1.0  0.98184  0.30481  0.81074  1.0000
  H   H1162     1.0  0.68120  0.09469  0.84513  1.0000
  H   H1163     1.0  0.76645  0.08005  0.84151  1.0000
  H   H1164     1.0  0.81175  0.07794  0.90998  1.0000
  C   C1446     1.0  0.66316  0.01082  0.86463  1.0000
  C   C1447     1.0  0.97657  0.37031  0.75290  1.0000
  H   H1165     1.0  0.98175  0.37904  0.77248  1.0000
  C   C1448     1.0  0.93940  0.19853  0.98033  1.0000
  H   H1166     1.0  0.90076  0.25799  0.78669  1.0000
  C   C1449     1.0  0.67255  0.06374  0.87680  1.0000
  H   H1167     1.0  0.92272  0.33578  0.82803  1.0000
  C   C1450     1.0  0.50339  0.27326  0.90730  1.0000
  C   C1451     1.0  0.67650  0.14103  0.87370  1.0000
  H   H1168     1.0  0.65217  0.12527  0.86914  1.0000
  H   H1169     1.0  0.78424  0.15417  0.93849  1.0000
  H   H1170     1.0  0.48548  0.08623  0.74184  1.0000
  C   C1452     1.0  0.72507  0.08787  0.92200  1.0000
  H   H1171     1.0  0.86080  0.39299  0.81379  1.0000
  H   H1172     1.0  0.83906  0.33620  0.82208  1.0000
  H   H1173     1.0  0.86415  0.30597  0.80345  1.0000
  C   C1453     1.0  0.57438  0.07112  0.92617  1.0000
  H   H1174     1.0  0.67813  0.17809  0.85086  1.0000
  H   H1175     1.0  0.93408  0.39029  0.76807  1.0000
  H   H1176     1.0  0.56345  0.34091  0.82046  1.0000
  C   C1454     1.0  0.86865  0.05532  0.96502  1.0000
  H   H1177     1.0  0.89932  0.18874  0.78602  1.0000
  C   C1455     1.0  0.84147  0.22706  0.74394  1.0000
  H   H1178     1.0  0.86264  0.46554  0.79661  1.0000
  H   H1179     1.0  0.66523  0.08792  0.95767  1.0000
  C   C1456     1.0  0.70481  0.46810  0.80095  1.0000
  C   C1457     1.0  0.72205  0.46334  0.81981  1.0000
  C   C1458     1.0  0.76750  0.06743  0.85790  1.0000
  H   H1180     1.0  0.86801  0.14161  0.81162  1.0000
  H   H1181     1.0  0.90800  0.41978  0.78649  1.0000
  H   H1182     1.0  0.95392  0.32983  0.86157  1.0000
  H   H1183     1.0  0.71030  0.45056  0.83670  1.0000
  P   P52       1.0  0.67435  0.09175  0.90136  1.0000
  H   H1184     1.0  0.67084  0.00691  0.95675  1.0000
  C   C1459     1.0  0.87851  0.48337  0.80985  1.0000
  H   H1185     1.0  0.67969  0.45834  0.80337  1.0000
  C   C1460     1.0  0.90096  0.19048  0.80662  1.0000
  S   S196      1.0  0.71705  0.10669  0.75612  1.0000
  H   H1186     1.0  0.51480  0.04510  0.75738  1.0000
  C   C1461     1.0  0.86211  0.22846  0.76275  1.0000
  C   C1462     1.0  0.70549  0.08691  0.97259  1.0000
  H   H1187     1.0  0.61101  0.04182  0.88630  1.0000
  C   C1463     1.0  0.63509  0.08340  0.91097  1.0000
  C   C1464     1.0  0.69111  0.17101  0.86334  1.0000
  C   C1465     1.0  0.52377  0.29881  0.80634  1.0000
  C   C1466     1.0  0.53952  0.32330  0.82414  1.0000
  C   C1467     1.0  0.52440  0.32510  0.84667  1.0000
  C   C1468     1.0  0.97013  0.28201  0.92667  1.0000
  C   C1469     1.0  0.69698  0.08902  0.92734  1.0000
  H   H1188     1.0  0.55584  0.08169  0.78662  1.0000
  H   H1189     1.0  0.89093  0.06501  0.97478  1.0000
  C   C1470     1.0  0.75012  0.01275  0.97703  1.0000
  C   C1471     1.0  0.72265  0.19147  0.86839  1.0000
  C   C1472     1.0  0.51411  0.39651  0.89720  1.0000
  C   C1473     1.0  0.52456  0.39941  0.92224  1.0000
  C   C1474     1.0  0.52019  0.37263  0.93502  1.0000
  H   H1190     1.0  0.79194  0.16290  0.89173  1.0000
  C   C1475     1.0  0.79113  0.08239  0.87597  1.0000
  C   C1476     1.0  0.67425  0.04927  0.83224  1.0000
  H   H1191     1.0  0.73841  0.14565  0.90684  1.0000
  C   C1477     1.0  0.60048  0.09760  0.93602  1.0000
  C   C1478     1.0  0.80991  0.02937  0.94109  1.0000
  C   C1479     1.0  0.48581  0.36131  0.79896  1.0000
  C   C1480     1.0  0.87466  0.46692  0.93496  1.0000
  H   H1192     1.0  0.59741  0.13269  0.77140  1.0000
  C   C1481     1.0  0.69298  0.00850  0.96235  1.0000
  H   H1193     1.0  0.52832  0.37496  0.95444  1.0000
  C   C1482     1.0  0.96402  0.30792  0.79144  1.0000
  C   C1483     1.0  0.73952  0.18215  0.88414  1.0000
  H   H1194     1.0  0.73293  0.08810  0.90247  1.0000
  H   H1195     1.0  0.53530  0.29759  0.78874  1.0000
  C   C1484     1.0  0.97893  0.18162  0.97115  1.0000
  H   H1196     1.0  0.76789  0.47173  0.83164  1.0000
  H   H1197     1.0  0.51734  0.41718  0.88723  1.0000
  H   H1198     1.0  0.65069  0.12482  0.93577  1.0000
  C   C1485     1.0  0.50502  0.24731  0.91690  1.0000
  C   C1486     1.0  0.74543  0.03590  0.86063  1.0000
  H   H1199     1.0  0.73405  0.21449  0.85999  1.0000
  C   C1487     1.0  0.66571  0.03314  0.88349  1.0000
  S   S197      1.0  0.97417  0.44926  0.90632  1.0000
  H   H1200     1.0  0.76515  0.08628  0.93770  1.0000
  H   H1201     1.0  0.55815  0.03141  0.89983  1.0000
  C   C1488     1.0  0.88515  0.16611  0.84765  1.0000
  C   C1489     1.0  0.81142  0.16663  0.90369  1.0000
  H   H1202     1.0  0.96589  0.13436  0.98232  1.0000
  H   H1203     1.0  0.96740  0.30209  0.77191  1.0000
  C   C1490     1.0  0.60865  0.05735  0.90055  1.0000
  C   C1491     1.0  0.82692  0.01242  0.94142  1.0000
  H   H1204     1.0  0.68357  0.16927  0.74582  1.0000
  H   H1205     1.0  0.76399  0.19819  0.88801  1.0000
  S   S198      1.0  0.57535  0.47783  0.89454  1.0000
  H   H1206     1.0  0.63733  0.11765  0.75314  1.0000
  H   H1207     1.0  0.53601  0.42246  0.93171  1.0000
  C   C1492     1.0  0.74344  0.08692  0.94185  1.0000
  C   C1493     1.0  0.53278  0.06716  0.75022  1.0000
  C   C1494     1.0  0.72599  0.02244  0.74342  1.0000
  C   C1495     1.0  0.95566  0.14004  0.91483  1.0000
  C   C1496     1.0  0.92456  0.12970  0.92240  1.0000
  C   C1497     1.0  0.90919  0.14699  0.91639  1.0000
  C   C1498     1.0  0.92507  0.17506  0.90298  1.0000
  C   C1499     1.0  0.95597  0.18462  0.89466  1.0000
  P   P53       1.0  0.90575  0.19761  0.89435  1.0000
  C   C1500     1.0  0.90400  0.19518  0.86001  1.0000
  C   C1501     1.0  0.86685  0.18240  0.90791  1.0000
  C   C1502     1.0  0.84116  0.17724  0.89276  1.0000
  S   S199      1.0  0.75868  0.18097  0.77219  1.0000
  H   H1208     1.0  0.66203  0.02648  0.90326  1.0000
  H   H1209     1.0  0.95571  0.47713  0.78359  1.0000
  C   C1503     1.0  0.86253  0.17812  0.93430  1.0000
  C   C1504     1.0  0.57847  0.05130  0.90816  1.0000
  H   H1210     1.0  0.66595  0.00187  0.82433  1.0000
  H   H1211     1.0  0.87144  0.14530  0.85862  1.0000
  C   C1505     1.0  0.92047  0.21929  0.81878  1.0000
  C   C1506     1.0  0.92202  0.22172  0.84539  1.0000
  C   C1507     1.0  0.92617  0.23816  0.90557  1.0000
  C   C1508     1.0  0.91254  0.25778  0.90174  1.0000
  C   C1509     1.0  0.92761  0.28922  0.91027  1.0000
  C   C1510     1.0  0.95643  0.30137  0.92263  1.0000
  H   H1212     1.0  0.84398  0.18213  0.87261  1.0000
  C   C1511     1.0  0.95495  0.25042  0.91838  1.0000
  H   H1213     1.0  0.52696  0.25001  0.92426  1.0000
  C   C1512     1.0  0.85611  0.02536  0.95340  1.0000
  H   H1214     1.0  0.91257  0.10860  0.93335  1.0000
  H   H1215     1.0  0.88506  0.13823  0.92231  1.0000
  H   H1216     1.0  0.96843  0.20574  0.88374  1.0000
  C   C1513     1.0  0.88907  0.46479  0.95705  1.0000
  C   C1514     1.0  0.50530  0.34294  0.92279  1.0000
  H   H1217     1.0  0.80938  0.07228  0.95413  1.0000
  H   H1218     1.0  0.53102  0.46930  0.74947  1.0000
  H   H1219     1.0  0.88226  0.18323  0.94652  1.0000
  H   H1220     1.0  0.55095  0.06611  0.93230  1.0000
  H   H1221     1.0  0.59718  0.11325  0.94961  1.0000
  H   H1222     1.0  0.93420  0.23982  0.80760  1.0000
  H   H1223     1.0  0.93715  0.24430  0.85439  1.0000
  H   H1224     1.0  0.89013  0.24873  0.89227  1.0000
  H   H1225     1.0  0.91686  0.30417  0.90741  1.0000
  H   H1226     1.0  0.96578  0.23588  0.92220  1.0000
  C   C1515     1.0  0.88336  0.16388  0.82105  1.0000
  C   C1516     1.0  0.60820  0.47796  0.76078  1.0000
  C   C1517     1.0  0.63567  0.47858  0.75101  1.0000
  C   C1518     1.0  0.49284  0.27617  0.81099  1.0000
  H   H1227     1.0  0.88130  0.44218  0.96575  1.0000
  C   C1519     1.0  0.68709  0.08801  0.95283  1.0000
  H   H1228     1.0  0.67800  0.05560  0.81237  1.0000
  C   C1520     1.0  0.97131  0.16740  0.90087  1.0000
  H   H1229     1.0  0.72765  0.02421  0.84616  1.0000
  H   H1230     1.0  0.86149  0.09544  0.97410  1.0000
  H   H1231     1.0  0.82970  0.16416  0.96561  1.0000
  C   C1521     1.0  0.95635  0.32323  0.84201  1.0000
  C   C1522     1.0  0.95872  0.15250  0.98196  1.0000
  H   H1232     1.0  0.70837  0.00762  0.92393  1.0000
  C   C1523     1.0  0.80716  0.16173  0.92991  1.0000
  H   H1233     1.0  0.49859  0.40519  0.97514  1.0000
  C   C1524     1.0  0.75445  0.47527  0.81701  1.0000
  H   H1234     1.0  0.81752  0.98889  0.93307  1.0000
  C   C1525     1.0  0.74346  0.01173  0.95098  1.0000
  C   C1526     1.0  0.55603  0.08788  0.76692  1.0000
  H   H1235     1.0  0.96802  0.32575  0.92920  1.0000
  H   H1236     1.0  0.96795  0.12730  0.92031  1.0000
  C   C1527     1.0  0.77041  0.03405  0.89985  1.0000
  C   C1528     1.0  0.83273  0.16744  0.94519  1.0000
  C   C1529     1.0  0.70026  0.01052  0.98819  1.0000
  C   C1530     1.0  0.49919  0.36694  0.88496  1.0000
  C   C1531     1.0  0.57947  0.11663  0.75831  1.0000
  C   C1532     1.0  0.48735  0.01146  0.98274  1.0000
  H   H1237     1.0  0.64648  0.42587  0.75028  1.0000
  H   H1238     1.0  0.77178  0.01367  0.98321  1.0000
  H   H1239     1.0  0.93193  0.21640  0.97929  1.0000
  H   H1240     1.0  0.98465  0.22742  0.96279  1.0000
  H   H1241     1.0  0.74777  0.08557  0.98259  1.0000
  H   H1242     1.0  0.65641  0.00513  0.75866  1.0000
  H   H1243     1.0  0.72908  0.99495  0.88333  1.0000
  C   C1533     1.0  0.49486  0.33994  0.89759  1.0000
  H   H1244     1.0  0.58713  0.46800  0.74935  1.0000
  C   C1534     1.0  0.86802  0.28402  0.74274  1.0000
  H   H1245     1.0  0.91877  0.65693  0.21356  1.0000
  S   S200      1.0  0.77544  0.60415  0.19554  1.0000
  H   H1246     1.0  0.71379  0.92417  0.01842  1.0000
  Fe  Fe98      1.0  0.60687  0.77819  0.20458  1.0000
  H   H1247     1.0  0.84011  0.85104  0.02097  1.0000
  S   S201      1.0  0.61424  0.82199  0.18326  1.0000
  Fe  Fe99      1.0  0.63732  0.73655  0.21679  1.0000
  S   S202      1.0  0.67460  0.72233  0.20553  1.0000
  Fe  Fe100     1.0  0.56644  0.70897  0.21912  1.0000
  S   S203      1.0  0.51872  0.66558  0.21170  1.0000
  S   S204      1.0  0.60154  0.73223  0.18784  1.0000
  C   C1535     1.0  0.98204  0.55334  0.18688  1.0000
  Fe  Fe101     1.0  0.90117  0.71894  0.09267  1.0000
  S   S205      1.0  0.87373  0.68033  0.06426  1.0000
  S   S206      1.0  0.88592  0.71665  0.13466  1.0000
  Fe  Fe102     1.0  0.94933  0.75951  0.05103  1.0000
  S   S207      1.0  0.92354  0.72323  0.02033  1.0000
  Fe  Fe103     1.0  0.87937  0.71939  0.03858  1.0000
  S   S208      1.0  0.83510  0.71234  0.01840  1.0000
  Fe  Fe104     1.0  0.92071  0.68847  0.04924  1.0000
  S   S209      1.0  0.93536  0.65161  0.03775  1.0000
  S   S210      1.0  0.90490  0.75793  0.06771  1.0000
  S   S211      1.0  0.94841  0.72482  0.07917  1.0000
  Fe  Fe105     1.0  0.52201  0.89219  0.10524  1.0000
  S   S212      1.0  0.53483  0.93030  0.13541  1.0000
  S   S213      1.0  0.51989  0.84482  0.11366  1.0000
  Fe  Fe106     1.0  0.51327  0.93322  0.06470  1.0000
  H   H1248     1.0  0.60224  0.71725  0.99887  1.0000
  Fe  Fe107     1.0  0.56505  0.96245  0.10453  1.0000
  S   S214      1.0  0.55339  0.92397  0.07493  1.0000
  C   C1536     1.0  0.79212  0.97335  0.01136  1.0000
  C   C1537     1.0  0.98140  0.55566  0.01841  1.0000
  C   C1538     1.0  0.85387  0.77102  0.99764  1.0000
  C   C1539     1.0  0.95568  0.55182  0.00392  1.0000
  H   H1249     1.0  0.68386  0.96414  0.06661  1.0000
  H   H1250     1.0  0.63570  0.53373  0.23426  1.0000
  C   C1540     1.0  0.92462  0.54196  0.04286  1.0000
  C   C1541     1.0  0.74551  0.78655  0.13878  1.0000
  C   C1542     1.0  0.61629  0.66646  0.16179  1.0000
  H   H1251     1.0  0.62187  0.68667  0.17430  1.0000
  C   C1543     1.0  0.81365  0.78503  0.05600  1.0000
  C   C1544     1.0  0.94984  0.62471  0.10661  1.0000
  C   C1545     1.0  0.93893  0.63679  0.08744  1.0000
  C   C1546     1.0  0.95034  0.63876  0.06250  1.0000
  H   H1252     1.0  0.94863  0.54435  0.07769  1.0000
  C   C1547     1.0  0.97335  0.62948  0.05701  1.0000
  H   H1253     1.0  0.92100  0.64367  0.09174  1.0000
  C   C1548     1.0  0.58706  0.82777  0.16464  1.0000
  C   C1549     1.0  0.59474  0.85848  0.15744  1.0000
  C   C1550     1.0  0.57413  0.86420  0.14245  1.0000
  C   C1551     1.0  0.54591  0.83911  0.13383  1.0000
  C   C1552     1.0  0.53845  0.80836  0.14079  1.0000
  C   C1553     1.0  0.55869  0.80273  0.15631  1.0000
  H   H1254     1.0  0.61665  0.87805  0.16365  1.0000
  H   H1255     1.0  0.58023  0.88797  0.13727  1.0000
  H   H1256     1.0  0.51670  0.78878  0.13429  1.0000
  H   H1257     1.0  0.55234  0.77902  0.16175  1.0000
  C   C1554     1.0  0.51105  0.63166  0.19213  1.0000
  C   C1555     1.0  0.56925  0.82117  0.06208  1.0000
  C   C1556     1.0  0.52750  0.59655  0.16988  1.0000
  C   C1557     1.0  0.53476  0.62420  0.18465  1.0000
  C   C1558     1.0  0.62507  0.52031  0.10946  1.0000
  H   H1258     1.0  0.54594  0.59083  0.16451  1.0000
  H   H1259     1.0  0.55857  0.63940  0.19071  1.0000
  C   C1559     1.0  0.80661  0.63560  0.17907  1.0000
  C   C1560     1.0  0.81142  0.63159  0.15292  1.0000
  C   C1561     1.0  0.83558  0.65594  0.13907  1.0000
  C   C1562     1.0  0.85526  0.68482  0.15117  1.0000
  C   C1563     1.0  0.85044  0.68883  0.17730  1.0000
  C   C1564     1.0  0.82635  0.66446  0.19116  1.0000
  H   H1260     1.0  0.79636  0.60942  0.14331  1.0000
  H   H1261     1.0  0.83900  0.65231  0.11906  1.0000
  H   H1262     1.0  0.86546  0.71099  0.18693  1.0000
  H   H1263     1.0  0.82301  0.66806  0.21120  1.0000
  C   C1565     1.0  0.95085  0.53692  0.19495  1.0000
  C   C1566     1.0  0.70651  0.69210  0.22261  1.0000
  C   C1567     1.0  0.76633  0.93581  0.09476  1.0000
  H   H1264     1.0  0.70891  0.68706  0.20271  1.0000
  H   H1265     1.0  0.71922  0.94104  0.07114  1.0000
  H   H1266     1.0  0.68438  0.96000  0.22017  1.0000
  H   H1267     1.0  0.71439  0.71234  0.16118  1.0000
  H   H1268     1.0  0.94035  0.62248  0.12572  1.0000
  H   H1269     1.0  0.80972  0.97941  0.09626  1.0000
  H   H1270     1.0  0.88161  0.63263  0.17770  1.0000
  C   C1568     1.0  0.75116  0.78051  0.11347  1.0000
  H   H1271     1.0  0.64658  0.68859  0.00924  1.0000
  H   H1272     1.0  0.97963  0.70356  0.01100  1.0000
  C   C1569     1.0  0.54395  0.79615  0.07366  1.0000
  C   C1570     1.0  0.67493  0.94072  0.07410  1.0000
  H   H1273     1.0  0.77958  0.71085  0.99937  1.0000
  C   C1571     1.0  0.69055  0.70921  0.22957  1.0000
  H   H1274     1.0  0.58432  0.66048  0.00434  1.0000
  H   H1275     1.0  0.80312  0.91399  0.03614  1.0000
  H   H1276     1.0  0.52684  0.75129  0.09066  1.0000
  C   C1572     1.0  0.76105  0.96269  0.01939  1.0000
  H   H1277     1.0  0.52349  0.70621  0.17136  1.0000
  H   H1278     1.0  0.89790  0.65177  0.13398  1.0000
  C   C1573     1.0  0.79299  0.91982  0.05276  1.0000
  H   H1279     1.0  0.67161  0.81394  0.01417  1.0000
  C   C1574     1.0  0.97297  0.61556  0.10117  1.0000
  H   H1280     1.0  0.90279  0.53710  0.05241  1.0000
  C   C1575     1.0  0.74889  0.90692  0.08161  1.0000
  S   S215      1.0  0.52707  0.97391  0.09258  1.0000
  P   P54       1.0  0.70955  0.88058  0.09228  1.0000
  C   C1576     1.0  0.69512  0.84359  0.07442  1.0000
  C   C1577     1.0  0.71275  0.87484  0.12582  1.0000
  C   C1578     1.0  0.73748  0.86980  0.13404  1.0000
  C   C1579     1.0  0.74060  0.86555  0.15986  1.0000
  C   C1580     1.0  0.71913  0.86636  0.17770  1.0000
  C   C1581     1.0  0.69488  0.87198  0.16979  1.0000
  C   C1582     1.0  0.69167  0.87628  0.14402  1.0000
  C   C1583     1.0  0.68587  0.84192  0.04900  1.0000
  C   C1584     1.0  0.67760  0.81453  0.03406  1.0000
  C   C1585     1.0  0.67809  0.78844  0.04444  1.0000
  C   C1586     1.0  0.68671  0.78969  0.06986  1.0000
  C   C1587     1.0  0.69527  0.81714  0.08480  1.0000
  C   C1588     1.0  0.68360  0.89733  0.08697  1.0000
  C   C1589     1.0  0.69498  0.92751  0.07691  1.0000
  H   H1281     1.0  0.66767  0.87911  0.23235  1.0000
  C   C1590     1.0  0.64335  0.92388  0.08103  1.0000
  C   C1591     1.0  0.63163  0.89351  0.09027  1.0000
  C   C1592     1.0  0.65158  0.88017  0.09306  1.0000
  C   C1593     1.0  0.82915  0.74133  0.00305  1.0000
  C   C1594     1.0  0.59586  0.66005  0.14142  1.0000
  C   C1595     1.0  0.73028  0.72517  0.12253  1.0000
  H   H1282     1.0  0.75624  0.94237  0.11100  1.0000
  C   C1596     1.0  0.73254  0.76202  0.15597  1.0000
  H   H1283     1.0  0.75439  0.86917  0.12046  1.0000
  H   H1284     1.0  0.75976  0.86179  0.16612  1.0000
  H   H1285     1.0  0.72128  0.86271  0.19768  1.0000
  H   H1286     1.0  0.67817  0.87259  0.18360  1.0000
  H   H1287     1.0  0.67263  0.88063  0.13873  1.0000
  H   H1288     1.0  0.68627  0.86226  0.04036  1.0000
  C   C1597     1.0  0.58389  0.67501  0.02045  1.0000
  H   H1289     1.0  0.67217  0.76745  0.03266  1.0000
  H   H1290     1.0  0.68726  0.76954  0.07790  1.0000
  H   H1291     1.0  0.70233  0.81761  0.10426  1.0000
  C   C1598     1.0  0.49421  0.66858  0.11458  1.0000
  C   C1599     1.0  0.90521  0.65125  0.17422  1.0000
  C   C1600     1.0  0.77175  0.79775  0.04794  1.0000
  H   H1292     1.0  0.60704  0.88038  0.09541  1.0000
  H   H1293     1.0  0.64206  0.85667  0.10045  1.0000
  C   C1601     1.0  0.73764  0.93238  0.01180  1.0000
  H   H1294     1.0  0.85884  0.81686  0.04056  1.0000
  C   C1602     1.0  0.95613  0.68998  0.18995  1.0000
  H   H1295     1.0  0.74474  0.64761  0.19159  1.0000
  C   C1603     1.0  0.92715  0.54460  0.01636  1.0000
  C   C1604     1.0  0.49657  0.57612  0.16209  1.0000
  C   C1605     1.0  0.76249  0.89906  0.06053  1.0000
  C   C1606     1.0  0.96488  0.50732  0.22405  1.0000
  H   H1296     1.0  0.56599  0.63693  0.04669  1.0000
  H   H1297     1.0  0.76872  0.66242  0.14883  1.0000
  C   C1607     1.0  0.59384  0.70703  0.01737  1.0000
  H   H1298     1.0  0.74975  0.87730  0.04966  1.0000
  H   H1299     1.0  0.78447  0.83882  0.02554  1.0000
  H   H1300     1.0  0.62795  0.93438  0.07921  1.0000
  Fe  Fe108     1.0  0.76277  0.60264  0.23810  1.0000
  C   C1608     1.0  0.98051  0.80129  0.11071  1.0000
  C   C1609     1.0  0.78199  0.77775  0.05853  1.0000
  H   H1301     1.0  0.82220  0.76973  0.06326  1.0000
  H   H1302     1.0  0.97935  0.64146  0.18285  1.0000
  H   H1303     1.0  0.62645  0.96571  0.16175  1.0000
  H   H1304     1.0  0.74601  0.73902  0.01840  1.0000
  C   C1610     1.0  0.60154  0.61386  0.12985  1.0000
  C   C1611     1.0  0.62079  0.61931  0.15115  1.0000
  C   C1612     1.0  0.62876  0.64627  0.16667  1.0000
  P   P55       1.0  0.63575  0.59262  0.15890  1.0000
  C   C1613     1.0  0.67794  0.61488  0.15600  1.0000
  C   C1614     1.0  0.62279  0.57696  0.19024  1.0000
  C   C1615     1.0  0.59703  0.57819  0.20207  1.0000
  H   H1305     1.0  0.63437  0.64037  0.22949  1.0000
  C   C1616     1.0  0.94224  0.51392  0.21340  1.0000
  H   H1306     1.0  0.91788  0.50117  0.21920  1.0000
  C   C1617     1.0  0.63631  0.56036  0.20180  1.0000
  C   C1618     1.0  0.69170  0.62435  0.13185  1.0000
  C   C1619     1.0  0.72432  0.64143  0.12926  1.0000
  C   C1620     1.0  0.74339  0.64970  0.15078  1.0000
  C   C1621     1.0  0.72984  0.64130  0.17493  1.0000
  C   C1622     1.0  0.69724  0.62424  0.17761  1.0000
  C   C1623     1.0  0.61926  0.55791  0.13822  1.0000
  C   C1624     1.0  0.63846  0.54752  0.12509  1.0000
  H   H1307     1.0  0.90692  0.54130  0.00557  1.0000
  H   H1308     1.0  0.83307  0.96532  0.05886  1.0000
  C   C1625     1.0  0.94430  0.68681  0.14503  1.0000
  C   C1626     1.0  0.58650  0.53980  0.13644  1.0000
  H   H1309     1.0  0.59566  0.59389  0.11699  1.0000
  H   H1310     1.0  0.64424  0.65150  0.18280  1.0000
  H   H1311     1.0  0.58548  0.58993  0.19326  1.0000
  H   H1312     1.0  0.75524  0.97743  0.03200  1.0000
  C   C1627     1.0  0.96675  0.76449  0.14495  1.0000
  H   H1313     1.0  0.63477  0.93565  0.19551  1.0000
  H   H1314     1.0  0.65557  0.55825  0.19265  1.0000
  H   H1315     1.0  0.67719  0.61811  0.11501  1.0000
  H   H1316     1.0  0.73492  0.64800  0.11056  1.0000
  H   H1317     1.0  0.76189  0.79997  0.10066  1.0000
  H   H1318     1.0  0.95004  0.75073  0.15945  1.0000
  H   H1319     1.0  0.68745  0.61852  0.19659  1.0000
  H   H1320     1.0  0.66369  0.56000  0.12710  1.0000
  S   S216      1.0  0.64649  0.78482  0.23054  1.0000
  H   H1321     1.0  0.98219  0.63080  0.03775  1.0000
  C   C1628     1.0  0.57321  0.51272  0.12072  1.0000
  H   H1322     1.0  0.57113  0.54674  0.14706  1.0000
  H   H1323     1.0  0.93334  0.54182  0.18660  1.0000
  C   C1629     1.0  0.51959  0.49478  0.00722  1.0000
  C   C1630     1.0  0.54679  0.77017  0.08154  1.0000
  C   C1631     1.0  0.72462  0.73131  0.14778  1.0000
  C   C1632     1.0  0.64907  0.78741  0.13998  1.0000
  C   C1633     1.0  0.66356  0.76861  0.14287  1.0000
  C   C1634     1.0  0.65413  0.74111  0.12795  1.0000
  C   C1635     1.0  0.62979  0.73212  0.11041  1.0000
  C   C1636     1.0  0.61470  0.75064  0.10770  1.0000
  C   C1637     1.0  0.62464  0.77848  0.12260  1.0000
  P   P56       1.0  0.57952  0.73614  0.08883  1.0000
  C   C1638     1.0  0.57524  0.76921  0.07812  1.0000
  C   C1639     1.0  0.58202  0.71260  0.06200  1.0000
  C   C1640     1.0  0.59276  0.72575  0.03797  1.0000
  H   H1324     1.0  0.93799  0.78474  0.13294  1.0000
  C   C1641     1.0  0.80994  0.94873  0.06564  1.0000
  C   C1642     1.0  0.57365  0.66180  0.04432  1.0000
  C   C1643     1.0  0.57305  0.68055  0.06506  1.0000
  C   C1644     1.0  0.59942  0.54769  0.23695  1.0000
  C   C1645     1.0  0.66673  0.69845  0.02173  1.0000
  C   C1646     1.0  0.97870  0.55283  0.04487  1.0000
  C   C1647     1.0  0.59758  0.82036  0.05849  1.0000
  C   C1648     1.0  0.60076  0.79478  0.06695  1.0000
  C   C1649     1.0  0.54656  0.71235  0.10905  1.0000
  C   C1650     1.0  0.54764  0.71928  0.13531  1.0000
  C   C1651     1.0  0.52243  0.70076  0.15108  1.0000
  S   S217      1.0  0.56952  0.75497  0.23434  1.0000
  H   H1325     1.0  0.63998  0.51247  0.09926  1.0000
  C   C1652     1.0  0.51925  0.68736  0.09867  1.0000
  H   H1326     1.0  0.65582  0.80824  0.15206  1.0000
  H   H1327     1.0  0.68131  0.77484  0.15734  1.0000
  H   H1328     1.0  0.66491  0.72616  0.13073  1.0000
  H   H1329     1.0  0.62216  0.71018  0.09972  1.0000
  H   H1330     1.0  0.61258  0.79256  0.12183  1.0000
  H   H1331     1.0  0.60011  0.75029  0.03485  1.0000
  H   H1332     1.0  0.52222  0.79720  0.07698  1.0000
  C   C1653     1.0  0.58879  0.63395  0.12525  1.0000
  C   C1654     1.0  0.71921  0.68115  0.24133  1.0000
  H   H1333     1.0  0.56512  0.66985  0.08342  1.0000
  C   C1655     1.0  0.58547  0.56364  0.22534  1.0000
  Fe  Fe109     1.0  0.49509  0.93716  0.12032  1.0000
  C   C1656     1.0  0.79664  0.95673  0.08663  1.0000
  H   H1334     1.0  0.61722  0.83985  0.04955  1.0000
  H   H1335     1.0  0.62310  0.79491  0.06486  1.0000
  H   H1336     1.0  0.56775  0.73909  0.14376  1.0000
  H   H1337     1.0  0.97687  0.64295  0.23026  1.0000
  H   H1338     1.0  0.72853  0.76671  0.17571  1.0000
  H   H1339     1.0  0.75167  0.81031  0.14523  1.0000
  H   H1340     1.0  0.51723  0.68228  0.07835  1.0000
  C   C1657     1.0  0.80381  0.69924  0.09849  1.0000
  C   C1658     1.0  0.79629  0.67444  0.08081  1.0000
  C   C1659     1.0  0.77601  0.67009  0.06071  1.0000
  C   C1660     1.0  0.76306  0.69044  0.05831  1.0000
  C   C1661     1.0  0.77007  0.71510  0.07626  1.0000
  C   C1662     1.0  0.79080  0.71953  0.09625  1.0000
  P   P57       1.0  0.75392  0.74192  0.07341  1.0000
  C   C1663     1.0  0.74387  0.74978  0.10522  1.0000
  C   C1664     1.0  0.95038  0.54597  0.05711  1.0000
  C   C1665     1.0  0.91437  0.66201  0.14955  1.0000
  C   C1666     1.0  0.92616  0.66506  0.19439  1.0000
  H   H1341     1.0  0.56692  0.84138  0.05628  1.0000
  H   H1342     1.0  0.72460  0.70131  0.11667  1.0000
  H   H1343     1.0  0.95064  0.69530  0.12587  1.0000
  C   C1667     1.0  0.71945  0.72430  0.05353  1.0000
  C   C1668     1.0  0.68918  0.70836  0.06407  1.0000
  C   C1669     1.0  0.66291  0.69550  0.04816  1.0000
  C   C1670     1.0  0.59248  0.50304  0.10713  1.0000
  C   C1671     1.0  0.69673  0.71420  0.01117  1.0000
  C   C1672     1.0  0.72294  0.72692  0.02696  1.0000
  H   H1344     1.0  0.82024  0.70308  0.11367  1.0000
  H   H1345     1.0  0.80678  0.65903  0.08233  1.0000
  H   H1346     1.0  0.77135  0.65167  0.04642  1.0000
  H   H1347     1.0  0.74817  0.68713  0.04220  1.0000
  H   H1348     1.0  0.79731  0.73893  0.10993  1.0000
  H   H1349     1.0  0.57259  0.62861  0.10965  1.0000
  H   H1350     1.0  0.58507  0.67498  0.13854  1.0000
  H   H1351     1.0  0.74738  0.79240  0.04926  1.0000
  C   C1673     1.0  0.79270  0.82420  0.03460  1.0000
  C   C1674     1.0  0.82410  0.83116  0.03206  1.0000
  C   C1675     1.0  0.83462  0.81182  0.04302  1.0000
  C   C1676     1.0  0.96540  0.70120  0.16518  1.0000
  H   H1352     1.0  0.68571  0.70579  0.08443  1.0000
  H   H1353     1.0  0.63961  0.68315  0.05629  1.0000
  C   C1677     1.0  0.64786  0.97646  0.17287  1.0000
  C   C1678     1.0  0.79876  0.73364  0.99507  1.0000
  H   H1354     1.0  0.97474  0.81558  0.09858  1.0000
  C   C1679     1.0  0.62488  0.54611  0.22521  1.0000
  C   C1680     1.0  0.65259  0.95954  0.19185  1.0000
  S   S218      1.0  0.50017  0.93424  0.02305  1.0000
  C   C1681     1.0  0.95988  0.78395  0.13002  1.0000
  C   C1682     1.0  0.68051  0.97326  0.20569  1.0000
  C   C1683     1.0  0.49568  0.96465  0.00817  1.0000
  C   C1684     1.0  0.49591  0.67517  0.14081  1.0000
  C   C1685     1.0  0.49295  0.49091  0.02150  1.0000
  H   H1355     1.0  0.87739  0.77721  0.00362  1.0000
  H   H1356     1.0  0.56562  0.56472  0.23437  1.0000
  H   H1357     1.0  0.97152  0.70080  0.20600  1.0000
  H   H1358     1.0  0.94077  0.60016  0.99633  1.0000
  C   C1686     1.0  0.79933  0.95365  0.99528  1.0000
  H   H1359     1.0  0.54790  0.49924  0.11918  1.0000
  C   C1687     1.0  0.74502  0.91245  0.99611  1.0000
  H   H1360     1.0  0.73127  0.66783  0.23578  1.0000
  S   S219      1.0  0.48903  0.54125  0.14387  1.0000
  H   H1361     1.0  0.53938  0.49538  0.01692  1.0000
  H   H1362     1.0  0.49240  0.48852  0.04194  1.0000
  H   H1363     1.0  0.62064  0.82846  0.24059  1.0000
  Fe  Fe110     1.0  0.69450  0.91377  0.44978  1.0000
  S   S220      1.0  0.73213  0.94282  0.42216  1.0000
  S   S221      1.0  0.65567  0.92591  0.45992  1.0000
  Fe  Fe111     1.0  0.72428  0.87114  0.45959  1.0000
  S   S222      1.0  0.76376  0.89772  0.43237  1.0000
  C   C1688     1.0  0.64576  0.89813  0.28988  1.0000
  Fe  Fe112     1.0  0.76510  0.94153  0.45097  1.0000
  C   C1689     1.0  0.64090  0.57764  0.36934  1.0000
  Fe  Fe113     1.0  0.72620  0.89605  0.40643  1.0000
  S   S223      1.0  0.72434  0.88531  0.36337  1.0000
  S   S224      1.0  0.72760  0.91466  0.47973  1.0000
  S   S225      1.0  0.68660  0.86721  0.43274  1.0000
  H   H1364     1.0  0.62091  0.57451  0.40650  1.0000
  S   S226      1.0  0.79088  0.64235  0.26556  1.0000
  Fe  Fe114     1.0  0.71510  0.56384  0.28061  1.0000
  S   S227      1.0  0.74138  0.60158  0.31024  1.0000
  S   S228      1.0  0.67294  0.51814  0.29411  1.0000
  Fe  Fe115     1.0  0.74403  0.63511  0.28025  1.0000
  S   S229      1.0  0.73162  0.67382  0.29129  1.0000
  Fe  Fe116     1.0  0.78553  0.60445  0.29253  1.0000
  S   S230      1.0  0.82933  0.61247  0.31461  1.0000
  S   S231      1.0  0.75944  0.56473  0.26430  1.0000
  H   H1365     1.0  0.90771  0.60035  0.26447  1.0000
  Fe  Fe117     1.0  0.60881  0.75931  0.25944  1.0000
  S   S232      1.0  0.61101  0.77384  0.30167  1.0000
  Fe  Fe118     1.0  0.90110  0.51410  0.37764  1.0000
  S   S233      1.0  0.93894  0.52556  0.34835  1.0000
  S   S234      1.0  0.85330  0.50644  0.36445  1.0000
  H   H1366     1.0  0.89351  0.73800  0.29416  1.0000
  C   C1690     1.0  0.62149  0.64628  0.26795  1.0000
  H   H1367     1.0  0.66691  0.58566  0.33413  1.0000
  S   S235      1.0  0.93245  0.54831  0.40771  1.0000
  C   C1691     1.0  0.57597  0.66246  0.30629  1.0000
  H   H1368     1.0  0.86884  0.68918  0.31906  1.0000
  H   H1369     1.0  0.90765  0.53404  0.29971  1.0000
  H   H1370     1.0  0.71123  0.63567  0.34955  1.0000
  H   H1371     1.0  0.63602  0.93803  0.26021  1.0000
  S   S236      1.0  0.53848  0.48920  0.34081  1.0000
  Fe  Fe119     1.0  0.94257  0.50943  0.42019  1.0000
  C   C1692     1.0  0.58231  0.57257  0.46961  1.0000
  H   H1372     1.0  0.81993  0.55466  0.38830  1.0000
  C   C1693     1.0  0.83627  0.58198  0.32626  1.0000
  C   C1694     1.0  0.81249  0.55077  0.32739  1.0000
  C   C1695     1.0  0.81831  0.52772  0.33847  1.0000
  C   C1696     1.0  0.84798  0.53549  0.34838  1.0000
  C   C1697     1.0  0.87207  0.56645  0.34649  1.0000
  C   C1698     1.0  0.86616  0.58953  0.33563  1.0000
  H   H1373     1.0  0.78939  0.54454  0.32029  1.0000
  H   H1374     1.0  0.59512  0.88060  0.40577  1.0000
  H   H1375     1.0  0.89501  0.57281  0.35401  1.0000
  H   H1376     1.0  0.88477  0.61342  0.33490  1.0000
  C   C1699     1.0  0.71644  0.68766  0.26718  1.0000
  C   C1700     1.0  0.70098  0.70524  0.27408  1.0000
  C   C1701     1.0  0.81676  0.65522  0.48816  1.0000
  H   H1377     1.0  0.69890  0.71043  0.29398  1.0000
  H   H1378     1.0  0.62014  0.56582  0.45405  1.0000
  C   C1702     1.0  0.63681  0.51208  0.30868  1.0000
  C   C1703     1.0  0.59260  0.52321  0.31305  1.0000
  C   C1704     1.0  0.62245  0.53041  0.30288  1.0000
  H   H1379     1.0  0.58165  0.53734  0.30806  1.0000
  H   H1380     1.0  0.63392  0.54948  0.28989  1.0000
  C   C1705     1.0  0.59402  0.90392  0.37176  1.0000
  S   S237      1.0  0.81098  0.98307  0.46479  1.0000
  H   H1381     1.0  0.71192  0.65440  0.39407  1.0000
  C   C1706     1.0  0.64717  0.94739  0.43748  1.0000
  C   C1707     1.0  0.62488  0.95750  0.44356  1.0000
  H   H1382     1.0  0.57938  0.64175  0.47220  1.0000
  C   C1708     1.0  0.92770  0.61023  0.27717  1.0000
  C   C1709     1.0  0.57088  0.59394  0.47494  1.0000
  C   C1710     1.0  0.66247  0.95486  0.41385  1.0000
  C   C1711     1.0  0.97401  0.49562  0.47828  1.0000
  C   C1712     1.0  0.54837  0.69338  0.30371  1.0000
  H   H1383     1.0  0.67935  0.94699  0.40873  1.0000
  C   C1713     1.0  0.69279  0.85370  0.34665  1.0000
  C   C1714     1.0  0.69581  0.84919  0.32028  1.0000
  C   C1715     1.0  0.67099  0.82520  0.30615  1.0000
  C   C1716     1.0  0.64285  0.80509  0.31831  1.0000
  C   C1717     1.0  0.63989  0.80951  0.34467  1.0000
  C   C1718     1.0  0.66463  0.83360  0.35876  1.0000
  H   H1384     1.0  0.71750  0.86440  0.31068  1.0000
  H   H1385     1.0  0.67370  0.82215  0.28591  1.0000
  H   H1386     1.0  0.61829  0.79411  0.35431  1.0000
  H   H1387     1.0  0.66187  0.83660  0.37898  1.0000
  C   C1719     1.0  0.94096  0.65869  0.41391  1.0000
  H   H1388     1.0  0.73199  0.76111  0.45356  1.0000
  H   H1389     1.0  0.60213  0.66858  0.37266  1.0000
  C   C1720     1.0  0.65203  0.61991  0.25636  1.0000
  H   H1390     1.0  0.61310  0.95214  0.46187  1.0000
  H   H1391     1.0  0.93202  0.70785  0.49045  1.0000
  C   C1721     1.0  0.71457  0.93389  0.31586  1.0000
  H   H1392     1.0  0.77153  0.56005  0.38688  1.0000
  C   C1722     1.0  0.58002  0.59848  0.34075  1.0000
  C   C1723     1.0  0.64064  0.58850  0.39436  1.0000
  C   C1724     1.0  0.71481  0.98421  0.32023  1.0000
  C   C1725     1.0  0.63587  0.95616  0.27283  1.0000
  C   C1726     1.0  0.90783  0.72822  0.30141  1.0000
  C   C1727     1.0  0.69152  0.62263  0.36214  1.0000
  C   C1728     1.0  0.95851  0.64875  0.31000  1.0000
  C   C1729     1.0  0.72052  0.58380  0.45364  1.0000
  C   C1730     1.0  0.64362  0.95810  0.29874  1.0000
  P   P58       1.0  0.65610  0.93141  0.31170  1.0000
  H   H1393     1.0  0.59050  0.53652  0.25503  1.0000
  H   H1394     1.0  0.54623  0.71417  0.30933  1.0000
  S   S238      1.0  0.71570  0.59734  0.25136  1.0000
  H   H1395     1.0  0.57302  0.90529  0.37745  1.0000
  C   C1731     1.0  0.62792  0.84777  0.25442  1.0000
  H   H1396     1.0  0.51156  0.67721  0.27576  1.0000
  H   H1397     1.0  0.60005  0.98178  0.43069  1.0000
  C   C1732     1.0  0.64925  0.90199  0.35795  1.0000
  Fe  Fe120     1.0  0.97077  0.55795  0.37899  1.0000
  C   C1733     1.0  0.97828  0.63483  0.31079  1.0000
  C   C1734     1.0  0.94455  0.70201  0.31928  1.0000
  C   C1735     1.0  0.60909  0.91674  0.34878  1.0000
  H   H1398     1.0  0.61006  0.65956  0.26211  1.0000
  C   C1736     1.0  0.69816  0.95139  0.31608  1.0000
  C   C1737     1.0  0.92757  0.50916  0.27739  1.0000
  H   H1399     1.0  0.64364  0.87817  0.39315  1.0000
  H   H1400     1.0  0.67049  0.90078  0.35301  1.0000
  C   C1738     1.0  0.59324  0.63124  0.34470  1.0000
  P   P59       1.0  0.60805  0.65727  0.31815  1.0000
  C   C1739     1.0  0.64174  0.69361  0.32789  1.0000
  C   C1740     1.0  0.62363  0.64109  0.29380  1.0000
  C   C1741     1.0  0.55506  0.64068  0.28841  1.0000
  H   H1401     1.0  0.62127  0.97583  0.24288  1.0000
  C   C1742     1.0  0.57657  0.49761  0.32922  1.0000
  C   C1743     1.0  0.64855  0.72207  0.31643  1.0000
  C   C1744     1.0  0.67526  0.74985  0.32350  1.0000
  C   C1745     1.0  0.69586  0.74935  0.34152  1.0000
  C   C1746     1.0  0.68994  0.72091  0.35229  1.0000
  C   C1747     1.0  0.66305  0.69311  0.34545  1.0000
  C   C1748     1.0  0.72145  0.71608  0.46862  1.0000
  C   C1749     1.0  0.58831  0.62526  0.46789  1.0000
  C   C1750     1.0  0.62740  0.97764  0.26284  1.0000
  C   C1751     1.0  0.63386  0.88876  0.38070  1.0000
  H   H1402     1.0  0.63364  0.72295  0.30172  1.0000
  H   H1403     1.0  0.68021  0.77174  0.31468  1.0000
  H   H1404     1.0  0.71667  0.77096  0.34671  1.0000
  H   H1405     1.0  0.70649  0.72036  0.36555  1.0000
  H   H1406     1.0  0.65924  0.67115  0.35346  1.0000
  H   H1407     1.0  0.58671  0.70486  0.32894  1.0000
  C   C1752     1.0  0.68968  0.67006  0.44177  1.0000
  C   C1753     1.0  0.68836  0.69002  0.42343  1.0000
  C   C1754     1.0  0.70373  0.72273  0.42763  1.0000
  C   C1755     1.0  0.72036  0.73576  0.45017  1.0000
  C   C1756     1.0  0.61953  0.86895  0.29460  1.0000
  C   C1757     1.0  0.70594  0.68339  0.46459  1.0000
  C   C1758     1.0  0.65478  0.97126  0.39608  1.0000
  H   H1408     1.0  0.71003  0.60121  0.42024  1.0000
  H   H1409     1.0  0.67490  0.68033  0.40617  1.0000
  H   H1410     1.0  0.70237  0.73808  0.41364  1.0000
  H   H1411     1.0  0.70223  0.90854  0.31334  1.0000
  H   H1412     1.0  0.97251  0.50108  0.30129  1.0000
  H   H1413     1.0  0.55976  0.57513  0.40188  1.0000
  H   H1414     1.0  0.64055  0.80053  0.46542  1.0000
  H   H1415     1.0  0.53180  0.95314  0.26504  1.0000
  C   C1759     1.0  0.71611  0.57984  0.47993  1.0000
  C   C1760     1.0  0.58138  0.62332  0.38995  1.0000
  C   C1761     1.0  0.61741  0.63542  0.45578  1.0000
  C   C1762     1.0  0.61079  0.84388  0.27695  1.0000
  C   C1763     1.0  0.77621  0.71419  0.38138  1.0000
  C   C1764     1.0  0.76954  0.70085  0.35674  1.0000
  C   C1765     1.0  0.77930  0.67879  0.34897  1.0000
  C   C1766     1.0  0.79517  0.66952  0.36590  1.0000
  C   C1767     1.0  0.80123  0.68218  0.39094  1.0000
  C   C1768     1.0  0.79248  0.70531  0.39827  1.0000
  P   P60       1.0  0.82456  0.67288  0.41207  1.0000
  C   C1769     1.0  0.81033  0.66665  0.44456  1.0000
  C   C1770     1.0  0.82372  0.63613  0.40267  1.0000
  C   C1771     1.0  0.79493  0.60959  0.39711  1.0000
  C   C1772     1.0  0.79365  0.58038  0.39169  1.0000
  C   C1773     1.0  0.82097  0.57736  0.39232  1.0000
  C   C1774     1.0  0.84971  0.60363  0.39785  1.0000
  C   C1775     1.0  0.85114  0.63294  0.40310  1.0000
  C   C1776     1.0  0.82806  0.66201  0.46320  1.0000
  C   C1777     1.0  0.78087  0.66392  0.45125  1.0000
  C   C1778     1.0  0.86387  0.70500  0.40975  1.0000
  C   C1779     1.0  0.88004  0.71010  0.38641  1.0000
  C   C1780     1.0  0.91004  0.73567  0.38387  1.0000
  C   C1781     1.0  0.61143  0.58263  0.45757  1.0000
  S   S239      1.0  0.94231  0.49591  0.46172  1.0000
  C   C1782     1.0  0.87794  0.72605  0.43042  1.0000
  H   H1416     1.0  0.76949  0.73200  0.38718  1.0000
  H   H1417     1.0  0.75744  0.70802  0.34336  1.0000
  H   H1418     1.0  0.77497  0.66928  0.32958  1.0000
  H   H1419     1.0  0.80321  0.65301  0.35910  1.0000
  H   H1420     1.0  0.79865  0.71685  0.41692  1.0000
  H   H1421     1.0  0.77347  0.61146  0.39699  1.0000
  H   H1422     1.0  0.70625  0.66878  0.47964  1.0000
  H   H1423     1.0  0.87086  0.60117  0.39791  1.0000
  H   H1424     1.0  0.87355  0.65284  0.40781  1.0000
  H   H1425     1.0  0.85072  0.66368  0.45850  1.0000
  H   H1426     1.0  0.76598  0.66607  0.43726  1.0000
  H   H1427     1.0  0.86929  0.69441  0.37015  1.0000
  H   H1428     1.0  0.92225  0.73974  0.36574  1.0000
  H   H1429     1.0  0.60671  0.82641  0.46994  1.0000
  H   H1430     1.0  0.68393  0.92369  0.26363  1.0000
  H   H1431     1.0  0.91870  0.76769  0.44374  1.0000
  H   H1432     1.0  0.73530  0.57580  0.44344  1.0000
  H   H1433     1.0  0.66612  0.97606  0.37761  1.0000
  H   H1434     1.0  0.98004  0.74608  0.46793  1.0000
  P   P61       1.0  0.96728  0.68358  0.32959  1.0000
  C   C1783     1.0  0.65485  0.61522  0.28207  1.0000
  H   H1435     1.0  0.56760  0.95911  0.34044  1.0000
  H   H1436     1.0  0.71627  0.97981  0.48743  1.0000
  H   H1437     1.0  0.96004  0.71855  0.37339  1.0000
  H   H1438     1.0  0.51689  0.63011  0.26267  1.0000
  C   C1784     1.0  0.94006  0.74271  0.29637  1.0000
  H   H1439     1.0  0.55724  0.62010  0.28228  1.0000
  H   H1440     1.0  0.58140  0.63284  0.40894  1.0000
  C   C1785     1.0  0.53190  0.64601  0.27748  1.0000
  H   H1441     1.0  0.94975  0.53006  0.27455  1.0000
  H   H1442     1.0  0.96766  0.62761  0.45569  1.0000
  C   C1786     1.0  0.56905  0.59081  0.38597  1.0000
  H   H1443     1.0  0.86580  0.72338  0.44847  1.0000
  C   C1787     1.0  0.57163  0.68818  0.31462  1.0000
  H   H1444     1.0  0.59880  0.92699  0.33660  1.0000
  C   C1788     1.0  0.95711  0.67347  0.36258  1.0000
  C   C1789     1.0  0.69154  0.63340  0.38726  1.0000
  C   C1790     1.0  0.59317  0.64348  0.36937  1.0000
  C   C1791     1.0  0.63713  0.91631  0.34188  1.0000
  H   H1445     1.0  0.95230  0.62634  0.35883  1.0000
  H   H1446     1.0  0.91698  0.64584  0.29218  1.0000
  C   C1792     1.0  0.68717  0.60905  0.45373  1.0000
  C   C1793     1.0  0.52882  0.67256  0.28489  1.0000
  H   H1447     1.0  0.74763  0.65617  0.48180  1.0000
  C   C1794     1.0  0.63334  0.80491  0.48419  1.0000
  H   H1448     1.0  0.94370  0.57699  0.26526  1.0000
  H   H1449     1.0  0.66918  0.60467  0.28757  1.0000
  C   C1795     1.0  0.60640  0.88994  0.38771  1.0000
  H   H1450     1.0  0.62151  0.55573  0.36247  1.0000
  C   C1796     1.0  0.76341  0.98147  0.32326  1.0000
  C   C1797     1.0  0.95088  0.64388  0.37142  1.0000
  C   C1798     1.0  0.68279  0.60480  0.48013  1.0000
  C   C1799     1.0  0.89396  0.70089  0.31557  1.0000
  C   C1800     1.0  0.54882  0.95245  0.30247  1.0000
  C   C1801     1.0  0.94299  0.63663  0.39701  1.0000
  C   C1802     1.0  0.66644  0.59452  0.35333  1.0000
  H   H1451     1.0  0.95077  0.76392  0.28537  1.0000
  H   H1452     1.0  0.94575  0.70540  0.41842  1.0000
  C   C1803     1.0  0.95500  0.69548  0.37972  1.0000
  H   H1453     1.0  0.93873  0.61392  0.40370  1.0000
  H   H1454     1.0  0.90103  0.66683  0.33566  1.0000
  H   H1455     1.0  0.75915  0.93481  0.32010  1.0000
  C   C1804     1.0  0.74698  0.94882  0.31955  1.0000
  C   C1805     1.0  0.56824  0.57841  0.36137  1.0000
  C   C1806     1.0  0.91229  0.68809  0.32479  1.0000
  H   H1456     1.0  0.79950  0.50387  0.33982  1.0000
  S   S240      1.0  0.71676  0.82627  0.47870  1.0000
  C   C1807     1.0  0.97181  0.78566  0.47616  1.0000
  C   C1808     1.0  0.68778  0.71570  0.25541  1.0000
  C   C1809     1.0  0.66597  0.61648  0.40359  1.0000
  C   C1810     1.0  0.94783  0.59690  0.27778  1.0000
  C   C1811     1.0  0.70616  0.59837  0.44055  1.0000
  C   C1812     1.0  0.64081  0.62587  0.30074  1.0000
  H   H1457     1.0  0.55826  0.55314  0.35824  1.0000
  H   H1458     1.0  0.64419  0.62315  0.32058  1.0000
  C   C1813     1.0  0.93301  0.63609  0.29313  1.0000
  H   H1459     1.0  0.94746  0.77598  0.40289  1.0000
  C   C1814     1.0  0.94700  0.68814  0.40527  1.0000
  H   H1460     1.0  0.93487  0.65304  0.43372  1.0000
  H   H1461     1.0  0.57875  0.58836  0.32180  1.0000
  P   P62       1.0  0.66817  0.62767  0.43709  1.0000
  H   H1462     1.0  0.67571  0.72900  0.26103  1.0000
  H   H1463     1.0  0.59082  0.82124  0.28081  1.0000
  C   C1815     1.0  0.77000  0.65774  0.47639  1.0000
  C   C1816     1.0  0.90801  0.75141  0.42783  1.0000
  C   C1817     1.0  0.92415  0.75617  0.40467  1.0000
  C   C1818     1.0  0.96471  0.75396  0.47726  1.0000
  C   C1819     1.0  0.63539  0.63547  0.24931  1.0000
  H   H1464     1.0  0.60569  0.86527  0.31182  1.0000
  C   C1820     1.0  0.62935  0.61422  0.45067  1.0000
  H   H1465     1.0  0.63060  0.65992  0.45089  1.0000
  H   H1466     1.0  0.73399  0.72618  0.48628  1.0000
  C   C1821     1.0  0.66344  0.90153  0.26750  1.0000
  H   H1467     1.0  0.54591  0.92878  0.29999  1.0000
  S   S241      1.0  0.98288  0.52136  0.39306  1.0000
  H   H1468     1.0  0.76474  0.98292  0.37764  1.0000
  C   C1822     1.0  0.56091  0.96942  0.32524  1.0000
  C   C1823     1.0  0.63204  0.98075  0.40196  1.0000
  C   C1824     1.0  0.49645  0.52463  0.48697  1.0000
  C   C1825     1.0  0.97116  0.64050  0.47373  1.0000
  H   H1469     1.0  0.64845  0.98382  0.33442  1.0000
  H   H1470     1.0  0.56869  0.54825  0.47522  1.0000
  C   C1826     1.0  0.65437  0.87646  0.24977  1.0000
  C   C1827     1.0  0.90385  0.51155  0.29150  1.0000
  S   S242      1.0  0.60196  0.71109  0.24717  1.0000
  C   C1828     1.0  0.95840  0.72961  0.30516  1.0000
  C   C1829     1.0  0.97294  0.60899  0.29477  1.0000
  C   C1830     1.0  0.54090  0.96620  0.28281  1.0000
  C   C1831     1.0  0.64269  0.98190  0.31439  1.0000
  C   C1832     1.0  0.61443  0.81959  0.48677  1.0000
  C   C1833     1.0  0.61757  0.97444  0.42596  1.0000
  H   H1471     1.0  0.66380  0.61263  0.24197  1.0000
  H   H1472     1.0  0.98321  0.74102  0.30078  1.0000
  C   C1834     1.0  0.93739  0.73231  0.49008  1.0000
  C   C1835     1.0  0.49611  0.49957  0.47198  1.0000
  C   C1836     1.0  0.95135  0.79532  0.48828  1.0000
  H   H1473     1.0  0.95642  0.81969  0.48742  1.0000
  H   H1474     1.0  0.54865  0.58628  0.48483  1.0000
  H   H1475     1.0  0.66851  0.61301  0.49081  1.0000
  H   H1476     1.0  0.72754  0.56892  0.49013  1.0000
  H   H1477     1.0  0.49054  0.54122  0.47835  1.0000
  H   H1478     1.0  0.49001  0.49701  0.45203  1.0000
  H   H1479     1.0  0.79383  0.92924  0.51167  1.0000
  Fe  Fe121     1.0  0.56536  0.58649  0.61332  1.0000
  S   S243      1.0  0.55365  0.61603  0.58800  1.0000
  S   S244      1.0  0.61619  0.60015  0.62200  1.0000
  Fe  Fe122     1.0  0.52051  0.61412  0.61948  1.0000
  S   S245      1.0  0.51321  0.65498  0.63542  1.0000
  Fe  Fe123     1.0  0.51460  0.56933  0.57378  1.0000
  H   H1480     1.0  0.75318  0.76555  0.52887  1.0000
  S   S246      1.0  0.53434  0.58708  0.64578  1.0000
  S   S247      1.0  0.52818  0.53990  0.59766  1.0000
  Fe  Fe124     1.0  0.81337  0.76174  0.55314  1.0000
  S   S248      1.0  0.80591  0.72641  0.52158  1.0000
  S   S249      1.0  0.81751  0.80945  0.54393  1.0000
  Fe  Fe125     1.0  0.81771  0.71880  0.59393  1.0000
  S   S250      1.0  0.81027  0.68088  0.56466  1.0000
  S   S251      1.0  0.82293  0.71491  0.63682  1.0000
  Fe  Fe126     1.0  0.84446  0.72043  0.53993  1.0000
  S   S252      1.0  0.88323  0.71383  0.51869  1.0000
  Fe  Fe127     1.0  0.77284  0.69107  0.54938  1.0000
  S   S253      1.0  0.72337  0.65619  0.53708  1.0000
  S   S254      1.0  0.85392  0.75789  0.57029  1.0000
  S   S255      1.0  0.77826  0.72684  0.57989  1.0000
  C   C1837     1.0  0.50379  0.52807  0.51309  1.0000
  H   H1481     1.0  0.60396  0.73417  0.53862  1.0000
  S   S256      1.0  0.84317  0.61084  0.69458  1.0000
  Fe  Fe128     1.0  0.64296  0.88803  0.72106  1.0000
  S   S257      1.0  0.68203  0.93543  0.70921  1.0000
  Fe  Fe129     1.0  0.61250  0.81660  0.71057  1.0000
  C   C1838     1.0  0.48560  0.97150  0.52068  1.0000
  S   S258      1.0  0.61971  0.77783  0.69027  1.0000
  Fe  Fe130     1.0  0.57192  0.84926  0.72120  1.0000
  S   S259      1.0  0.52432  0.84509  0.71036  1.0000
  S   S260      1.0  0.60855  0.85576  0.69153  1.0000
  H   H1482     1.0  0.71941  0.97418  0.65850  1.0000
  C   C1839     1.0  0.56418  0.94689  0.60152  1.0000
  C   C1840     1.0  0.59183  0.64660  0.69546  1.0000
  C   C1841     1.0  0.96153  0.52313  0.72598  1.0000
  C   C1842     1.0  0.78772  0.65307  0.49474  1.0000
  C   C1843     1.0  0.67765  0.72484  0.55222  1.0000
  C   C1844     1.0  0.52088  0.94311  0.57656  1.0000
  H   H1483     1.0  0.75176  0.65504  0.64769  1.0000
  H   H1484     1.0  0.75101  0.84993  0.60673  1.0000
  C   C1845     1.0  0.88924  0.65666  0.58789  1.0000
  H   H1485     1.0  0.66678  0.89956  0.51704  1.0000
  C   C1846     1.0  0.82672  0.68466  0.65254  1.0000
  C   C1847     1.0  0.82799  0.65963  0.63919  1.0000
  C   C1848     1.0  0.83295  0.63727  0.65235  1.0000
  C   C1849     1.0  0.83659  0.63952  0.67902  1.0000
  C   C1850     1.0  0.83484  0.66430  0.69240  1.0000
  C   C1851     1.0  0.82970  0.68653  0.67923  1.0000
  H   H1486     1.0  0.82536  0.65763  0.61870  1.0000
  H   H1487     1.0  0.83404  0.61811  0.64180  1.0000
  H   H1488     1.0  0.83751  0.66638  0.71289  1.0000
  H   H1489     1.0  0.82826  0.70547  0.68979  1.0000
  C   C1852     1.0  0.64558  0.61539  0.59805  1.0000
  C   C1853     1.0  0.63806  0.61450  0.57234  1.0000
  C   C1854     1.0  0.66207  0.62684  0.55382  1.0000
  C   C1855     1.0  0.69378  0.64106  0.56090  1.0000
  C   C1856     1.0  0.70130  0.64237  0.58666  1.0000
  C   C1857     1.0  0.67729  0.62911  0.60507  1.0000
  H   H1490     1.0  0.61373  0.60386  0.56667  1.0000
  H   H1491     1.0  0.65597  0.62556  0.53398  1.0000
  H   H1492     1.0  0.72562  0.65301  0.59235  1.0000
  H   H1493     1.0  0.68332  0.62974  0.62488  1.0000
  C   C1858     1.0  0.54245  0.68798  0.65218  1.0000
  C   C1859     1.0  0.53477  0.71008  0.66417  1.0000
  C   C1860     1.0  0.55791  0.73726  0.67671  1.0000
  C   C1861     1.0  0.58895  0.74259  0.67725  1.0000
  C   C1862     1.0  0.59624  0.71983  0.66621  1.0000
  C   C1863     1.0  0.57323  0.69286  0.65347  1.0000
  H   H1494     1.0  0.51091  0.70635  0.66346  1.0000
  H   H1495     1.0  0.55186  0.75440  0.68540  1.0000
  H   H1496     1.0  0.61995  0.72332  0.66716  1.0000
  H   H1497     1.0  0.57931  0.67596  0.64437  1.0000
  H   H1498     1.0  0.87022  0.75770  0.71038  1.0000
  C   C1864     1.0  0.79311  0.98301  0.55553  1.0000
  C   C1865     1.0  0.49754  0.58536  0.71060  1.0000
  C   C1866     1.0  0.51839  0.87347  0.69368  1.0000
  C   C1867     1.0  0.54344  0.90226  0.68687  1.0000
  C   C1868     1.0  0.53806  0.92420  0.67352  1.0000
  H   H1499     1.0  0.56694  0.90768  0.69217  1.0000
  H   H1500     1.0  0.55767  0.94626  0.66813  1.0000
  H   H1501     1.0  0.90887  0.78167  0.51057  1.0000
  C   C1869     1.0  0.75946  0.78825  0.52101  1.0000
  C   C1870     1.0  0.78941  0.81343  0.52534  1.0000
  C   C1871     1.0  0.79709  0.84288  0.51522  1.0000
  H   H1502     1.0  0.96726  0.77904  0.58220  1.0000
  C   C1872     1.0  0.70880  0.84702  0.54385  1.0000
  C   C1873     1.0  0.74023  0.86905  0.54735  1.0000
  H   H1503     1.0  0.69790  0.84634  0.52589  1.0000
  H   H1504     1.0  0.75300  0.88441  0.53198  1.0000
  C   C1874     1.0  0.71646  0.66869  0.69991  1.0000
  C   C1875     1.0  0.72972  0.65415  0.68405  1.0000
  C   C1876     1.0  0.74123  0.66608  0.66001  1.0000
  C   C1877     1.0  0.73966  0.69263  0.65185  1.0000
  C   C1878     1.0  0.72714  0.70790  0.66792  1.0000
  C   C1879     1.0  0.71502  0.69540  0.69186  1.0000
  P   P63       1.0  0.72545  0.74240  0.65735  1.0000
  C   C1880     1.0  0.69091  0.73095  0.63824  1.0000
  C   C1881     1.0  0.72466  0.76589  0.68479  1.0000
  C   C1882     1.0  0.69598  0.76216  0.69491  1.0000
  H   H1505     1.0  0.96448  0.51340  0.70786  1.0000
  H   H1506     1.0  0.85086  0.96285  0.51622  1.0000
  H   H1507     1.0  0.60247  0.68250  0.53177  1.0000
  C   C1883     1.0  0.75277  0.78854  0.69598  1.0000
  C   C1884     1.0  0.67545  0.70087  0.62657  1.0000
  C   C1885     1.0  0.64807  0.69195  0.61259  1.0000
  C   C1886     1.0  0.63598  0.71295  0.61019  1.0000
  C   C1887     1.0  0.65157  0.74308  0.62144  1.0000
  C   C1888     1.0  0.67900  0.75217  0.63518  1.0000
  C   C1889     1.0  0.76010  0.76631  0.63879  1.0000
  C   C1890     1.0  0.78899  0.76769  0.64456  1.0000
  C   C1891     1.0  0.81582  0.78627  0.63032  1.0000
  C   C1892     1.0  0.81415  0.80391  0.61041  1.0000
  C   C1893     1.0  0.78560  0.80290  0.60467  1.0000
  C   C1894     1.0  0.75866  0.78415  0.61871  1.0000
  C   C1895     1.0  0.49226  0.96887  0.49470  1.0000
  H   H1508     1.0  0.58063  0.95856  0.61681  1.0000
  C   C1896     1.0  0.70602  0.98482  0.56068  1.0000
  H   H1509     1.0  0.74867  0.70142  0.63310  1.0000
  H   H1510     1.0  0.70458  0.70628  0.70436  1.0000
  H   H1511     1.0  0.67387  0.74449  0.68712  1.0000
  H   H1512     1.0  0.77394  0.82546  0.72474  1.0000
  C   C1897     1.0  0.92999  0.72639  0.71887  1.0000
  S   S261      1.0  0.50327  0.55974  0.53125  1.0000
  H   H1513     1.0  0.77519  0.79163  0.68894  1.0000
  H   H1514     1.0  0.68420  0.68414  0.62837  1.0000
  H   H1515     1.0  0.63595  0.66855  0.60389  1.0000
  H   H1516     1.0  0.61436  0.70568  0.59988  1.0000
  H   H1517     1.0  0.64184  0.75908  0.62051  1.0000
  H   H1518     1.0  0.69047  0.77554  0.64396  1.0000
  H   H1519     1.0  0.79085  0.75407  0.65981  1.0000
  H   H1520     1.0  0.83776  0.78635  0.63434  1.0000
  H   H1521     1.0  0.83479  0.81778  0.59898  1.0000
  H   H1522     1.0  0.78431  0.81607  0.58880  1.0000
  H   H1523     1.0  0.73684  0.78343  0.61353  1.0000
  C   C1898     1.0  0.63804  0.89731  0.57725  1.0000
  C   C1899     1.0  0.71348  0.98156  0.50788  1.0000
  C   C1900     1.0  0.50753  0.91798  0.66725  1.0000
  H   H1524     1.0  0.82018  0.86247  0.51847  1.0000
  H   H1525     1.0  0.62165  0.90815  0.50727  1.0000
  C   C1901     1.0  0.53743  0.85992  0.62591  1.0000
  H   H1526     1.0  0.52285  0.96240  0.72701  1.0000
  H   H1527     1.0  0.69832  0.72212  0.55553  1.0000
  C   C1902     1.0  0.65922  0.97576  0.63661  1.0000
  H   H1528     1.0  0.70726  0.91838  0.65759  1.0000
  H   H1529     1.0  0.97917  0.80601  0.66259  1.0000
  H   H1530     1.0  0.92584  0.68149  0.53097  1.0000
  C   C1903     1.0  0.74534  0.82195  0.49633  1.0000
  C   C1904     1.0  0.56245  0.91998  0.58873  1.0000
  C   C1905     1.0  0.71853  0.93271  0.64119  1.0000
  C   C1906     1.0  0.65020  0.69907  0.54344  1.0000
  C   C1907     1.0  0.61347  0.92740  0.62296  1.0000
  H   H1531     1.0  0.50039  0.90392  0.54996  1.0000
  H   H1532     1.0  0.72109  0.89528  0.61943  1.0000
  C   C1908     1.0  0.65766  0.89639  0.55760  1.0000
  C   C1909     1.0  0.69588  0.96624  0.73260  1.0000
  H   H1533     1.0  0.49875  0.82670  0.64816  1.0000
  C   C1910     1.0  0.72360  0.80476  0.72560  1.0000
  C   C1911     1.0  0.54353  0.95839  0.59534  1.0000
  H   H1534     1.0  0.57974  0.84022  0.58305  1.0000
  H   H1535     1.0  0.51088  0.51235  0.68710  1.0000
  H   H1536     1.0  0.57521  0.96167  0.71129  1.0000
  C   C1912     1.0  0.83485  0.96803  0.52768  1.0000
  C   C1913     1.0  0.59521  0.79457  0.62979  1.0000
  C   C1914     1.0  0.58576  0.62786  0.71672  1.0000
  C   C1915     1.0  0.65173  0.75771  0.55248  1.0000
  C   C1916     1.0  0.54069  0.80750  0.60479  1.0000
  C   C1917     1.0  0.50602  0.72617  0.73526  1.0000
  C   C1918     1.0  0.56102  0.86425  0.60800  1.0000
  C   C1919     1.0  0.75218  0.80782  0.71634  1.0000
  H   H1537     1.0  0.74701  0.92802  0.58243  1.0000
  C   C1920     1.0  0.95445  0.64310  0.66225  1.0000
  C   C1921     1.0  0.63877  0.82252  0.60108  1.0000
  H   H1538     1.0  0.73120  0.63370  0.69035  1.0000
  C   C1922     1.0  0.95420  0.70122  0.66766  1.0000
  H   H1539     1.0  0.54146  0.78707  0.59627  1.0000
  P   P64       1.0  0.95291  0.73809  0.66934  1.0000
  C   C1923     1.0  0.92721  0.73724  0.69505  1.0000
  H   H1540     1.0  0.58244  0.79419  0.64713  1.0000
  C   C1924     1.0  0.90589  0.74902  0.69222  1.0000
  H   H1541     1.0  0.64333  0.60655  0.70745  1.0000
  C   C1925     1.0  0.60671  0.90636  0.54644  1.0000
  C   C1926     1.0  0.50020  0.58711  0.73714  1.0000
  H   H1542     1.0  0.96107  0.73884  0.54308  1.0000
  C   C1927     1.0  0.93976  0.74201  0.63842  1.0000
  C   C1928     1.0  0.90810  0.72408  0.63187  1.0000
  C   C1929     1.0  0.89784  0.72616  0.60764  1.0000
  C   C1930     1.0  0.91920  0.74577  0.58966  1.0000
  H   H1543     1.0  0.58763  0.91083  0.54151  1.0000
  C   C1931     1.0  0.95084  0.76347  0.59599  1.0000
  H   H1544     1.0  0.96431  0.67738  0.60337  1.0000
  H   H1545     1.0  0.95469  0.62073  0.66055  1.0000
  C   C1932     1.0  0.56468  0.54698  0.73457  1.0000
  C   C1933     1.0  0.59873  0.98032  0.71449  1.0000
  H   H1546     1.0  0.57665  0.65664  0.69127  1.0000
  C   C1934     1.0  0.56236  0.83776  0.59732  1.0000
  C   C1935     1.0  0.95773  0.62444  0.49606  1.0000
  H   H1547     1.0  0.90374  0.75822  0.67426  1.0000
  H   H1548     1.0  0.53603  0.88253  0.56120  1.0000
  C   C1936     1.0  0.92846  0.64454  0.67300  1.0000
  C   C1937     1.0  0.50870  0.64116  0.73747  1.0000
  C   C1938     1.0  0.63610  0.80364  0.53027  1.0000
  H   H1549     1.0  0.89139  0.70837  0.64546  1.0000
  H   H1550     1.0  0.87327  0.71243  0.60277  1.0000
  H   H1551     1.0  0.91123  0.74714  0.57080  1.0000
  H   H1552     1.0  0.65886  0.78566  0.50347  1.0000
  C   C1939     1.0  0.60863  0.91741  0.64821  1.0000
  H   H1553     1.0  0.58967  0.89475  0.65322  1.0000
  C   C1940     1.0  0.75549  0.87010  0.56993  1.0000
  C   C1941     1.0  0.73908  0.84931  0.58930  1.0000
  H   H1554     1.0  0.56419  0.74616  0.61929  1.0000
  C   C1942     1.0  0.62945  0.79503  0.58579  1.0000
  C   C1943     1.0  0.69233  0.82556  0.56291  1.0000
  H   H1555     1.0  0.94693  0.71807  0.72168  1.0000
  C   C1944     1.0  0.62186  0.82215  0.62312  1.0000
  H   H1556     1.0  0.69533  0.81066  0.60075  1.0000
  C   C1945     1.0  0.58498  0.76754  0.61412  1.0000
  H   H1557     1.0  0.65930  0.84420  0.59626  1.0000
  S   S262      1.0  0.50217  0.94798  0.65277  1.0000
  P   P65       1.0  0.65229  0.79541  0.55792  1.0000
  C   C1946     1.0  0.60174  0.76784  0.59201  1.0000
  H   H1558     1.0  0.62956  0.84308  0.63530  1.0000
  H   H1559     1.0  0.56596  0.62392  0.72881  1.0000
  C   C1947     1.0  0.91704  0.74205  0.50232  1.0000
  H   H1560     1.0  0.65938  0.97704  0.55215  1.0000
  H   H1561     1.0  0.78172  0.86970  0.49253  1.0000
  Fe  Fe131     1.0  0.85200  0.60920  0.73714  1.0000
  C   C1948     1.0  0.64383  0.79662  0.50584  1.0000
  H   H1562     1.0  0.78018  0.88665  0.57218  1.0000
  C   C1949     1.0  0.51144  0.50646  0.52393  1.0000
  C   C1950     1.0  0.63520  0.63696  0.68367  1.0000
  H   H1563     1.0  0.64293  0.89423  0.59671  1.0000
  C   C1951     1.0  0.73747  0.79259  0.50674  1.0000
  C   C1952     1.0  0.96255  0.64112  0.51932  1.0000
  H   H1564     1.0  0.67755  0.89278  0.56185  1.0000
  C   C1953     1.0  0.65165  0.90019  0.53239  1.0000
  H   H1565     1.0  0.65359  0.63958  0.67023  1.0000
  H   H1566     1.0  0.90834  0.62328  0.67940  1.0000
  C   C1954     1.0  0.91497  0.66170  0.60263  1.0000
  C   C1955     1.0  0.74121  0.93852  0.59881  1.0000
  C   C1956     1.0  0.89339  0.66402  0.56214  1.0000
  C   C1957     1.0  0.92319  0.67604  0.55101  1.0000
  C   C1958     1.0  0.94920  0.68096  0.56561  1.0000
  C   C1959     1.0  0.94488  0.67392  0.59161  1.0000
  C   C1960     1.0  0.72634  0.91978  0.61973  1.0000
  H   H1567     1.0  0.87351  0.66064  0.55077  1.0000
  C   C1961     1.0  0.51641  0.82972  0.63386  1.0000
  C   C1962     1.0  0.61651  0.65114  0.67893  1.0000
  H   H1568     1.0  0.90743  0.67375  0.68338  1.0000
  C   C1963     1.0  0.70759  0.82713  0.58584  1.0000
  C   C1964     1.0  0.74836  0.97040  0.59918  1.0000
  H   H1569     1.0  0.53529  0.87991  0.63382  1.0000
  C   C1965     1.0  0.62614  0.90504  0.52685  1.0000
  C   C1966     1.0  0.50490  0.96877  0.72230  1.0000
  C   C1967     1.0  0.92427  0.77375  0.50138  1.0000
  C   C1968     1.0  0.80257  0.94889  0.52530  1.0000
  H   H1570     1.0  0.70272  0.98608  0.58103  1.0000
  C   C1969     1.0  0.67851  0.75406  0.55667  1.0000
  P   P66       1.0  0.58748  0.90346  0.59765  1.0000
  C   C1970     1.0  0.78174  0.95605  0.53938  1.0000
  H   H1571     1.0  0.62058  0.66479  0.66199  1.0000
  H   H1572     1.0  0.91161  0.65612  0.62263  1.0000
  H   H1573     1.0  0.62327  0.72966  0.72590  1.0000
  C   C1971     1.0  0.75633  0.58700  0.71749  1.0000
  C   C1972     1.0  0.53892  0.90420  0.57041  1.0000
  H   H1574     1.0  0.69425  0.58784  0.51363  1.0000
  H   H1575     1.0  0.86613  0.64736  0.59648  1.0000
  C   C1973     1.0  0.97997  0.69952  0.65635  1.0000
  C   C1974     1.0  0.51852  0.91600  0.56414  1.0000
  H   H1576     1.0  0.61053  0.82385  0.55133  1.0000
  H   H1577     1.0  0.64957  0.67644  0.54014  1.0000
  C   C1975     1.0  0.92816  0.67340  0.67547  1.0000
  H   H1578     1.0  0.51735  0.50881  0.54390  1.0000
  H   H1579     1.0  0.62857  0.55481  0.72504  1.0000
  H   H1580     1.0  0.83076  0.65211  0.50253  1.0000
  H   H1581     1.0  0.95155  0.62837  0.53640  1.0000
  C   C1976     1.0  0.62909  0.61800  0.70483  1.0000
  C   C1977     1.0  0.61236  0.90228  0.57182  1.0000
  C   C1978     1.0  0.62368  0.70254  0.53875  1.0000
  H   H1582     1.0  0.56831  0.68859  0.72325  1.0000
  H   H1583     1.0  0.75679  0.94128  0.53678  1.0000
  C   C1979     1.0  0.71778  0.53188  0.71364  1.0000
  H   H1584     1.0  0.92580  0.53309  0.71147  1.0000
  C   C1980     1.0  0.69554  0.78197  0.71485  1.0000
  H   H1585     1.0  0.64317  0.96481  0.59792  1.0000
  H   H1586     1.0  0.70033  0.77357  0.56300  1.0000
  C   C1981     1.0  0.61680  0.81809  0.53275  1.0000
  C   C1982     1.0  0.54715  0.54409  0.71268  1.0000
  H   H1587     1.0  0.50464  0.95182  0.57200  1.0000
  H   H1588     1.0  0.50156  0.78009  0.62940  1.0000
  C   C1983     1.0  0.98153  0.67397  0.52050  1.0000
  C   C1984     1.0  0.72540  0.96432  0.64169  1.0000
  H   H1589     1.0  0.77104  0.60942  0.70879  1.0000
  H   H1590     1.0  0.67343  0.78011  0.72161  1.0000
  C   C1985     1.0  0.62847  0.93683  0.66753  1.0000
  Fe  Fe132     1.0  0.49533  0.54351  0.62752  1.0000
  H   H1591     1.0  0.71428  0.77307  0.50369  1.0000
  H   H1592     1.0  0.55100  0.56448  0.70207  1.0000
  H   H1593     1.0  0.66566  0.97294  0.50553  1.0000
  C   C1986     1.0  0.88695  0.74898  0.71277  1.0000
  C   C1987     1.0  0.96124  0.76117  0.62008  1.0000
  H   H1594     1.0  0.70741  0.65933  0.71850  1.0000
  C   C1988     1.0  0.50704  0.63945  0.71075  1.0000
  C   C1989     1.0  0.51803  0.80350  0.62332  1.0000
  H   H1595     1.0  0.59340  0.74651  0.58042  1.0000
  C   C1990     1.0  0.60581  0.82578  0.51103  1.0000
  H   H1596     1.0  0.59109  0.83711  0.51296  1.0000
  C   C1991     1.0  0.62453  0.73179  0.54296  1.0000
  C   C1992     1.0  0.77532  0.84706  0.50053  1.0000
  C   C1993     1.0  0.73588  0.56111  0.70253  1.0000
  C   C1994     1.0  0.69727  0.59035  0.49314  1.0000
  C   C1995     1.0  0.73993  0.98305  0.62071  1.0000
  H   H1597     1.0  0.73448  0.56364  0.68223  1.0000
  C   C1996     1.0  0.60415  0.61312  0.72149  1.0000
  H   H1598     1.0  0.62459  0.92914  0.68706  1.0000
  C   C1997     1.0  0.65369  0.96596  0.66179  1.0000
  C   C1998     1.0  0.68505  0.97781  0.51807  1.0000
  C   C1999     1.0  0.63902  0.95670  0.61728  1.0000
  H   H1599     1.0  0.50958  0.65937  0.70005  1.0000
  C   C2000     1.0  0.50105  0.61157  0.69747  1.0000
  C   C2001     1.0  0.52426  0.51445  0.70407  1.0000
  H   H1600     1.0  0.54430  0.97853  0.60574  1.0000
  H   H1601     1.0  0.66911  0.98059  0.67695  1.0000
  C   C2002     1.0  0.98017  0.67056  0.65387  1.0000
  H   H1602     1.0  0.77894  0.64800  0.51411  1.0000
  C   C2003     1.0  0.93965  0.53442  0.72787  1.0000
  H   H1603     1.0  0.94765  0.66503  0.73643  1.0000
  C   C2004     1.0  0.91092  0.72619  0.73929  1.0000
  C   C2005     1.0  0.48780  0.86695  0.68701  1.0000
  H   H1604     1.0  0.98057  0.52632  0.56642  1.0000
  H   H1605     1.0  0.50145  0.76470  0.71968  1.0000
  C   C2006     1.0  0.57549  0.70535  0.73911  1.0000
  S   S263      1.0  0.65082  0.84964  0.73714  1.0000
  H   H1606     1.0  0.94351  0.59903  0.49528  1.0000
  C   C2007     1.0  0.68145  0.97983  0.54442  1.0000
  C   C2008     1.0  0.61460  0.98009  0.73632  1.0000
  C   C2009     1.0  0.60675  0.72878  0.74053  1.0000
  H   H1607     1.0  0.70188  0.51218  0.70177  1.0000
  H   H1608     1.0  0.49857  0.61021  0.67692  1.0000
  C   C2010     1.0  0.49106  0.73930  0.72116  1.0000
  S   S264      1.0  0.57381  0.80778  0.73859  1.0000
  H   H1609     1.0  0.49249  0.56365  0.70013  1.0000
  C   C2011     1.0  0.88924  0.73730  0.73622  1.0000
  H   H1610     1.0  0.97627  0.62145  0.73648  1.0000
  C   C2012     1.0  0.49304  0.69333  0.73693  1.0000
  C   C2013     1.0  0.72063  0.52823  0.73974  1.0000
  C   C2014     1.0  0.73831  0.98728  0.52402  1.0000
  H   H1611     1.0  0.72317  0.82018  0.74099  1.0000
  C   C2015     1.0  0.73454  0.98814  0.55059  1.0000
  H   H1612     1.0  0.67553  0.55224  0.73944  1.0000
  C   C2016     1.0  0.53576  0.49018  0.73908  1.0000
  Fe  Fe133     1.0  0.82714  0.60855  0.79153  1.0000
  S   S265      1.0  0.81886  0.57027  0.76236  1.0000
  S   S266      1.0  0.78671  0.61384  0.81088  1.0000
  Fe  Fe134     1.0  0.89847  0.64121  0.78027  1.0000
  S   S267      1.0  0.94687  0.68102  0.79044  1.0000
  Fe  Fe135     1.0  0.86149  0.56995  0.77903  1.0000
  S   S268      1.0  0.86141  0.52313  0.78594  1.0000
  S   S269      1.0  0.85857  0.64768  0.76541  1.0000
  S   S270      1.0  0.86806  0.60632  0.80964  1.0000
  Fe  Fe136     1.0  0.58717  0.56099  0.88085  1.0000
  S   S271      1.0  0.61529  0.55238  0.91003  1.0000
  S   S272      1.0  0.59982  0.61129  0.87130  1.0000
  Fe  Fe137     1.0  0.56871  0.51177  0.92159  1.0000
  Fe  Fe138     1.0  0.61885  0.51977  0.87985  1.0000
  S   S273      1.0  0.66295  0.51542  0.86908  1.0000
  S   S274      1.0  0.54050  0.52252  0.89398  1.0000
  S   S275      1.0  0.59252  0.53002  0.85000  1.0000
  Fe  Fe139     1.0  0.72303  0.83886  0.96251  1.0000
  S   S276      1.0  0.76229  0.85073  0.93438  1.0000
  C   C2017     1.0  0.74419  0.56723  0.90286  1.0000
  Fe  Fe140     1.0  0.69296  0.76819  0.94764  1.0000
  S   S277      1.0  0.73055  0.77534  0.91878  1.0000
  S   S278      1.0  0.65254  0.72022  0.95722  1.0000
  Fe  Fe141     1.0  0.76400  0.80779  0.94870  1.0000
  S   S279      1.0  0.81178  0.81228  0.95834  1.0000
  Fe  Fe142     1.0  0.72504  0.81726  0.90719  1.0000
  S   S280      1.0  0.72442  0.82771  0.86511  1.0000
  S   S281      1.0  0.72672  0.79792  0.97850  1.0000
  S   S282      1.0  0.68553  0.80811  0.93437  1.0000
  C   C2018     1.0  0.77052  0.56634  0.89226  1.0000
  Fe  Fe143     1.0  0.61190  0.84309  0.76421  1.0000
  S   S283      1.0  0.61263  0.83382  0.80659  1.0000
  C   C2019     1.0  0.68856  0.96016  0.75840  1.0000
  H   H1613     1.0  0.67431  0.93621  0.76437  1.0000
  C   C2020     1.0  0.69294  0.82916  0.84928  1.0000
  C   C2021     1.0  0.69424  0.83186  0.82261  1.0000
  C   C2022     1.0  0.66999  0.83342  0.80928  1.0000
  C   C2023     1.0  0.64418  0.83255  0.82252  1.0000
  C   C2024     1.0  0.64289  0.82988  0.84919  1.0000
  C   C2025     1.0  0.66698  0.82801  0.86250  1.0000
  H   H1614     1.0  0.71424  0.83288  0.81221  1.0000
  H   H1615     1.0  0.67140  0.83553  0.78881  1.0000
  H   H1616     1.0  0.62326  0.82957  0.85964  1.0000
  H   H1617     1.0  0.66565  0.82606  0.88300  1.0000
  C   C2026     1.0  0.61579  0.64078  0.89573  1.0000
  C   C2027     1.0  0.63817  0.67145  0.88950  1.0000
  C   C2028     1.0  0.65034  0.69560  0.90840  1.0000
  C   C2029     1.0  0.63931  0.68969  0.93349  1.0000
  C   C2030     1.0  0.61679  0.65906  0.93973  1.0000
  C   C2031     1.0  0.60537  0.63459  0.92102  1.0000
  H   H1618     1.0  0.64636  0.67652  0.87003  1.0000
  H   H1619     1.0  0.66807  0.71891  0.90352  1.0000
  H   H1620     1.0  0.60814  0.65418  0.95909  1.0000
  H   H1621     1.0  0.58799  0.61110  0.92604  1.0000
  C   C2032     1.0  0.71781  0.66248  0.96947  1.0000
  H   H1622     1.0  0.49750  0.56675  0.74729  1.0000
  C   C2033     1.0  0.75193  0.58552  0.82611  1.0000
  C   C2034     1.0  0.72864  0.59397  0.83344  1.0000
  C   C2035     1.0  0.70110  0.57276  0.84623  1.0000
  C   C2036     1.0  0.69663  0.54281  0.85212  1.0000
  C   C2037     1.0  0.71978  0.53425  0.84460  1.0000
  C   C2038     1.0  0.74710  0.55528  0.83144  1.0000
  H   H1623     1.0  0.73194  0.61718  0.82932  1.0000
  H   H1624     1.0  0.68362  0.57978  0.85196  1.0000
  C   C2039     1.0  0.76955  0.49152  0.79516  1.0000
  H   H1625     1.0  0.76472  0.54835  0.82601  1.0000
  C   C2040     1.0  0.63512  0.50306  0.79998  1.0000
  H   H1626     1.0  0.93603  0.54700  0.85685  1.0000
  C   C2041     1.0  0.59454  0.75168  0.77801  1.0000
  C   C2042     1.0  0.96746  0.60153  0.93536  1.0000
  H   H1627     1.0  0.76963  0.74871  0.97504  1.0000
  C   C2043     1.0  0.75963  0.71857  0.85927  1.0000
  C   C2044     1.0  0.77931  0.67244  0.85646  1.0000
  C   C2045     1.0  0.88576  0.49580  0.92311  1.0000
  P   P67       1.0  0.51270  0.67613  0.75460  1.0000
  H   H1628     1.0  0.95604  0.61847  0.78061  1.0000
  C   C2046     1.0  0.74044  0.55462  0.75478  1.0000
  C   C2047     1.0  0.79304  0.75512  0.98146  1.0000
  H   H1629     1.0  0.76432  0.50816  0.75915  1.0000
  C   C2048     1.0  0.76095  0.70386  0.88138  1.0000
  C   C2049     1.0  0.91991  0.52909  0.84380  1.0000
  C   C2050     1.0  0.90291  0.53697  0.82646  1.0000
  H   H1630     1.0  0.50720  0.61547  0.77112  1.0000
  C   C2051     1.0  0.81774  0.78469  0.97583  1.0000
  C   C2052     1.0  0.95808  0.59070  0.96019  1.0000
  H   H1631     1.0  0.90608  0.56074  0.82624  1.0000
  C   C2053     1.0  0.55361  0.70469  0.75736  1.0000
  C   C2054     1.0  0.50011  0.65329  0.82991  1.0000
  H   H1632     1.0  0.59134  0.66297  0.80979  1.0000
  C   C2055     1.0  0.55165  0.57511  0.78790  1.0000
  C   C2056     1.0  0.94782  0.60740  0.97696  1.0000
  H   H1633     1.0  0.77401  0.60397  0.75530  1.0000
  C   C2057     1.0  0.66252  0.50368  0.79027  1.0000
  H   H1634     1.0  0.60442  0.83238  0.92694  1.0000
  C   C2058     1.0  0.75237  0.49620  0.77624  1.0000
  H   H1635     1.0  0.49316  0.75400  0.82170  1.0000
  H   H1636     1.0  0.60372  0.96090  0.74945  1.0000
  C   C2059     1.0  0.77125  0.62442  0.90191  1.0000
  C   C2060     1.0  0.61195  0.80107  0.95077  1.0000
  C   C2061     1.0  0.55566  0.61614  0.81790  1.0000
  H   H1637     1.0  0.68348  0.51432  0.80175  1.0000
  H   H1638     1.0  0.95473  0.66527  0.93795  1.0000
  C   C2062     1.0  0.96357  0.68967  0.86460  1.0000
  C   C2063     1.0  0.60231  0.80907  0.92852  1.0000
  C   C2064     1.0  0.94656  0.63411  0.96883  1.0000
  C   C2065     1.0  0.61007  0.77134  0.95255  1.0000
  C   C2066     1.0  0.59867  0.74965  0.93209  1.0000
  C   C2067     1.0  0.58839  0.75730  0.90981  1.0000
  C   C2068     1.0  0.59061  0.78732  0.90809  1.0000
  P   P68       1.0  0.57483  0.72949  0.88313  1.0000
  C   C2069     1.0  0.60799  0.73373  0.86394  1.0000
  C   C2070     1.0  0.55414  0.69034  0.89568  1.0000
  C   C2071     1.0  0.55857  0.66551  0.88515  1.0000
  C   C2072     1.0  0.54204  0.63529  0.89495  1.0000
  C   C2073     1.0  0.54140  0.58447  0.81008  1.0000
  H   H1639     1.0  0.60949  0.64699  0.77039  1.0000
  C   C2074     1.0  0.53355  0.68460  0.91649  1.0000
  C   C2075     1.0  0.60392  0.72396  0.83814  1.0000
  C   C2076     1.0  0.62973  0.72805  0.82308  1.0000
  C   C2077     1.0  0.65962  0.74142  0.83374  1.0000
  C   C2078     1.0  0.66369  0.75054  0.85947  1.0000
  C   C2079     1.0  0.63809  0.74697  0.87451  1.0000
  C   C2080     1.0  0.54860  0.73695  0.86374  1.0000
  C   C2081     1.0  0.56093  0.76048  0.84546  1.0000
  C   C2082     1.0  0.54096  0.76659  0.83046  1.0000
  H   H1640     1.0  0.53732  0.66724  0.80232  1.0000
  P   P69       1.0  0.95832  0.55503  0.96961  1.0000
  C   C2083     1.0  0.51590  0.71969  0.86671  1.0000
  H   H1641     1.0  0.75219  0.73660  0.86045  1.0000
  H   H1642     1.0  0.97332  0.63643  0.90811  1.0000
  H   H1643     1.0  0.59859  0.72719  0.93347  1.0000
  H   H1644     1.0  0.58371  0.79422  0.89095  1.0000
  H   H1645     1.0  0.57511  0.66937  0.86975  1.0000
  H   H1646     1.0  0.54572  0.61621  0.88701  1.0000
  C   C2084     1.0  0.56338  0.72804  0.77685  1.0000
  H   H1647     1.0  0.53011  0.70351  0.92515  1.0000
  H   H1648     1.0  0.58091  0.71359  0.82962  1.0000
  H   H1649     1.0  0.62671  0.72112  0.80309  1.0000
  H   H1650     1.0  0.67976  0.74506  0.82212  1.0000
  H   H1651     1.0  0.68689  0.76094  0.86774  1.0000
  H   H1652     1.0  0.64209  0.75467  0.89431  1.0000
  H   H1653     1.0  0.58603  0.77435  0.84287  1.0000
  H   H1654     1.0  0.55074  0.78504  0.81659  1.0000
  C   C2085     1.0  0.93114  0.67312  0.86829  1.0000
  C   C2086     1.0  0.58997  0.62942  0.78098  1.0000
  H   H1655     1.0  0.91771  0.55499  0.75268  1.0000
  C   C2087     1.0  0.95067  0.77507  0.92423  1.0000
  H   H1656     1.0  0.87430  0.73690  0.75203  1.0000
  C   C2088     1.0  0.84948  0.69293  0.95509  1.0000
  H   H1657     1.0  0.93226  0.82031  0.96532  1.0000
  H   H1658     1.0  0.88459  0.74041  0.96386  1.0000
  H   H1659     1.0  0.97311  0.51040  0.93960  1.0000
  H   H1660     1.0  0.86743  0.81531  0.97960  1.0000
  C   C2089     1.0  0.62684  0.58246  0.75789  1.0000
  C   C2090     1.0  0.66701  0.59398  0.78969  1.0000
  H   H1661     1.0  0.49350  0.94450  0.97049  1.0000
  C   C2091     1.0  0.75975  0.97199  0.91686  1.0000
  C   C2092     1.0  0.67974  0.57847  0.77444  1.0000
  H   H1662     1.0  0.76620  0.67465  0.96359  1.0000
  C   C2093     1.0  0.93594  0.79230  0.93376  1.0000
  C   C2094     1.0  0.50573  0.61488  0.75058  1.0000
  C   C2095     1.0  0.97497  0.53766  0.77040  1.0000
  H   H1663     1.0  0.79462  0.50036  0.79280  1.0000
  C   C2096     1.0  0.64073  0.59606  0.78149  1.0000
  H   H1664     1.0  0.72091  0.66932  0.98949  1.0000
  C   C2097     1.0  0.97886  0.52403  0.74743  1.0000
  C   C2098     1.0  0.95580  0.64460  0.94409  1.0000
  H   H1665     1.0  0.70015  0.57699  0.78091  1.0000
  H   H1666     1.0  0.73614  0.95125  0.95227  1.0000
  H   H1667     1.0  0.74257  0.55263  0.77506  1.0000
  H   H1668     1.0  0.94452  0.76412  0.90541  1.0000
  C   C2099     1.0  0.74252  0.94698  0.93319  1.0000
  C   C2100     1.0  0.73352  0.91594  0.92505  1.0000
  C   C2101     1.0  0.74188  0.90962  0.90074  1.0000
  C   C2102     1.0  0.75953  0.93439  0.88459  1.0000
  C   C2103     1.0  0.76864  0.96550  0.89263  1.0000
  C   C2104     1.0  0.66584  0.56452  0.75113  1.0000
  H   H1669     1.0  0.64017  0.77095  0.76049  1.0000
  H   H1670     1.0  0.81342  0.73104  0.91182  1.0000
  H   H1671     1.0  0.91909  0.54463  0.92393  1.0000
  H   H1672     1.0  0.78429  0.68030  0.81617  1.0000
  C   C2105     1.0  0.75818  0.58386  0.74366  1.0000
  C   C2106     1.0  0.93518  0.54692  0.75105  1.0000
  C   C2107     1.0  0.63928  0.56612  0.74302  1.0000
  H   H1673     1.0  0.78685  0.65461  0.85475  1.0000
  H   H1674     1.0  0.61865  0.76550  0.96938  1.0000
  C   C2108     1.0  0.74445  0.59609  0.90761  1.0000
  H   H1675     1.0  0.91656  0.65558  0.85416  1.0000
  H   H1676     1.0  0.72015  0.89670  0.93764  1.0000
  H   H1677     1.0  0.73484  0.88552  0.89448  1.0000
  H   H1678     1.0  0.76613  0.92934  0.86581  1.0000
  H   H1679     1.0  0.89242  0.66626  0.89300  1.0000
  H   H1680     1.0  0.87528  0.49717  0.90546  1.0000
  H   H1681     1.0  0.66830  0.64837  0.96973  1.0000
  H   H1682     1.0  0.76991  0.54388  0.88801  1.0000
  C   C2109     1.0  0.51742  0.65445  0.92642  1.0000
  H   H1683     1.0  0.91845  0.79422  0.92247  1.0000
  C   C2110     1.0  0.86401  0.72555  0.95261  1.0000
  C   C2111     1.0  0.93632  0.70261  0.90786  1.0000
  H   H1684     1.0  0.50187  0.65024  0.94266  1.0000
  C   C2112     1.0  0.96719  0.80566  0.97199  1.0000
  C   C2113     1.0  0.97737  0.69293  0.76731  1.0000
  C   C2114     1.0  0.61623  0.75209  0.75985  1.0000
  P   P70       1.0  0.59302  0.58526  0.74688  1.0000
  S   S284      1.0  0.89375  0.60467  0.75057  1.0000
  C   C2115     1.0  0.85091  0.73905  0.93687  1.0000
  H   H1685     1.0  0.60184  0.77015  0.79268  1.0000
  C   C2116     1.0  0.52165  0.62979  0.91563  1.0000
  C   C2117     1.0  0.57974  0.63862  0.80327  1.0000
  H   H1686     1.0  0.78194  0.90843  0.97548  1.0000
  C   C2118     1.0  0.91610  0.49825  0.84449  1.0000
  H   H1687     1.0  0.63140  0.60810  0.79386  1.0000
  H   H1688     1.0  0.67744  0.60430  0.80799  1.0000
  C   C2119     1.0  0.96636  0.62840  0.92736  1.0000
  C   C2120     1.0  0.95301  0.54875  0.77222  1.0000
  C   C2121     1.0  0.82199  0.67373  0.94168  1.0000
  H   H1689     1.0  0.97392  0.68483  0.84760  1.0000
  H   H1690     1.0  0.85883  0.68268  0.96830  1.0000
  H   H1691     1.0  0.63512  0.51268  0.81895  1.0000
  H   H1692     1.0  0.51372  0.65089  0.84498  1.0000
  C   C2122     1.0  0.79718  0.59435  0.88635  1.0000
  H   H1693     1.0  0.52324  0.56696  0.82180  1.0000
  C   C2123     1.0  0.77064  0.68051  0.88014  1.0000
  P   P71       1.0  0.77275  0.66215  0.90899  1.0000
  H   H1694     1.0  0.69533  0.97995  0.79665  1.0000
  H   H1695     1.0  0.72317  0.54544  0.90677  1.0000
  H   H1696     1.0  0.92578  0.48920  0.98422  1.0000
  C   C2124     1.0  0.76802  0.71014  0.83574  1.0000
  C   C2125     1.0  0.88230  0.51420  0.80916  1.0000
  C   C2126     1.0  0.55886  0.51978  0.74765  1.0000
  H   H1697     1.0  0.71671  0.51130  0.84930  1.0000
  C   C2127     1.0  0.91756  0.67932  0.89006  1.0000
  C   C2128     1.0  0.79766  0.62328  0.89133  1.0000
  C   C2129     1.0  0.57628  0.59749  0.77330  1.0000
  C   C2130     1.0  0.96882  0.72007  0.90385  1.0000
  H   H1698     1.0  0.92544  0.70710  0.92466  1.0000
  C   C2131     1.0  0.73970  0.65700  0.92866  1.0000
  C   C2132     1.0  0.70986  0.64494  0.91773  1.0000
  C   C2133     1.0  0.68423  0.64158  0.93260  1.0000
  H   H1699     1.0  0.50556  0.70154  0.88064  1.0000
  H   H1700     1.0  0.50954  0.60650  0.92354  1.0000
  C   C2134     1.0  0.74348  0.66553  0.95469  1.0000
  H   H1701     1.0  0.75451  0.71084  0.89947  1.0000
  H   H1702     1.0  0.54089  0.55031  0.78282  1.0000
  H   H1703     1.0  0.54669  0.72865  0.79061  1.0000
  H   H1704     1.0  0.81728  0.59359  0.87753  1.0000
  C   C2135     1.0  0.91089  0.52271  0.93362  1.0000
  H   H1705     1.0  0.72360  0.59592  0.91561  1.0000
  H   H1706     1.0  0.93840  0.64669  0.98188  1.0000
  C   C2136     1.0  0.77784  0.68708  0.83436  1.0000
  H   H1707     1.0  0.70635  0.63799  0.89770  1.0000
  H   H1708     1.0  0.66128  0.63197  0.92405  1.0000
  C   C2137     1.0  0.68821  0.65063  0.95839  1.0000
  C   C2138     1.0  0.51343  0.66271  0.80578  1.0000
  H   H1709     1.0  0.76700  0.72153  0.81861  1.0000
  H   H1710     1.0  0.69967  0.71667  0.99067  1.0000
  H   H1711     1.0  0.57180  0.52156  0.76476  1.0000
  C   C2139     1.0  0.82348  0.71993  0.92336  1.0000
  H   H1712     1.0  0.81053  0.64857  0.94450  1.0000
  H   H1713     1.0  0.54874  0.62304  0.83577  1.0000
  H   H1714     1.0  0.86129  0.76443  0.93591  1.0000
  C   C2140     1.0  0.49510  0.49714  0.96837  1.0000
  C   C2141     1.0  0.80894  0.68707  0.92548  1.0000
  H   H1715     1.0  0.81852  0.64479  0.88667  1.0000
  H   H1716     1.0  0.62171  0.81823  0.96635  1.0000
  H   H1717     1.0  0.96588  0.72898  0.97729  1.0000
  C   C2142     1.0  0.50852  0.74914  0.83338  1.0000
  C   C2143     1.0  0.77593  0.92342  0.98762  1.0000
  C   C2144     1.0  0.94388  0.80721  0.95779  1.0000
  H   H1718     1.0  0.94955  0.55849  0.79014  1.0000
  C   C2145     1.0  0.52078  0.49753  0.98055  1.0000
  S   S285      1.0  0.93937  0.49020  0.86595  1.0000
  C   C2146     1.0  0.92526  0.52083  0.95603  1.0000
  H   H1719     1.0  0.91304  0.71739  0.75752  1.0000
  H   H1720     1.0  0.49558  0.49938  0.94793  1.0000
  C   C2147     1.0  0.49254  0.96345  0.98148  1.0000
  C   C2148     1.0  0.97334  0.77247  0.93881  1.0000
  H   H1721     1.0  0.78258  0.98441  0.87993  1.0000
  C   C2149     1.0  0.84818  0.79250  0.98393  1.0000
  S   S286      1.0  0.55407  0.49967  0.96339  1.0000
  C   C2150     1.0  0.98072  0.62584  0.77733  1.0000
  H   H1722     1.0  0.97506  0.58878  0.92205  1.0000
  Fe  Fe144     1.0  0.54894  0.49011  0.86629  1.0000
  S   S287      1.0  0.60610  0.88379  0.74973  1.0000
  S   S288      1.0  0.71515  0.87382  0.98820  1.0000
  C   C2151     1.0  0.91437  0.49157  0.96748  1.0000
  C   C2152     1.0  0.70050  0.98502  0.77668  1.0000
  C   C2153     1.0  0.97131  0.68130  0.74217  1.0000
  C   C2154     1.0  0.49599  0.72573  0.85153  1.0000
  H   H1723     1.0  0.97380  0.81766  0.99047  1.0000
  H   H1724     1.0  0.82328  0.96160  0.98905  1.0000
  C   C2155     1.0  0.49581  0.66568  0.78611  1.0000
  H   H1725     1.0  0.52787  0.74179  0.74448  1.0000
  H   H1726     1.0  0.65785  0.98724  0.86982  1.0000
  P   P72       1.0  0.69806  0.49049  0.75422  1.0000
  C   C2156     1.0  0.98244  0.71273  0.88250  1.0000
  C   C2157     1.0  0.98223  0.78879  0.96238  1.0000
  H   H1727     1.0  0.48680  0.98572  0.94829  1.0000
  C   C2158     1.0  0.48866  0.98679  0.96882  1.0000
  H   H1728     1.0  0.58647  0.48883  0.79328  1.0000
  C   C2159     1.0  0.66274  0.49052  0.76609  1.0000
  C   C2160     1.0  0.60783  0.48983  0.78540  1.0000
