data_image0
_chemical_formula_structural       CSFeHSFeCSHSC2S2FeS2FeS2FeSFeS3C7H2C3HC3H3C4H2C3H2C6H4C6H4C2H3CH2CH2C3H2C4H2C3H3C5HC2HCH2CH4CHCH2CHCSPC8H4C2HC3H8C2HP2HCH4CH2C3PC2HC4HC5FeC2SHCH5C2H2CHC2HCH2C6HCHC3HCH2CH2C3HC2HCH2CH2C4HC3PC2PC3H2C2HC2HSHC2H2C2H7C2SC4H2C3H3C2HCHCH2CH7CHC5HC3FeCHC3HCH2CH3CH2CH3CFeS2FeSC2FeSCSFeS2FeSC2FeSHSFeS2FeCFeSFeS3FeSFeS2FeSFeS3C6H2C8HCHC7H4C6H6C6H2C2HCH6CHC5H2PH2PCH3CHCH2C3HCHCSC2H2PC2HCHC6HC2H6C7PC18H20C2HC5H3C2HCH2CHC2H2SHSHCH2C2H3C2HC2H3C4H2C9HCHCH5CH3CHCH2CHC2HFeH3CHSH6C3H3CH4S2FeS2FeS2FeCFeCS2FeHSFeCSFeHFeHS2CH2CHCH2C3H2CHCH2C2HCH2CHCHCHC6H4C6H4C2HC2H7C6PHC8HCHC2HC3H6C2H2CHC5H2CH2CPC5FeC2HCHC2H3C2H3CH2C3HC2PH2C2HC3SHCHC8HSC4H4CSC6H2CHC3HCHCHPH4CH5C7SCHPCHCHCH4SCH2CHC3HCHC2HCH2CHCHC3H2C2H2CH2C2SHSCHCH4CHC7H2C2SFeS2FeCSHSCS3FeS2FeS2FeSFeS3CHPC4H2C6HCH3C2HCHC3H2C6HCH2C6H5CH4CH5C2H3C2H4C2H2CH2CH7CHC12PHC2HC2HCH2C3H6C2H2C2HCH3SCHCH2C3PC3HC7HCH4CH3C2H2C2PC9HC2SHC4H2C2H2C2H4C2HC2H3C7HC2HC2HC4HCHCPH2CHCH3C4HCH3CHPC3H3C2H2CHC2H2C3HC2HC3PCHC2H2C3H3C2H2CHCFeCH3FeC2HCH2C5HC2HC6H3C2HFeS2FeSHCFeSCSFeS2FeS2Fe2S3FeS2FeSFeSFeS3CHFeS2FeSFeHS2C4HCH3PC6H4C6H4C6H4C6H3C3HCHCHCHPC2H2C2HCH2C2H4S2HC3H3C3H3C6PC18H19CHC2HC2HCHC4HC4HFeH3C3HC3HC4HCHC2H3PC2H3CH2CH2C2HC6H2CH2CHCH3C3SH3CHCH3C4HCHCH3CH2C2HSCFeS2FeS2FeCFeHS2FeS2FeS2FeHFeCS2C2H4CHC2H2CH2C2HCSH3CH2C3HC6H4C6H5C2PHC5HCH4C2H2CH4CH2CHC9PHC6HCH2C2HCSCH2CH4C2SHCH2CHC2PC5PC3HC3H2C4HC2HCHCHC2H2C2H2CH2C2H2SC2HC3H3C6PC5HC3HC5HC2H8CH3CH3CHCHC3HCHC2HCSHC2HC2HCHC2H5CHC5H3C6H2C2HFeC2PHC7SCHCH2C5HCHCH5CH2CHC2HCH4CHC2HCHCH2CHCHCHC3HS2FeCSFeHSHSC2S2FeS2FeS2FeSFeS3C6HCHC2HC2PCH4C3H2C3H2C6H4C6H5C2HC2HCHC4H3C3H4CHFeH5C7H2C2SHC4HC5HC2HCH3C2HCHCHPC4H2C6HCH2CH2CHCH4C2H5C6HC2HFeC3HC4HC3HC2HCHCHC3H2C2H2C4PC16PC3H10CH5SHC2H2C4H3CH6SHCHC3HCPC3H2CH2C3H3CHCH2C4H4CH3CHC3HCHCH3C4HPHC2HFeS2FeSHCFeSHSFeS2FeS2Fe2SCSFeS2FeSFeHFeS3H2FeS2FeSFeHS2C2HC2H2CH2C3HC2H3C7H4C6H6C3H2C7H5C3H3SHC9PC18H20C2H2C2HCHC6PC9SC7H19C4PC5HC3H7CH3C3HSCHCH2C2SHC6HCHCHCHC3HCH3CHFeHCH2CHCHC2SCHC2HCHCH2PC3H2C4HFeS2FeS2FeS2FeCFeHS2FeS2FeCSHCFeCS2C3H2CH2C2H2C2HCHCH2C7HCHC6H4C6H4PC7HCHC8H2FeH4CHCHC2H3C6PC18H20C6H2CHPCH3SC5HCHCH2CHSHC2H4CHCHC5H2C2H2C3HC2HCHC2SH2CHCH3C6H3CH2CHCH7C2H2C3H2PC2HC2H3C2HSCH3CSHC2H2CHCHCHC3SCHPCHCH2S2FeHSFeHSHC2S3FeS2FeS2FeSFeS3C6HCH2CH2CHC2H4C2HC4H2C7FeH2C6H4C2HC3HC7PC18H20CHCHC2PC8HC9H8CH6C5PC2HC5HCHCHCHCH3C2H2C5HCH2CHC2PC3HC5H4CH4CHC2H2C2H5C2H3C6HC3PC3H2C2H5C6H4C2HCH3C2H3C3SH2C2HSHSHC2H2CHC3PCHC2H2CH2FeHC2HCHPHCHCH4C4H7C6H2CFeS2FeSCHFeSCSFeS2FeSHCFeSCSFeS2FeHFeHFeS3HCFeS2FeSFePS2C5HCH3C6H2CHC6H4C6H4C2HC4H3C2SCHCH7C2H2C2H2CHCHCHC2HCH3C2HC2H2CHC2SC4PC18FeH17SHSPCH3C3HCH3C2HC2HCHCHCFeHC5HCHC4HCHC2HCSHCH2CH2CH2SHC3HCHC5SC5H3C2H2SHPH2CH2CFeHC5HCH4C2HC3H3CH2C2H2CH6C2S2FeS2FeS2FeHFeCS2Fe2SFeCSFeHSHS2CHC2HCHCPH2C2H4CHCHC2HC2HC9H4C6H5C2PCHCSC7PC2H4C12H5CSH2CH2CH3CH2C3H3CPC13HCH3C2H4C3HC2SHCH2C2HCH5C2H4C2SCHC6H6CHC2H2C2H2C3H3C3HCH2C3HC2HCPC3HC2HC2H2CHCH2SH2C2HPCH3CH3C2HC4H3C2HC5H2C3H2CH2C4HCH3C3H2CHCH
_chemical_formula_sum              "C1920 S256 Fe128 H1536 P64"
_cell_length_a       48.9632
_cell_length_b       48.8702
_cell_length_c       51.5372
_cell_angle_alpha    89.9253
_cell_angle_beta     89.915
_cell_angle_gamma    89.9202

_space_group_name_H-M_alt    "P 1"
_space_group_IT_number       1

loop_
  _space_group_symop_operation_xyz
  'x, y, z'

loop_
  _atom_site_type_symbol
  _atom_site_label
  _atom_site_symmetry_multiplicity
  _atom_site_fract_x
  _atom_site_fract_y
  _atom_site_fract_z
  _atom_site_occupancy
  C   C1        1.0  0.42930  0.47445  0.19771  1.0000
  S   S1        1.0  0.04194  0.13495  0.30133  1.0000
  Fe  Fe1       1.0  0.01343  0.09189  0.08524  1.0000
  H   H1        1.0  0.05141  0.24653  0.27599  1.0000
  S   S2        1.0  0.03837  0.07948  0.04871  1.0000
  Fe  Fe2       1.0  0.01605  0.10513  0.14484  1.0000
  C   C2        1.0  0.06410  0.23779  0.26090  1.0000
  S   S3        1.0  0.04519  0.12071  0.17690  1.0000
  H   H2        1.0  0.36978  0.26530  0.29468  1.0000
  S   S4        1.0  0.34683  0.32898  0.30966  1.0000
  C   C3        1.0  0.37079  0.46287  0.07126  1.0000
  C   C4        1.0  0.10832  0.22094  0.24710  1.0000
  S   S5        1.0  0.01686  0.06559  0.12143  1.0000
  S   S6        1.0  0.01610  0.13125  0.10847  1.0000
  Fe  Fe3       1.0  0.37355  0.35404  0.09147  1.0000
  S   S7        1.0  0.41964  0.35325  0.09175  1.0000
  S   S8        1.0  0.34644  0.36646  0.05648  1.0000
  Fe  Fe4       1.0  0.37004  0.34105  0.15099  1.0000
  S   S9        1.0  0.41537  0.34081  0.15427  1.0000
  S   S10       1.0  0.34420  0.32445  0.18505  1.0000
  Fe  Fe5       1.0  0.41599  0.37774  0.12849  1.0000
  S   S11       1.0  0.44949  0.40863  0.13713  1.0000
  Fe  Fe6       1.0  0.41574  0.31625  0.11772  1.0000
  S   S12       1.0  0.44732  0.28254  0.12231  1.0000
  S   S13       1.0  0.37001  0.38051  0.12762  1.0000
  S   S14       1.0  0.36997  0.31475  0.11486  1.0000
  C   C5        1.0  0.43942  0.19418  0.09421  1.0000
  C   C6        1.0  0.03901  0.20426  0.05816  1.0000
  C   C7        1.0  0.46223  0.22881  0.11988  1.0000
  C   C8        1.0  0.44227  0.24819  0.11314  1.0000
  C   C9        1.0  0.42046  0.24033  0.09737  1.0000
  C   C10       1.0  0.41907  0.21335  0.08792  1.0000
  C   C11       1.0  0.11865  0.01837  0.02291  1.0000
  H   H3        1.0  0.43731  0.16730  0.19218  1.0000
  H   H4        1.0  0.40512  0.25519  0.09188  1.0000
  C   C12       1.0  0.28658  0.45557  0.00453  1.0000
  C   C13       1.0  0.43852  0.00552  0.12803  1.0000
  C   C14       1.0  0.35170  0.98529  0.03591  1.0000
  H   H5        1.0  0.32421  0.08287  0.26651  1.0000
  C   C15       1.0  0.44595  0.44389  0.13065  1.0000
  C   C16       1.0  0.42025  0.45566  0.12719  1.0000
  C   C17       1.0  0.41912  0.44787  0.19514  1.0000
  H   H6        1.0  0.98798  0.99507  0.99312  1.0000
  H   H7        1.0  0.12961  0.21683  0.25120  1.0000
  H   H8        1.0  0.40221  0.44296  0.12841  1.0000
  C   C18       1.0  0.09176  0.23301  0.26600  1.0000
  C   C19       1.0  0.01197  0.08525  0.00031  1.0000
  C   C20       1.0  0.03481  0.07585  0.01409  1.0000
  C   C21       1.0  0.05605  0.06327  0.99990  1.0000
  H   H9        1.0  0.99537  0.09501  0.01059  1.0000
  H   H10       1.0  0.07392  0.05604  0.01010  1.0000
  C   C22       1.0  0.37130  0.35987  0.00758  1.0000
  C   C23       1.0  0.34858  0.36895  0.02173  1.0000
  C   C24       1.0  0.32657  0.38060  0.00791  1.0000
  H   H11       1.0  0.38834  0.35069  0.01771  1.0000
  H   H12       1.0  0.30873  0.38748  0.01846  1.0000
  C   C25       1.0  0.04277  0.13232  0.26657  1.0000
  C   C26       1.0  0.02419  0.11463  0.25417  1.0000
  C   C27       1.0  0.02413  0.11133  0.22687  1.0000
  C   C28       1.0  0.04304  0.12538  0.21141  1.0000
  C   C29       1.0  0.06153  0.14323  0.22378  1.0000
  C   C30       1.0  0.06127  0.14690  0.25106  1.0000
  H   H13       1.0  0.45728  0.41590  0.24115  1.0000
  H   H14       1.0  0.00994  0.09733  0.21787  1.0000
  H   H15       1.0  0.07634  0.15415  0.21216  1.0000
  H   H16       1.0  0.07574  0.16059  0.26011  1.0000
  C   C31       1.0  0.34844  0.32593  0.27499  1.0000
  C   C32       1.0  0.36035  0.34721  0.26032  1.0000
  C   C33       1.0  0.36073  0.34651  0.23283  1.0000
  C   C34       1.0  0.34898  0.32450  0.21953  1.0000
  C   C35       1.0  0.33817  0.30276  0.23422  1.0000
  C   C36       1.0  0.33784  0.30339  0.26166  1.0000
  H   H17       1.0  0.36878  0.36473  0.27029  1.0000
  H   H18       1.0  0.36906  0.36351  0.22196  1.0000
  H   H19       1.0  0.32992  0.28534  0.22418  1.0000
  H   H20       1.0  0.32911  0.28659  0.27246  1.0000
  C   C37       1.0  0.33238  0.20888  0.28352  1.0000
  C   C38       1.0  0.41505  0.98913  0.12597  1.0000
  H   H21       1.0  0.12347  0.00642  0.00583  1.0000
  H   H22       1.0  0.35216  0.21804  0.24719  1.0000
  H   H23       1.0  0.47511  0.25708  0.07314  1.0000
  C   C39       1.0  0.44155  0.13978  0.23883  1.0000
  H   H24       1.0  0.46139  0.23158  0.26903  1.0000
  H   H25       1.0  0.32988  0.98866  0.03446  1.0000
  C   C40       1.0  0.00798  0.17945  0.02982  1.0000
  H   H26       1.0  0.40457  0.12807  0.03790  1.0000
  H   H27       1.0  0.00227  0.47158  0.25251  1.0000
  C   C41       1.0  0.20442  0.25505  0.26950  1.0000
  C   C42       1.0  0.41081  0.08508  0.03026  1.0000
  C   C43       1.0  0.46928  0.46061  0.12978  1.0000
  H   H28       1.0  0.37178  0.14271  0.22548  1.0000
  H   H29       1.0  0.05290  0.13609  0.05935  1.0000
  C   C44       1.0  0.24934  0.23346  0.17404  1.0000
  C   C45       1.0  0.28603  0.22557  0.28805  1.0000
  C   C46       1.0  0.46309  0.21925  0.19071  1.0000
  C   C47       1.0  0.04291  0.15514  0.05415  1.0000
  H   H30       1.0  0.39012  0.41731  0.00344  1.0000
  H   H31       1.0  0.98426  0.16643  0.14729  1.0000
  C   C48       1.0  0.99692  0.20669  0.15884  1.0000
  C   C49       1.0  0.40981  0.05837  0.04046  1.0000
  C   C50       1.0  0.44698  0.08633  0.21505  1.0000
  H   H32       1.0  0.39896  0.03429  0.07438  1.0000
  H   H33       1.0  0.26681  0.25265  0.14012  1.0000
  H   H34       1.0  0.06889  0.17977  0.07832  1.0000
  C   C51       1.0  0.27755  0.27406  0.17510  1.0000
  C   C52       1.0  0.43353  0.31323  0.23210  1.0000
  C   C53       1.0  0.44926  0.43235  0.22927  1.0000
  C   C54       1.0  0.46090  0.20191  0.11040  1.0000
  C   C55       1.0  0.13180  0.04349  0.02643  1.0000
  H   H35       1.0  0.33335  0.43363  0.02371  1.0000
  C   C56       1.0  0.26248  0.34510  0.27818  1.0000
  C   C57       1.0  0.42391  0.15556  0.17992  1.0000
  H   H36       1.0  0.03207  0.47699  0.29084  1.0000
  C   C58       1.0  0.42166  0.03752  0.98760  1.0000
  H   H37       1.0  0.48148  0.33127  0.17457  1.0000
  H   H38       1.0  0.98920  0.14677  0.19135  1.0000
  C   C59       1.0  0.40632  0.42542  0.01550  1.0000
  H   H39       1.0  0.99578  0.21498  0.13938  1.0000
  H   H40       1.0  0.45121  0.32214  0.02224  1.0000
  H   H41       1.0  0.23942  0.21737  0.16310  1.0000
  H   H42       1.0  0.47271  0.01445  0.99397  1.0000
  C   C60       1.0  0.43147  0.42483  0.05589  1.0000
  H   H43       1.0  0.01344  0.13549  0.02988  1.0000
  C   C61       1.0  0.24603  0.31124  0.24775  1.0000
  H   H44       1.0  0.04170  0.02206  0.03680  1.0000
  H   H45       1.0  0.00005  0.46284  0.18603  1.0000
  C   C62       1.0  0.44728  0.44684  0.04724  1.0000
  H   H46       1.0  0.36199  0.02471  0.02022  1.0000
  C   C63       1.0  0.36995  0.00556  0.02767  1.0000
  S   S15       1.0  0.46840  0.11226  0.13346  1.0000
  P   P1        1.0  0.43525  0.25679  0.22222  1.0000
  C   C64       1.0  0.44407  0.29218  0.21641  1.0000
  C   C65       1.0  0.40609  0.24719  0.20287  1.0000
  C   C66       1.0  0.39370  0.26582  0.18580  1.0000
  C   C67       1.0  0.37106  0.25787  0.17115  1.0000
  C   C68       1.0  0.36071  0.23134  0.17331  1.0000
  C   C69       1.0  0.37291  0.21268  0.19031  1.0000
  C   C70       1.0  0.39542  0.22062  0.20519  1.0000
  C   C71       1.0  0.44052  0.34050  0.22721  1.0000
  H   H47       1.0  0.45636  0.06490  0.99049  1.0000
  H   H48       1.0  0.28497  0.29137  0.21249  1.0000
  H   H49       1.0  0.23472  0.30650  0.23029  1.0000
  H   H50       1.0  0.41806  0.08906  0.01088  1.0000
  C   C72       1.0  0.42447  0.25167  0.25555  1.0000
  C   C73       1.0  0.44136  0.23899  0.27405  1.0000
  H   H51       1.0  0.44578  0.22656  0.31407  1.0000
  C   C74       1.0  0.01725  0.20418  0.04061  1.0000
  C   C75       1.0  0.38958  0.25752  0.28882  1.0000
  C   C76       1.0  0.39837  0.26063  0.26317  1.0000
  H   H52       1.0  0.23828  0.35454  0.24450  1.0000
  H   H53       1.0  0.46886  0.28328  0.18251  1.0000
  H   H54       1.0  0.40125  0.28653  0.18374  1.0000
  H   H55       1.0  0.36151  0.27246  0.15814  1.0000
  H   H56       1.0  0.34329  0.22532  0.16173  1.0000
  H   H57       1.0  0.36504  0.19204  0.19179  1.0000
  H   H58       1.0  0.40476  0.20602  0.21830  1.0000
  H   H59       1.0  0.39565  0.99848  0.12120  1.0000
  C   C77       1.0  0.05198  0.17976  0.06477  1.0000
  C   C78       1.0  0.27487  0.27504  0.20207  1.0000
  H   H60       1.0  0.26446  0.36624  0.28418  1.0000
  P   P2        1.0  0.42146  0.02908  0.02190  1.0000
  P   P3        1.0  0.25803  0.25545  0.25043  1.0000
  H   H61       1.0  0.38856  0.12086  0.08279  1.0000
  C   C79       1.0  0.31086  0.23328  0.24804  1.0000
  H   H62       1.0  0.46072  0.08774  0.25501  1.0000
  H   H63       1.0  0.38499  0.27060  0.24936  1.0000
  H   H64       1.0  0.37892  0.45804  0.09017  1.0000
  H   H65       1.0  0.35101  0.42384  0.06728  1.0000
  C   C80       1.0  0.46736  0.05014  0.18913  1.0000
  H   H66       1.0  0.46315  0.36814  0.20256  1.0000
  H   H67       1.0  0.20180  0.17608  0.27697  1.0000
  C   C81       1.0  0.46346  0.99324  0.13427  1.0000
  C   C82       1.0  0.00613  0.21288  0.20484  1.0000
  C   C83       1.0  0.00506  0.22334  0.17941  1.0000
  P   P4        1.0  0.01661  0.23465  0.23132  1.0000
  C   C84       1.0  0.00834  0.26931  0.22165  1.0000
  C   C85       1.0  0.99906  0.22483  0.26087  1.0000
  H   H68       1.0  0.43473  0.41641  0.07515  1.0000
  C   C86       1.0  0.42187  0.44767  0.00694  1.0000
  C   C87       1.0  0.00842  0.20216  0.27514  1.0000
  C   C88       1.0  0.02888  0.28915  0.21898  1.0000
  C   C89       1.0  0.02263  0.31504  0.20890  1.0000
  H   H69       1.0  0.00772  0.22350  0.03579  1.0000
  C   C90       1.0  0.46224  0.07733  0.23651  1.0000
  C   C91       1.0  0.45954  0.45892  0.23190  1.0000
  C   C92       1.0  0.05278  0.23032  0.23689  1.0000
  C   C93       1.0  0.06959  0.21832  0.21795  1.0000
  C   C94       1.0  0.09726  0.21367  0.22309  1.0000
  Fe  Fe7       1.0  0.46941  0.07105  0.11398  1.0000
  C   C95       1.0  0.99049  0.17930  0.16329  1.0000
  C   C96       1.0  0.34566  0.11484  0.24608  1.0000
  S   S16       1.0  0.46693  0.08834  0.07368  1.0000
  H   H70       1.0  0.01049  0.24435  0.17524  1.0000
  C   C97       1.0  0.44319  0.45785  0.02230  1.0000
  H   H71       1.0  0.44600  0.02279  0.07336  1.0000
  H   H72       1.0  0.02588  0.19038  0.26864  1.0000
  H   H73       1.0  0.04982  0.28454  0.22415  1.0000
  H   H74       1.0  0.03861  0.33018  0.20655  1.0000
  H   H75       1.0  0.10023  0.23809  0.28486  1.0000
  C   C98       1.0  0.34899  0.47509  0.02234  1.0000
  C   C99       1.0  0.99557  0.19463  0.29828  1.0000
  H   H76       1.0  0.06136  0.21190  0.19945  1.0000
  H   H77       1.0  0.11000  0.20385  0.20861  1.0000
  C   C100      1.0  0.99595  0.32119  0.20115  1.0000
  H   H78       1.0  0.41733  0.45680  0.98831  1.0000
  C   C101      1.0  0.25956  0.25511  0.21534  1.0000
  C   C102      1.0  0.36543  0.07092  0.25712  1.0000
  H   H79       1.0  0.38570  0.07372  0.10086  1.0000
  C   C103      1.0  0.22565  0.21060  0.26401  1.0000
  H   H80       1.0  0.32844  0.12879  0.24630  1.0000
  H   H81       1.0  0.47770  0.14058  0.21454  1.0000
  C   C104      1.0  0.09917  0.00927  0.04100  1.0000
  C   C105      1.0  0.28693  0.23643  0.26285  1.0000
  C   C106      1.0  0.05954  0.98541  0.98623  1.0000
  C   C107      1.0  0.01827  0.30118  0.28525  1.0000
  C   C108      1.0  0.34327  0.08898  0.25748  1.0000
  C   C109      1.0  0.39004  0.07867  0.24543  1.0000
  H   H82       1.0  0.20488  0.27713  0.26833  1.0000
  C   C110      1.0  0.46749  0.17528  0.02627  1.0000
  H   H83       1.0  0.99754  0.02816  0.05814  1.0000
  C   C111      1.0  0.12566  0.05965  0.04802  1.0000
  C   C112      1.0  0.10665  0.05053  0.06632  1.0000
  C   C113      1.0  0.09364  0.02534  0.06299  1.0000
  H   H84       1.0  0.41966  0.30889  0.24791  1.0000
  C   C114      1.0  0.30437  0.46324  0.98437  1.0000
  H   H85       1.0  0.42139  0.40619  0.20841  1.0000
  H   H86       1.0  0.44425  0.29527  0.06265  1.0000
  C   C115      1.0  0.46497  0.30545  0.02692  1.0000
  H   H87       1.0  0.40401  0.44335  0.18041  1.0000
  H   H88       1.0  0.28308  0.28161  0.29634  1.0000
  C   C116      1.0  0.41128  0.41385  0.03987  1.0000
  C   C117      1.0  0.44513  0.16584  0.27888  1.0000
  C   C118      1.0  0.39261  0.10465  0.23400  1.0000
  H   H89       1.0  0.16262  0.20442  0.29145  1.0000
  C   C119      1.0  0.37021  0.12264  0.23431  1.0000
  C   C120      1.0  0.46140  0.29894  0.19562  1.0000
  H   H90       1.0  0.00307  0.17731  0.30934  1.0000
  C   C121      1.0  0.40287  0.10743  0.04545  1.0000
  H   H91       1.0  0.28971  0.28945  0.16518  1.0000
  H   H92       1.0  0.13540  0.07937  0.05045  1.0000
  C   C122      1.0  0.00071  0.18504  0.20897  1.0000
  H   H93       1.0  0.10150  0.06327  0.08283  1.0000
  H   H94       1.0  0.43834  0.07871  0.17433  1.0000
  C   C123      1.0  0.45569  0.02029  0.03248  1.0000
  C   C124      1.0  0.33354  0.21974  0.25845  1.0000
  C   C125      1.0  0.35489  0.44358  0.05838  1.0000
  C   C126      1.0  0.18027  0.21400  0.28251  1.0000
  H   H95       1.0  0.98292  0.19380  0.09128  1.0000
  C   C127      1.0  0.38931  0.12598  0.14721  1.0000
  C   C128      1.0  0.39867  0.15178  0.13968  1.0000
  C   C129      1.0  0.00752  0.00841  0.05910  1.0000
  P   P5        1.0  0.33491  0.48283  0.99083  1.0000
  C   C130      1.0  0.41466  0.12961  0.18762  1.0000
  C   C131      1.0  0.39710  0.11500  0.17115  1.0000
  P   P6        1.0  0.42406  0.11515  0.21865  1.0000
  C   C132      1.0  0.45819  0.34698  0.20678  1.0000
  C   C133      1.0  0.44967  0.07250  0.19131  1.0000
  C   C134      1.0  0.30850  0.21154  0.29818  1.0000
  H   H96       1.0  0.16412  0.25468  0.28655  1.0000
  H   H97       1.0  0.24282  0.19796  0.25831  1.0000
  C   C135      1.0  0.48237  0.04126  0.21056  1.0000
  C   C136      1.0  0.43003  0.14908  0.26223  1.0000
  H   H98       1.0  0.23506  0.21854  0.21076  1.0000
  C   C137      1.0  0.39210  0.07694  0.08096  1.0000
  C   C138      1.0  0.46866  0.32618  0.19105  1.0000
  H   H99       1.0  0.46585  0.21738  0.03723  1.0000
  S   S17       1.0  0.43530  0.04139  0.12443  1.0000
  H   H100      1.0  0.44551  0.17369  0.02434  1.0000
  C   C139      1.0  0.18116  0.24242  0.27975  1.0000
  C   C140      1.0  0.24682  0.23426  0.20110  1.0000
  H   H101      1.0  0.37630  0.11433  0.13435  1.0000
  H   H102      1.0  0.39299  0.16019  0.12097  1.0000
  C   C141      1.0  0.99315  0.31218  0.27746  1.0000
  C   C142      1.0  0.41585  0.16658  0.15606  1.0000
  H   H103      1.0  0.38975  0.09489  0.17664  1.0000
  H   H104      1.0  0.46940  0.03967  0.17073  1.0000
  H   H105      1.0  0.31224  0.24144  0.22859  1.0000
  H   H106      1.0  0.00307  0.17596  0.22797  1.0000
  H   H107      1.0  0.44490  0.21843  0.17891  1.0000
  H   H108      1.0  0.40981  0.14285  0.26819  1.0000
  H   H109      1.0  0.40239  0.20744  0.07539  1.0000
  C   C143      1.0  0.03286  0.00499  0.04716  1.0000
  C   C144      1.0  0.42904  0.42684  0.21089  1.0000
  S   S18       1.0  0.43745  0.16081  0.08148  1.0000
  C   C145      1.0  0.46441  0.23620  0.21270  1.0000
  C   C146      1.0  0.34461  0.44937  0.03374  1.0000
  C   C147      1.0  0.27306  0.29714  0.28479  1.0000
  C   C148      1.0  0.20243  0.19808  0.27448  1.0000
  H   H110      1.0  0.14642  0.05065  0.01215  1.0000
  H   H111      1.0  0.26801  0.22819  0.30003  1.0000
  C   C149      1.0  0.39993  0.05454  0.06583  1.0000
  C   C150      1.0  0.39372  0.10339  0.07083  1.0000
  C   C151      1.0  0.22698  0.23924  0.26171  1.0000
  H   H112      1.0  0.40683  0.06425  0.24523  1.0000
  H   H113      1.0  0.99151  0.32106  0.25835  1.0000
  H   H114      1.0  0.36352  0.05079  0.26580  1.0000
  C   C152      1.0  0.02059  0.15488  0.03728  1.0000
  C   C153      1.0  0.26475  0.25331  0.16106  1.0000
  H   H115      1.0  0.00987  0.10309  0.26585  1.0000
  C   C154      1.0  0.24786  0.33849  0.25581  1.0000
  H   H116      1.0  0.04582  0.22336  0.06659  1.0000
  C   C155      1.0  0.25914  0.29040  0.26188  1.0000
  H   H117      1.0  0.39897  0.39685  0.04665  1.0000
  H   H118      1.0  0.03584  0.30231  0.27254  1.0000
  C   C156      1.0  0.47859  0.26874  0.05566  1.0000
  H   H119      1.0  0.43185  0.35661  0.23909  1.0000
  H   H120      1.0  0.35008  0.19877  0.29177  1.0000
  H   H121      1.0  0.07884  0.01881  0.07736  1.0000
  H   H122      1.0  0.29069  0.46140  0.02439  1.0000
  H   H123      1.0  0.24999  0.43355  0.01485  1.0000
  H   H124      1.0  0.42312  0.18649  0.14996  1.0000
  H   H125      1.0  0.03390  0.45777  0.15096  1.0000
  C   C157      1.0  0.39826  0.00139  0.02965  1.0000
  H   H126      1.0  0.98678  0.24394  0.08325  1.0000
  C   C158      1.0  0.26326  0.44005  0.99917  1.0000
  C   C159      1.0  0.02073  0.28843  0.30941  1.0000
  C   C160      1.0  0.43245  0.23582  0.29971  1.0000
  C   C161      1.0  0.46820  0.14784  0.23227  1.0000
  C   C162      1.0  0.46099  0.29034  0.04962  1.0000
  H   H127      1.0  0.46247  0.45526  0.06023  1.0000
  C   C163      1.0  0.99281  0.16839  0.18824  1.0000
  C   C164      1.0  0.46157  0.01864  0.05907  1.0000
  C   C165      1.0  0.47638  0.01380  0.01454  1.0000
  Fe  Fe8       1.0  0.46916  0.12930  0.09320  1.0000
  C   C166      1.0  0.47180  0.17334  0.27237  1.0000
  H   H128      1.0  0.08700  0.47464  0.99082  1.0000
  C   C167      1.0  0.01025  0.48087  0.17866  1.0000
  C   C168      1.0  0.40657  0.24507  0.30708  1.0000
  C   C169      1.0  0.27487  0.32443  0.29273  1.0000
  H   H129      1.0  0.99122  0.34103  0.19279  1.0000
  C   C170      1.0  0.44923  0.48031  0.21648  1.0000
  H   H130      1.0  0.47662  0.18723  0.11535  1.0000
  H   H131      1.0  0.04464  0.99876  0.99516  1.0000
  C   C171      1.0  0.02972  0.47784  0.15896  1.0000
  H   H132      1.0  0.43645  0.17249  0.29718  1.0000
  H   H133      1.0  0.47915  0.23487  0.13199  1.0000
  H   H134      1.0  0.98525  0.45065  0.12880  1.0000
  C   C172      1.0  0.47976  0.05482  0.23427  1.0000
  H   H135      1.0  0.28650  0.32967  0.30989  1.0000
  H   H136      1.0  0.48164  0.00563  0.13606  1.0000
  C   C173      1.0  0.99576  0.98687  0.07295  1.0000
  H   H137      1.0  0.47441  0.13266  0.01843  1.0000
  H   H138      1.0  0.47588  0.46263  0.24557  1.0000
  H   H139      1.0  0.02702  0.14640  0.98648  1.0000
  C   C174      1.0  0.47918  0.20013  0.03370  1.0000
  Fe  Fe9       1.0  0.21487  0.37396  0.61422  1.0000
  S   S19       1.0  0.26061  0.37830  0.61389  1.0000
  S   S20       1.0  0.17976  0.40426  0.61219  1.0000
  Fe  Fe10      1.0  0.21741  0.31319  0.62729  1.0000
  S   S21       1.0  0.26345  0.31301  0.62902  1.0000
  C   C175      1.0  0.19067  0.45022  0.52029  1.0000
  C   C176      1.0  0.08969  0.38061  0.49733  1.0000
  Fe  Fe11      1.0  0.26122  0.33810  0.59194  1.0000
  S   S22       1.0  0.29003  0.32422  0.55883  1.0000
  C   C177      1.0  0.26420  0.40658  0.42852  1.0000
  S   S23       1.0  0.21544  0.33604  0.58949  1.0000
  Fe  Fe12      1.0  0.15926  0.06169  0.60072  1.0000
  S   S24       1.0  0.11328  0.06334  0.60183  1.0000
  S   S25       1.0  0.18963  0.02810  0.59031  1.0000
  Fe  Fe13      1.0  0.16453  0.12209  0.61491  1.0000
  S   S26       1.0  0.11913  0.12798  0.61785  1.0000
  C   C178      1.0  0.06396  0.29956  0.46367  1.0000
  C   C179      1.0  0.45941  0.19856  0.46225  1.0000
  Fe  Fe14      1.0  0.11727  0.10372  0.58041  1.0000
  S   S27       1.0  0.08953  0.11959  0.54742  1.0000
  H   H140      1.0  0.14311  0.99469  0.60579  1.0000
  S   S28       1.0  0.16265  0.10008  0.57682  1.0000
  Fe  Fe15      1.0  0.31122  0.30151  0.40118  1.0000
  S   S29       1.0  0.31263  0.25566  0.40279  1.0000
  S   S30       1.0  0.29108  0.32705  0.43385  1.0000
  Fe  Fe16      1.0  0.33171  0.30176  0.34347  1.0000
  C   C180      1.0  0.08432  0.31790  0.47138  1.0000
  Fe  Fe17      1.0  0.29331  0.25673  0.36332  1.0000
  S   S31       1.0  0.26157  0.22397  0.35511  1.0000
  Fe  Fe18      1.0  0.35282  0.25865  0.38153  1.0000
  S   S32       1.0  0.38596  0.22770  0.39195  1.0000
  S   S33       1.0  0.28973  0.30250  0.36216  1.0000
  S   S34       1.0  0.35310  0.30476  0.38247  1.0000
  Fe  Fe19      1.0  0.06134  0.16130  0.33386  1.0000
  S   S35       1.0  0.06068  0.20726  0.33152  1.0000
  Fe  Fe20      1.0  0.08473  0.16229  0.39059  1.0000
  S   S36       1.0  0.08502  0.20825  0.39077  1.0000
  S   S37       1.0  0.10636  0.13997  0.42469  1.0000
  Fe  Fe21      1.0  0.04363  0.20612  0.37199  1.0000
  S   S38       1.0  0.01297  0.23882  0.38431  1.0000
  Fe  Fe22      1.0  0.10207  0.20575  0.35054  1.0000
  S   S39       1.0  0.13365  0.23748  0.33824  1.0000
  S   S40       1.0  0.04185  0.16010  0.37406  1.0000
  S   S41       1.0  0.10420  0.15973  0.35048  1.0000
  C   C181      1.0  0.22587  0.22882  0.35245  1.0000
  C   C182      1.0  0.21448  0.25433  0.34656  1.0000
  C   C183      1.0  0.18606  0.25685  0.34300  1.0000
  C   C184      1.0  0.16881  0.23400  0.34554  1.0000
  C   C185      1.0  0.18015  0.20868  0.35218  1.0000
  C   C186      1.0  0.20859  0.20608  0.35536  1.0000
  H   H141      1.0  0.22762  0.27192  0.34407  1.0000
  H   H142      1.0  0.22977  0.47024  0.45458  1.0000
  C   C187      1.0  0.16558  0.22850  0.62843  1.0000
  C   C188      1.0  0.24825  0.10611  0.47637  1.0000
  C   C189      1.0  0.42033  0.23004  0.38137  1.0000
  C   C190      1.0  0.43123  0.25465  0.37223  1.0000
  C   C191      1.0  0.45894  0.25612  0.36506  1.0000
  C   C192      1.0  0.06230  0.15535  0.64652  1.0000
  C   C193      1.0  0.46502  0.20825  0.37550  1.0000
  C   C194      1.0  0.43735  0.20688  0.38303  1.0000
  H   H143      1.0  0.41842  0.27266  0.37101  1.0000
  C   C195      1.0  0.23003  0.09554  0.45811  1.0000
  H   H144      1.0  0.24580  0.19511  0.55001  1.0000
  C   C196      1.0  0.18129  0.01883  0.51657  1.0000
  C   C197      1.0  0.09468  0.12491  0.51329  1.0000
  C   C198      1.0  0.11902  0.11788  0.50063  1.0000
  C   C199      1.0  0.12202  0.12247  0.47362  1.0000
  C   C200      1.0  0.10090  0.13430  0.45876  1.0000
  C   C201      1.0  0.07649  0.14117  0.47142  1.0000
  C   C202      1.0  0.07350  0.13659  0.49842  1.0000
  H   H145      1.0  0.13542  0.10865  0.51163  1.0000
  H   H146      1.0  0.14082  0.11668  0.46407  1.0000
  H   H147      1.0  0.05983  0.14990  0.46038  1.0000
  H   H148      1.0  0.05447  0.14197  0.50783  1.0000
  C   C203      1.0  0.28981  0.32505  0.52408  1.0000
  C   C204      1.0  0.27211  0.34190  0.51001  1.0000
  C   C205      1.0  0.27323  0.34243  0.48258  1.0000
  C   C206      1.0  0.29131  0.32550  0.46862  1.0000
  C   C207      1.0  0.30892  0.30845  0.48269  1.0000
  C   C208      1.0  0.30845  0.30862  0.51018  1.0000
  H   H149      1.0  0.25796  0.35495  0.52030  1.0000
  H   H150      1.0  0.25980  0.35593  0.47205  1.0000
  H   H151      1.0  0.32329  0.29556  0.47241  1.0000
  H   H152      1.0  0.32272  0.29595  0.52080  1.0000
  H   H153      1.0  0.12652  0.37201  0.59404  1.0000
  H   H154      1.0  0.28856  0.42299  0.58399  1.0000
  C   C209      1.0  0.16835  0.20003  0.62512  1.0000
  C   C210      1.0  0.19432  0.18844  0.62233  1.0000
  C   C211      1.0  0.21735  0.20557  0.62236  1.0000
  C   C212      1.0  0.21457  0.23404  0.62551  1.0000
  C   C213      1.0  0.08300  0.40788  0.49199  1.0000
  C   C214      1.0  0.45508  0.22284  0.44820  1.0000
  H   H155      1.0  0.32478  0.39283  0.56621  1.0000
  H   H156      1.0  0.23444  0.17552  0.50723  1.0000
  C   C215      1.0  0.18388  0.43921  0.60454  1.0000
  C   C216      1.0  0.20850  0.44922  0.59471  1.0000
  H   H157      1.0  0.22166  0.38824  0.52853  1.0000
  C   C217      1.0  0.18664  0.99372  0.60059  1.0000
  H   H158      1.0  0.05313  0.30267  0.44555  1.0000
  H   H159      1.0  0.30124  0.25128  0.51357  1.0000
  H   H160      1.0  0.22585  0.43565  0.59305  1.0000
  H   H161      1.0  0.25687  0.09282  0.49110  1.0000
  H   H162      1.0  0.14651  0.43235  0.47866  1.0000
  H   H163      1.0  0.28986  0.23225  0.47061  1.0000
  C   C218      1.0  0.22208  0.38384  0.44019  1.0000
  H   H164      1.0  0.34892  0.18117  0.38962  1.0000
  C   C219      1.0  0.23637  0.23177  0.42656  1.0000
  C   C220      1.0  0.13737  0.39058  0.48899  1.0000
  C   C221      1.0  0.40738  0.22285  0.46075  1.0000
  C   C222      1.0  0.21939  0.11254  0.43877  1.0000
  C   C223      1.0  0.18868  0.24558  0.62879  1.0000
  H   H165      1.0  0.42578  0.25319  0.43603  1.0000
  H   H166      1.0  0.14545  0.23729  0.63068  1.0000
  P   P7        1.0  0.25492  0.18653  0.45461  1.0000
  H   H167      1.0  0.30255  0.18213  0.37034  1.0000
  H   H168      1.0  0.35455  0.18227  0.43726  1.0000
  P   P8        1.0  0.12588  0.33693  0.50378  1.0000
  C   C224      1.0  0.43735  0.18656  0.47552  1.0000
  H   H169      1.0  0.44608  0.12067  0.39754  1.0000
  H   H170      1.0  0.47684  0.19454  0.51470  1.0000
  H   H171      1.0  0.38722  0.23197  0.45950  1.0000
  C   C225      1.0  0.41148  0.19875  0.47485  1.0000
  H   H172      1.0  0.17706  0.30810  0.42532  1.0000
  C   C226      1.0  0.18677  0.02699  0.49110  1.0000
  H   H173      1.0  0.16239  0.29283  0.58301  1.0000
  H   H174      1.0  0.26190  0.18475  0.39842  1.0000
  C   C227      1.0  0.42919  0.23491  0.44756  1.0000
  C   C228      1.0  0.26943  0.42347  0.52031  1.0000
  C   C229      1.0  0.21635  0.24798  0.41477  1.0000
  H   H175      1.0  0.15238  0.29524  0.53609  1.0000
  C   C230      1.0  0.33109  0.18190  0.40209  1.0000
  H   H176      1.0  0.15004  0.33113  0.61186  1.0000
  C   C231      1.0  0.30499  0.18249  0.39123  1.0000
  S   S42       1.0  0.18422  0.28117  0.63335  1.0000
  C   C232      1.0  0.10345  0.42648  0.48512  1.0000
  C   C233      1.0  0.07153  0.27281  0.50252  1.0000
  H   H177      1.0  0.00004  0.27659  0.34439  1.0000
  H   H178      1.0  0.27021  0.14146  0.48945  1.0000
  P   P9        1.0  0.24179  0.43569  0.49997  1.0000
  C   C234      1.0  0.18880  0.24076  0.41672  1.0000
  C   C235      1.0  0.46598  0.14708  0.42511  1.0000
  H   H179      1.0  0.08891  0.33523  0.45901  1.0000
  C   C236      1.0  0.13062  0.41783  0.48364  1.0000
  H   H180      1.0  0.17917  0.98534  0.54342  1.0000
  C   C237      1.0  0.26304  0.42178  0.45147  1.0000
  C   C238      1.0  0.21046  0.42956  0.51757  1.0000
  C   C239      1.0  0.20633  0.40418  0.52977  1.0000
  C   C240      1.0  0.18277  0.39953  0.54443  1.0000
  C   C241      1.0  0.16321  0.42019  0.54710  1.0000
  C   C242      1.0  0.47598  0.23301  0.36666  1.0000
  H   H181      1.0  0.15047  0.18705  0.62497  1.0000
  C   C243      1.0  0.31042  0.39608  0.52686  1.0000
  C   C244      1.0  0.22112  0.39864  0.46340  1.0000
  H   H182      1.0  0.18027  0.38039  0.55481  1.0000
  H   H183      1.0  0.14563  0.41703  0.55953  1.0000
  H   H184      1.0  0.19912  0.01394  0.45291  1.0000
  H   H185      1.0  0.15857  0.38441  0.48834  1.0000
  H   H186      1.0  0.20639  0.36896  0.43584  1.0000
  H   H187      1.0  0.20452  0.39489  0.47670  1.0000
  C   C245      1.0  0.24384  0.38749  0.42296  1.0000
  C   C246      1.0  0.20219  0.14608  0.54671  1.0000
  C   C247      1.0  0.20102  0.12975  0.52452  1.0000
  C   C248      1.0  0.18684  0.13892  0.50267  1.0000
  C   C249      1.0  0.17358  0.16429  0.50303  1.0000
  C   C250      1.0  0.17432  0.18059  0.52541  1.0000
  C   C251      1.0  0.18873  0.17129  0.54724  1.0000
  P   P10       1.0  0.15778  0.21354  0.52682  1.0000
  C   C252      1.0  0.18520  0.23762  0.53214  1.0000
  C   C253      1.0  0.13824  0.22146  0.49798  1.0000
  C   C254      1.0  0.14121  0.24670  0.48512  1.0000
  C   C255      1.0  0.12557  0.25259  0.46313  1.0000
  C   C256      1.0  0.10627  0.23387  0.45429  1.0000
  C   C257      1.0  0.10263  0.20913  0.46732  1.0000
  C   C258      1.0  0.11833  0.20299  0.48922  1.0000
  C   C259      1.0  0.19123  0.24700  0.55722  1.0000
  C   C260      1.0  0.21264  0.26542  0.56118  1.0000
  C   C261      1.0  0.22859  0.27411  0.54027  1.0000
  C   C262      1.0  0.22361  0.26381  0.51546  1.0000
  C   C263      1.0  0.20222  0.24537  0.51143  1.0000
  C   C264      1.0  0.13300  0.21268  0.55278  1.0000
  C   C265      1.0  0.12047  0.18792  0.55977  1.0000
  C   C266      1.0  0.10030  0.18744  0.57899  1.0000
  C   C267      1.0  0.09270  0.21156  0.59161  1.0000
  C   C268      1.0  0.10486  0.23634  0.58457  1.0000
  C   C269      1.0  0.12461  0.23695  0.56495  1.0000
  H   H188      1.0  0.21284  0.13888  0.56387  1.0000
  H   H189      1.0  0.21071  0.10981  0.52450  1.0000
  H   H190      1.0  0.18559  0.12613  0.48559  1.0000
  H   H191      1.0  0.16246  0.17068  0.48598  1.0000
  H   H192      1.0  0.18935  0.18338  0.56487  1.0000
  H   H193      1.0  0.15516  0.26213  0.49206  1.0000
  H   H194      1.0  0.12803  0.27176  0.45298  1.0000
  H   H195      1.0  0.09385  0.23869  0.43753  1.0000
  H   H196      1.0  0.08759  0.19469  0.46031  1.0000
  H   H197      1.0  0.11492  0.18376  0.49924  1.0000
  H   H198      1.0  0.17979  0.23981  0.57385  1.0000
  H   H199      1.0  0.21713  0.27266  0.58060  1.0000
  H   H200      1.0  0.24538  0.28815  0.54348  1.0000
  H   H201      1.0  0.23679  0.26962  0.49946  1.0000
  H   H202      1.0  0.19916  0.23699  0.49220  1.0000
  H   H203      1.0  0.12584  0.16893  0.55016  1.0000
  H   H204      1.0  0.09043  0.16825  0.58381  1.0000
  H   H205      1.0  0.07720  0.21105  0.60662  1.0000
  H   H206      1.0  0.09893  0.25509  0.59428  1.0000
  H   H207      1.0  0.13339  0.25627  0.55935  1.0000
  C   C270      1.0  0.24434  0.15118  0.45662  1.0000
  C   C271      1.0  0.25557  0.13378  0.47552  1.0000
  H   H208      1.0  0.28124  0.40909  0.41527  1.0000
  C   C272      1.0  0.31120  0.18404  0.44511  1.0000
  C   C273      1.0  0.16719  0.44552  0.53511  1.0000
  C   C274      1.0  0.18120  0.21777  0.43116  1.0000
  C   C275      1.0  0.26239  0.20137  0.48589  1.0000
  C   C276      1.0  0.28198  0.18427  0.40723  1.0000
  H   H209      1.0  0.27953  0.23276  0.55332  1.0000
  H   H210      1.0  0.32594  0.38243  0.51921  1.0000
  H   H211      1.0  0.29127  0.40121  0.49014  1.0000
  C   C277      1.0  0.09190  0.29109  0.51029  1.0000
  C   C278      1.0  0.25580  0.20273  0.53266  1.0000
  H   H212      1.0  0.31403  0.18387  0.46592  1.0000
  C   C279      1.0  0.13232  0.33470  0.53831  1.0000
  H   H213      1.0  0.23249  0.24697  0.62577  1.0000
  H   H214      1.0  0.21725  0.18628  0.35989  1.0000
  C   C280      1.0  0.24183  0.41747  0.46940  1.0000
  H   H215      1.0  0.22441  0.07411  0.45873  1.0000
  C   C281      1.0  0.09864  0.31376  0.49469  1.0000
  C   C282      1.0  0.12479  0.35617  0.55501  1.0000
  H   H216      1.0  0.09826  0.44767  0.48116  1.0000
  H   H217      1.0  0.04199  0.26266  0.47307  1.0000
  S   S43       1.0  0.19914  0.15278  0.61887  1.0000
  H   H218      1.0  0.18442  0.33451  0.51797  1.0000
  S   S44       1.0  0.33359  0.25591  0.34215  1.0000
  H   H219      1.0  0.42911  0.18782  0.39026  1.0000
  C   C283      1.0  0.22681  0.14015  0.43777  1.0000
  H   H220      1.0  0.19490  0.18399  0.45421  1.0000
  H   H221      1.0  0.15987  0.21189  0.43235  1.0000
  C   C284      1.0  0.27478  0.22396  0.53455  1.0000
  C   C285      1.0  0.21030  0.47656  0.58625  1.0000
  H   H222      1.0  0.22490  0.31986  0.49400  1.0000
  H   H223      1.0  0.10901  0.01339  0.63639  1.0000
  H   H224      1.0  0.27918  0.43627  0.45565  1.0000
  C   C286      1.0  0.22895  0.20817  0.44042  1.0000
  C   C287      1.0  0.14456  0.33196  0.59149  1.0000
  H   H225      1.0  0.06672  0.25513  0.51441  1.0000
  C   C288      1.0  0.30972  0.40184  0.55337  1.0000
  C   C289      1.0  0.28698  0.23445  0.51212  1.0000
  H   H226      1.0  0.25764  0.23731  0.42422  1.0000
  H   H227      1.0  0.44000  0.16741  0.48583  1.0000
  H   H228      1.0  0.14231  0.44931  0.61458  1.0000
  C   C290      1.0  0.24946  0.19162  0.50839  1.0000
  C   C291      1.0  0.33421  0.18260  0.42902  1.0000
  C   C292      1.0  0.29047  0.40689  0.51035  1.0000
  C   C293      1.0  0.20116  0.20177  0.44329  1.0000
  H   H229      1.0  0.20551  0.10432  0.42436  1.0000
  H   H230      1.0  0.39448  0.18926  0.48485  1.0000
  C   C294      1.0  0.28055  0.22350  0.48783  1.0000
  C   C295      1.0  0.15168  0.31037  0.57512  1.0000
  C   C296      1.0  0.17840  0.31351  0.44568  1.0000
  C   C297      1.0  0.20367  0.31288  0.45819  1.0000
  C   C298      1.0  0.20543  0.32037  0.48425  1.0000
  C   C299      1.0  0.18211  0.32819  0.49797  1.0000
  C   C300      1.0  0.15640  0.32767  0.48592  1.0000
  C   C301      1.0  0.15489  0.32115  0.45940  1.0000
  C   C302      1.0  0.16140  0.45694  0.60690  1.0000
  H   H231      1.0  0.22200  0.30698  0.44766  1.0000
  C   C303      1.0  0.05760  0.27701  0.47921  1.0000
  H   H232      1.0  0.10229  0.28717  0.52836  1.0000
  C   C304      1.0  0.11693  0.37173  0.49563  1.0000
  H   H233      1.0  0.22236  0.26552  0.40322  1.0000
  H   H234      1.0  0.16710  0.19094  0.35410  1.0000
  H   H235      1.0  0.06196  0.41469  0.49335  1.0000
  H   H236      1.0  0.17342  0.25254  0.40650  1.0000
  H   H237      1.0  0.13563  0.32183  0.44921  1.0000
  C   C305      1.0  0.19507  0.00763  0.47271  1.0000
  H   H238      1.0  0.23749  0.19673  0.62018  1.0000
  H   H239      1.0  0.07365  0.36659  0.50310  1.0000
  H   H240      1.0  0.24524  0.37517  0.40551  1.0000
  C   C306      1.0  0.28493  0.18580  0.43426  1.0000
  H   H241      1.0  0.21905  0.15273  0.42209  1.0000
  C   C307      1.0  0.26896  0.42909  0.54702  1.0000
  H   H242      1.0  0.11454  0.37423  0.54775  1.0000
  H   H243      1.0  0.47126  0.23222  0.43705  1.0000
  C   C308      1.0  0.13122  0.35490  0.58142  1.0000
  H   H244      1.0  0.22974  0.98590  0.59650  1.0000
  C   C309      1.0  0.14588  0.31181  0.54861  1.0000
  C   C310      1.0  0.28917  0.41862  0.56339  1.0000
  H   H245      1.0  0.10625  0.38671  0.63739  1.0000
  Fe  Fe23      1.0  0.11873  0.08738  0.63922  1.0000
  H   H246      1.0  0.46725  0.27535  0.35826  1.0000
  H   H247      1.0  0.17490  0.03373  0.53098  1.0000
  H   H248      1.0  0.06073  0.15911  0.62586  1.0000
  C   C311      1.0  0.18378  0.99132  0.52359  1.0000
  H   H249      1.0  0.47790  0.19029  0.37683  1.0000
  S   S45       1.0  0.16440  0.08340  0.63872  1.0000
  H   H250      1.0  0.17746  0.27647  0.33770  1.0000
  H   H251      1.0  0.18432  0.04827  0.48565  1.0000
  H   H252      1.0  0.39977  0.24292  0.32702  1.0000
  H   H253      1.0  0.44688  0.15606  0.43129  1.0000
  H   H254      1.0  0.25264  0.44117  0.55533  1.0000
  H   H255      1.0  0.15257  0.46191  0.53814  1.0000
  C   C312      1.0  0.46538  0.12690  0.40589  1.0000
  C   C313      1.0  0.99813  0.28679  0.32583  1.0000
  C   C314      1.0  0.24521  0.47205  0.49399  1.0000
  H   H256      1.0  0.23207  0.04286  0.63174  1.0000
  H   H257      1.0  0.19354  0.47025  0.51174  1.0000
  H   H258      1.0  0.03416  0.12148  0.64584  1.0000
  C   C315      1.0  0.23703  0.48325  0.47008  1.0000
  H   H259      1.0  0.25844  0.48208  0.53301  1.0000
  H   H260      1.0  0.21535  0.48365  0.64696  1.0000
  H   H261      1.0  0.30754  0.20345  0.31778  1.0000
  H   H262      1.0  0.04004  0.27958  0.31546  1.0000
  S   S46       1.0  0.28537  0.37134  0.68427  1.0000
  S   S47       1.0  0.09181  0.07574  0.67456  1.0000
  Fe  Fe24      1.0  0.30754  0.39562  0.84125  1.0000
  S   S48       1.0  0.30546  0.44119  0.83747  1.0000
  S   S49       1.0  0.29122  0.36744  0.80884  1.0000
  Fe  Fe25      1.0  0.33002  0.39897  0.89801  1.0000
  S   S50       1.0  0.32904  0.44487  0.89688  1.0000
  S   S51       1.0  0.35178  0.37609  0.93161  1.0000
  Fe  Fe26      1.0  0.28804  0.44096  0.87764  1.0000
  C   C316      1.0  0.17918  0.01128  0.73999  1.0000
  Fe  Fe27      1.0  0.34644  0.44189  0.85697  1.0000
  C   C317      1.0  0.10292  0.22075  0.69610  1.0000
  S   S52       1.0  0.28745  0.39493  0.88109  1.0000
  S   S53       1.0  0.35014  0.39612  0.85837  1.0000
  Fe  Fe28      1.0  0.07451  0.04660  0.83280  1.0000
  H   H263      1.0  0.03873  0.11167  0.69277  1.0000
  S   S54       1.0  0.09477  0.07234  0.79995  1.0000
  Fe  Fe29      1.0  0.05038  0.04538  0.88948  1.0000
  C   C318      1.0  0.42441  0.99223  0.86359  1.0000
  S   S55       1.0  0.02972  0.06831  0.92397  1.0000
  Fe  Fe30      1.0  0.09018  0.00036  0.87058  1.0000
  H   H264      1.0  0.07014  0.00489  0.66596  1.0000
  Fe  Fe31      1.0  0.03213  0.00317  0.84869  1.0000
  H   H265      1.0  0.44453  0.25679  0.82046  1.0000
  S   S56       1.0  0.09355  0.04631  0.87324  1.0000
  S   S57       1.0  0.03153  0.04927  0.84920  1.0000
  C   C319      1.0  0.03217  0.07017  0.95876  1.0000
  H   H266      1.0  0.18136  0.45325  0.66642  1.0000
  H   H267      1.0  0.17280  0.42360  0.86721  1.0000
  C   C320      1.0  0.18209  0.44349  0.86963  1.0000
  H   H268      1.0  0.07130  0.05050  0.96221  1.0000
  C   C321      1.0  0.34989  0.37410  0.96639  1.0000
  H   H269      1.0  0.11486  0.41748  0.77882  1.0000
  H   H270      1.0  0.15764  0.00768  0.86765  1.0000
  C   C322      1.0  0.45658  0.27781  0.78550  1.0000
  C   C323      1.0  0.99339  0.17233  0.97403  1.0000
  C   C324      1.0  0.11982  0.43662  0.76929  1.0000
  H   H271      1.0  0.17844  0.02366  0.81466  1.0000
  H   H272      1.0  0.14635  0.22687  0.68926  1.0000
  C   C325      1.0  0.47721  0.45967  0.93612  1.0000
  H   H273      1.0  0.38921  0.02289  0.93065  1.0000
  C   C326      1.0  0.20938  0.02656  0.66404  1.0000
  H   H274      1.0  0.07865  0.45180  0.94855  1.0000
  H   H275      1.0  0.10219  0.13620  0.79102  1.0000
  C   C327      1.0  0.12609  0.23567  0.68839  1.0000
  C   C328      1.0  0.05465  0.06011  0.97261  1.0000
  H   H276      1.0  0.30562  0.31895  0.86164  1.0000
  C   C329      1.0  0.09748  0.27414  0.67644  1.0000
  H   H277      1.0  0.47523  0.01619  0.94469  1.0000
  H   H278      1.0  0.21653  0.41014  0.74617  1.0000
  C   C330      1.0  0.07463  0.19930  0.78075  1.0000
  H   H279      1.0  0.24091  0.41818  0.66678  1.0000
  C   C331      1.0  0.12333  0.26230  0.67877  1.0000
  H   H280      1.0  0.06937  0.13892  0.71982  1.0000
  C   C332      1.0  0.04969  0.12873  0.68425  1.0000
  H   H281      1.0  0.07458  0.47025  0.71776  1.0000
  C   C333      1.0  0.09385  0.07427  0.70938  1.0000
  C   C334      1.0  0.11449  0.08726  0.72356  1.0000
  C   C335      1.0  0.11440  0.08630  0.75108  1.0000
  C   C336      1.0  0.09408  0.07197  0.76501  1.0000
  C   C337      1.0  0.07367  0.05870  0.75078  1.0000
  C   C338      1.0  0.07339  0.06019  0.72331  1.0000
  H   H282      1.0  0.13034  0.09831  0.71336  1.0000
  H   H283      1.0  0.13040  0.09661  0.76171  1.0000
  H   H284      1.0  0.05771  0.04776  0.76096  1.0000
  H   H285      1.0  0.05714  0.05025  0.71273  1.0000
  C   C339      1.0  0.28387  0.37176  0.71903  1.0000
  C   C340      1.0  0.29937  0.39136  0.73263  1.0000
  C   C341      1.0  0.30097  0.39107  0.76004  1.0000
  C   C342      1.0  0.28755  0.37076  0.77436  1.0000
  C   C343      1.0  0.27160  0.35151  0.76081  1.0000
  C   C344      1.0  0.26950  0.35215  0.73341  1.0000
  H   H286      1.0  0.31063  0.40661  0.72180  1.0000
  H   H287      1.0  0.31319  0.40612  0.77002  1.0000
  H   H288      1.0  0.26111  0.33567  0.77156  1.0000
  H   H289      1.0  0.25765  0.33679  0.72340  1.0000
  C   C345      1.0  0.22864  0.40069  0.82079  1.0000
  C   C346      1.0  0.20056  0.39678  0.82370  1.0000
  H   H290      1.0  0.23573  0.98714  0.70031  1.0000
  C   C347      1.0  0.23853  0.42095  0.80405  1.0000
  C   C348      1.0  0.16085  0.18462  0.72054  1.0000
  H   H291      1.0  0.24278  0.38799  0.83157  1.0000
  H   H292      1.0  0.19302  0.38125  0.83690  1.0000
  H   H293      1.0  0.46092  0.44211  0.97088  1.0000
  H   H294      1.0  0.26037  0.42325  0.80167  1.0000
  H   H295      1.0  0.09547  0.29476  0.66891  1.0000
  H   H296      1.0  0.14135  0.27362  0.67283  1.0000
  H   H297      1.0  0.28688  0.44843  0.74890  1.0000
  C   C349      1.0  0.33903  0.33202  0.73047  1.0000
  C   C350      1.0  0.32454  0.30749  0.73190  1.0000
  C   C351      1.0  0.32740  0.29055  0.75360  1.0000
  C   C352      1.0  0.34453  0.29831  0.77400  1.0000
  C   C353      1.0  0.35824  0.32353  0.77322  1.0000
  C   C354      1.0  0.35587  0.34003  0.75097  1.0000
  P   P11       1.0  0.38134  0.33273  0.79910  1.0000
  H   H298      1.0  0.42281  0.33168  0.75865  1.0000
  C   C355      1.0  0.38965  0.36867  0.79746  1.0000
  C   C356      1.0  0.41672  0.37784  0.79981  1.0000
  C   C357      1.0  0.42245  0.40589  0.79954  1.0000
  C   C358      1.0  0.40122  0.42490  0.79733  1.0000
  C   C359      1.0  0.37423  0.41592  0.79560  1.0000
  C   C360      1.0  0.36847  0.38792  0.79569  1.0000
  C   C361      1.0  0.08279  0.16547  0.68839  1.0000
  C   C362      1.0  0.98717  0.01032  0.95392  1.0000
  H   H299      1.0  0.30954  0.46454  0.94289  1.0000
  C   C363      1.0  0.06744  0.14420  0.69954  1.0000
  H   H300      1.0  0.41575  0.00964  0.87361  1.0000
  C   C364      1.0  0.36672  0.32822  0.83103  1.0000
  C   C365      1.0  0.33870  0.32330  0.83437  1.0000
  H   H301      1.0  0.20382  0.18544  0.72951  1.0000
  C   C366      1.0  0.34399  0.32542  0.88105  1.0000
  C   C367      1.0  0.37188  0.33045  0.87793  1.0000
  C   C368      1.0  0.38321  0.33202  0.85303  1.0000
  H   H302      1.0  0.33676  0.34509  0.71357  1.0000
  H   H303      1.0  0.31097  0.30178  0.71621  1.0000
  H   H304      1.0  0.31624  0.27146  0.75462  1.0000
  H   H305      1.0  0.34686  0.28479  0.79052  1.0000
  H   H306      1.0  0.36685  0.35913  0.74931  1.0000
  H   H307      1.0  0.25664  0.46558  0.67508  1.0000
  C   C369      1.0  0.26655  0.47399  0.77741  1.0000
  C   C370      1.0  0.36500  0.44925  0.95760  1.0000
  H   H308      1.0  0.35770  0.43067  0.79508  1.0000
  H   H309      1.0  0.34742  0.38120  0.79511  1.0000
  C   C371      1.0  0.23313  0.44989  0.73571  1.0000
  H   H310      1.0  0.04076  0.13309  0.94253  1.0000
  C   C372      1.0  0.13971  0.37699  0.66285  1.0000
  C   C373      1.0  0.41117  0.31164  0.79444  1.0000
  C   C374      1.0  0.44135  0.05574  0.97772  1.0000
  C   C375      1.0  0.09688  0.18259  0.74165  1.0000
  C   C376      1.0  0.18808  0.17659  0.71741  1.0000
  H   H311      1.0  0.38442  0.33418  0.89489  1.0000
  H   H312      1.0  0.40465  0.33695  0.85092  1.0000
  C   C377      1.0  0.45127  0.99371  0.85390  1.0000
  H   H313      1.0  0.45746  0.07588  0.94372  1.0000
  H   H314      1.0  0.06305  0.21498  0.79076  1.0000
  C   C378      1.0  0.45038  0.29889  0.76811  1.0000
  P   P12       1.0  0.10579  0.18591  0.70773  1.0000
  C   C379      1.0  0.47189  0.99548  0.93798  1.0000
  C   C380      1.0  0.44205  0.06208  0.95126  1.0000
  C   C381      1.0  0.27392  0.44162  0.95336  1.0000
  C   C382      1.0  0.01592  0.15489  0.97028  1.0000
  C   C383      1.0  0.43996  0.27338  0.80717  1.0000
  Fe  Fe32      1.0  0.25974  0.35315  0.65087  1.0000
  C   C384      1.0  0.41153  0.47121  0.85112  1.0000
  C   C385      1.0  0.23835  0.42724  0.68584  1.0000
  H   H315      1.0  0.40557  0.44664  0.79792  1.0000
  C   C386      1.0  0.22448  0.42297  0.73080  1.0000
  H   H316      1.0  0.22144  0.39067  0.70249  1.0000
  C   C387      1.0  0.01088  0.08275  0.97293  1.0000
  C   C388      1.0  0.19743  0.98846  0.86989  1.0000
  H   H317      1.0  0.21617  0.15164  0.69550  1.0000
  H   H318      1.0  0.35501  0.98538  0.92323  1.0000
  H   H319      1.0  0.44464  0.98477  0.96907  1.0000
  C   C389      1.0  0.19206  0.43347  0.79322  1.0000
  C   C390      1.0  0.98627  0.00354  0.92762  1.0000
  H   H320      1.0  0.22245  0.42700  0.87639  1.0000
  H   H321      1.0  0.04495  0.99435  0.94770  1.0000
  H   H322      1.0  0.15600  0.01429  0.65313  1.0000
  C   C391      1.0  0.38527  0.44386  0.93913  1.0000
  H   H323      1.0  0.07617  0.22169  0.74505  1.0000
  H   H324      1.0  0.47357  0.44152  0.92455  1.0000
  C   C392      1.0  0.22712  0.41177  0.70597  1.0000
  C   C393      1.0  0.32742  0.32189  0.85928  1.0000
  C   C394      1.0  0.09685  0.15504  0.78101  1.0000
  H   H325      1.0  0.13217  0.14506  0.67335  1.0000
  C   C395      1.0  0.34512  0.02113  0.80807  1.0000
  C   C396      1.0  0.41721  0.29010  0.81157  1.0000
  P   P13       1.0  0.17893  0.00537  0.70528  1.0000
  H   H326      1.0  0.99339  0.09076  0.96258  1.0000
  H   H327      1.0  0.07577  0.17218  0.81384  1.0000
  C   C397      1.0  0.46875  0.46544  0.85350  1.0000
  C   C398      1.0  0.16872  0.98895  0.87153  1.0000
  H   H328      1.0  0.09231  0.18668  0.65256  1.0000
  C   C399      1.0  0.18224  0.41320  0.80992  1.0000
  C   C400      1.0  0.11627  0.42072  0.66212  1.0000
  C   C401      1.0  0.45168  0.44253  0.85611  1.0000
  S   S58       1.0  0.07366  0.00075  0.83006  1.0000
  H   H329      1.0  0.33324  0.46261  0.76119  1.0000
  C   C402      1.0  0.07696  0.23266  0.69329  1.0000
  H   H330      1.0  0.98645  0.01961  0.91305  1.0000
  C   C403      1.0  0.17950  0.47501  0.66977  1.0000
  C   C404      1.0  0.14433  0.00592  0.69296  1.0000
  C   C405      1.0  0.28936  0.46327  0.76428  1.0000
  C   C406      1.0  0.19829  0.03168  0.68875  1.0000
  C   C407      1.0  0.20239  0.05741  0.70023  1.0000
  C   C408      1.0  0.21749  0.07754  0.68728  1.0000
  C   C409      1.0  0.35940  0.02630  0.78511  1.0000
  C   C410      1.0  0.07456  0.47980  0.69880  1.0000
  H   H331      1.0  0.12507  0.99756  0.73002  1.0000
  S   S59       1.0  0.25692  0.47381  0.88788  1.0000
  C   C411      1.0  0.02390  0.14726  0.94525  1.0000
  C   C412      1.0  0.12179  0.43791  0.74226  1.0000
  C   C413      1.0  0.16181  0.03570  0.77769  1.0000
  C   C414      1.0  0.16209  0.03132  0.75088  1.0000
  H   H332      1.0  0.11763  0.41957  0.73125  1.0000
  H   H333      1.0  0.05420  0.26840  0.68164  1.0000
  H   H334      1.0  0.20942  0.98901  0.79580  1.0000
  H   H335      1.0  0.20829  0.00697  0.86477  1.0000
  C   C415      1.0  0.98729  0.98969  0.97273  1.0000
  S   S60       1.0  0.00525  0.47298  0.83214  1.0000
  C   C416      1.0  0.07428  0.25930  0.68363  1.0000
  C   C417      1.0  0.14749  0.15414  0.68575  1.0000
  C   C418      1.0  0.22218  0.47091  0.87895  1.0000
  C   C419      1.0  0.12369  0.46015  0.78411  1.0000
  C   C420      1.0  0.21020  0.44536  0.87487  1.0000
  C   C421      1.0  0.34362  0.99450  0.81778  1.0000
  H   H336      1.0  0.22026  0.09744  0.69609  1.0000
  H   H337      1.0  0.10053  0.43362  0.65390  1.0000
  C   C422      1.0  0.09208  0.46937  0.94963  1.0000
  H   H338      1.0  0.46315  0.01217  0.85639  1.0000
  C   C423      1.0  0.11938  0.39404  0.65274  1.0000
  C   C424      1.0  0.42327  0.05016  0.93436  1.0000
  C   C425      1.0  0.24725  0.45391  0.69057  1.0000
  H   H339      1.0  0.14819  0.05083  0.78604  1.0000
  C   C426      1.0  0.17888  0.02043  0.79384  1.0000
  H   H340      1.0  0.26881  0.43666  0.93343  1.0000
  C   C427      1.0  0.29723  0.45708  0.95873  1.0000
  H   H341      1.0  0.12214  0.45913  0.80508  1.0000
  P   P14       1.0  0.12948  0.46459  0.69470  1.0000
  H   H342      1.0  0.18021  0.13124  0.66814  1.0000
  H   H343      1.0  0.10170  0.46861  0.90893  1.0000
  H   H344      1.0  0.46059  0.42237  0.85808  1.0000
  H   H345      1.0  0.15575  0.19968  0.73519  1.0000
  C   C428      1.0  0.46973  0.46028  0.96235  1.0000
  H   H346      1.0  0.38309  0.00919  0.75407  1.0000
  H   H347      1.0  0.14875  0.04332  0.73861  1.0000
  H   H348      1.0  0.40425  0.28588  0.82813  1.0000
  H   H349      1.0  0.35179  0.43278  0.96384  1.0000
  H   H350      1.0  0.01566  0.15068  0.90439  1.0000
  C   C429      1.0  0.13942  0.01021  0.66643  1.0000
  C   C430      1.0  0.19503  0.15747  0.69839  1.0000
  C   C431      1.0  0.17471  0.14603  0.68285  1.0000
  C   C432      1.0  0.13354  0.43048  0.68175  1.0000
  C   C433      1.0  0.15398  0.41326  0.69172  1.0000
  C   C434      1.0  0.15693  0.38658  0.68240  1.0000
  C   C435      1.0  0.00964  0.15707  0.92372  1.0000
  S   S61       1.0  0.04848  0.99949  0.88903  1.0000
  C   C436      1.0  0.22845  0.07225  0.66274  1.0000
  H   H351      1.0  0.05878  0.22125  0.69847  1.0000
  P   P15       1.0  0.23237  0.46366  0.76831  1.0000
  C   C437      1.0  0.40275  0.02574  0.97045  1.0000
  H   H352      1.0  0.41739  0.46082  0.91546  1.0000
  C   C438      1.0  0.12839  0.46270  0.72980  1.0000
  H   H353      1.0  0.31012  0.39235  0.97042  1.0000
  C   C439      1.0  0.19629  0.00080  0.78315  1.0000
  H   H354      1.0  0.17774  0.44593  0.78250  1.0000
  H   H355      1.0  0.32520  0.32154  0.81789  1.0000
  H   H356      1.0  0.11606  0.14293  0.74542  1.0000
  H   H357      1.0  0.17278  0.37342  0.69010  1.0000
  S   S62       1.0  0.13062  0.46321  0.86105  1.0000
  C   C440      1.0  0.14044  0.17378  0.70443  1.0000
  H   H358      1.0  0.44327  0.41301  0.80182  1.0000
  H   H359      1.0  0.33512  0.32514  0.90036  1.0000
  C   C441      1.0  0.42766  0.31566  0.77247  1.0000
  H   H360      1.0  0.43335  0.36352  0.80242  1.0000
  C   C442      1.0  0.08186  0.17526  0.79382  1.0000
  C   C443      1.0  0.16583  0.46708  0.86766  1.0000
  C   C444      1.0  0.24475  0.46518  0.71539  1.0000
  H   H361      1.0  0.41014  0.42758  0.85659  1.0000
  C   C445      1.0  0.31579  0.47120  0.77124  1.0000
  H   H362      1.0  0.42409  0.05475  0.91377  1.0000
  C   C446      1.0  0.40228  0.46488  0.93039  1.0000
  C   C447      1.0  0.10458  0.15884  0.75514  1.0000
  H   H363      1.0  0.16762  0.42052  0.70673  1.0000
  C   C448      1.0  0.40363  0.03209  0.94394  1.0000
  H   H364      1.0  0.19380  0.06220  0.71900  1.0000
  H   H365      1.0  0.38940  0.35487  0.96956  1.0000
  C   C449      1.0  0.22024  0.43783  0.79053  1.0000
  H   H366      1.0  0.16045  0.41055  0.81258  1.0000
  C   C450      1.0  0.04721  0.13419  0.65776  1.0000
  H   H367      1.0  0.20605  0.00713  0.65444  1.0000
  C   C451      1.0  0.09681  0.48221  0.97338  1.0000
  C   C452      1.0  0.19639  0.99614  0.75636  1.0000
  C   C453      1.0  0.42312  0.44544  0.85531  1.0000
  H   H368      1.0  0.36092  0.04703  0.77778  1.0000
  H   H369      1.0  0.33558  0.03775  0.81864  1.0000
  C   C454      1.0  0.37199  0.00479  0.77178  1.0000
  C   C455      1.0  0.08208  0.20299  0.75473  1.0000
  H   H370      1.0  0.07839  0.99684  0.71280  1.0000
  H   H371      1.0  0.38734  0.42345  0.93111  1.0000
  C   C456      1.0  0.36154  0.47578  0.96744  1.0000
  H   H372      1.0  0.33317  0.99060  0.83599  1.0000
  H   H373      1.0  0.47409  0.26470  0.78204  1.0000
  C   C457      1.0  0.08016  0.17086  0.66172  1.0000
  C   C458      1.0  0.11276  0.00948  0.65674  1.0000
  S   S63       1.0  0.37630  0.47504  0.84506  1.0000
  H   H374      1.0  0.21960  0.46929  0.94399  1.0000
  S   S64       1.0  0.21406  0.35104  0.65184  1.0000
  C   C459      1.0  0.09081  0.00452  0.67340  1.0000
  H   H375      1.0  0.46302  0.30210  0.75111  1.0000
  C   C460      1.0  0.98733  0.17456  0.92719  1.0000
  H   H376      1.0  0.38758  0.01137  0.97726  1.0000
  H   H377      1.0  0.47512  0.99558  0.77599  1.0000
  H   H378      1.0  0.14251  0.35652  0.65526  1.0000
  H   H379      1.0  0.98796  0.03161  0.95961  1.0000
  C   C461      1.0  0.10487  0.47904  0.92721  1.0000
  H   H380      1.0  0.23915  0.42064  0.96943  1.0000
  C   C462      1.0  0.25711  0.43280  0.97362  1.0000
  C   C463      1.0  0.37183  0.36230  0.98018  1.0000
  C   C464      1.0  0.09815  0.47988  0.68326  1.0000
  C   C465      1.0  0.32729  0.38342  0.98056  1.0000
  C   C466      1.0  0.09548  0.00006  0.69977  1.0000
  C   C467      1.0  0.12209  0.00073  0.70952  1.0000
  C   C468      1.0  0.46171  0.98579  0.76206  1.0000
  H   H381      1.0  0.99106  0.23146  0.98023  1.0000
  H   H382      1.0  0.23944  0.08812  0.65238  1.0000
  C   C469      1.0  0.22437  0.04676  0.65113  1.0000
  C   C470      1.0  0.31595  0.53266  0.01047  1.0000
  S   S65       1.0  0.03219  0.62948  0.28416  1.0000
  Fe  Fe33      1.0  0.01460  0.58309  0.06810  1.0000
  S   S66       1.0  0.46849  0.60443  0.13982  1.0000
  S   S67       1.0  0.03664  0.56194  0.03357  1.0000
  Fe  Fe34      1.0  0.01736  0.59860  0.12716  1.0000
  C   C471      1.0  0.04745  0.54275  0.98391  1.0000
  S   S68       1.0  0.04646  0.60759  0.16151  1.0000
  H   H383      1.0  0.46484  0.68476  0.16149  1.0000
  S   S69       1.0  0.43659  0.53588  0.11586  1.0000
  C   C472      1.0  0.03845  0.52654  0.15987  1.0000
  S   S70       1.0  0.43425  0.66129  0.10191  1.0000
  S   S71       1.0  0.01476  0.55836  0.10544  1.0000
  S   S72       1.0  0.02068  0.62317  0.08977  1.0000
  Fe  Fe35      1.0  0.36857  0.85986  0.10011  1.0000
  S   S73       1.0  0.41430  0.86150  0.09940  1.0000
  S   S74       1.0  0.34264  0.87599  0.06574  1.0000
  Fe  Fe36      1.0  0.36767  0.84051  0.15833  1.0000
  S   S75       1.0  0.41354  0.84174  0.16046  1.0000
  S   S76       1.0  0.34134  0.81961  0.19029  1.0000
  Fe  Fe37      1.0  0.41102  0.88149  0.13832  1.0000
  S   S77       1.0  0.44333  0.91369  0.14661  1.0000
  Fe  Fe38      1.0  0.41348  0.82166  0.12137  1.0000
  S   S78       1.0  0.44678  0.79020  0.11312  1.0000
  S   S79       1.0  0.36493  0.88209  0.13868  1.0000
  S   S80       1.0  0.36783  0.81824  0.11967  1.0000
  C   C473      1.0  0.43811  0.69695  0.10630  1.0000
  H   H384      1.0  0.01958  0.77564  0.24630  1.0000
  P   P16       1.0  0.20272  0.79179  0.26915  1.0000
  C   C474      1.0  0.44257  0.75441  0.11050  1.0000
  C   C475      1.0  0.41685  0.74204  0.11116  1.0000
  C   C476      1.0  0.41466  0.71341  0.10885  1.0000
  C   C477      1.0  0.22632  0.80812  0.24700  1.0000
  H   H385      1.0  0.04331  0.82632  0.28546  1.0000
  H   H386      1.0  0.39870  0.75453  0.11310  1.0000
  C   C478      1.0  0.46465  0.96497  0.13940  1.0000
  C   C479      1.0  0.02846  0.78861  0.30176  1.0000
  C   C480      1.0  0.46151  0.67502  0.18015  1.0000
  C   C481      1.0  0.41634  0.96074  0.13061  1.0000
  C   C482      1.0  0.44108  0.94865  0.13787  1.0000
  C   C483      1.0  0.00422  0.50696  0.18856  1.0000
  H   H387      1.0  0.99688  0.60649  0.24575  1.0000
  C   C484      1.0  0.98784  0.69842  0.28694  1.0000
  H   H388      1.0  0.39806  0.94840  0.12945  1.0000
  H   H389      1.0  0.39469  0.70397  0.10881  1.0000
  H   H390      1.0  0.30060  0.57092  0.02531  1.0000
  C   C485      1.0  0.14438  0.56232  0.98331  1.0000
  C   C486      1.0  0.03939  0.56553  0.99892  1.0000
  H   H391      1.0  0.98310  0.50600  0.04196  1.0000
  C   C487      1.0  0.10849  0.90130  0.05671  1.0000
  H   H392      1.0  0.42554  0.62226  0.20624  1.0000
  C   C488      1.0  0.36219  0.86110  0.01633  1.0000
  C   C489      1.0  0.34268  0.87541  0.03092  1.0000
  C   C490      1.0  0.32162  0.88908  0.01750  1.0000
  H   H393      1.0  0.37883  0.85089  0.02615  1.0000
  H   H394      1.0  0.30641  0.90032  0.02841  1.0000
  C   C491      1.0  0.03666  0.62459  0.24993  1.0000
  C   C492      1.0  0.01539  0.61235  0.23573  1.0000
  C   C493      1.0  0.01773  0.60740  0.20876  1.0000
  C   C494      1.0  0.04187  0.61398  0.19554  1.0000
  C   C495      1.0  0.06329  0.62603  0.20979  1.0000
  C   C496      1.0  0.06061  0.63166  0.23666  1.0000
  H   H395      1.0  0.99180  0.92147  0.03626  1.0000
  C   C497      1.0  0.32362  0.51786  0.98828  1.0000
  H   H396      1.0  0.08212  0.63114  0.19994  1.0000
  H   H397      1.0  0.07730  0.64093  0.24717  1.0000
  C   C498      1.0  0.32711  0.82400  0.27965  1.0000
  C   C499      1.0  0.34047  0.84553  0.26650  1.0000
  C   C500      1.0  0.34575  0.84430  0.23947  1.0000
  C   C501      1.0  0.33675  0.82194  0.22485  1.0000
  C   C502      1.0  0.32263  0.80085  0.23789  1.0000
  C   C503      1.0  0.31842  0.80150  0.26507  1.0000
  H   H398      1.0  0.34709  0.86322  0.27740  1.0000
  H   H399      1.0  0.35625  0.86096  0.22990  1.0000
  H   H400      1.0  0.31486  0.78376  0.22688  1.0000
  H   H401      1.0  0.30798  0.78485  0.27466  1.0000
  H   H402      1.0  0.32207  0.73640  0.09778  1.0000
  C   C504      1.0  0.44384  0.65265  0.18152  1.0000
  H   H403      1.0  0.41742  0.55347  0.06702  1.0000
  H   H404      1.0  0.43122  0.74850  0.04501  1.0000
  H   H405      1.0  0.34748  0.94500  0.05281  1.0000
  H   H406      1.0  0.04861  0.78079  0.30645  1.0000
  C   C505      1.0  0.34694  0.75015  0.06578  1.0000
  H   H407      1.0  0.40920  0.79188  0.06671  1.0000
  H   H408      1.0  0.10554  0.76515  0.26997  1.0000
  H   H409      1.0  0.14866  0.93855  0.09724  1.0000
  H   H410      1.0  0.02690  0.83587  0.18583  1.0000
  H   H411      1.0  0.10435  0.88027  0.05135  1.0000
  C   C506      1.0  0.13315  0.59016  0.02989  1.0000
  C   C507      1.0  0.15989  0.58229  0.02396  1.0000
  H   H412      1.0  0.04573  0.93931  0.06591  1.0000
  H   H413      1.0  0.02352  0.82410  0.23250  1.0000
  H   H414      1.0  0.00891  0.55789  0.23726  1.0000
  C   C508      1.0  0.43790  0.52420  0.04249  1.0000
  C   C509      1.0  0.43592  0.82536  0.00326  1.0000
  H   H415      1.0  0.44682  0.64021  0.24634  1.0000
  H   H416      1.0  0.30125  0.78205  0.10550  1.0000
  H   H417      1.0  0.44339  0.49793  0.26922  1.0000
  H   H418      1.0  0.26823  0.79270  0.19598  1.0000
  C   C510      1.0  0.43070  0.70505  0.04121  1.0000
  C   C511      1.0  0.43110  0.78578  0.20636  1.0000
  H   H419      1.0  0.37852  0.73226  0.17118  1.0000
  H   H420      1.0  0.28178  0.84088  0.20254  1.0000
  C   C512      1.0  0.02121  0.78057  0.22587  1.0000
  H   H421      1.0  0.39783  0.49306  0.12078  1.0000
  H   H422      1.0  0.45925  0.91048  0.06645  1.0000
  C   C513      1.0  0.26595  0.83192  0.21462  1.0000
  H   H423      1.0  0.42203  0.49017  0.18457  1.0000
  H   H424      1.0  0.99665  0.74216  0.10141  1.0000
  H   H425      1.0  0.12868  0.60071  0.04790  1.0000
  H   H426      1.0  0.17622  0.58675  0.03746  1.0000
  H   H427      1.0  0.13927  0.89046  0.08479  1.0000
  H   H428      1.0  0.47623  0.68103  0.24457  1.0000
  H   H429      1.0  0.44586  0.51266  0.05882  1.0000
  C   C514      1.0  0.21857  0.76010  0.27927  1.0000
  H   H430      1.0  0.42436  0.66179  0.03680  1.0000
  C   C515      1.0  0.01305  0.54032  0.24930  1.0000
  C   C516      1.0  0.02646  0.49472  0.27938  1.0000
  C   C517      1.0  0.11921  0.95554  0.07066  1.0000
  C   C518      1.0  0.24666  0.75956  0.28477  1.0000
  C   C519      1.0  0.14770  0.77727  0.26921  1.0000
  C   C520      1.0  0.39055  0.68522  0.02154  1.0000
  C   C521      1.0  0.09241  0.70802  0.25079  1.0000
  C   C522      1.0  0.10704  0.69544  0.23080  1.0000
  C   C523      1.0  0.09504  0.69214  0.20641  1.0000
  C   C524      1.0  0.06820  0.70088  0.20212  1.0000
  C   C525      1.0  0.05299  0.71258  0.22241  1.0000
  C   C526      1.0  0.06572  0.71713  0.24645  1.0000
  P   P17       1.0  0.01844  0.72434  0.21699  1.0000
  H   H431      1.0  0.04957  0.54429  0.15285  1.0000
  C   C527      1.0  0.45508  0.75162  0.18101  1.0000
  C   C528      1.0  0.35961  0.85914  0.98903  1.0000
  H   H432      1.0  0.44802  0.82401  0.06810  1.0000
  C   C529      1.0  0.41785  0.48397  0.12295  1.0000
  C   C530      1.0  0.45086  0.65001  0.22789  1.0000
  H   H433      1.0  0.02980  0.60845  0.99732  1.0000
  C   C531      1.0  0.41974  0.73123  0.03782  1.0000
  H   H434      1.0  0.18143  0.73574  0.27912  1.0000
  H   H435      1.0  0.18396  0.79200  0.21438  1.0000
  C   C532      1.0  0.16710  0.78617  0.22676  1.0000
  C   C533      1.0  0.41113  0.56247  0.02662  1.0000
  C   C534      1.0  0.00413  0.70098  0.26475  1.0000
  H   H436      1.0  0.10174  0.71062  0.26974  1.0000
  H   H437      1.0  0.12765  0.68820  0.23427  1.0000
  H   H438      1.0  0.10637  0.68236  0.19089  1.0000
  H   H439      1.0  0.05932  0.69816  0.18306  1.0000
  H   H440      1.0  0.05492  0.72729  0.26207  1.0000
  H   H441      1.0  0.02169  0.66719  0.20013  1.0000
  C   C535      1.0  0.46068  0.93747  0.00538  1.0000
  C   C536      1.0  0.04375  0.50068  0.14950  1.0000
  H   H442      1.0  0.03828  0.56331  0.27566  1.0000
  H   H443      1.0  0.34766  0.75881  0.19978  1.0000
  C   C537      1.0  0.03005  0.54330  0.27086  1.0000
  C   C538      1.0  0.99241  0.66266  0.16953  1.0000
  H   H444      1.0  0.02489  0.75071  0.16613  1.0000
  C   C539      1.0  0.31854  0.68826  0.29598  1.0000
  H   H445      1.0  0.02167  0.68761  0.26268  1.0000
  H   H446      1.0  0.29942  0.68471  0.28603  1.0000
  H   H447      1.0  0.25276  0.69366  0.30527  1.0000
  S   S81       1.0  0.32087  0.82690  0.31389  1.0000
  C   C540      1.0  0.37958  0.71140  0.01791  1.0000
  H   H448      1.0  0.00048  0.94539  0.08622  1.0000
  C   C541      1.0  0.31597  0.77926  0.09000  1.0000
  H   H449      1.0  0.01489  0.54999  0.18688  1.0000
  H   H450      1.0  0.46516  0.84558  0.02785  1.0000
  C   C542      1.0  0.16551  0.56829  0.00086  1.0000
  C   C543      1.0  0.00633  0.67740  0.18858  1.0000
  C   C544      1.0  0.41865  0.54707  0.22646  1.0000
  P   P18       1.0  0.46399  0.48597  0.01092  1.0000
  C   C545      1.0  0.11200  0.58400  0.01277  1.0000
  C   C546      1.0  0.32774  0.75361  0.08566  1.0000
  C   C547      1.0  0.43859  0.53861  0.20853  1.0000
  H   H451      1.0  0.38227  0.57110  0.23271  1.0000
  C   C548      1.0  0.39773  0.56488  0.21885  1.0000
  C   C549      1.0  0.39644  0.57421  0.19324  1.0000
  C   C550      1.0  0.41622  0.56596  0.17534  1.0000
  C   C551      1.0  0.43718  0.54819  0.18291  1.0000
  C   C552      1.0  0.03660  0.52052  0.28604  1.0000
  C   C553      1.0  0.38965  0.95650  0.04845  1.0000
  C   C554      1.0  0.39414  0.73467  0.02593  1.0000
  H   H452      1.0  0.02732  0.79902  0.15275  1.0000
  C   C555      1.0  0.23867  0.79274  0.22716  1.0000
  H   H453      1.0  0.00097  0.59817  0.19830  1.0000
  H   H454      1.0  0.42954  0.97318  0.04279  1.0000
  H   H455      1.0  0.99763  0.64148  0.16601  1.0000
  H   H456      1.0  0.47452  0.74951  0.24450  1.0000
  C   C556      1.0  0.36598  0.49400  0.03495  1.0000
  H   H457      1.0  0.38006  0.58770  0.18717  1.0000
  H   H458      1.0  0.41509  0.57291  0.15538  1.0000
  H   H459      1.0  0.45187  0.54149  0.16855  1.0000
  C   C557      1.0  0.46023  0.51195  0.27205  1.0000
  C   C558      1.0  0.42698  0.90142  0.00863  1.0000
  H   H460      1.0  0.37091  0.51339  0.02592  1.0000
  H   H461      1.0  0.39895  0.58054  0.03048  1.0000
  C   C559      1.0  0.42351  0.71216  0.29016  1.0000
  C   C560      1.0  0.42670  0.68359  0.28945  1.0000
  P   P19       1.0  0.39116  0.72745  0.28118  1.0000
  C   C561      1.0  0.38996  0.76192  0.29406  1.0000
  C   C562      1.0  0.38677  0.72798  0.24626  1.0000
  C   C563      1.0  0.36599  0.74397  0.23517  1.0000
  C   C564      1.0  0.36311  0.74562  0.20822  1.0000
  C   C565      1.0  0.38051  0.73072  0.19209  1.0000
  C   C566      1.0  0.40080  0.71420  0.20293  1.0000
  C   C567      1.0  0.40410  0.71296  0.22989  1.0000
  C   C568      1.0  0.39374  0.78469  0.27774  1.0000
  C   C569      1.0  0.39434  0.81113  0.28798  1.0000
  H   H462      1.0  0.43393  0.64538  0.16403  1.0000
  C   C570      1.0  0.46999  0.74368  0.20299  1.0000
  C   C571      1.0  0.34355  0.79833  0.05544  1.0000
  S   S82       1.0  0.46659  0.59344  0.07679  1.0000
  H   H463      1.0  0.41890  0.53962  0.24622  1.0000
  C   C572      1.0  0.34001  0.79053  0.98917  1.0000
  C   C573      1.0  0.99929  0.82418  0.28419  1.0000
  C   C574      1.0  0.04724  0.98030  0.04961  1.0000
  C   C575      1.0  0.33942  0.70284  0.28362  1.0000
  H   H464      1.0  0.09112  0.58956  0.01758  1.0000
  H   H465      1.0  0.05047  0.52322  0.99337  1.0000
  C   C576      1.0  0.47316  0.68791  0.30504  1.0000
  C   C577      1.0  0.44112  0.50063  0.12170  1.0000
  H   H466      1.0  0.40993  0.67064  0.28345  1.0000
  H   H467      1.0  0.35239  0.75558  0.24752  1.0000
  C   C578      1.0  0.36155  0.96074  0.04627  1.0000
  C   C579      1.0  0.07927  0.97174  0.00120  1.0000
  H   H468      1.0  0.41427  0.70286  0.19028  1.0000
  H   H469      1.0  0.42030  0.70058  0.23780  1.0000
  H   H470      1.0  0.39599  0.78236  0.25706  1.0000
  H   H471      1.0  0.39665  0.82860  0.27519  1.0000
  C   C580      1.0  0.45422  0.91336  0.04611  1.0000
  C   C581      1.0  0.12814  0.90702  0.07557  1.0000
  H   H472      1.0  0.44369  0.75053  0.29909  1.0000
  C   C582      1.0  0.11756  0.57014  0.98966  1.0000
  C   C583      1.0  0.45143  0.67155  0.29693  1.0000
  H   H473      1.0  0.11563  0.94629  0.99941  1.0000
  H   H474      1.0  0.05702  0.89680  0.99201  1.0000
  H   H475      1.0  0.33585  0.71032  0.26421  1.0000
  C   C584      1.0  0.43254  0.53132  0.99625  1.0000
  C   C585      1.0  0.30639  0.55954  0.00812  1.0000
  C   C586      1.0  0.20317  0.73607  0.28252  1.0000
  C   C587      1.0  0.25389  0.84732  0.23438  1.0000
  C   C588      1.0  0.25829  0.80468  0.21096  1.0000
  C   C589      1.0  0.24351  0.71185  0.29706  1.0000
  C   C590      1.0  0.21566  0.71207  0.29132  1.0000
  H   H476      1.0  0.42296  0.88236  0.04608  1.0000
  C   C591      1.0  0.44558  0.72849  0.29810  1.0000
  C   C592      1.0  0.42166  0.54724  0.04724  1.0000
  H   H477      1.0  0.20344  0.69398  0.29489  1.0000
  C   C593      1.0  0.01866  0.52973  0.17918  1.0000
  C   C594      1.0  0.02348  0.80796  0.21815  1.0000
  H   H478      1.0  0.45828  0.74155  0.16256  1.0000
  C   C595      1.0  0.36424  0.70777  0.29645  1.0000
  C   C596      1.0  0.11965  0.77251  0.23085  1.0000
  C   C597      1.0  0.02112  0.75969  0.20722  1.0000
  C   C598      1.0  0.99758  0.72040  0.24561  1.0000
  H   H479      1.0  0.13961  0.78106  0.19447  1.0000
  C   C599      1.0  0.41646  0.55443  0.00111  1.0000
  H   H480      1.0  0.40829  0.56622  0.98508  1.0000
  C   C600      1.0  0.09930  0.95592  0.98859  1.0000
  P   P20       1.0  0.37845  0.76813  0.02350  1.0000
  H   H481      1.0  0.23350  0.77138  0.22453  1.0000
  H   H482      1.0  0.35947  0.71351  0.00939  1.0000
  C   C601      1.0  0.43884  0.63988  0.20531  1.0000
  H   H483      1.0  0.10023  0.76747  0.22200  1.0000
  C   C602      1.0  0.44382  0.51629  0.01692  1.0000
  H   H484      1.0  0.03917  0.85010  0.00083  1.0000
  H   H485      1.0  0.14963  0.77572  0.29011  1.0000
  H   H486      1.0  0.38948  0.50259  0.06948  1.0000
  C   C603      1.0  0.47391  0.68518  0.20273  1.0000
  C   C604      1.0  0.25904  0.73554  0.29364  1.0000
  C   C605      1.0  0.00955  0.96192  0.07507  1.0000
  C   C606      1.0  0.09422  0.92268  0.04476  1.0000
  H   H487      1.0  0.25892  0.77790  0.28280  1.0000
  C   C607      1.0  0.02874  0.86345  0.98726  1.0000
  H   H488      1.0  0.26040  0.86823  0.23757  1.0000
  H   H489      1.0  0.07897  0.91798  0.03027  1.0000
  H   H490      1.0  0.37909  0.66733  0.01569  1.0000
  C   C608      1.0  0.17026  0.78463  0.25381  1.0000
  H   H491      1.0  0.42439  0.77877  0.16561  1.0000
  P   P21       1.0  0.08116  0.97745  0.03583  1.0000
  C   C609      1.0  0.41441  0.80663  0.00214  1.0000
  C   C610      1.0  0.02413  0.76650  0.18087  1.0000
  C   C611      1.0  0.02584  0.79390  0.17321  1.0000
  H   H492      1.0  0.28048  0.73558  0.29868  1.0000
  H   H493      1.0  0.22546  0.84777  0.26596  1.0000
  H   H494      1.0  0.35574  0.73008  0.06296  1.0000
  C   C612      1.0  0.14188  0.78006  0.21536  1.0000
  C   C613      1.0  0.09958  0.94998  0.05153  1.0000
  H   H495      1.0  0.31529  0.82173  0.07853  1.0000
  H   H496      1.0  0.33220  0.80241  0.00517  1.0000
  C   C614      1.0  0.23408  0.83554  0.25049  1.0000
  H   H497      1.0  0.12364  0.97634  0.07646  1.0000
  C   C615      1.0  0.12258  0.77123  0.25779  1.0000
  C   C616      1.0  0.30400  0.57163  0.98362  1.0000
  H   H498      1.0  0.44231  0.78806  0.24669  1.0000
  H   H499      1.0  0.41614  0.80215  0.20756  1.0000
  C   C617      1.0  0.02553  0.81463  0.19184  1.0000
  C   C618      1.0  0.44559  0.77767  0.22842  1.0000
  C   C619      1.0  0.46791  0.93307  0.03135  1.0000
  H   H500      1.0  0.38050  0.92561  0.99699  1.0000
  C   C620      1.0  0.00934  0.49178  0.25782  1.0000
  C   C621      1.0  0.43970  0.92201  0.99393  1.0000
  H   H501      1.0  0.48199  0.69691  0.10392  1.0000
  C   C622      1.0  0.32382  0.80159  0.07480  1.0000
  C   C623      1.0  0.43382  0.89751  0.03468  1.0000
  C   C624      1.0  0.35470  0.77248  0.05018  1.0000
  P   P22       1.0  0.46436  0.51401  0.21791  1.0000
  C   C625      1.0  0.13345  0.93411  0.08257  1.0000
  H   H502      1.0  0.39716  0.93770  0.05707  1.0000
  C   C626      1.0  0.37665  0.48795  0.05949  1.0000
  C   C627      1.0  0.43575  0.77263  0.18271  1.0000
  H   H503      1.0  0.45027  0.70249  0.05072  1.0000
  H   H504      1.0  0.35001  0.81608  0.04462  1.0000
  C   C628      1.0  0.44816  0.83144  0.02699  1.0000
  C   C629      1.0  0.40460  0.79417  0.02494  1.0000
  C   C630      1.0  0.43836  0.81940  0.04972  1.0000
  H   H505      1.0  0.99334  0.68386  0.30198  1.0000
  H   H506      1.0  0.99730  0.84418  0.27529  1.0000
  H   H507      1.0  0.41124  0.88876  0.00011  1.0000
  C   C631      1.0  0.41638  0.80116  0.04883  1.0000
  C   C632      1.0  0.40795  0.97668  0.04018  1.0000
  H   H508      1.0  0.40565  0.80201  0.98341  1.0000
  H   H509      1.0  0.47156  0.95291  0.99459  1.0000
  C   C633      1.0  0.41606  0.68205  0.03329  1.0000
  H   H510      1.0  0.04985  0.52288  0.30272  1.0000
  C   C634      1.0  0.46595  0.73796  0.10779  1.0000
  Fe  Fe39      1.0  0.46851  0.62982  0.10351  1.0000
  C   C635      1.0  0.46382  0.70932  0.10607  1.0000
  H   H511      1.0  0.11829  0.51377  0.99346  1.0000
  H   H512      1.0  0.45381  0.64950  0.29677  1.0000
  H   H513      1.0  0.05874  0.49838  0.13417  1.0000
  Fe  Fe40      1.0  0.46970  0.56820  0.11302  1.0000
  C   C636      1.0  0.00048  0.70513  0.19254  1.0000
  C   C637      1.0  0.46692  0.48893  0.12512  1.0000
  H   H514      1.0  0.18622  0.56181  0.99719  1.0000
  C   C638      1.0  0.36144  0.77168  0.99246  1.0000
  H   H515      1.0  0.45597  0.51131  0.31370  1.0000
  H   H516      1.0  0.31700  0.52340  0.02954  1.0000
  C   C639      1.0  0.47023  0.71634  0.30564  1.0000
  C   C640      1.0  0.46436  0.75617  0.22694  1.0000
  C   C641      1.0  0.02541  0.81419  0.28995  1.0000
  C   C642      1.0  0.03523  0.95858  0.06345  1.0000
  C   C643      1.0  0.00180  0.51479  0.24311  1.0000
  H   H517      1.0  0.33498  0.94596  0.99514  1.0000
  C   C644      1.0  0.19688  0.81370  0.29688  1.0000
  C   C645      1.0  0.46712  0.51969  0.29734  1.0000
  H   H518      1.0  0.16119  0.83346  0.28044  1.0000
  C   C646      1.0  0.17489  0.83222  0.29687  1.0000
  C   C647      1.0  0.47460  0.52267  0.25069  1.0000
  C   C648      1.0  0.31939  0.88763  0.99016  1.0000
  C   C649      1.0  0.46800  0.67286  0.22671  1.0000
  C   C650      1.0  0.00539  0.77326  0.30811  1.0000
  C   C651      1.0  0.03578  0.59063  0.98623  1.0000
  H   H519      1.0  0.98657  0.95326  0.14761  1.0000
  H   H520      1.0  0.99127  0.69202  0.09507  1.0000
  H   H521      1.0  0.44326  0.83498  0.98569  1.0000
  C   C652      1.0  0.39086  0.81519  0.31456  1.0000
  C   C653      1.0  0.03867  0.88978  0.98244  1.0000
  H   H522      1.0  0.29649  0.59242  0.98182  1.0000
  Fe  Fe41      1.0  0.21388  0.87152  0.62106  1.0000
  S   S83       1.0  0.25945  0.87661  0.62095  1.0000
  S   S84       1.0  0.17908  0.90217  0.61928  1.0000
  Fe  Fe42      1.0  0.21787  0.81041  0.63302  1.0000
  S   S85       1.0  0.26390  0.81137  0.63517  1.0000
  H   H523      1.0  0.23397  0.74378  0.62536  1.0000
  C   C654      1.0  0.16589  0.70128  0.34790  1.0000
  Fe  Fe43      1.0  0.26063  0.83679  0.59834  1.0000
  S   S86       1.0  0.28916  0.82596  0.56406  1.0000
  C   C655      1.0  0.18359  0.87795  0.45805  1.0000
  S   S87       1.0  0.21496  0.83402  0.59576  1.0000
  Fe  Fe44      1.0  0.16033  0.56143  0.58661  1.0000
  S   S88       1.0  0.11431  0.56233  0.58672  1.0000
  S   S89       1.0  0.19031  0.52775  0.57562  1.0000
  Fe  Fe45      1.0  0.16456  0.62145  0.60238  1.0000
  S   S90       1.0  0.11904  0.62670  0.60397  1.0000
  S   S91       1.0  0.19916  0.65159  0.60860  1.0000
  Fe  Fe46      1.0  0.11885  0.58568  0.62457  1.0000
  Fe  Fe47      1.0  0.11824  0.60319  0.56602  1.0000
  S   S92       1.0  0.09157  0.62009  0.53251  1.0000
  S   S93       1.0  0.16456  0.58217  0.62519  1.0000
  S   S94       1.0  0.16379  0.60050  0.56373  1.0000
  Fe  Fe48      1.0  0.29513  0.79263  0.40586  1.0000
  S   S95       1.0  0.29944  0.74695  0.40508  1.0000
  S   S96       1.0  0.27366  0.81453  0.44028  1.0000
  Fe  Fe49      1.0  0.31145  0.79631  0.34701  1.0000
  S   S97       1.0  0.31562  0.75065  0.34335  1.0000
  Fe  Fe50      1.0  0.27715  0.74826  0.36727  1.0000
  S   S98       1.0  0.24597  0.71418  0.36338  1.0000
  Fe  Fe51      1.0  0.33764  0.75276  0.38154  1.0000
  S   S99       1.0  0.37061  0.72060  0.38884  1.0000
  S   S100      1.0  0.27102  0.79373  0.36835  1.0000
  S   S101      1.0  0.33542  0.79886  0.38474  1.0000
  C   C656      1.0  0.15950  0.95433  0.61324  1.0000
  H   H524      1.0  0.25913  0.87694  0.56065  1.0000
  Fe  Fe52      1.0  0.07538  0.65343  0.37503  1.0000
  S   S102      1.0  0.07392  0.69940  0.37662  1.0000
  S   S103      1.0  0.09753  0.62897  0.40749  1.0000
  Fe  Fe53      1.0  0.03321  0.69634  0.35651  1.0000
  S   S104      1.0  0.00049  0.72817  0.36552  1.0000
  Fe  Fe54      1.0  0.09223  0.69826  0.33680  1.0000
  H   H525      1.0  0.40184  0.72548  0.43800  1.0000
  S   S105      1.0  0.03290  0.65026  0.35746  1.0000
  S   S106      1.0  0.09557  0.65234  0.33518  1.0000
  C   C657      1.0  0.21123  0.72023  0.35594  1.0000
  C   C658      1.0  0.20170  0.74605  0.34849  1.0000
  C   C659      1.0  0.17454  0.74927  0.33994  1.0000
  C   C660      1.0  0.15670  0.72674  0.33917  1.0000
  H   H526      1.0  0.20024  0.67812  0.36178  1.0000
  C   C661      1.0  0.19308  0.69805  0.35602  1.0000
  H   H527      1.0  0.13763  0.94996  0.50028  1.0000
  H   H528      1.0  0.47222  0.59039  0.39881  1.0000
  H   H529      1.0  0.23236  0.79993  0.31845  1.0000
  P   P23       1.0  0.47822  0.67279  0.47644  1.0000
  C   C662      1.0  0.40607  0.72343  0.38291  1.0000
  C   C663      1.0  0.41899  0.74883  0.38132  1.0000
  C   C664      1.0  0.44750  0.75021  0.37826  1.0000
  C   C665      1.0  0.13691  0.93878  0.51843  1.0000
  C   C666      1.0  0.45041  0.70081  0.37802  1.0000
  C   C667      1.0  0.42187  0.69944  0.38126  1.0000
  H   H530      1.0  0.40712  0.76738  0.38323  1.0000
  H   H531      1.0  0.13799  0.80073  0.60987  1.0000
  H   H532      1.0  0.17404  0.78896  0.42374  1.0000
  H   H533      1.0  0.41202  0.67970  0.38274  1.0000
  C   C668      1.0  0.09434  0.62297  0.49780  1.0000
  C   C669      1.0  0.11611  0.61178  0.48364  1.0000
  C   C670      1.0  0.11674  0.61393  0.45620  1.0000
  C   C671      1.0  0.09599  0.62776  0.44237  1.0000
  C   C672      1.0  0.07449  0.63935  0.45659  1.0000
  C   C673      1.0  0.07362  0.63681  0.48398  1.0000
  H   H534      1.0  0.13223  0.60108  0.49378  1.0000
  H   H535      1.0  0.13335  0.60458  0.44560  1.0000
  H   H536      1.0  0.05826  0.64989  0.44645  1.0000
  H   H537      1.0  0.05663  0.64554  0.49455  1.0000
  C   C674      1.0  0.28360  0.82151  0.52989  1.0000
  C   C675      1.0  0.26023  0.83131  0.51727  1.0000
  C   C676      1.0  0.25778  0.82914  0.48999  1.0000
  C   C677      1.0  0.27805  0.81622  0.47484  1.0000
  C   C678      1.0  0.30105  0.80568  0.48753  1.0000
  C   C679      1.0  0.30392  0.80863  0.51475  1.0000
  H   H538      1.0  0.24429  0.84105  0.52845  1.0000
  H   H539      1.0  0.23997  0.83757  0.48059  1.0000
  H   H540      1.0  0.31697  0.79586  0.47633  1.0000
  H   H541      1.0  0.32214  0.80101  0.52415  1.0000
  C   C680      1.0  0.19017  0.74275  0.62823  1.0000
  C   C681      1.0  0.16683  0.72624  0.62598  1.0000
  C   C682      1.0  0.16910  0.69837  0.61939  1.0000
  C   C683      1.0  0.19486  0.68683  0.61514  1.0000
  C   C684      1.0  0.21815  0.70349  0.61686  1.0000
  C   C685      1.0  0.21584  0.73135  0.62335  1.0000
  H   H542      1.0  0.42959  0.60898  0.41820  1.0000
  H   H543      1.0  0.15102  0.68575  0.61804  1.0000
  H   H544      1.0  0.21783  0.88601  0.53475  1.0000
  C   C686      1.0  0.45062  0.63733  0.44314  1.0000
  C   C687      1.0  0.18288  0.93762  0.61341  1.0000
  C   C688      1.0  0.20826  0.94919  0.60771  1.0000
  H   H545      1.0  0.43190  0.64458  0.45199  1.0000
  C   C689      1.0  0.13460  0.68140  0.55097  1.0000
  H   H546      1.0  0.44079  0.69363  0.43624  1.0000
  C   C690      1.0  0.15467  0.78345  0.57485  1.0000
  H   H547      1.0  0.22636  0.93649  0.60784  1.0000
  C   C691      1.0  0.15426  0.83694  0.55563  1.0000
  H   H548      1.0  0.14588  0.49791  0.60059  1.0000
  P   P24       1.0  0.18015  0.76135  0.53122  1.0000
  C   C692      1.0  0.17049  0.84952  0.31807  1.0000
  C   C693      1.0  0.24592  0.52900  0.48605  1.0000
  H   H549      1.0  0.38404  0.74930  0.33406  1.0000
  H   H550      1.0  0.45739  0.76998  0.37746  1.0000
  C   C694      1.0  0.15756  0.75837  0.48112  1.0000
  C   C695      1.0  0.19691  0.78783  0.48605  1.0000
  H   H551      1.0  0.23141  0.52006  0.44758  1.0000
  C   C696      1.0  0.17704  0.70611  0.54532  1.0000
  H   H552      1.0  0.44843  0.62773  0.55800  1.0000
  H   H553      1.0  0.15782  0.89776  0.48593  1.0000
  C   C697      1.0  0.25344  0.51811  0.51007  1.0000
  C   C698      1.0  0.19775  0.98005  0.47973  1.0000
  H   H554      1.0  0.21049  0.80862  0.45149  1.0000
  H   H555      1.0  0.15234  0.68382  0.34757  1.0000
  H   H556      1.0  0.09313  0.94215  0.52158  1.0000
  H   H557      1.0  0.13760  0.84822  0.59288  1.0000
  S   S107      1.0  0.05159  0.69904  0.31672  1.0000
  S   S108      1.0  0.18652  0.77674  0.63941  1.0000
  H   H558      1.0  0.24617  0.55095  0.48305  1.0000
  C   C699      1.0  0.46113  0.64736  0.52247  1.0000
  C   C700      1.0  0.19909  0.91383  0.48719  1.0000
  C   C701      1.0  0.25311  0.89784  0.55655  1.0000
  H   H559      1.0  0.16463  0.61317  0.37758  1.0000
  H   H560      1.0  0.09780  0.70441  0.54453  1.0000
  H   H561      1.0  0.28702  0.91522  0.57723  1.0000
  C   C702      1.0  0.22434  0.76647  0.56510  1.0000
  C   C703      1.0  0.25309  0.48980  0.51406  1.0000
  C   C704      1.0  0.13377  0.72919  0.53859  1.0000
  H   H562      1.0  0.18487  0.86219  0.35569  1.0000
  H   H563      1.0  0.16750  0.86465  0.45109  1.0000
  H   H564      1.0  0.20977  0.61188  0.35536  1.0000
  C   C705      1.0  0.26825  0.71013  0.46711  1.0000
  C   C706      1.0  0.26259  0.73633  0.45769  1.0000
  C   C707      1.0  0.23780  0.74156  0.44532  1.0000
  C   C708      1.0  0.21798  0.72105  0.44354  1.0000
  C   C709      1.0  0.22297  0.69499  0.45405  1.0000
  C   C710      1.0  0.24868  0.68944  0.46503  1.0000
  P   P25       1.0  0.19771  0.66812  0.45147  1.0000
  C   C711      1.0  0.20204  0.64376  0.47763  1.0000
  C   C712      1.0  0.16368  0.68237  0.45300  1.0000
  C   C713      1.0  0.15224  0.69448  0.43079  1.0000
  C   C714      1.0  0.12520  0.70358  0.43104  1.0000
  C   C715      1.0  0.10935  0.70076  0.45343  1.0000
  C   C716      1.0  0.12067  0.68907  0.47571  1.0000
  C   C717      1.0  0.14773  0.67992  0.47557  1.0000
  C   C718      1.0  0.19737  0.61574  0.47349  1.0000
  C   C719      1.0  0.20177  0.59687  0.49349  1.0000
  C   C720      1.0  0.21095  0.60578  0.51768  1.0000
  C   C721      1.0  0.21471  0.63370  0.52227  1.0000
  C   C722      1.0  0.21003  0.65267  0.50240  1.0000
  C   C723      1.0  0.20161  0.65072  0.42078  1.0000
  C   C724      1.0  0.22698  0.65012  0.40807  1.0000
  C   C725      1.0  0.22995  0.63594  0.38466  1.0000
  C   C726      1.0  0.20760  0.62241  0.37373  1.0000
  C   C727      1.0  0.18222  0.62314  0.38617  1.0000
  C   C728      1.0  0.17924  0.63715  0.40961  1.0000
  H   H565      1.0  0.28797  0.70581  0.47569  1.0000
  H   H566      1.0  0.27770  0.75246  0.45924  1.0000
  H   H567      1.0  0.23428  0.76146  0.43667  1.0000
  H   H568      1.0  0.19908  0.72556  0.43363  1.0000
  H   H569      1.0  0.25374  0.66911  0.47185  1.0000
  H   H570      1.0  0.16393  0.69618  0.41296  1.0000
  H   H571      1.0  0.11639  0.71227  0.41363  1.0000
  H   H572      1.0  0.08807  0.70691  0.45327  1.0000
  H   H573      1.0  0.10810  0.68601  0.49278  1.0000
  H   H574      1.0  0.15563  0.67013  0.49284  1.0000
  H   H575      1.0  0.19013  0.60838  0.45496  1.0000
  H   H576      1.0  0.19768  0.57535  0.49037  1.0000
  H   H577      1.0  0.21436  0.59110  0.53317  1.0000
  H   H578      1.0  0.22087  0.64063  0.54139  1.0000
  H   H579      1.0  0.21269  0.67426  0.50636  1.0000
  H   H580      1.0  0.24441  0.66091  0.41590  1.0000
  H   H581      1.0  0.24943  0.63615  0.37466  1.0000
  H   H582      1.0  0.14015  0.75711  0.44273  1.0000
  H   H583      1.0  0.15935  0.63747  0.41888  1.0000
  C   C729      1.0  0.16310  0.68200  0.55143  1.0000
  H   H584      1.0  0.27756  0.74064  0.51500  1.0000
  C   C730      1.0  0.21009  0.97714  0.60125  1.0000
  C   C731      1.0  0.27115  0.75604  0.55353  1.0000
  H   H585      1.0  0.24204  0.92394  0.48386  1.0000
  C   C732      1.0  0.16448  0.81565  0.54032  1.0000
  C   C733      1.0  0.44906  0.69547  0.47758  1.0000
  H   H586      1.0  0.22855  0.74149  0.50351  1.0000
  C   C734      1.0  0.15602  0.76564  0.45487  1.0000
  H   H587      1.0  0.19910  0.70615  0.54640  1.0000
  C   C735      1.0  0.22542  0.91154  0.47651  1.0000
  C   C736      1.0  0.26259  0.74741  0.52905  1.0000
  C   C737      1.0  0.23488  0.74828  0.52254  1.0000
  C   C738      1.0  0.22969  0.90309  0.54192  1.0000
  H   H588      1.0  0.20387  0.96535  0.46516  1.0000
  C   C739      1.0  0.16108  0.92918  0.53000  1.0000
  C   C740      1.0  0.15959  0.91520  0.55371  1.0000
  C   C741      1.0  0.13427  0.91085  0.56565  1.0000
  C   C742      1.0  0.11034  0.92045  0.55407  1.0000
  H   H589      1.0  0.30555  0.66838  0.33128  1.0000
  Fe  Fe55      1.0  0.05307  0.65309  0.31774  1.0000
  H   H590      1.0  0.17786  0.90801  0.56333  1.0000
  H   H591      1.0  0.13332  0.90052  0.58425  1.0000
  H   H592      1.0  0.09084  0.91738  0.56361  1.0000
  C   C743      1.0  0.34683  0.68318  0.33408  1.0000
  C   C744      1.0  0.19208  0.97173  0.50526  1.0000
  C   C745      1.0  0.42013  0.72709  0.50159  1.0000
  H   H593      1.0  0.25876  0.77223  0.59046  1.0000
  C   C746      1.0  0.11993  0.70500  0.54468  1.0000
  C   C747      1.0  0.23078  0.89253  0.45688  1.0000
  C   C748      1.0  0.41292  0.72055  0.45560  1.0000
  H   H594      1.0  0.41467  0.73712  0.51961  1.0000
  C   C749      1.0  0.26892  0.91946  0.56580  1.0000
  C   C750      1.0  0.19540  0.79494  0.45981  1.0000
  C   C751      1.0  0.26129  0.94643  0.56045  1.0000
  C   C752      1.0  0.16462  0.78865  0.54975  1.0000
  H   H595      1.0  0.15552  0.76303  0.58300  1.0000
  C   C753      1.0  0.40545  0.73287  0.47899  1.0000
  H   H596      1.0  0.17263  0.82053  0.52140  1.0000
  C   C754      1.0  0.21564  0.75846  0.54033  1.0000
  C   C755      1.0  0.46333  0.72626  0.37673  1.0000
  H   H597      1.0  0.14694  0.73500  0.62971  1.0000
  H   H598      1.0  0.21289  0.79658  0.49790  1.0000
  H   H599      1.0  0.21434  0.86068  0.43277  1.0000
  P   P26       1.0  0.19351  0.93616  0.51467  1.0000
  C   C756      1.0  0.16246  0.72985  0.53857  1.0000
  C   C757      1.0  0.25201  0.76528  0.57160  1.0000
  H   H600      1.0  0.21551  0.76326  0.34853  1.0000
  H   H601      1.0  0.44083  0.65495  0.51829  1.0000
  H   H602      1.0  0.13976  0.94552  0.61758  1.0000
  C   C758      1.0  0.17817  0.89688  0.47778  1.0000
  H   H603      1.0  0.29267  0.75620  0.55839  1.0000
  H   H604      1.0  0.45370  0.70508  0.51837  1.0000
  C   C759      1.0  0.23796  0.95181  0.54564  1.0000
  H   H605      1.0  0.15459  0.85770  0.54838  1.0000
  H   H606      1.0  0.38429  0.79600  0.35153  1.0000
  C   C760      1.0  0.21484  0.81340  0.31810  1.0000
  C   C761      1.0  0.14467  0.80482  0.59017  1.0000
  H   H607      1.0  0.38853  0.74721  0.47946  1.0000
  C   C762      1.0  0.20990  0.87574  0.44766  1.0000
  C   C763      1.0  0.17498  0.78379  0.44419  1.0000
  C   C764      1.0  0.46528  0.63167  0.54487  1.0000
  C   C765      1.0  0.17801  0.76953  0.49698  1.0000
  C   C766      1.0  0.23767  0.51157  0.46608  1.0000
  C   C767      1.0  0.21040  0.83078  0.33924  1.0000
  H   H608      1.0  0.25911  0.53165  0.52583  1.0000
  H   H609      1.0  0.34950  0.67628  0.35392  1.0000
  C   C768      1.0  0.44205  0.70869  0.50085  1.0000
  H   H610      1.0  0.12388  0.66267  0.55569  1.0000
  H   H611      1.0  0.23814  0.69469  0.61360  1.0000
  C   C769      1.0  0.14452  0.83158  0.58062  1.0000
  H   H612      1.0  0.46241  0.68224  0.37698  1.0000
  C   C770      1.0  0.44925  0.61688  0.42421  1.0000
  H   H613      1.0  0.17435  0.66383  0.55702  1.0000
  H   H614      1.0  0.12212  0.74741  0.53398  1.0000
  H   H615      1.0  0.14278  0.74410  0.48877  1.0000
  C   C771      1.0  0.43483  0.70219  0.45478  1.0000
  C   C772      1.0  0.22202  0.93012  0.53617  1.0000
  C   C773      1.0  0.32208  0.67877  0.32133  1.0000
  S   S109      1.0  0.12376  0.73032  0.32556  1.0000
  H   H616      1.0  0.20999  0.77387  0.57944  1.0000
  H   H617      1.0  0.22432  0.83041  0.35556  1.0000
  H   H618      1.0  0.25132  0.89027  0.44924  1.0000
  C   C774      1.0  0.38721  0.79275  0.33096  1.0000
  H   H619      1.0  0.00776  0.75356  0.31755  1.0000
  C   C775      1.0  0.18820  0.84874  0.33928  1.0000
  H   H620      1.0  0.11544  0.49324  0.64659  1.0000
  H   H621      1.0  0.38677  0.70081  0.33208  1.0000
  H   H622      1.0  0.16752  0.76914  0.33359  1.0000
  C   C776      1.0  0.18770  0.49421  0.58820  1.0000
  C   C777      1.0  0.11165  0.93439  0.53042  1.0000
  C   C778      1.0  0.47600  0.64811  0.45058  1.0000
  C   C779      1.0  0.47322  0.60636  0.41333  1.0000
  H   H623      1.0  0.27339  0.96321  0.56789  1.0000
  C   C780      1.0  0.36789  0.69739  0.32166  1.0000
  H   H624      1.0  0.23264  0.97287  0.54170  1.0000
  C   C781      1.0  0.16134  0.98224  0.60674  1.0000
  H   H625      1.0  0.09582  0.72431  0.64156  1.0000
  H   H626      1.0  0.07119  0.68287  0.62650  1.0000
  H   H627      1.0  0.15341  0.86364  0.31801  1.0000
  C   C782      1.0  0.08501  0.68162  0.64287  1.0000
  H   H628      1.0  0.07361  0.51665  0.63203  1.0000
  H   H629      1.0  0.39022  0.83575  0.32238  1.0000
  C   C783      1.0  0.38683  0.76623  0.32084  1.0000
  C   C784      1.0  0.16336  0.48445  0.59899  1.0000
  H   H630      1.0  0.22918  0.48405  0.57800  1.0000
  S   S110      1.0  0.28087  0.87241  0.69184  1.0000
  C   C785      1.0  0.18522  0.52929  0.95293  1.0000
  Fe  Fe56      1.0  0.30880  0.88700  0.84729  1.0000
  S   S111      1.0  0.30786  0.93253  0.84260  1.0000
  S   S112      1.0  0.30016  0.85627  0.81442  1.0000
  Fe  Fe57      1.0  0.31820  0.89112  0.90696  1.0000
  S   S113      1.0  0.31583  0.93689  0.90558  1.0000
  S   S114      1.0  0.33337  0.86547  0.94184  1.0000
  Fe  Fe58      1.0  0.28073  0.93238  0.87778  1.0000
  C   C786      1.0  0.46008  0.53821  0.78704  1.0000
  Fe  Fe59      1.0  0.34302  0.93413  0.87059  1.0000
  H   H631      1.0  0.17407  0.57467  0.86527  1.0000
  S   S115      1.0  0.28033  0.88639  0.88188  1.0000
  S   S116      1.0  0.34675  0.88833  0.87251  1.0000
  Fe  Fe60      1.0  0.08237  0.54265  0.81766  1.0000
  S   S117      1.0  0.07741  0.49714  0.81772  1.0000
  S   S118      1.0  0.10469  0.56369  0.78330  1.0000
  Fe  Fe61      1.0  0.06564  0.54553  0.87650  1.0000
  S   S119      1.0  0.06079  0.49989  0.87930  1.0000
  S   S120      1.0  0.05720  0.57531  0.91053  1.0000
  Fe  Fe62      1.0  0.09950  0.49736  0.85574  1.0000
  H   H632      1.0  0.21037  0.74308  0.68101  1.0000
  Fe  Fe63      1.0  0.03913  0.50336  0.84109  1.0000
  C   C787      1.0  0.17761  0.94970  0.69242  1.0000
  S   S121      1.0  0.10618  0.54267  0.85536  1.0000
  S   S122      1.0  0.04205  0.54943  0.83863  1.0000
  C   C788      1.0  0.04929  0.57036  0.94429  1.0000
  C   C789      1.0  0.04093  0.59303  0.95926  1.0000
  H   H633      1.0  0.15836  0.92286  0.88945  1.0000
  H   H634      1.0  0.03862  0.61274  0.94994  1.0000
  H   H635      1.0  0.05869  0.52737  0.94583  1.0000
  H   H636      1.0  0.44006  0.49950  0.79353  1.0000
  C   C790      1.0  0.43742  0.59292  0.75400  1.0000
  H   H637      1.0  0.25872  0.50114  0.94187  1.0000
  C   C791      1.0  0.99238  0.87105  0.95621  1.0000
  C   C792      1.0  0.37033  0.97785  0.78127  1.0000
  H   H638      1.0  0.17476  0.94404  0.82539  1.0000
  H   H639      1.0  0.34849  0.91116  0.78694  1.0000
  C   C793      1.0  0.43605  0.97645  0.76996  1.0000
  H   H640      1.0  0.41288  0.50736  0.93390  1.0000
  H   H641      1.0  0.25646  0.94265  0.68804  1.0000
  C   C794      1.0  0.98561  0.97610  0.92003  1.0000
  C   C795      1.0  0.19679  0.52060  0.66131  1.0000
  H   H642      1.0  0.46686  0.83982  0.93305  1.0000
  C   C796      1.0  0.35640  0.97297  0.80462  1.0000
  S   S123      1.0  0.21337  0.84769  0.65812  1.0000
  H   H643      1.0  0.22715  0.90291  0.67862  1.0000
  H   H644      1.0  0.21141  0.53394  0.65184  1.0000
  H   H645      1.0  0.41969  0.51427  0.84648  1.0000
  C   C797      1.0  0.16104  0.57782  0.88201  1.0000
  H   H646      1.0  0.02008  0.53073  0.90883  1.0000
  H   H647      1.0  0.17264  0.55372  0.67663  1.0000
  C   C798      1.0  0.03380  0.90875  0.85306  1.0000
  C   C799      1.0  0.42188  0.88663  0.80299  1.0000
  C   C800      1.0  0.23447  0.94476  0.68942  1.0000
  H   H648      1.0  0.10677  0.61602  0.90171  1.0000
  C   C801      1.0  0.09628  0.57004  0.69365  1.0000
  C   C802      1.0  0.12064  0.57703  0.70620  1.0000
  C   C803      1.0  0.12311  0.57385  0.73340  1.0000
  C   C804      1.0  0.10130  0.56392  0.74864  1.0000
  C   C805      1.0  0.07719  0.55633  0.73602  1.0000
  C   C806      1.0  0.07469  0.55957  0.70882  1.0000
  H   H649      1.0  0.13733  0.58548  0.69503  1.0000
  H   H650      1.0  0.14174  0.58015  0.74282  1.0000
  H   H651      1.0  0.06013  0.54878  0.74729  1.0000
  H   H652      1.0  0.05563  0.55436  0.69951  1.0000
  C   C807      1.0  0.28561  0.86722  0.72596  1.0000
  C   C808      1.0  0.29212  0.88987  0.74165  1.0000
  C   C809      1.0  0.29599  0.88710  0.76871  1.0000
  C   C810      1.0  0.29424  0.86134  0.78048  1.0000
  C   C811      1.0  0.28785  0.83862  0.76480  1.0000
  C   C812      1.0  0.28345  0.84150  0.73780  1.0000
  H   H653      1.0  0.29390  0.90983  0.73285  1.0000
  H   H654      1.0  0.30036  0.90489  0.78042  1.0000
  H   H655      1.0  0.28640  0.81856  0.77361  1.0000
  H   H656      1.0  0.27876  0.82375  0.72612  1.0000
  H   H657      1.0  0.07936  0.70964  0.77942  1.0000
  C   C813      1.0  0.31973  0.48970  0.79154  1.0000
  C   C814      1.0  0.18093  0.71375  0.69491  1.0000
  P   P27       1.0  0.15084  0.54293  0.95389  1.0000
  H   H658      1.0  0.00243  0.56802  0.88099  1.0000
  C   C815      1.0  0.23403  0.53713  0.94798  1.0000
  C   C816      1.0  0.18564  0.53184  0.75290  1.0000
  C   C817      1.0  0.17654  0.53941  0.77759  1.0000
  C   C818      1.0  0.18366  0.52366  0.79917  1.0000
  C   C819      1.0  0.20026  0.50061  0.79618  1.0000
  H   H659      1.0  0.14363  0.84050  0.73405  1.0000
  C   C820      1.0  0.20216  0.50867  0.74978  1.0000
  H   H660      1.0  0.32203  0.97643  0.95868  1.0000
  H   H661      1.0  0.35580  0.95281  0.81316  1.0000
  H   H662      1.0  0.20144  0.61321  0.66093  1.0000
  H   H663      1.0  0.16883  0.65090  0.66658  1.0000
  C   C821      1.0  0.15512  0.51460  0.68597  1.0000
  C   C822      1.0  0.37298  0.88080  0.80596  1.0000
  H   H664      1.0  0.25258  0.48555  0.71893  1.0000
  H   H665      1.0  0.20541  0.48863  0.81323  1.0000
  C   C823      1.0  0.04337  0.92618  0.87247  1.0000
  H   H666      1.0  0.07805  0.63850  0.64915  1.0000
  H   H667      1.0  0.17945  0.54366  0.73610  1.0000
  H   H668      1.0  0.16340  0.55708  0.78001  1.0000
  H   H669      1.0  0.17593  0.52906  0.81823  1.0000
  C   C824      1.0  0.33197  0.92556  0.69391  1.0000
  H   H670      1.0  0.13534  0.97557  0.82487  1.0000
  H   H671      1.0  0.45559  0.93026  0.82758  1.0000
  C   C825      1.0  0.42014  0.63897  0.78170  1.0000
  H   H672      1.0  0.44416  0.57546  0.74271  1.0000
  C   C826      1.0  0.39933  0.87184  0.81185  1.0000
  C   C827      1.0  0.18620  0.83968  0.72363  1.0000
  C   C828      1.0  0.33100  0.95232  0.70338  1.0000
  C   C829      1.0  0.08871  0.69171  0.77079  1.0000
  C   C830      1.0  0.08129  0.66561  0.77941  1.0000
  C   C831      1.0  0.09263  0.64247  0.76769  1.0000
  C   C832      1.0  0.11168  0.64545  0.74767  1.0000
  C   C833      1.0  0.12023  0.67151  0.73970  1.0000
  C   C834      1.0  0.10781  0.69466  0.75075  1.0000
  P   P28       1.0  0.14339  0.67523  0.71261  1.0000
  H   H673      1.0  0.21785  0.76394  0.72414  1.0000
  C   C835      1.0  0.16571  0.64615  0.70840  1.0000
  C   C836      1.0  0.17548  0.63154  0.72996  1.0000
  C   C837      1.0  0.19367  0.60971  0.72654  1.0000
  C   C838      1.0  0.20281  0.60286  0.70166  1.0000
  C   C839      1.0  0.19381  0.61787  0.68021  1.0000
  C   C840      1.0  0.17526  0.63935  0.68350  1.0000
  H   H674      1.0  0.03605  0.94314  0.91015  1.0000
  C   C841      1.0  0.20364  0.74708  0.72210  1.0000
  H   H675      1.0  0.41471  0.94892  0.71263  1.0000
  H   H676      1.0  0.38865  0.74376  0.97237  1.0000
  C   C842      1.0  0.17160  0.71499  0.74105  1.0000
  C   C843      1.0  0.22264  0.96982  0.69629  1.0000
  H   H677      1.0  0.10993  0.63514  0.68577  1.0000
  C   C844      1.0  0.05213  0.54504  0.95683  1.0000
  S   S124      1.0  0.11851  0.96542  0.88260  1.0000
  C   C845      1.0  0.12433  0.96645  0.78539  1.0000
  H   H678      1.0  0.06196  0.93782  0.86939  1.0000
  H   H679      1.0  0.08641  0.62215  0.77384  1.0000
  C   C846      1.0  0.21792  0.92222  0.68415  1.0000
  H   H680      1.0  0.11269  0.71498  0.74371  1.0000
  H   H681      1.0  0.16918  0.63707  0.74941  1.0000
  H   H682      1.0  0.20092  0.59834  0.74323  1.0000
  H   H683      1.0  0.13155  0.50911  0.91062  1.0000
  C   C847      1.0  0.44893  0.85283  0.93312  1.0000
  C   C848      1.0  0.20590  0.49459  0.87723  1.0000
  S   S125      1.0  0.37462  0.96830  0.87179  1.0000
  H   H684      1.0  0.03356  0.92703  0.96090  1.0000
  C   C849      1.0  0.46245  0.97146  0.84057  1.0000
  H   H685      1.0  0.32523  0.51842  0.94625  1.0000
  H   H686      1.0  0.16190  0.70674  0.75822  1.0000
  C   C850      1.0  0.47981  0.96039  0.90584  1.0000
  H   H687      1.0  0.17926  0.54522  0.90358  1.0000
  C   C851      1.0  0.12329  0.60124  0.90255  1.0000
  C   C852      1.0  0.98618  0.95524  0.93876  1.0000
  P   P29       1.0  0.38622  0.95029  0.76331  1.0000
  C   C853      1.0  0.45499  0.97761  0.95183  1.0000
  C   C854      1.0  0.27111  0.96371  0.77765  1.0000
  C   C855      1.0  0.41881  0.96307  0.75230  1.0000
  C   C856      1.0  0.11694  0.70321  0.67234  1.0000
  C   C857      1.0  0.32893  0.79524  0.96458  1.0000
  P   P30       1.0  0.42820  0.92831  0.96104  1.0000
  C   C858      1.0  0.39481  0.94428  0.96115  1.0000
  C   C859      1.0  0.98662  0.96221  0.96518  1.0000
  C   C860      1.0  0.41808  0.91053  0.78847  1.0000
  H   H688      1.0  0.17823  0.70465  0.67594  1.0000
  C   C861      1.0  0.38704  0.96110  0.94030  1.0000
  C   C862      1.0  0.19935  0.73538  0.69775  1.0000
  C   C863      1.0  0.00386  0.91521  0.89913  1.0000
  H   H689      1.0  0.39952  0.59678  0.73308  1.0000
  H   H690      1.0  0.38403  0.63744  0.75788  1.0000
  C   C864      1.0  0.42664  0.89542  0.94529  1.0000
  C   C865      1.0  0.40275  0.88663  0.93283  1.0000
  C   C866      1.0  0.40197  0.86102  0.92080  1.0000
  C   C867      1.0  0.42500  0.84413  0.92091  1.0000
  H   H691      1.0  0.45823  0.63613  0.80197  1.0000
  C   C868      1.0  0.15450  0.96541  0.87890  1.0000
  C   C869      1.0  0.47026  0.98208  0.73643  1.0000
  H   H692      1.0  0.34952  0.88549  0.69836  1.0000
  C   C870      1.0  0.44970  0.87831  0.94544  1.0000
  H   H693      1.0  0.42426  0.82437  0.91144  1.0000
  C   C871      1.0  0.41221  0.60504  0.74839  1.0000
  H   H694      1.0  0.33066  0.78539  0.92398  1.0000
  C   C872      1.0  0.45934  0.50977  0.79011  1.0000
  C   C873      1.0  0.45316  0.96892  0.71868  1.0000
  H   H695      1.0  0.40797  0.92773  0.84466  1.0000
  H   H696      1.0  0.19370  0.74548  0.76276  1.0000
  C   C874      1.0  0.05074  0.49274  0.69016  1.0000
  C   C875      1.0  0.45107  0.95065  0.94328  1.0000
  H   H697      1.0  0.38458  0.89932  0.93240  1.0000
  H   H698      1.0  0.38331  0.85429  0.91146  1.0000
  C   C876      1.0  0.14073  0.59790  0.88134  1.0000
  H   H699      1.0  0.08005  0.96568  0.92591  1.0000
  H   H700      1.0  0.04482  0.90712  0.83489  1.0000
  C   C877      1.0  0.21221  0.96446  0.87540  1.0000
  C   C878      1.0  0.05034  0.50581  0.66602  1.0000
  H   H701      1.0  0.45990  0.96595  0.69885  1.0000
  H   H702      1.0  0.15556  0.95121  0.69304  1.0000
  S   S126      1.0  0.09124  0.57482  0.65948  1.0000
  C   C879      1.0  0.31094  0.55676  0.96141  1.0000
  C   C880      1.0  0.40856  0.96854  0.86008  1.0000
  H   H703      1.0  0.10712  0.98044  0.78525  1.0000
  C   C881      1.0  0.36508  0.94083  0.73597  1.0000
  C   C882      1.0  0.37946  0.49658  0.95938  1.0000
  C   C883      1.0  0.13124  0.48644  0.74487  1.0000
  H   H704      1.0  0.20910  0.92201  0.88610  1.0000
  H   H705      1.0  0.47011  0.50922  0.84927  1.0000
  H   H706      1.0  0.44117  0.54958  0.78837  1.0000
  C   C884      1.0  0.17988  0.87010  0.85631  1.0000
  C   C885      1.0  0.20460  0.85721  0.86230  1.0000
  C   C886      1.0  0.22665  0.85907  0.84515  1.0000
  C   C887      1.0  0.22426  0.87440  0.82237  1.0000
  C   C888      1.0  0.19971  0.88785  0.81647  1.0000
  C   C889      1.0  0.17726  0.88503  0.83326  1.0000
  P   P31       1.0  0.19698  0.90625  0.78627  1.0000
  C   C890      1.0  0.16861  0.92990  0.78595  1.0000
  C   C891      1.0  0.22687  0.92753  0.78275  1.0000
  C   C892      1.0  0.23786  0.93330  0.75819  1.0000
  C   C893      1.0  0.26013  0.95108  0.75572  1.0000
  C   C894      1.0  0.23838  0.50900  0.94560  1.0000
  H   H707      1.0  0.26768  0.96898  0.81905  1.0000
  C   C895      1.0  0.23794  0.94044  0.80467  1.0000
  C   C896      1.0  0.16247  0.94566  0.80798  1.0000
  C   C897      1.0  0.18993  0.73675  0.74379  1.0000
  H   H708      1.0  0.25109  0.55108  0.94635  1.0000
  C   C898      1.0  0.13071  0.95129  0.76324  1.0000
  C   C899      1.0  0.15314  0.93361  0.76327  1.0000
  C   C900      1.0  0.19297  0.88020  0.76170  1.0000
  C   C901      1.0  0.16710  0.86881  0.75705  1.0000
  C   C902      1.0  0.12655  0.51519  0.95204  1.0000
  H   H709      1.0  0.25380  0.50012  0.80923  1.0000
  C   C903      1.0  0.21215  0.85010  0.72889  1.0000
  C   C904      1.0  0.21562  0.86992  0.74817  1.0000
  H   H710      1.0  0.16274  0.86858  0.86954  1.0000
  H   H711      1.0  0.20670  0.84573  0.88018  1.0000
  H   H712      1.0  0.24576  0.84879  0.84945  1.0000
  H   H713      1.0  0.24163  0.87570  0.80935  1.0000
  H   H714      1.0  0.15778  0.89436  0.82876  1.0000
  H   H715      1.0  0.22912  0.92432  0.74094  1.0000
  H   H716      1.0  0.26889  0.95503  0.73680  1.0000
  H   H717      1.0  0.13739  0.52373  0.69506  1.0000
  C   C905      1.0  0.42856  0.49425  0.84960  1.0000
  H   H718      1.0  0.22944  0.93692  0.82383  1.0000
  H   H719      1.0  0.21505  0.51440  0.88054  1.0000
  H   H720      1.0  0.28834  0.97747  0.77581  1.0000
  C   C906      1.0  0.36908  0.90470  0.79151  1.0000
  H   H721      1.0  0.11819  0.95316  0.74603  1.0000
  H   H722      1.0  0.15825  0.92283  0.74559  1.0000
  H   H723      1.0  0.14951  0.87544  0.76817  1.0000
  C   C907      1.0  0.40351  0.62798  0.76232  1.0000
  H   H724      1.0  0.30033  0.51383  0.82123  1.0000
  C   C908      1.0  0.45387  0.60334  0.77396  1.0000
  H   H725      1.0  0.23597  0.87703  0.75257  1.0000
  C   C909      1.0  0.39159  0.92001  0.78292  1.0000
  C   C910      1.0  0.16634  0.70386  0.71642  1.0000
  C   C911      1.0  0.44536  0.62687  0.78736  1.0000
  H   H726      1.0  0.06638  0.66324  0.79482  1.0000
  C   C912      1.0  0.00975  0.89390  0.85692  1.0000
  H   H727      1.0  0.35554  0.86914  0.81259  1.0000
  C   C913      1.0  0.16370  0.84885  0.73789  1.0000
  C   C914      1.0  0.36603  0.91401  0.72617  1.0000
  H   H728      1.0  0.18359  0.82439  0.70859  1.0000
  C   C915      1.0  0.37581  0.93906  0.98102  1.0000
  S   S127      1.0  0.00152  0.97184  0.83405  1.0000
  H   H729      1.0  0.22962  0.84283  0.71796  1.0000
  C   C916      1.0  0.34975  0.95073  0.98015  1.0000
  C   C917      1.0  0.08891  0.65663  0.65554  1.0000
  H   H730      1.0  0.46834  0.88485  0.95488  1.0000
  C   C918      1.0  0.17786  0.49272  0.87126  1.0000
  C   C919      1.0  0.09923  0.95346  0.96156  1.0000
  H   H731      1.0  0.40220  0.85342  0.82323  1.0000
  C   C920      1.0  0.14674  0.56462  0.92558  1.0000
  H   H732      1.0  0.21716  0.58621  0.69900  1.0000
  C   C921      1.0  0.18985  0.50099  0.95074  1.0000
  C   C922      1.0  0.41994  0.94610  0.84724  1.0000
  H   H733      1.0  0.16549  0.51098  0.86970  1.0000
  H   H734      1.0  0.20841  0.50304  0.73042  1.0000
  H   H735      1.0  0.40074  0.96465  0.92411  1.0000
  H   H736      1.0  0.44236  0.87972  0.80753  1.0000
  H   H737      1.0  0.98490  0.97122  0.89951  1.0000
  C   C923      1.0  0.12181  0.50203  0.92827  1.0000
  H   H738      1.0  0.36824  0.75165  0.92928  1.0000
  C   C924      1.0  0.44680  0.94762  0.83752  1.0000
  C   C925      1.0  0.21001  0.49308  0.77148  1.0000
  C   C926      1.0  0.34244  0.96787  0.95964  1.0000
  C   C927      1.0  0.98837  0.55568  0.89227  1.0000
  C   C928      1.0  0.16389  0.56112  0.90389  1.0000
  H   H739      1.0  0.11934  0.62741  0.73812  1.0000
  H   H740      1.0  0.12720  0.72157  0.67883  1.0000
  H   H741      1.0  0.10073  0.56492  0.97709  1.0000
  C   C929      1.0  0.16922  0.94120  0.88386  1.0000
  C   C930      1.0  0.18954  0.92464  0.68572  1.0000
  C   C931      1.0  0.19905  0.49226  0.65862  1.0000
  C   C932      1.0  0.25973  0.95868  0.80204  1.0000
  C   C933      1.0  0.21631  0.49099  0.94694  1.0000
  C   C934      1.0  0.02851  0.92934  0.89545  1.0000
  H   H742      1.0  0.43595  0.92148  0.78185  1.0000
  H   H743      1.0  0.13792  0.61029  0.86409  1.0000
  C   C935      1.0  0.19797  0.94064  0.88196  1.0000
  C   C936      1.0  0.99499  0.89680  0.88003  1.0000
  H   H744      1.0  0.42990  0.97921  0.79003  1.0000
  Fe  Fe64      1.0  0.25903  0.85106  0.65763  1.0000
  C   C937      1.0  0.12145  0.67799  0.68470  1.0000
  C   C938      1.0  0.29721  0.50025  0.80489  1.0000
  P   P32       1.0  0.98484  0.91991  0.92882  1.0000
  H   H745      1.0  0.41360  0.65704  0.79219  1.0000
  C   C939      1.0  0.19408  0.97259  0.69747  1.0000
  C   C940      1.0  0.17494  0.53174  0.67520  1.0000
  C   C941      1.0  0.12625  0.58473  0.92456  1.0000
  C   C942      1.0  0.47388  0.48407  0.97712  1.0000
  C   C943      1.0  0.33807  0.87218  0.97571  1.0000
  C   C944      1.0  0.33902  0.78119  0.94305  1.0000
  C   C945      1.0  0.10715  0.65476  0.67627  1.0000
  S   S128      1.0  0.24838  0.96582  0.87456  1.0000
  C   C946      1.0  0.00161  0.89790  0.95204  1.0000
  H   H746      1.0  0.37772  0.51702  0.96724  1.0000
  C   C947      1.0  0.14026  0.96370  0.80772  1.0000
  H   H747      1.0  0.46437  0.59006  0.83230  1.0000
  H   H748      1.0  0.20430  0.56920  0.95212  1.0000
  C   C948      1.0  0.20754  0.54728  0.95141  1.0000
  C   C949      1.0  0.34745  0.95996  0.72433  1.0000
  C   C950      1.0  0.34941  0.90642  0.70534  1.0000
  C   C951      1.0  0.45711  0.49145  0.85119  1.0000
  C   C952      1.0  0.11436  0.50471  0.97470  1.0000
  H   H749      1.0  0.31302  0.81051  0.96210  1.0000
  C   C953      1.0  0.27075  0.49232  0.79800  1.0000
  H   H750      1.0  0.31731  0.96706  0.69456  1.0000
  C   C954      1.0  0.09894  0.70491  0.65132  1.0000
  H   H751      1.0  0.17680  0.90722  0.68098  1.0000
  H   H752      1.0  0.11191  0.58745  0.94024  1.0000
  H   H753      1.0  0.00230  0.88050  0.84179  1.0000
  H   H754      1.0  0.31879  0.91937  0.67806  1.0000
  H   H755      1.0  0.37934  0.89878  0.73475  1.0000
  C   C955      1.0  0.46327  0.94230  0.91986  1.0000
  H   H756      1.0  0.45952  0.92223  0.91182  1.0000
  H   H757      1.0  0.99830  0.83342  0.97734  1.0000
  C   C956      1.0  0.42751  0.95934  0.72657  1.0000
  H   H758      1.0  0.34024  0.49521  0.79752  1.0000
  C   C957      1.0  0.00568  0.85406  0.97405  1.0000
  C   C958      1.0  0.37152  0.75766  0.97063  1.0000
  H   H759      1.0  0.03220  0.51663  0.65967  1.0000
  C   C959      1.0  0.36021  0.76228  0.94608  1.0000
  H   H760      1.0  0.13451  0.50617  0.73598  1.0000
  H   H761      1.0  0.20977  0.98070  0.74854  1.0000
  H   H762      1.0  0.03280  0.49324  0.70248  1.0000
  H   H763      1.0  0.30873  0.56593  0.94236  1.0000
  C   C960      1.0  0.36107  0.97299  0.93972  1.0000
  H   H764      1.0  0.13060  0.50358  0.78338  1.0000
  C   C961      1.0  0.39957  0.49116  0.94072  1.0000
  C   C962      1.0  0.09744  0.49270  0.65885  1.0000
  H   H765      1.0  0.11504  0.94181  0.95173  1.0000
  C   C963      1.0  0.02526  0.90690  0.96481  1.0000
  H   H766      1.0  0.37415  0.84704  0.97815  1.0000
  C   C964      1.0  0.99840  0.53472  0.90803  1.0000
  H   H767      1.0  0.30252  0.89754  0.98037  1.0000
  H   H768      1.0  0.17311  0.48657  0.95102  1.0000
  C   C965      1.0  0.32049  0.52989  0.96370  1.0000
  H   H769      1.0  0.98630  0.94645  0.97991  1.0000
  C   C966      1.0  0.12896  0.48510  0.77188  1.0000
  H   H770      1.0  0.43605  0.52533  0.97635  1.0000
  C   C967      1.0  0.05968  0.98304  0.95920  1.0000
  H   H771      1.0  0.34619  0.98072  0.73138  1.0000
  C   C968      1.0  0.15726  0.48605  0.68354  1.0000
  C   C969      1.0  0.07947  0.96703  0.94689  1.0000
  C   C970      1.0  0.07365  0.50573  0.65037  1.0000
  H   H772      1.0  0.98890  0.50345  0.93572  1.0000
  S   S129      1.0  0.82445  0.32910  0.30217  1.0000
  S   S130      1.0  0.54755  0.12723  0.28686  1.0000
  Fe  Fe65      1.0  0.51267  0.08835  0.07366  1.0000
  C   C971      1.0  0.96770  0.23541  0.09007  1.0000
  S   S131      1.0  0.53755  0.07051  0.03902  1.0000
  Fe  Fe66      1.0  0.51419  0.11142  0.13068  1.0000
  H   H773      1.0  0.48959  0.31056  0.99261  1.0000
  S   S132      1.0  0.54044  0.13277  0.16208  1.0000
  H   H774      1.0  0.51875  0.00325  0.00913  1.0000
  S   S133      1.0  0.93627  0.03694  0.12466  1.0000
  C   C972      1.0  0.62849  0.48213  0.04951  1.0000
  C   C973      1.0  0.93782  0.34403  0.25479  1.0000
  S   S134      1.0  0.51545  0.06852  0.11366  1.0000
  S   S135      1.0  0.51498  0.13103  0.09068  1.0000
  Fe  Fe67      1.0  0.86850  0.35547  0.09005  1.0000
  S   S136      1.0  0.91379  0.35927  0.08443  1.0000
  S   S137      1.0  0.83827  0.37084  0.05884  1.0000
  Fe  Fe68      1.0  0.87507  0.33254  0.14655  1.0000
  S   S138      1.0  0.92081  0.33514  0.14355  1.0000
  S   S139      1.0  0.85878  0.30948  0.18277  1.0000
  Fe  Fe69      1.0  0.91441  0.37623  0.12484  1.0000
  S   S140      1.0  0.94518  0.40880  0.13631  1.0000
  Fe  Fe70      1.0  0.91644  0.31794  0.10352  1.0000
  S   S141      1.0  0.94856  0.28821  0.08876  1.0000
  S   S142      1.0  0.86876  0.37515  0.13018  1.0000
  S   S143      1.0  0.87096  0.31264  0.10687  1.0000
  C   C974      1.0  0.94089  0.19609  0.10342  1.0000
  C   C975      1.0  0.94392  0.04253  0.00440  1.0000
  C   C976      1.0  0.88602  0.44904  0.03182  1.0000
  C   C977      1.0  0.94526  0.25280  0.09443  1.0000
  C   C978      1.0  0.92053  0.24166  0.10277  1.0000
  C   C979      1.0  0.91837  0.21340  0.10724  1.0000
  H   H775      1.0  0.63158  0.15389  0.29106  1.0000
  C   C980      1.0  0.55191  0.05071  0.99028  1.0000
  H   H776      1.0  0.90302  0.25482  0.10569  1.0000
  C   C981      1.0  0.94515  0.47171  0.19504  1.0000
  C   C982      1.0  0.94153  0.00128  0.12615  1.0000
  H   H777      1.0  0.89916  0.20497  0.11383  1.0000
  C   C983      1.0  0.91635  0.45536  0.12276  1.0000
  C   C984      1.0  0.94194  0.44340  0.12684  1.0000
  P   P33       1.0  0.93743  0.32394  0.28431  1.0000
  C   C985      1.0  0.62663  0.47932  0.02256  1.0000
  H   H778      1.0  0.93859  0.19945  0.19600  1.0000
  H   H779      1.0  0.89809  0.44295  0.12384  1.0000
  H   H780      1.0  0.95031  0.24176  0.17234  1.0000
  H   H781      1.0  0.51988  0.09419  0.24927  1.0000
  C   C986      1.0  0.88739  0.25973  0.30231  1.0000
  C   C987      1.0  0.53446  0.06843  0.00423  1.0000
  C   C988      1.0  0.64135  0.15855  0.27272  1.0000
  H   H782      1.0  0.50222  0.09790  0.00020  1.0000
  H   H783      1.0  0.56625  0.03814  0.00089  1.0000
  C   C989      1.0  0.86031  0.35965  0.00954  1.0000
  C   C990      1.0  0.84109  0.37424  0.02420  1.0000
  C   C991      1.0  0.82243  0.39118  0.01087  1.0000
  H   H784      1.0  0.87471  0.34638  0.01931  1.0000
  H   H785      1.0  0.80720  0.40224  0.02185  1.0000
  C   C992      1.0  0.54571  0.12958  0.25219  1.0000
  C   C993      1.0  0.53030  0.11002  0.23850  1.0000
  C   C994      1.0  0.52811  0.11079  0.21111  1.0000
  C   C995      1.0  0.54191  0.13087  0.19683  1.0000
  C   C996      1.0  0.55775  0.15017  0.21050  1.0000
  C   C997      1.0  0.55923  0.14989  0.23793  1.0000
  H   H786      1.0  0.49492  0.47085  0.18988  1.0000
  H   H787      1.0  0.51598  0.09567  0.20107  1.0000
  H   H788      1.0  0.56890  0.16557  0.19978  1.0000
  H   H789      1.0  0.57116  0.16514  0.24802  1.0000
  C   C998      1.0  0.83452  0.32297  0.26917  1.0000
  C   C999      1.0  0.83796  0.34549  0.25233  1.0000
  C   C1000     1.0  0.84553  0.34189  0.22603  1.0000
  C   C1001     1.0  0.84961  0.31558  0.21599  1.0000
  C   C1002     1.0  0.84622  0.29304  0.23283  1.0000
  C   C1003     1.0  0.83891  0.29666  0.25921  1.0000
  H   H790      1.0  0.83460  0.36594  0.25968  1.0000
  H   H791      1.0  0.84789  0.35947  0.21346  1.0000
  H   H792      1.0  0.84931  0.27260  0.22538  1.0000
  H   H793      1.0  0.83635  0.27912  0.27177  1.0000
  H   H794      1.0  0.90149  0.09764  0.03124  1.0000
  C   C1004     1.0  0.90874  0.25235  0.16409  1.0000
  C   C1005     1.0  0.95650  0.15230  0.01421  1.0000
  H   H795      1.0  0.54119  0.22021  0.99511  1.0000
  C   C1006     1.0  0.94555  0.48199  0.99119  1.0000
  C   C1007     1.0  0.84021  0.48356  0.98741  1.0000
  H   H796      1.0  0.93355  0.28540  0.01687  1.0000
  C   C1008     1.0  0.63134  0.14705  0.24984  1.0000
  H   H797      1.0  0.85335  0.21386  0.17903  1.0000
  C   C1009     1.0  0.48662  0.29891  0.01028  1.0000
  C   C1010     1.0  0.82712  0.45893  0.11914  1.0000
  C   C1011     1.0  0.94841  0.15244  0.27141  1.0000
  C   C1012     1.0  0.65626  0.00945  0.03321  1.0000
  H   H798      1.0  0.52468  0.13573  0.02447  1.0000
  H   H799      1.0  0.91776  0.44144  0.17947  1.0000
  H   H800      1.0  0.90190  0.99214  0.11011  1.0000
  C   C1013     1.0  0.48780  0.01184  0.06757  1.0000
  C   C1014     1.0  0.93143  0.24318  0.02854  1.0000
  C   C1015     1.0  0.93837  0.37544  0.20904  1.0000
  H   H801      1.0  0.88239  0.34423  0.29278  1.0000
  H   H802      1.0  0.93830  0.38968  0.02274  1.0000
  H   H803      1.0  0.94675  0.24377  0.30098  1.0000
  H   H804      1.0  0.52897  0.00209  0.05621  1.0000
  C   C1016     1.0  0.91042  0.16602  0.23264  1.0000
  H   H805      1.0  0.72236  0.99165  0.16912  1.0000
  Fe  Fe71      1.0  0.97082  0.06792  0.12284  1.0000
  H   H806      1.0  0.76680  0.24612  0.31202  1.0000
  H   H807      1.0  0.67029  0.18596  0.28984  1.0000
  H   H808      1.0  0.96304  0.14694  0.28634  1.0000
  H   H809      1.0  0.52744  0.19323  0.19109  1.0000
  H   H810      1.0  0.48924  0.45158  0.13262  1.0000
  C   C1017     1.0  0.90502  0.17225  0.25875  1.0000
  C   C1018     1.0  0.88487  0.14840  0.15853  1.0000
  C   C1019     1.0  0.92346  0.42122  0.04830  1.0000
  C   C1020     1.0  0.96283  0.26050  0.99624  1.0000
  C   C1021     1.0  0.94997  0.05003  0.02985  1.0000
  C   C1022     1.0  0.96543  0.45982  0.12562  1.0000
  C   C1023     1.0  0.91686  0.11276  0.02644  1.0000
  H   H811      1.0  0.62466  0.24688  0.99541  1.0000
  H   H812      1.0  0.66749  0.28804  0.20027  1.0000
  C   C1024     1.0  0.50840  0.00628  0.04959  1.0000
  C   C1025     1.0  0.74742  0.17940  0.30944  1.0000
  S   S144      1.0  0.96780  0.09209  0.08600  1.0000
  H   H813      1.0  0.93581  0.46331  0.98494  1.0000
  C   C1026     1.0  0.52389  0.17880  0.03354  1.0000
  C   C1027     1.0  0.63702  0.98886  0.99444  1.0000
  C   C1028     1.0  0.89139  0.09539  0.17817  1.0000
  C   C1029     1.0  0.93017  0.01802  0.99946  1.0000
  H   H814      1.0  0.91985  0.17058  0.29816  1.0000
  C   C1030     1.0  0.94234  0.21692  0.02554  1.0000
  C   C1031     1.0  0.96558  0.99019  0.13627  1.0000
  C   C1032     1.0  0.51600  0.08443  0.99004  1.0000
  C   C1033     1.0  0.50754  0.20216  0.03716  1.0000
  C   C1034     1.0  0.78963  0.45963  0.99820  1.0000
  H   H815      1.0  0.88599  0.18165  0.26444  1.0000
  C   C1035     1.0  0.92654  0.45462  0.24372  1.0000
  C   C1036     1.0  0.80921  0.46198  0.01784  1.0000
  H   H816      1.0  0.53449  0.47238  0.16078  1.0000
  C   C1037     1.0  0.83474  0.47383  0.01254  1.0000
  H   H817      1.0  0.88324  0.16875  0.15034  1.0000
  H   H818      1.0  0.49161  0.04811  0.25085  1.0000
  H   H819      1.0  0.88991  0.11385  0.21588  1.0000
  C   C1038     1.0  0.81900  0.20625  0.24458  1.0000
  C   C1039     1.0  0.90186  0.28427  0.30353  1.0000
  H   H820      1.0  0.50398  0.17008  0.24412  1.0000
  C   C1040     1.0  0.91663  0.44209  0.22126  1.0000
  H   H821      1.0  0.61404  0.13321  0.25060  1.0000
  C   C1041     1.0  0.51205  0.15387  0.02650  1.0000
  H   H822      1.0  0.96570  0.26035  0.21465  1.0000
  P   P34       1.0  0.52282  0.23393  0.04765  1.0000
  C   C1042     1.0  0.52830  0.23312  0.08239  1.0000
  C   C1043     1.0  0.55512  0.23817  0.03116  1.0000
  C   C1044     1.0  0.57738  0.25031  0.04384  1.0000
  C   C1045     1.0  0.60235  0.25344  0.03095  1.0000
  H   H823      1.0  0.61718  0.46116  0.01458  1.0000
  H   H824      1.0  0.92371  0.99526  0.06180  1.0000
  C   C1046     1.0  0.51005  0.20540  0.19705  1.0000
  C   C1047     1.0  0.53270  0.20819  0.09533  1.0000
  C   C1048     1.0  0.53751  0.20772  0.12208  1.0000
  C   C1049     1.0  0.53808  0.23216  0.13610  1.0000
  C   C1050     1.0  0.53368  0.25707  0.12342  1.0000
  C   C1051     1.0  0.52893  0.25759  0.09667  1.0000
  H   H825      1.0  0.96976  0.25810  0.26078  1.0000
  C   C1052     1.0  0.58316  0.23258  0.99253  1.0000
  H   H826      1.0  0.80447  0.45399  0.03689  1.0000
  H   H827      1.0  0.62036  0.46635  0.06211  1.0000
  C   C1053     1.0  0.94853  0.14798  0.04004  1.0000
  H   H828      1.0  0.53120  0.22499  0.22856  1.0000
  H   H829      1.0  0.86175  0.00692  0.02843  1.0000
  C   C1054     1.0  0.92839  0.12870  0.04602  1.0000
  H   H830      1.0  0.94668  0.03891  0.07020  1.0000
  C   C1055     1.0  0.90562  0.41283  0.00530  1.0000
  H   H831      1.0  0.54573  0.17963  0.03674  1.0000
  H   H832      1.0  0.57558  0.25732  0.06368  1.0000
  H   H833      1.0  0.61951  0.26270  0.04088  1.0000
  H   H834      1.0  0.64340  0.99191  0.06961  1.0000
  C   C1056     1.0  0.50262  0.00701  0.02308  1.0000
  C   C1057     1.0  0.53627  0.46112  0.04263  1.0000
  H   H835      1.0  0.53232  0.18902  0.08496  1.0000
  H   H836      1.0  0.54058  0.18830  0.13195  1.0000
  H   H837      1.0  0.54165  0.23179  0.15682  1.0000
  H   H838      1.0  0.53352  0.27598  0.13437  1.0000
  H   H839      1.0  0.52558  0.27712  0.08723  1.0000
  C   C1058     1.0  0.88608  0.14432  0.18548  1.0000
  C   C1059     1.0  0.85203  0.17740  0.22213  1.0000
  C   C1060     1.0  0.97045  0.31105  0.29412  1.0000
  C   C1061     1.0  0.88884  0.11754  0.19518  1.0000
  C   C1062     1.0  0.60526  0.24454  0.00533  1.0000
  C   C1063     1.0  0.92312  0.34607  0.30880  1.0000
  H   H840      1.0  0.52085  0.27259  0.00321  1.0000
  C   C1064     1.0  0.92916  0.00826  0.04554  1.0000
  C   C1065     1.0  0.64185  0.99087  0.04866  1.0000
  H   H841      1.0  0.95952  0.46391  0.02700  1.0000
  Fe  Fe72      1.0  0.97042  0.12911  0.11145  1.0000
  C   C1066     1.0  0.97543  0.30154  0.20361  1.0000
  C   C1067     1.0  0.65406  0.00831  0.00618  1.0000
  C   C1068     1.0  0.86059  0.98985  0.04183  1.0000
  H   H842      1.0  0.97317  0.36794  0.26567  1.0000
  C   C1069     1.0  0.97310  0.20937  0.30724  1.0000
  C   C1070     1.0  0.88150  0.24417  0.16563  1.0000
  C   C1071     1.0  0.95386  0.14608  0.24552  1.0000
  C   C1072     1.0  0.87458  0.21996  0.17846  1.0000
  H   H843      1.0  0.95486  0.30617  0.19711  1.0000
  C   C1073     1.0  0.84436  0.20291  0.23247  1.0000
  C   C1074     1.0  0.83067  0.43754  0.10149  1.0000
  C   C1075     1.0  0.84052  0.44297  0.07658  1.0000
  H   H844      1.0  0.90158  0.42590  0.22265  1.0000
  C   C1076     1.0  0.96380  0.23209  0.29347  1.0000
  C   C1077     1.0  0.88704  0.12612  0.14162  1.0000
  H   H845      1.0  0.91892  0.44828  0.26254  1.0000
  C   C1078     1.0  0.94484  0.13607  0.99459  1.0000
  H   H846      1.0  0.93458  0.20078  0.03782  1.0000
  C   C1079     1.0  0.65848  0.28968  0.24117  1.0000
  H   H847      1.0  0.97615  0.98963  0.08234  1.0000
  C   C1080     1.0  0.89069  0.09970  0.15139  1.0000
  C   C1081     1.0  0.94592  0.47556  0.24186  1.0000
  C   C1082     1.0  0.88654  0.43387  0.00867  1.0000
  H   H848      1.0  0.82611  0.41662  0.10705  1.0000
  H   H849      1.0  0.84358  0.42623  0.06320  1.0000
  C   C1083     1.0  0.92579  0.45079  0.19694  1.0000
  C   C1084     1.0  0.89488  0.20390  0.19032  1.0000
  H   H850      1.0  0.78150  0.18674  0.25607  1.0000
  H   H851      1.0  0.81984  0.45461  0.13858  1.0000
  C   C1085     1.0  0.66102  0.27641  0.26508  1.0000
  C   C1086     1.0  0.67527  0.25169  0.26677  1.0000
  C   C1087     1.0  0.68734  0.24017  0.24466  1.0000
  C   C1088     1.0  0.68396  0.25309  0.22052  1.0000
  P   P35       1.0  0.70375  0.20727  0.24715  1.0000
  C   C1089     1.0  0.67617  0.18282  0.24817  1.0000
  C   C1090     1.0  0.72806  0.20178  0.22131  1.0000
  C   C1091     1.0  0.73237  0.17549  0.21113  1.0000
  C   C1092     1.0  0.75257  0.17113  0.19232  1.0000
  C   C1093     1.0  0.76898  0.19284  0.18400  1.0000
  C   C1094     1.0  0.76533  0.21890  0.19458  1.0000
  C   C1095     1.0  0.74509  0.22334  0.21330  1.0000
  C   C1096     1.0  0.66350  0.17656  0.27192  1.0000
  C   C1097     1.0  0.75662  0.22783  0.30517  1.0000
  C   C1098     1.0  0.94167  0.26496  0.01396  1.0000
  C   C1099     1.0  0.64315  0.15397  0.22602  1.0000
  C   C1100     1.0  0.66535  0.17200  0.22513  1.0000
  C   C1101     1.0  0.72465  0.20587  0.27587  1.0000
  C   C1102     1.0  0.73850  0.22937  0.28430  1.0000
  C   C1103     1.0  0.55816  0.22945  0.00534  1.0000
  C   C1104     1.0  0.92525  0.11630  0.00075  1.0000
  P   P36       1.0  0.86097  0.47575  0.03714  1.0000
  C   C1105     1.0  0.72943  0.18079  0.28842  1.0000
  C   C1106     1.0  0.84674  0.46977  0.06897  1.0000
  C   C1107     1.0  0.95826  0.37966  0.22805  1.0000
  H   H852      1.0  0.65162  0.28496  0.28233  1.0000
  H   H853      1.0  0.67650  0.24128  0.28527  1.0000
  H   H854      1.0  0.69191  0.24391  0.20297  1.0000
  H   H855      1.0  0.72048  0.15826  0.21796  1.0000
  H   H856      1.0  0.75569  0.15086  0.18437  1.0000
  H   H857      1.0  0.78475  0.18943  0.16956  1.0000
  H   H858      1.0  0.77837  0.23565  0.18847  1.0000
  H   H859      1.0  0.74300  0.24353  0.22175  1.0000
  H   H860      1.0  0.90555  0.40086  0.98761  1.0000
  H   H861      1.0  0.89463  0.07490  0.18566  1.0000
  C   C1108     1.0  0.84103  0.99022  0.06163  1.0000
  H   H862      1.0  0.63473  0.14566  0.20826  1.0000
  H   H863      1.0  0.67371  0.17780  0.20646  1.0000
  H   H864      1.0  0.73544  0.24889  0.27478  1.0000
  H   H865      1.0  0.49607  0.02394  0.20871  1.0000
  H   H866      1.0  0.92174  0.12614  0.06594  1.0000
  S   S145      1.0  0.97031  0.10509  0.14854  1.0000
  H   H867      1.0  0.71936  0.16231  0.28197  1.0000
  C   C1109     1.0  0.90180  0.25359  0.25778  1.0000
  C   C1110     1.0  0.88713  0.24451  0.27944  1.0000
  H   H868      1.0  0.93877  0.38721  0.19115  1.0000
  H   H869      1.0  0.93730  0.41594  0.06396  1.0000
  C   C1111     1.0  0.91614  0.29393  0.28170  1.0000
  C   C1112     1.0  0.91640  0.27812  0.25896  1.0000
  C   C1113     1.0  0.91715  0.34098  0.23617  1.0000
  C   C1114     1.0  0.91763  0.35636  0.21328  1.0000
  H   H870      1.0  0.94984  0.05581  0.98849  1.0000
  H   H871      1.0  0.90197  0.24168  0.24007  1.0000
  H   H872      1.0  0.87557  0.22572  0.27876  1.0000
  C   C1115     1.0  0.93508  0.15296  0.22619  1.0000
  H   H873      1.0  0.92797  0.28463  0.24217  1.0000
  H   H874      1.0  0.90043  0.32694  0.23929  1.0000
  H   H875      1.0  0.49163  0.25333  0.24151  1.0000
  H   H876      1.0  0.90175  0.35351  0.19885  1.0000
  H   H877      1.0  0.81330  0.22600  0.25256  1.0000
  H   H878      1.0  0.85798  0.22027  0.23127  1.0000
  S   S146      1.0  0.93679  0.16087  0.10938  1.0000
  H   H879      1.0  0.89357  0.08263  0.13820  1.0000
  C   C1116     1.0  0.80108  0.18414  0.24655  1.0000
  H   H880      1.0  0.88706  0.12952  0.12083  1.0000
  C   C1117     1.0  0.92299  0.00046  0.02002  1.0000
  C   C1118     1.0  0.83384  0.15531  0.22410  1.0000
  C   C1119     1.0  0.66987  0.27798  0.21887  1.0000
  H   H881      1.0  0.50431  0.44349  0.01962  1.0000
  C   C1120     1.0  0.92406  0.16569  0.27801  1.0000
  P   P37       1.0  0.88548  0.17304  0.20761  1.0000
  C   C1121     1.0  0.94224  0.03306  0.05040  1.0000
  C   C1122     1.0  0.80846  0.15872  0.23626  1.0000
  C   C1123     1.0  0.92235  0.21186  0.18802  1.0000
  H   H882      1.0  0.83921  0.13541  0.21648  1.0000
  H   H883      1.0  0.93964  0.14769  0.20622  1.0000
  C   C1124     1.0  0.90451  0.44231  0.05166  1.0000
  H   H884      1.0  0.91403  0.27103  0.15387  1.0000
  H   H885      1.0  0.54813  0.44240  0.04324  1.0000
  C   C1125     1.0  0.98162  0.27569  0.21368  1.0000
  C   C1126     1.0  0.51142  0.46180  0.02932  1.0000
  C   C1127     1.0  0.82284  0.39348  0.98345  1.0000
  H   H886      1.0  0.95742  0.15998  0.05554  1.0000
  H   H887      1.0  0.66546  0.02273  0.99442  1.0000
  H   H888      1.0  0.79454  0.14159  0.23786  1.0000
  C   C1128     1.0  0.92917  0.23595  0.17482  1.0000
  H   H889      1.0  0.86578  0.25669  0.15673  1.0000
  C   C1129     1.0  0.92403  0.40647  0.02511  1.0000
  H   H890      1.0  0.97389  0.39499  0.22497  1.0000
  H   H891      1.0  0.97263  0.13564  0.24047  1.0000
  C   C1130     1.0  0.95787  0.36419  0.25096  1.0000
  C   C1131     1.0  0.51208  0.22328  0.21810  1.0000
  C   C1132     1.0  0.48947  0.23894  0.22567  1.0000
  C   C1133     1.0  0.96556  0.20708  0.09459  1.0000
  H   H892      1.0  0.82713  0.00739  0.06333  1.0000
  H   H893      1.0  0.49225  0.01146  0.08814  1.0000
  H   H894      1.0  0.90391  0.45300  0.07001  1.0000
  H   H895      1.0  0.64735  0.30881  0.23988  1.0000
  C   C1134     1.0  0.96352  0.21213  0.00764  1.0000
  H   H896      1.0  0.91555  0.24687  0.04282  1.0000
  H   H897      1.0  0.87178  0.43743  0.99347  1.0000
  H   H898      1.0  0.77021  0.44992  0.00226  1.0000
  C   C1135     1.0  0.89516  0.35222  0.30812  1.0000
  H   H899      1.0  0.66906  0.02483  0.04217  1.0000
  C   C1136     1.0  0.50049  0.26213  0.03928  1.0000
  C   C1137     1.0  0.97684  0.23997  0.27049  1.0000
  C   C1138     1.0  0.95911  0.48218  0.01509  1.0000
  H   H900      1.0  0.76022  0.99057  0.20108  1.0000
  C   C1139     1.0  0.86026  0.36138  0.98209  1.0000
  H   H901      1.0  0.48442  0.19026  0.16643  1.0000
  C   C1140     1.0  0.48568  0.20361  0.18320  1.0000
  H   H902      1.0  0.95138  0.47873  0.17600  1.0000
  H   H903      1.0  0.96061  0.06902  0.03366  1.0000
  H   H904      1.0  0.98178  0.00361  0.14270  1.0000
  C   C1141     1.0  0.50434  0.27732  0.01640  1.0000
  C   C1142     1.0  0.48317  0.16459  0.24896  1.0000
  C   C1143     1.0  0.97391  0.23428  0.99325  1.0000
  C   C1144     1.0  0.91432  0.48368  0.11819  1.0000
  H   H905      1.0  0.48387  0.18558  0.28564  1.0000
  P   P38       1.0  0.98051  0.17920  0.00636  1.0000
  H   H906      1.0  0.97105  0.27754  0.98528  1.0000
  C   C1145     1.0  0.48381  0.15210  0.02299  1.0000
  C   C1146     1.0  0.95616  0.48355  0.21751  1.0000
  H   H907      1.0  0.91632  0.10394  0.98553  1.0000
  Fe  Fe73      1.0  0.72089  0.38274  0.60935  1.0000
  S   S147      1.0  0.76675  0.38395  0.60794  1.0000
  S   S148      1.0  0.68851  0.41383  0.59756  1.0000
  Fe  Fe74      1.0  0.72057  0.32368  0.63063  1.0000
  S   S149      1.0  0.76645  0.32126  0.63122  1.0000
  H   H908      1.0  0.75175  0.45974  0.49383  1.0000
  C   C1147     1.0  0.70516  0.20757  0.36905  1.0000
  Fe  Fe75      1.0  0.76443  0.34104  0.59115  1.0000
  S   S150      1.0  0.78244  0.31858  0.55527  1.0000
  H   H909      1.0  0.71256  0.19048  0.38034  1.0000
  S   S151      1.0  0.71864  0.34134  0.59073  1.0000
  Fe  Fe76      1.0  0.66096  0.07659  0.58963  1.0000
  S   S152      1.0  0.61489  0.07839  0.58811  1.0000
  S   S153      1.0  0.69181  0.04469  0.57570  1.0000
  Fe  Fe77      1.0  0.66512  0.13478  0.61146  1.0000
  S   S154      1.0  0.61967  0.14048  0.61178  1.0000
  S   S155      1.0  0.69958  0.16384  0.62191  1.0000
  Fe  Fe78      1.0  0.61797  0.09749  0.62839  1.0000
  Fe  Fe79      1.0  0.62034  0.12120  0.57166  1.0000
  S   S156      1.0  0.59891  0.14510  0.53842  1.0000
  C   C1148     1.0  0.51530  0.14393  0.42646  1.0000
  S   S157      1.0  0.66602  0.11799  0.57111  1.0000
  Fe  Fe80      1.0  0.81948  0.30633  0.39998  1.0000
  S   S158      1.0  0.81981  0.26071  0.40390  1.0000
  S   S159      1.0  0.81480  0.33568  0.43486  1.0000
  Fe  Fe81      1.0  0.82144  0.30273  0.33936  1.0000
  S   S160      1.0  0.82024  0.25679  0.34020  1.0000
  Fe  Fe82      1.0  0.78877  0.26097  0.37183  1.0000
  H   H910      1.0  0.53490  0.15073  0.43365  1.0000
  Fe  Fe83      1.0  0.85139  0.26031  0.37214  1.0000
  S   S161      1.0  0.88422  0.22736  0.36995  1.0000
  S   S162      1.0  0.78705  0.30683  0.36884  1.0000
  S   S163      1.0  0.85401  0.30629  0.37028  1.0000
  H   H911      1.0  0.68783  0.38351  0.46126  1.0000
  H   H912      1.0  0.55852  0.17482  0.62927  1.0000
  Fe  Fe84      1.0  0.57849  0.15815  0.37864  1.0000
  S   S164      1.0  0.58180  0.20402  0.37774  1.0000
  S   S165      1.0  0.58889  0.13124  0.41434  1.0000
  Fe  Fe85      1.0  0.54294  0.20298  0.35419  1.0000
  S   S166      1.0  0.51084  0.23651  0.35798  1.0000
  Fe  Fe86      1.0  0.60336  0.19840  0.33962  1.0000
  H   H913      1.0  0.77500  0.02750  0.45785  1.0000
  S   S167      1.0  0.53812  0.15742  0.35705  1.0000
  S   S168      1.0  0.60267  0.15238  0.34141  1.0000
  C   C1149     1.0  0.72203  0.23043  0.36527  1.0000
  C   C1150     1.0  0.71264  0.25219  0.35008  1.0000
  H   H914      1.0  0.90207  0.29538  0.32171  1.0000
  C   C1151     1.0  0.66974  0.22791  0.34239  1.0000
  C   C1152     1.0  0.67903  0.20634  0.35784  1.0000
  H   H915      1.0  0.92742  0.18804  0.36996  1.0000
  H   H916      1.0  0.67945  0.26775  0.32686  1.0000
  C   C1153     1.0  0.66519  0.46987  0.47923  1.0000
  H   H917      1.0  0.65207  0.35974  0.55452  1.0000
  H   H918      1.0  0.71536  0.03654  0.51868  1.0000
  C   C1154     1.0  0.91986  0.23124  0.37447  1.0000
  C   C1155     1.0  0.93188  0.25674  0.37895  1.0000
  C   C1156     1.0  0.96039  0.25871  0.38224  1.0000
  H   H919      1.0  0.48927  0.09919  0.38249  1.0000
  C   C1157     1.0  0.96508  0.20988  0.37632  1.0000
  C   C1158     1.0  0.93657  0.20786  0.37325  1.0000
  H   H920      1.0  0.91920  0.27484  0.38010  1.0000
  H   H921      1.0  0.96952  0.27845  0.38597  1.0000
  H   H922      1.0  0.81057  0.15365  0.60115  1.0000
  C   C1159     1.0  0.80710  0.17099  0.56279  1.0000
  C   C1160     1.0  0.59746  0.14117  0.50381  1.0000
  C   C1161     1.0  0.60376  0.11648  0.49143  1.0000
  C   C1162     1.0  0.60124  0.11402  0.46417  1.0000
  C   C1163     1.0  0.59251  0.13617  0.44869  1.0000
  C   C1164     1.0  0.58650  0.16100  0.46101  1.0000
  C   C1165     1.0  0.58867  0.16334  0.48833  1.0000
  H   H923      1.0  0.61013  0.09907  0.50293  1.0000
  H   H924      1.0  0.60586  0.09465  0.45501  1.0000
  H   H925      1.0  0.57969  0.17824  0.44952  1.0000
  H   H926      1.0  0.58322  0.18240  0.49757  1.0000
  C   C1166     1.0  0.79080  0.32387  0.52167  1.0000
  C   C1167     1.0  0.79612  0.34981  0.51132  1.0000
  C   C1168     1.0  0.80345  0.35289  0.48491  1.0000
  C   C1169     1.0  0.80557  0.33017  0.46821  1.0000
  C   C1170     1.0  0.80034  0.30415  0.47854  1.0000
  C   C1171     1.0  0.79314  0.30105  0.50504  1.0000
  H   H927      1.0  0.79557  0.36739  0.52387  1.0000
  H   H928      1.0  0.80809  0.37305  0.47747  1.0000
  H   H929      1.0  0.80226  0.28636  0.46620  1.0000
  H   H930      1.0  0.78962  0.28077  0.51275  1.0000
  H   H931      1.0  0.86141  0.37180  0.32742  1.0000
  H   H932      1.0  0.96104  0.35291  0.32952  1.0000
  C   C1172     1.0  0.71922  0.21621  0.62589  1.0000
  C   C1173     1.0  0.69578  0.19963  0.62590  1.0000
  C   C1174     1.0  0.67024  0.21172  0.63001  1.0000
  H   H933      1.0  0.97771  0.19171  0.37537  1.0000
  H   H934      1.0  0.54161  0.11651  0.51830  1.0000
  C   C1175     1.0  0.71367  0.99315  0.58133  1.0000
  C   C1176     1.0  0.88325  0.36799  0.32771  1.0000
  C   C1177     1.0  0.69093  0.45272  0.52481  1.0000
  C   C1178     1.0  0.69169  0.44989  0.59873  1.0000
  C   C1179     1.0  0.71702  0.46290  0.59648  1.0000
  C   C1180     1.0  0.55693  0.23367  0.46830  1.0000
  C   C1181     1.0  0.69012  0.00949  0.58373  1.0000
  H   H935      1.0  0.58614  0.21709  0.63391  1.0000
  H   H936      1.0  0.53431  0.20742  0.49357  1.0000
  H   H937      1.0  0.73549  0.45077  0.59535  1.0000
  H   H938      1.0  0.66632  0.18850  0.36075  1.0000
  H   H939      1.0  0.64744  0.00970  0.59356  1.0000
  C   C1182     1.0  0.51919  0.20509  0.45400  1.0000
  C   C1183     1.0  0.75345  0.07737  0.60151  1.0000
  C   C1184     1.0  0.52265  0.21512  0.42869  1.0000
  H   H940      1.0  0.77892  0.04333  0.59059  1.0000
  H   H941      1.0  0.50966  0.20812  0.41305  1.0000
  H   H942      1.0  0.68931  0.02565  0.63600  1.0000
  S   S169      1.0  0.66352  0.09317  0.63017  1.0000
  H   H943      1.0  0.54468  0.24295  0.40396  1.0000
  C   C1185     1.0  0.89929  0.37814  0.34791  1.0000
  C   C1186     1.0  0.78450  0.45857  0.52147  1.0000
  C   C1187     1.0  0.51840  0.14322  0.49333  1.0000
  C   C1188     1.0  0.70204  0.18099  0.43231  1.0000
  C   C1189     1.0  0.68158  0.16322  0.42391  1.0000
  C   C1190     1.0  0.65470  0.17253  0.42182  1.0000
  C   C1191     1.0  0.64814  0.19951  0.42833  1.0000
  C   C1192     1.0  0.66868  0.21765  0.43641  1.0000
  C   C1193     1.0  0.69567  0.20812  0.43839  1.0000
  P   P39       1.0  0.66019  0.25208  0.44647  1.0000
  C   C1194     1.0  0.63588  0.26760  0.42442  1.0000
  C   C1195     1.0  0.64625  0.25121  0.47913  1.0000
  C   C1196     1.0  0.64471  0.27516  0.49416  1.0000
  C   C1197     1.0  0.63355  0.27441  0.51917  1.0000
  C   C1198     1.0  0.62413  0.24974  0.52954  1.0000
  C   C1199     1.0  0.62572  0.22579  0.51489  1.0000
  C   C1200     1.0  0.63638  0.22656  0.48971  1.0000
  C   C1201     1.0  0.62098  0.29090  0.43197  1.0000
  C   C1202     1.0  0.60244  0.30315  0.41487  1.0000
  C   C1203     1.0  0.59875  0.29241  0.39003  1.0000
  C   C1204     1.0  0.61404  0.26980  0.38209  1.0000
  C   C1205     1.0  0.63270  0.25757  0.39905  1.0000
  C   C1206     1.0  0.69072  0.27268  0.44380  1.0000
  C   C1207     1.0  0.70081  0.27924  0.41903  1.0000
  C   C1208     1.0  0.72466  0.29465  0.41631  1.0000
  C   C1209     1.0  0.73863  0.30373  0.43826  1.0000
  C   C1210     1.0  0.72902  0.29695  0.46298  1.0000
  C   C1211     1.0  0.70540  0.28111  0.46581  1.0000
  H   H944      1.0  0.72299  0.17397  0.43357  1.0000
  H   H945      1.0  0.68652  0.14229  0.41881  1.0000
  H   H946      1.0  0.63891  0.15878  0.41511  1.0000
  H   H947      1.0  0.62704  0.20611  0.42708  1.0000
  H   H948      1.0  0.71192  0.22160  0.44441  1.0000
  H   H949      1.0  0.65221  0.29446  0.48667  1.0000
  H   H950      1.0  0.63223  0.29296  0.53059  1.0000
  H   H951      1.0  0.61570  0.24909  0.54900  1.0000
  H   H952      1.0  0.61866  0.20654  0.52306  1.0000
  H   H953      1.0  0.63682  0.20772  0.47878  1.0000
  H   H954      1.0  0.62349  0.29970  0.45098  1.0000
  H   H955      1.0  0.59078  0.32091  0.42089  1.0000
  H   H956      1.0  0.58418  0.30164  0.37681  1.0000
  H   H957      1.0  0.61143  0.26172  0.36267  1.0000
  H   H958      1.0  0.64467  0.24045  0.39210  1.0000
  H   H959      1.0  0.69060  0.27195  0.40173  1.0000
  H   H960      1.0  0.73258  0.29906  0.39712  1.0000
  H   H961      1.0  0.75727  0.31549  0.43608  1.0000
  H   H962      1.0  0.74038  0.30350  0.47988  1.0000
  H   H963      1.0  0.69910  0.27512  0.48511  1.0000
  C   C1212     1.0  0.72974  0.07282  0.64251  1.0000
  C   C1213     1.0  0.55996  0.24373  0.44310  1.0000
  H   H964      1.0  0.67179  0.40143  0.53582  1.0000
  H   H965      1.0  0.82899  0.17241  0.55989  1.0000
  C   C1214     1.0  0.69178  0.25664  0.63478  1.0000
  C   C1215     1.0  0.75966  0.03656  0.62769  1.0000
  H   H966      1.0  0.68677  0.43729  0.46039  1.0000
  C   C1216     1.0  0.92736  0.37279  0.34832  1.0000
  H   H967      1.0  0.57565  0.25850  0.43877  1.0000
  C   C1217     1.0  0.78000  0.18440  0.45566  1.0000
  C   C1218     1.0  0.77931  0.21080  0.44535  1.0000
  C   C1219     1.0  0.76647  0.23186  0.45902  1.0000
  C   C1220     1.0  0.75395  0.22651  0.48294  1.0000
  C   C1221     1.0  0.75456  0.19997  0.49344  1.0000
  C   C1222     1.0  0.76763  0.17896  0.47957  1.0000
  P   P40       1.0  0.73727  0.19150  0.52336  1.0000
  C   C1223     1.0  0.76090  0.17865  0.54723  1.0000
  C   C1224     1.0  0.72119  0.22029  0.53921  1.0000
  C   C1225     1.0  0.73662  0.24378  0.54481  1.0000
  C   C1226     1.0  0.72531  0.26501  0.55950  1.0000
  C   C1227     1.0  0.69878  0.26277  0.56917  1.0000
  C   C1228     1.0  0.68353  0.23921  0.56429  1.0000
  C   C1229     1.0  0.69465  0.21799  0.54945  1.0000
  C   C1230     1.0  0.75070  0.16834  0.57073  1.0000
  C   C1231     1.0  0.76854  0.15920  0.59003  1.0000
  S   S170      1.0  0.63782  0.22643  0.32654  1.0000
  C   C1232     1.0  0.78927  0.18023  0.54346  1.0000
  C   C1233     1.0  0.71265  0.16566  0.51456  1.0000
  C   C1234     1.0  0.68982  0.17290  0.49960  1.0000
  C   C1235     1.0  0.67121  0.15289  0.49169  1.0000
  C   C1236     1.0  0.67552  0.12550  0.49832  1.0000
  C   C1237     1.0  0.69843  0.11805  0.51283  1.0000
  C   C1238     1.0  0.71701  0.13802  0.52088  1.0000
  H   H968      1.0  0.79003  0.16816  0.44495  1.0000
  H   H969      1.0  0.78853  0.21490  0.42661  1.0000
  H   H970      1.0  0.76596  0.25223  0.45072  1.0000
  H   H971      1.0  0.74359  0.24301  0.49279  1.0000
  H   H972      1.0  0.76808  0.15829  0.48718  1.0000
  H   H973      1.0  0.75773  0.24537  0.53862  1.0000
  H   H974      1.0  0.73754  0.28277  0.56428  1.0000
  H   H975      1.0  0.69054  0.27878  0.58148  1.0000
  H   H976      1.0  0.66355  0.23685  0.57304  1.0000
  H   H977      1.0  0.68291  0.19941  0.54712  1.0000
  H   H978      1.0  0.72888  0.16765  0.57420  1.0000
  H   H979      1.0  0.76034  0.15163  0.60823  1.0000
  H   H980      1.0  0.79774  0.18899  0.52591  1.0000
  H   H981      1.0  0.68647  0.19401  0.49409  1.0000
  H   H982      1.0  0.65337  0.15849  0.48044  1.0000
  H   H983      1.0  0.66100  0.11004  0.49237  1.0000
  H   H984      1.0  0.70146  0.09684  0.51834  1.0000
  H   H985      1.0  0.73465  0.13171  0.53199  1.0000
  H   H986      1.0  0.72599  0.10769  0.61706  1.0000
  C   C1239     1.0  0.74248  0.37511  0.42132  1.0000
  C   C1240     1.0  0.76235  0.38827  0.43614  1.0000
  C   C1241     1.0  0.75543  0.40005  0.45998  1.0000
  C   C1242     1.0  0.72843  0.39882  0.46917  1.0000
  P   P41       1.0  0.71976  0.41039  0.50148  1.0000
  C   C1243     1.0  0.70600  0.38059  0.51761  1.0000
  C   C1244     1.0  0.74971  0.42331  0.51770  1.0000
  C   C1245     1.0  0.76187  0.40900  0.53827  1.0000
  C   C1246     1.0  0.78561  0.41917  0.54988  1.0000
  C   C1247     1.0  0.79686  0.44393  0.54157  1.0000
  H   H987      1.0  0.70074  0.44631  0.54268  1.0000
  C   C1248     1.0  0.76101  0.44831  0.50956  1.0000
  C   C1249     1.0  0.70727  0.33139  0.52468  1.0000
  C   C1250     1.0  0.71878  0.35509  0.51413  1.0000
  H   H988      1.0  0.74817  0.36544  0.40315  1.0000
  H   H989      1.0  0.78340  0.38849  0.42952  1.0000
  H   H990      1.0  0.77149  0.40915  0.47144  1.0000
  H   H991      1.0  0.75346  0.38982  0.54516  1.0000
  H   H992      1.0  0.79554  0.40765  0.56516  1.0000
  H   H993      1.0  0.81523  0.45165  0.55067  1.0000
  H   H994      1.0  0.70029  0.36308  0.41897  1.0000
  C   C1251     1.0  0.93932  0.35691  0.32877  1.0000
  H   H995      1.0  0.71779  0.31199  0.52272  1.0000
  H   H996      1.0  0.73775  0.35353  0.50337  1.0000
  H   H997      1.0  0.57043  0.24061  0.48356  1.0000
  C   C1252     1.0  0.68285  0.33294  0.53864  1.0000
  C   C1253     1.0  0.68179  0.38206  0.53217  1.0000
  C   C1254     1.0  0.54263  0.23475  0.42342  1.0000
  H   H998      1.0  0.65209  0.19913  0.63009  1.0000
  S   S171      1.0  0.68848  0.29198  0.64175  1.0000
  C   C1255     1.0  0.68299  0.44742  0.47867  1.0000
  H   H999      1.0  0.52725  0.13436  0.47608  1.0000
  C   C1256     1.0  0.67029  0.35829  0.54262  1.0000
  H   H1000     1.0  0.73906  0.20705  0.62265  1.0000
  H   H1001     1.0  0.53345  0.11398  0.40110  1.0000
  C   C1257     1.0  0.71724  0.24462  0.63010  1.0000
  C   C1258     1.0  0.76111  0.20287  0.31771  1.0000
  S   S172      1.0  0.75454  0.23078  0.38006  1.0000
  H   H1002     1.0  0.72547  0.26991  0.34705  1.0000
  C   C1259     1.0  0.72868  0.02370  0.50699  1.0000
  C   C1260     1.0  0.70856  0.38548  0.45415  1.0000
  C   C1261     1.0  0.73570  0.08799  0.62020  1.0000
  C   C1262     1.0  0.71556  0.37377  0.43028  1.0000
  C   C1263     1.0  0.49015  0.17684  0.51512  1.0000
  C   C1264     1.0  0.49835  0.16633  0.53915  1.0000
  H   H1003     1.0  0.64817  0.45601  0.60139  1.0000
  C   C1265     1.0  0.74500  0.03521  0.48760  1.0000
  H   H1004     1.0  0.67445  0.31474  0.54753  1.0000
  C   C1266     1.0  0.79675  0.16045  0.58605  1.0000
  H   H1005     1.0  0.95571  0.29601  0.33122  1.0000
  C   C1267     1.0  0.66785  0.46592  0.59984  1.0000
  H   H1006     1.0  0.88990  0.38995  0.36332  1.0000
  C   C1268     1.0  0.69581  0.43854  0.50155  1.0000
  C   C1269     1.0  0.68658  0.25088  0.33864  1.0000
  C   C1270     1.0  0.76230  0.01853  0.47285  1.0000
  H   H1007     1.0  0.65521  0.47660  0.46158  1.0000
  C   C1271     1.0  0.67320  0.47515  0.52528  1.0000
  H   H1008     1.0  0.74427  0.05707  0.48406  1.0000
  H   H1009     1.0  0.75744  0.08883  0.58391  1.0000
  H   H1010     1.0  0.73546  0.25713  0.63007  1.0000
  C   C1272     1.0  0.51673  0.14446  0.54027  1.0000
  H   H1011     1.0  0.93976  0.38065  0.36402  1.0000
  Fe  Fe87      1.0  0.56257  0.15558  0.31971  1.0000
  H   H1012     1.0  0.76896  0.01662  0.63003  1.0000
  C   C1273     1.0  0.76548  0.05170  0.60528  1.0000
  H   H1013     1.0  0.73263  0.00248  0.57525  1.0000
  H   H1014     1.0  0.96297  0.20324  0.32494  1.0000
  C   C1274     1.0  0.53639  0.21469  0.47384  1.0000
  H   H1015     1.0  0.87657  0.25239  0.31928  1.0000
  C   C1275     1.0  0.66830  0.24009  0.63464  1.0000
  H   H1016     1.0  0.63905  0.02561  0.63893  1.0000
  C   C1276     1.0  0.72956  0.99553  0.51156  1.0000
  C   C1277     1.0  0.52671  0.13293  0.51739  1.0000
  S   S173      1.0  0.56488  0.20115  0.31589  1.0000
  C   C1278     1.0  0.51456  0.12318  0.40784  1.0000
  H   H1017     1.0  0.64854  0.24927  0.63820  1.0000
  C   C1279     1.0  0.74161  0.04702  0.64644  1.0000
  C   C1280     1.0  0.66575  0.99741  0.59191  1.0000
  H   H1018     1.0  0.79322  0.47776  0.51500  1.0000
  C   C1281     1.0  0.76335  0.99031  0.47750  1.0000
  H   H1019     1.0  0.71681  0.98703  0.52677  1.0000
  C   C1282     1.0  0.97715  0.23534  0.38065  1.0000
  H   H1020     1.0  0.52373  0.13673  0.55884  1.0000
  H   H1021     1.0  0.49093  0.17550  0.55694  1.0000
  P   P42       1.0  0.49207  0.18118  0.46107  1.0000
  C   C1283     1.0  0.48965  0.11481  0.39739  1.0000
  C   C1284     1.0  0.97308  0.29793  0.31827  1.0000
  C   C1285     1.0  0.49994  0.16523  0.49194  1.0000
  H   H1022     1.0  0.77483  0.20188  0.33420  1.0000
  H   H1023     1.0  0.75066  0.16020  0.31950  1.0000
  C   C1286     1.0  0.49100  0.15558  0.43576  1.0000
  C   C1287     1.0  0.57236  0.17707  0.64550  1.0000
  C   C1288     1.0  0.66026  0.48368  0.50252  1.0000
  C   C1289     1.0  0.58797  0.20083  0.64811  1.0000
  H   H1024     1.0  0.88062  0.48092  0.64477  1.0000
  Fe  Fe88      1.0  0.76479  0.36423  0.64802  1.0000
  S   S174      1.0  0.78797  0.38527  0.68178  1.0000
  S   S175      1.0  0.59020  0.08308  0.66235  1.0000
  Fe  Fe89      1.0  0.80989  0.40420  0.84085  1.0000
  S   S176      1.0  0.80942  0.45003  0.83895  1.0000
  S   S177      1.0  0.79784  0.37621  0.80636  1.0000
  Fe  Fe90      1.0  0.82548  0.40465  0.89985  1.0000
  S   S178      1.0  0.82561  0.45056  0.90099  1.0000
  S   S179      1.0  0.84149  0.37807  0.93386  1.0000
  Fe  Fe91      1.0  0.78727  0.44869  0.87707  1.0000
  C   C1290     1.0  0.62584  0.23600  0.73992  1.0000
  Fe  Fe92      1.0  0.84775  0.44889  0.86288  1.0000
  H   H1025     1.0  0.62378  0.09419  0.91541  1.0000
  S   S180      1.0  0.78512  0.40259  0.87821  1.0000
  S   S181      1.0  0.85018  0.40292  0.86255  1.0000
  Fe  Fe93      1.0  0.57106  0.04529  0.82001  1.0000
  S   S182      1.0  0.56850  0.99957  0.81686  1.0000
  S   S183      1.0  0.59286  0.07019  0.78739  1.0000
  Fe  Fe94      1.0  0.55087  0.04317  0.87841  1.0000
  C   C1291     1.0  0.72057  0.47839  0.87918  1.0000
  S   S184      1.0  0.53333  0.06727  0.91366  1.0000
  H   H1026     1.0  0.90865  0.44463  0.66544  1.0000
  C   C1292     1.0  0.66327  0.47333  0.87583  1.0000
  Fe  Fe95      1.0  0.52882  0.00242  0.83874  1.0000
  C   C1293     1.0  0.63829  0.02707  0.68060  1.0000
  S   S185      1.0  0.59264  0.04394  0.85909  1.0000
  S   S186      1.0  0.52945  0.04853  0.83949  1.0000
  C   C1294     1.0  0.53359  0.06622  0.94858  1.0000
  C   C1295     1.0  0.51592  0.08367  0.96255  1.0000
  C   C1296     1.0  0.55119  0.04929  0.96278  1.0000
  H   H1027     1.0  0.71558  0.08101  0.65665  1.0000
  H   H1028     1.0  0.56476  0.03571  0.95241  1.0000
  C   C1297     1.0  0.84149  0.37820  0.96875  1.0000
  H   H1029     1.0  0.61107  0.22613  0.75242  1.0000
  H   H1030     1.0  0.62710  0.12603  0.79242  1.0000
  C   C1298     1.0  0.76800  0.06627  0.74935  1.0000
  C   C1299     1.0  0.76898  0.08067  0.72594  1.0000
  H   H1031     1.0  0.68504  0.18999  0.73945  1.0000
  H   H1032     1.0  0.73232  0.44174  0.94000  1.0000
  C   C1300     1.0  0.92579  0.99085  0.86155  1.0000
  C   C1301     1.0  0.87836  0.47086  0.71965  1.0000
  H   H1033     1.0  0.77550  0.99471  0.81376  1.0000
  C   C1302     1.0  0.73835  0.43900  0.76910  1.0000
  H   H1034     1.0  0.67040  0.43049  0.88324  1.0000
  C   C1303     1.0  0.70833  0.45278  0.88186  1.0000
  H   H1035     1.0  0.62606  0.02165  0.79953  1.0000
  H   H1036     1.0  0.65662  0.44779  0.69152  1.0000
  C   C1304     1.0  0.60987  0.44889  0.75882  1.0000
  C   C1305     1.0  0.65049  0.27706  0.72763  1.0000
  C   C1306     1.0  0.74461  0.99264  0.67102  1.0000
  C   C1307     1.0  0.89524  0.45427  0.70421  1.0000
  C   C1308     1.0  0.95390  0.45239  0.84038  1.0000
  C   C1309     1.0  0.92575  0.45410  0.84576  1.0000
  C   C1310     1.0  0.74678  0.02803  0.72741  1.0000
  H   H1037     1.0  0.96109  0.19468  0.95452  1.0000
  C   C1311     1.0  0.48412  0.98695  0.91492  1.0000
  H   H1038     1.0  0.91314  0.43598  0.84493  1.0000
  C   C1312     1.0  0.59212  0.07884  0.69706  1.0000
  C   C1313     1.0  0.61451  0.08755  0.71184  1.0000
  C   C1314     1.0  0.61455  0.08424  0.73920  1.0000
  C   C1315     1.0  0.59240  0.07200  0.75242  1.0000
  C   C1316     1.0  0.57032  0.06276  0.73757  1.0000
  C   C1317     1.0  0.57016  0.06631  0.71024  1.0000
  H   H1039     1.0  0.63173  0.09700  0.70222  1.0000
  H   H1040     1.0  0.63193  0.09126  0.75022  1.0000
  H   H1041     1.0  0.55306  0.05336  0.74718  1.0000
  H   H1042     1.0  0.55271  0.05936  0.69922  1.0000
  C   C1318     1.0  0.78909  0.38260  0.71654  1.0000
  C   C1319     1.0  0.79851  0.40509  0.73111  1.0000
  C   C1320     1.0  0.80087  0.40376  0.75848  1.0000
  C   C1321     1.0  0.79423  0.37968  0.77182  1.0000
  C   C1322     1.0  0.78454  0.35728  0.75726  1.0000
  C   C1323     1.0  0.78177  0.35875  0.72994  1.0000
  H   H1043     1.0  0.80433  0.42362  0.72106  1.0000
  H   H1044     1.0  0.80856  0.42110  0.76922  1.0000
  H   H1045     1.0  0.77935  0.33847  0.76719  1.0000
  H   H1046     1.0  0.77462  0.34117  0.71919  1.0000
  P   P43       1.0  0.63181  0.18561  0.71447  1.0000
  C   C1324     1.0  0.60910  0.18224  0.68701  1.0000
  C   C1325     1.0  0.66405  0.16882  0.70844  1.0000
  C   C1326     1.0  0.66696  0.14988  0.68819  1.0000
  C   C1327     1.0  0.69237  0.13782  0.68335  1.0000
  C   C1328     1.0  0.71496  0.14444  0.69859  1.0000
  C   C1329     1.0  0.71217  0.16313  0.71889  1.0000
  C   C1330     1.0  0.68684  0.17533  0.72379  1.0000
  H   H1047     1.0  0.69474  0.12402  0.66717  1.0000
  C   C1331     1.0  0.90978  0.48055  0.76580  1.0000
  H   H1048     1.0  0.76702  0.42983  0.79957  1.0000
  C   C1332     1.0  0.71806  0.47923  0.80248  1.0000
  C   C1333     1.0  0.59363  0.15827  0.68399  1.0000
  C   C1334     1.0  0.61524  0.17021  0.74228  1.0000
  C   C1335     1.0  0.75856  0.06893  0.70329  1.0000
  C   C1336     1.0  0.75685  0.04001  0.75007  1.0000
  C   C1337     1.0  0.58804  0.14343  0.78306  1.0000
  C   C1338     1.0  0.57351  0.16055  0.76630  1.0000
  C   C1339     1.0  0.58704  0.17398  0.74604  1.0000
  H   H1049     1.0  0.91626  0.00734  0.87226  1.0000
  H   H1050     1.0  0.64992  0.14471  0.67577  1.0000
  Fe  Fe96      1.0  0.58843  0.99822  0.85598  1.0000
  H   H1051     1.0  0.60914  0.08607  0.96089  1.0000
  H   H1052     1.0  0.72973  0.16845  0.73061  1.0000
  H   H1053     1.0  0.70232  0.45244  0.67137  1.0000
  H   H1054     1.0  0.64643  0.00976  0.90828  1.0000
  C   C1340     1.0  0.84873  0.48214  0.76952  1.0000
  H   H1055     1.0  0.65373  0.47655  0.81568  1.0000
  C   C1341     1.0  0.67973  0.02605  0.65493  1.0000
  H   H1056     1.0  0.65593  0.01029  0.85899  1.0000
  C   C1342     1.0  0.68415  0.99714  0.77157  1.0000
  C   C1343     1.0  0.64823  0.47608  0.77395  1.0000
  H   H1057     1.0  0.57747  0.13216  0.79819  1.0000
  H   H1058     1.0  0.55164  0.16278  0.76864  1.0000
  H   H1059     1.0  0.57536  0.18672  0.73289  1.0000
  C   C1344     1.0  0.72286  0.30867  0.70610  1.0000
  C   C1345     1.0  0.73104  0.29045  0.72549  1.0000
  C   C1346     1.0  0.72431  0.29572  0.75138  1.0000
  C   C1347     1.0  0.70989  0.31948  0.75792  1.0000
  C   C1348     1.0  0.70290  0.33863  0.73866  1.0000
  C   C1349     1.0  0.70844  0.33238  0.71263  1.0000
  P   P44       1.0  0.68344  0.36895  0.74665  1.0000
  C   C1350     1.0  0.64834  0.35803  0.74518  1.0000
  C   C1351     1.0  0.69224  0.38262  0.77811  1.0000
  C   C1352     1.0  0.67392  0.39995  0.79121  1.0000
  C   C1353     1.0  0.68013  0.40952  0.81611  1.0000
  C   C1354     1.0  0.70474  0.40215  0.82786  1.0000
  C   C1355     1.0  0.72344  0.38577  0.81460  1.0000
  C   C1356     1.0  0.71750  0.37650  0.78961  1.0000
  C   C1357     1.0  0.63562  0.35488  0.72096  1.0000
  C   C1358     1.0  0.60879  0.34524  0.71947  1.0000
  C   C1359     1.0  0.59459  0.33841  0.74211  1.0000
  C   C1360     1.0  0.60732  0.34094  0.76626  1.0000
  C   C1361     1.0  0.63421  0.35047  0.76780  1.0000
  C   C1362     1.0  0.68955  0.39610  0.72350  1.0000
  C   C1363     1.0  0.71561  0.39963  0.71266  1.0000
  C   C1364     1.0  0.72023  0.42003  0.69412  1.0000
  C   C1365     1.0  0.69889  0.43718  0.68633  1.0000
  C   C1366     1.0  0.67308  0.43439  0.69762  1.0000
  C   C1367     1.0  0.66844  0.41409  0.71632  1.0000
  H   H1060     1.0  0.72745  0.30430  0.68591  1.0000
  H   H1061     1.0  0.74229  0.27212  0.72036  1.0000
  H   H1062     1.0  0.73032  0.28139  0.76639  1.0000
  H   H1063     1.0  0.70435  0.32288  0.77800  1.0000
  H   H1064     1.0  0.70142  0.34573  0.69734  1.0000
  H   H1065     1.0  0.65481  0.40590  0.78229  1.0000
  H   H1066     1.0  0.66595  0.42262  0.82644  1.0000
  H   H1067     1.0  0.70961  0.40944  0.84709  1.0000
  H   H1068     1.0  0.74280  0.38063  0.82356  1.0000
  H   H1069     1.0  0.73281  0.36470  0.77942  1.0000
  H   H1070     1.0  0.64653  0.35958  0.70317  1.0000
  H   H1071     1.0  0.59912  0.34291  0.70069  1.0000
  H   H1072     1.0  0.57379  0.33096  0.74091  1.0000
  H   H1073     1.0  0.59641  0.33539  0.78380  1.0000
  H   H1074     1.0  0.64396  0.35162  0.78662  1.0000
  H   H1075     1.0  0.73228  0.38632  0.71817  1.0000
  H   H1076     1.0  0.74027  0.42207  0.68531  1.0000
  H   H1077     1.0  0.66712  0.03770  0.77604  1.0000
  H   H1078     1.0  0.97475  0.46176  0.78191  1.0000
  H   H1079     1.0  0.64833  0.41225  0.72487  1.0000
  C   C1368     1.0  0.61614  0.13999  0.77978  1.0000
  C   C1369     1.0  0.97059  0.47575  0.84155  1.0000
  C   C1370     1.0  0.66449  0.01605  0.77980  1.0000
  C   C1371     1.0  0.61935  0.45196  0.80476  1.0000
  C   C1372     1.0  0.71397  0.45208  0.94660  1.0000
  C   C1373     1.0  0.66368  0.26258  0.70791  1.0000
  H   H1080     1.0  0.95334  0.42331  0.89125  1.0000
  H   H1081     1.0  0.48310  0.47276  0.79340  1.0000
  C   C1374     1.0  0.63925  0.22128  0.72027  1.0000
  H   H1082     1.0  0.58541  0.22564  0.97267  1.0000
  P   P45       1.0  0.87801  0.46629  0.75438  1.0000
  C   C1375     1.0  0.95742  0.47493  0.77783  1.0000
  H   H1083     1.0  0.77787  0.10096  0.72536  1.0000
  H   H1084     1.0  0.57791  0.99279  0.97907  1.0000
  H   H1085     1.0  0.86055  0.41651  0.72619  1.0000
  S   S187      1.0  0.71897  0.36518  0.64943  1.0000
  C   C1376     1.0  0.94365  0.45889  0.91411  1.0000
  C   C1377     1.0  0.57523  0.15581  0.66343  1.0000
  C   C1378     1.0  0.61841  0.06965  0.94981  1.0000
  C   C1379     1.0  0.93968  0.43201  0.90561  1.0000
  C   C1380     1.0  0.71637  0.45535  0.76139  1.0000
  H   H1086     1.0  0.70655  0.01296  0.86168  1.0000
  C   C1381     1.0  0.63724  0.05268  0.90949  1.0000
  H   H1087     1.0  0.49026  0.98923  0.73044  1.0000
  C   C1382     1.0  0.75026  0.44282  0.79343  1.0000
  H   H1088     1.0  0.74591  0.42301  0.75644  1.0000
  H   H1089     1.0  0.49527  0.48199  0.90434  1.0000
  C   C1383     1.0  0.63237  0.02204  0.94635  1.0000
  H   H1090     1.0  0.50230  0.09705  0.95196  1.0000
  S   S188      1.0  0.50435  0.46047  0.85121  1.0000
  H   H1091     1.0  0.58566  0.42950  0.78862  1.0000
  C   C1384     1.0  0.60449  0.47715  0.96270  1.0000
  C   C1385     1.0  0.82066  0.48103  0.96782  1.0000
  H   H1092     1.0  0.96602  0.00908  0.86284  1.0000
  H   H1093     1.0  0.73467  0.13540  0.69435  1.0000
  H   H1094     1.0  0.96278  0.43291  0.83505  1.0000
  H   H1095     1.0  0.49641  0.00118  0.90378  1.0000
  C   C1386     1.0  0.91772  0.41667  0.91503  1.0000
  H   H1096     1.0  0.69373  0.03021  0.71957  1.0000
  C   C1387     1.0  0.67978  0.45031  0.88039  1.0000
  H   H1097     1.0  0.77600  0.07539  0.76694  1.0000
  C   C1388     1.0  0.86652  0.41092  0.74569  1.0000
  C   C1389     1.0  0.86378  0.38361  0.75340  1.0000
  C   C1390     1.0  0.86975  0.37595  0.77890  1.0000
  C   C1391     1.0  0.87864  0.39556  0.79667  1.0000
  C   C1392     1.0  0.63159  0.26379  0.74364  1.0000
  H   H1098     1.0  0.82009  0.46728  0.74089  1.0000
  H   H1099     1.0  0.61617  0.02743  0.68168  1.0000
  C   C1393     1.0  0.63240  0.46560  0.75355  1.0000
  C   C1394     1.0  0.93256  0.46363  0.77001  1.0000
  H   H1100     1.0  0.85594  0.36857  0.73989  1.0000
  H   H1101     1.0  0.86675  0.35496  0.78509  1.0000
  C   C1395     1.0  0.88121  0.42291  0.78909  1.0000
  C   C1396     1.0  0.88014  0.47825  0.66564  1.0000
  C   C1397     1.0  0.60621  0.20348  0.66882  1.0000
  H   H1102     1.0  0.72083  0.43506  0.88607  1.0000
  C   C1398     1.0  0.66758  0.45029  0.96300  1.0000
  C   C1399     1.0  0.87558  0.43072  0.76343  1.0000
  H   H1103     1.0  0.88300  0.38962  0.81648  1.0000
  C   C1400     1.0  0.82266  0.47884  0.75862  1.0000
  H   H1104     1.0  0.80811  0.40630  0.97364  1.0000
  C   C1401     1.0  0.58051  0.44736  0.93271  1.0000
  C   C1402     1.0  0.68239  0.02864  0.70176  1.0000
  S   S189      1.0  0.54850  0.99727  0.87765  1.0000
  H   H1105     1.0  0.59576  0.14137  0.69747  1.0000
  H   H1106     1.0  0.62293  0.45745  0.92939  1.0000
  C   C1403     1.0  0.60330  0.44214  0.78443  1.0000
  H   H1107     1.0  0.73848  0.00750  0.72825  1.0000
  C   C1404     1.0  0.65385  0.02848  0.70323  1.0000
  H   H1108     1.0  0.70202  0.00437  0.76137  1.0000
  H   H1109     1.0  0.65129  0.14934  0.75686  1.0000
  H   H1110     1.0  0.53738  0.44244  0.93945  1.0000
  C   C1405     1.0  0.64166  0.46895  0.79960  1.0000
  C   C1406     1.0  0.57980  0.48188  0.97590  1.0000
  C   C1407     1.0  0.62648  0.07419  0.92415  1.0000
  C   C1408     1.0  0.73994  0.46273  0.81020  1.0000
  C   C1409     1.0  0.90383  0.45489  0.94178  1.0000
  C   C1410     1.0  0.89987  0.42813  0.93315  1.0000
  H   H1111     1.0  0.75600  0.02899  0.76826  1.0000
  H   H1112     1.0  0.66870  0.22393  0.68888  1.0000
  H   H1113     1.0  0.93122  0.44170  0.76748  1.0000
  C   C1411     1.0  0.66572  0.47894  0.96163  1.0000
  H   H1114     1.0  0.74868  0.46513  0.82936  1.0000
  H   H1115     1.0  0.65491  0.29855  0.73038  1.0000
  C   C1412     1.0  0.89590  0.45779  0.67728  1.0000
  H   H1116     1.0  0.70694  0.45169  0.74278  1.0000
  C   C1413     1.0  0.65122  0.02597  0.65648  1.0000
  H   H1117     1.0  0.61803  0.22205  0.67036  1.0000
  H   H1118     1.0  0.64311  0.05603  0.88946  1.0000
  H   H1119     1.0  0.91427  0.39603  0.90809  1.0000
  H   H1120     1.0  0.58066  0.43487  0.91533  1.0000
  H   H1121     1.0  0.88728  0.43805  0.80331  1.0000
  H   H1122     1.0  0.67801  0.27289  0.69517  1.0000
  H   H1123     1.0  0.87473  0.34933  0.97108  1.0000
  C   C1414     1.0  0.91399  0.47936  0.85182  1.0000
  C   C1415     1.0  0.60454  0.46021  0.94076  1.0000
  H   H1124     1.0  0.88275  0.41636  0.94032  1.0000
  H   H1125     1.0  0.61423  0.44681  0.82466  1.0000
  C   C1416     1.0  0.64127  0.00704  0.79302  1.0000
  C   C1417     1.0  0.63946  0.02654  0.92031  1.0000
  C   C1418     1.0  0.69157  0.43693  0.95532  1.0000
  H   H1126     1.0  0.64365  0.02992  0.72188  1.0000
  H   H1127     1.0  0.65043  0.43825  0.96973  1.0000
  P   P46       1.0  0.73259  0.02739  0.67496  1.0000
  C   C1419     1.0  0.69564  0.02719  0.67755  1.0000
  C   C1420     1.0  0.74711  0.04256  0.70387  1.0000
  H   H1128     1.0  0.68772  0.00626  0.94072  1.0000
  C   C1421     1.0  0.62974  0.15322  0.75945  1.0000
  C   C1422     1.0  0.55612  0.45178  0.94621  1.0000
  H   H1129     1.0  0.75970  0.08053  0.68547  1.0000
  H   H1130     1.0  0.59740  0.44134  0.74304  1.0000
  H   H1131     1.0  0.62134  0.27509  0.75888  1.0000
  C   C1423     1.0  0.66792  0.99178  0.86068  1.0000
  C   C1424     1.0  0.65825  0.23480  0.70433  1.0000
  H   H1132     1.0  0.90781  0.43853  0.71301  1.0000
  S   S190      1.0  0.62750  0.46896  0.87551  1.0000
  C   C1425     1.0  0.68709  0.98414  0.94015  1.0000
  H   H1133     1.0  0.56360  0.13709  0.66114  1.0000
  H   H1134     1.0  0.95060  0.13862  0.97448  1.0000
  H   H1135     1.0  0.69273  0.41480  0.95582  1.0000
  C   C1426     1.0  0.79541  0.46903  0.97317  1.0000
  S   S191      1.0  0.87848  0.48313  0.85693  1.0000
  H   H1136     1.0  0.78041  0.99736  0.69547  1.0000
  C   C1427     1.0  0.70673  0.47630  0.77758  1.0000
  C   C1428     1.0  0.69660  0.99321  0.86209  1.0000
  H   H1137     1.0  0.63728  0.47022  0.73357  1.0000
  H   H1138     1.0  0.88959  0.46350  0.95557  1.0000
  C   C1429     1.0  0.95398  0.99189  0.85628  1.0000
  H   H1139     1.0  0.78051  0.46670  0.95778  1.0000
  C   C1430     1.0  0.97909  0.18202  0.95222  1.0000
  H   H1140     1.0  0.81226  0.98666  0.78141  1.0000
  C   C1431     1.0  0.92580  0.47048  0.93243  1.0000
  H   H1141     1.0  0.96031  0.47054  0.90586  1.0000
  C   C1432     1.0  0.55576  0.46910  0.96776  1.0000
  C   C1433     1.0  0.62135  0.04369  0.96091  1.0000
  C   C1434     1.0  0.71255  0.48061  0.94589  1.0000
  S   S192      1.0  0.75607  0.48261  0.88355  1.0000
  C   C1435     1.0  0.76893  0.98387  0.68296  1.0000
  H   H1142     1.0  0.53672  0.47327  0.97771  1.0000
  P   P47       1.0  0.63383  0.98790  0.95961  1.0000
  C   C1436     1.0  0.48950  0.48247  0.92466  1.0000
  H   H1143     1.0  0.92529  0.01320  0.97959  1.0000
  C   C1437     1.0  0.77105  0.98393  0.79585  1.0000
  H   H1144     1.0  0.97608  0.18188  0.91046  1.0000
  H   H1145     1.0  0.61420  0.04043  0.98054  1.0000
  S   S193      1.0  0.83357  0.82662  0.29368  1.0000
  S   S194      1.0  0.52889  0.62689  0.29504  1.0000
  Fe  Fe97      1.0  0.51237  0.59378  0.07699  1.0000
  H   H1146     1.0  0.56027  0.53960  0.00657  1.0000
  S   S195      1.0  0.53914  0.57897  0.04283  1.0000
  Fe  Fe98      1.0  0.51410  0.60551  0.13673  1.0000
  H   H1147     1.0  0.59662  0.65799  0.15812  1.0000
  S   S196      1.0  0.54266  0.61711  0.17078  1.0000
  H   H1148     1.0  0.93743  0.74283  0.27103  1.0000
  C   C1438     1.0  0.95442  0.94239  0.02638  1.0000
  C   C1439     1.0  0.97651  0.73364  0.09854  1.0000
  S   S197      1.0  0.94259  0.65856  0.08653  1.0000
  S   S198      1.0  0.51556  0.56669  0.11255  1.0000
  S   S199      1.0  0.51441  0.63268  0.10104  1.0000
  Fe  Fe99      1.0  0.88091  0.85626  0.08077  1.0000
  S   S200      1.0  0.92686  0.85791  0.08359  1.0000
  S   S201      1.0  0.85972  0.87766  0.04593  1.0000
  Fe  Fe100     1.0  0.87582  0.83591  0.13846  1.0000
  S   S202      1.0  0.92102  0.83743  0.14408  1.0000
  S   S203      1.0  0.84863  0.81644  0.17020  1.0000
  Fe  Fe101     1.0  0.92034  0.87725  0.12246  1.0000
  S   S204      1.0  0.95031  0.90876  0.13753  1.0000
  Fe  Fe102     1.0  0.92400  0.81774  0.10493  1.0000
  S   S205      1.0  0.95845  0.78661  0.10266  1.0000
  S   S206      1.0  0.87455  0.87772  0.11942  1.0000
  S   S207      1.0  0.87843  0.81420  0.09958  1.0000
  C   C1440     1.0  0.94758  0.69407  0.09105  1.0000
  C   C1441     1.0  0.97200  0.52938  0.00818  1.0000
  C   C1442     1.0  0.90318  0.51313  0.04542  1.0000
  C   C1443     1.0  0.95364  0.75107  0.09825  1.0000
  C   C1444     1.0  0.92770  0.73988  0.09447  1.0000
  C   C1445     1.0  0.92471  0.71149  0.09090  1.0000
  H   H1149     1.0  0.92962  0.59485  0.24093  1.0000
  C   C1446     1.0  0.49324  0.51487  0.19592  1.0000
  H   H1150     1.0  0.91002  0.75315  0.09391  1.0000
  H   H1151     1.0  0.64234  0.50745  0.08108  1.0000
  C   C1447     1.0  0.93778  0.50016  0.11730  1.0000
  H   H1152     1.0  0.90459  0.70300  0.08778  1.0000
  H   H1153     1.0  0.60886  0.54799  0.98702  1.0000
  C   C1448     1.0  0.94713  0.94410  0.13124  1.0000
  H   H1154     1.0  0.86189  0.73875  0.27390  1.0000
  C   C1449     1.0  0.68621  0.72334  0.23568  1.0000
  C   C1450     1.0  0.55733  0.72581  0.26658  1.0000
  H   H1155     1.0  0.90713  0.94170  0.11419  1.0000
  H   H1156     1.0  0.87640  0.76497  0.23489  1.0000
  H   H1157     1.0  0.69315  0.67325  0.26202  1.0000
  H   H1158     1.0  0.59490  0.71233  0.22314  1.0000
  C   C1451     1.0  0.53455  0.57528  0.00852  1.0000
  C   C1452     1.0  0.60750  0.66939  0.17292  1.0000
  H   H1159     1.0  0.50886  0.61057  0.00339  1.0000
  C   C1453     1.0  0.73863  0.74552  0.22902  1.0000
  C   C1454     1.0  0.85355  0.84842  0.99929  1.0000
  C   C1455     1.0  0.85099  0.87342  0.01231  1.0000
  C   C1456     1.0  0.84086  0.89610  0.99830  1.0000
  H   H1160     1.0  0.86125  0.83072  0.00958  1.0000
  H   H1161     1.0  0.83874  0.91558  0.00803  1.0000
  C   C1457     1.0  0.53322  0.62452  0.26046  1.0000
  C   C1458     1.0  0.51094  0.61627  0.24501  1.0000
  C   C1459     1.0  0.51322  0.61420  0.21766  1.0000
  C   C1460     1.0  0.53811  0.61971  0.20527  1.0000
  C   C1461     1.0  0.56048  0.62753  0.22075  1.0000
  C   C1462     1.0  0.55809  0.62997  0.24802  1.0000
  C   C1463     1.0  0.93140  0.84327  0.31038  1.0000
  Fe  Fe103     1.0  0.97462  0.62530  0.09206  1.0000
  H   H1162     1.0  0.57997  0.63150  0.21162  1.0000
  H   H1163     1.0  0.57566  0.63570  0.25938  1.0000
  C   C1464     1.0  0.83980  0.82133  0.25981  1.0000
  C   C1465     1.0  0.85854  0.83837  0.24670  1.0000
  C   C1466     1.0  0.86246  0.83640  0.21956  1.0000
  C   C1467     1.0  0.84686  0.81807  0.20489  1.0000
  C   C1468     1.0  0.82834  0.80084  0.21804  1.0000
  C   C1469     1.0  0.82503  0.80224  0.24529  1.0000
  H   H1164     1.0  0.86996  0.85339  0.25756  1.0000
  H   H1165     1.0  0.87717  0.84946  0.21001  1.0000
  H   H1166     1.0  0.81613  0.78662  0.20697  1.0000
  H   H1167     1.0  0.81027  0.78934  0.25497  1.0000
  C   C1470     1.0  0.54564  0.48449  0.05538  1.0000
  C   C1471     1.0  0.51961  0.71940  0.22606  1.0000
  H   H1168     1.0  0.61079  0.95392  0.00137  1.0000
  C   C1472     1.0  0.65196  0.52531  0.04393  1.0000
  C   C1473     1.0  0.73513  0.95462  0.14991  1.0000
  C   C1474     1.0  0.93335  0.89014  0.01696  1.0000
  H   H1169     1.0  0.52364  0.67604  0.23369  1.0000
  C   C1475     1.0  0.52819  0.54046  0.17282  1.0000
  C   C1476     1.0  0.88953  0.74560  0.15343  1.0000
  C   C1477     1.0  0.90897  0.76272  0.16465  1.0000
  C   C1478     1.0  0.91987  0.75640  0.18896  1.0000
  C   C1479     1.0  0.91206  0.73232  0.20168  1.0000
  C   C1480     1.0  0.89314  0.71458  0.19012  1.0000
  C   C1481     1.0  0.88142  0.72173  0.16619  1.0000
  P   P48       1.0  0.88229  0.68390  0.20666  1.0000
  C   C1482     1.0  0.87794  0.65702  0.18275  1.0000
  C   C1483     1.0  0.90965  0.67249  0.22764  1.0000
  C   C1484     1.0  0.93366  0.66200  0.21658  1.0000
  C   C1485     1.0  0.95454  0.65191  0.23226  1.0000
  C   C1486     1.0  0.95162  0.65174  0.25919  1.0000
  C   C1487     1.0  0.54822  0.74865  0.25275  1.0000
  C   C1488     1.0  0.90749  0.67380  0.25484  1.0000
  C   C1489     1.0  0.85895  0.63587  0.18660  1.0000
  C   C1490     1.0  0.85734  0.61414  0.16896  1.0000
  C   C1491     1.0  0.87459  0.61337  0.14734  1.0000
  C   C1492     1.0  0.89329  0.63445  0.14317  1.0000
  C   C1493     1.0  0.89497  0.65616  0.16071  1.0000
  C   C1494     1.0  0.85154  0.69084  0.22521  1.0000
  C   C1495     1.0  0.83813  0.71620  0.22290  1.0000
  C   C1496     1.0  0.81599  0.72253  0.23901  1.0000
  C   C1497     1.0  0.80687  0.70363  0.25744  1.0000
  C   C1498     1.0  0.81972  0.67820  0.25956  1.0000
  C   C1499     1.0  0.84188  0.67176  0.24349  1.0000
  H   H1170     1.0  0.88073  0.75095  0.13480  1.0000
  H   H1171     1.0  0.91546  0.78092  0.15442  1.0000
  H   H1172     1.0  0.93447  0.77015  0.19775  1.0000
  H   H1173     1.0  0.92068  0.72761  0.22048  1.0000
  H   H1174     1.0  0.86613  0.70881  0.15726  1.0000
  H   H1175     1.0  0.93641  0.66155  0.19581  1.0000
  H   H1176     1.0  0.89128  0.92908  0.05680  1.0000
  H   H1177     1.0  0.49216  0.67848  0.31117  1.0000
  H   H1178     1.0  0.49458  0.52870  0.04001  1.0000
  H   H1179     1.0  0.89011  0.68325  0.26420  1.0000
  H   H1180     1.0  0.84548  0.63584  0.20318  1.0000
  H   H1181     1.0  0.84281  0.59777  0.17212  1.0000
  H   H1182     1.0  0.87356  0.59644  0.13377  1.0000
  H   H1183     1.0  0.90662  0.63393  0.12630  1.0000
  H   H1184     1.0  0.90986  0.67206  0.15705  1.0000
  H   H1185     1.0  0.84495  0.73148  0.20912  1.0000
  H   H1186     1.0  0.80629  0.74237  0.23759  1.0000
  H   H1187     1.0  0.79008  0.70881  0.27035  1.0000
  H   H1188     1.0  0.53765  0.55980  0.16793  1.0000
  H   H1189     1.0  0.85209  0.65226  0.24604  1.0000
  C   C1500     1.0  0.88263  0.90843  0.18008  1.0000
  H   H1190     1.0  0.98243  0.54769  0.01468  1.0000
  C   C1501     1.0  0.70292  0.72853  0.25728  1.0000
  H   H1191     1.0  0.82444  0.96887  0.09467  1.0000
  C   C1502     1.0  0.83495  0.91794  0.17074  1.0000
  C   C1503     1.0  0.85557  0.89966  0.17823  1.0000
  P   P49       1.0  0.80061  0.90541  0.16668  1.0000
  C   C1504     1.0  0.77619  0.93304  0.16680  1.0000
  C   C1505     1.0  0.80104  0.88754  0.13606  1.0000
  C   C1506     1.0  0.80241  0.90249  0.11280  1.0000
  C   C1507     1.0  0.80503  0.88892  0.08904  1.0000
  C   C1508     1.0  0.80670  0.86038  0.08837  1.0000
  C   C1509     1.0  0.80571  0.84539  0.11145  1.0000
  C   C1510     1.0  0.80297  0.85890  0.13521  1.0000
  C   C1511     1.0  0.75435  0.93342  0.14916  1.0000
  H   H1192     1.0  0.96751  0.83649  0.19145  1.0000
  C   C1512     1.0  0.79090  0.88391  0.19372  1.0000
  C   C1513     1.0  0.80386  0.88661  0.21789  1.0000
  C   C1514     1.0  0.79589  0.87028  0.23886  1.0000
  C   C1515     1.0  0.77486  0.85127  0.23596  1.0000
  C   C1516     1.0  0.76137  0.84894  0.21218  1.0000
  C   C1517     1.0  0.76913  0.86543  0.19121  1.0000
  C   C1518     1.0  0.59305  0.68630  0.18991  1.0000
  C   C1519     1.0  0.96523  0.70259  0.15946  1.0000
  C   C1520     1.0  0.50563  0.50951  0.04092  1.0000
  H   H1193     1.0  0.51842  0.56436  0.28373  1.0000
  H   H1194     1.0  0.85077  0.87836  0.18183  1.0000
  H   H1195     1.0  0.80213  0.92462  0.11306  1.0000
  H   H1196     1.0  0.80683  0.90043  0.07111  1.0000
  H   H1197     1.0  0.80966  0.85000  0.06997  1.0000
  H   H1198     1.0  0.80800  0.82333  0.11102  1.0000
  H   H1199     1.0  0.80333  0.84694  0.15285  1.0000
  H   H1200     1.0  0.75191  0.91724  0.13501  1.0000
  C   C1521     1.0  0.50400  0.49050  0.18556  1.0000
  H   H1201     1.0  0.82020  0.90119  0.22069  1.0000
  H   H1202     1.0  0.80635  0.87197  0.25734  1.0000
  H   H1203     1.0  0.76923  0.83827  0.25217  1.0000
  H   H1204     1.0  0.74498  0.83428  0.21000  1.0000
  H   H1205     1.0  0.75832  0.86359  0.17298  1.0000
  H   H1206     1.0  0.60266  0.64709  0.29740  1.0000
  C   C1522     1.0  0.52965  0.74546  0.23240  1.0000
  C   C1523     1.0  0.84199  0.94487  0.16386  1.0000
  C   C1524     1.0  0.64952  0.68016  0.19556  1.0000
  C   C1525     1.0  0.63519  0.69766  0.21235  1.0000
  C   C1526     1.0  0.60675  0.70028  0.20959  1.0000
  P   P50       1.0  0.65176  0.71143  0.24071  1.0000
  C   C1527     1.0  0.63389  0.74137  0.25205  1.0000
  C   C1528     1.0  0.96825  0.96168  0.13900  1.0000
  H   H1207     1.0  0.55521  0.76888  0.25806  1.0000
  C   C1529     1.0  0.63106  0.74610  0.27869  1.0000
  C   C1530     1.0  0.61866  0.77006  0.28769  1.0000
  C   C1531     1.0  0.60933  0.78969  0.27005  1.0000
  C   C1532     1.0  0.61237  0.78528  0.24338  1.0000
  C   C1533     1.0  0.62475  0.76125  0.23439  1.0000
  H   H1208     1.0  0.57897  0.49595  0.99208  1.0000
  C   C1534     1.0  0.97926  0.78345  0.30297  1.0000
  H   H1209     1.0  0.92481  0.86991  0.01395  1.0000
  C   C1535     1.0  0.65023  0.52249  0.01698  1.0000
  H   H1210     1.0  0.55619  0.71920  0.10751  1.0000
  C   C1536     1.0  0.67115  0.64558  0.28655  1.0000
  H   H1211     1.0  0.60650  0.68757  0.26920  1.0000
  C   C1537     1.0  0.54441  0.71866  0.12532  1.0000
  H   H1212     1.0  0.63881  0.73140  0.29250  1.0000
  H   H1213     1.0  0.71835  0.95486  0.13621  1.0000
  H   H1214     1.0  0.82677  0.95898  0.15661  1.0000
  C   C1538     1.0  0.64098  0.50521  0.06019  1.0000
  C   C1539     1.0  0.91704  0.91325  0.01302  1.0000
  H   H1215     1.0  0.95653  0.53460  0.16771  1.0000
  H   H1216     1.0  0.92865  0.90479  0.22862  1.0000
  C   C1540     1.0  0.92350  0.95512  0.12016  1.0000
  C   C1541     1.0  0.53879  0.51618  0.16270  1.0000
  C   C1542     1.0  0.91744  0.79531  0.27989  1.0000
  C   C1543     1.0  0.54827  0.69972  0.25967  1.0000
  C   C1544     1.0  0.54866  0.55426  0.99539  1.0000
  H   H1217     1.0  0.68917  0.63378  0.29146  1.0000
  C   C1545     1.0  0.94861  0.87237  0.20762  1.0000
  H   H1218     1.0  0.61661  0.77338  0.30841  1.0000
  H   H1219     1.0  0.49570  0.60837  0.20619  1.0000
  C   C1546     1.0  0.97939  0.71748  0.17822  1.0000
  H   H1220     1.0  0.67115  0.67651  0.19828  1.0000
  C   C1547     1.0  0.95997  0.54166  0.20910  1.0000
  C   C1548     1.0  0.95672  0.83060  0.23173  1.0000
  P   P51       1.0  0.98026  0.51140  0.21485  1.0000
  C   C1549     1.0  0.86086  0.53228  0.02928  1.0000
  C   C1550     1.0  0.65015  0.68393  0.26402  1.0000
  C   C1551     1.0  0.93452  0.57055  0.17928  1.0000
  H   H1221     1.0  0.92464  0.87838  0.26926  1.0000
  C   C1552     1.0  0.88937  0.93548  0.17418  1.0000
  C   C1553     1.0  0.95855  0.84559  0.20866  1.0000
  C   C1554     1.0  0.92813  0.66283  0.27049  1.0000
  C   C1555     1.0  0.87729  0.94620  0.05753  1.0000
  C   C1556     1.0  0.52993  0.69645  0.23913  1.0000
  H   H1222     1.0  0.97409  0.73871  0.18120  1.0000
  H   H1223     1.0  0.90759  0.58243  0.04089  1.0000
  H   H1224     1.0  0.83985  0.52999  0.02313  1.0000
  H   H1225     1.0  0.91545  0.49617  0.05209  1.0000
  C   C1557     1.0  0.72912  0.73932  0.25392  1.0000
  H   H1226     1.0  0.65915  0.53808  0.00465  1.0000
  H   H1227     1.0  0.85992  0.57628  0.02561  1.0000
  H   H1228     1.0  0.92749  0.57482  0.15974  1.0000
  H   H1229     1.0  0.48372  0.94540  0.04026  1.0000
  C   C1558     1.0  0.89888  0.56209  0.03938  1.0000
  H   H1230     1.0  0.57106  0.68778  0.18841  1.0000
  C   C1559     1.0  0.50236  0.54945  0.28048  1.0000
  C   C1560     1.0  0.77796  0.95357  0.18574  1.0000
  H   H1231     1.0  0.96447  0.80984  0.23226  1.0000
  H   H1232     1.0  0.94940  0.71241  0.14804  1.0000
  C   C1561     1.0  0.63575  0.66638  0.17569  1.0000
  C   C1562     1.0  0.86911  0.95365  0.16587  1.0000
  H   H1233     1.0  0.48690  0.72892  0.31265  1.0000
  H   H1234     1.0  0.49167  0.61161  0.25427  1.0000
  H   H1235     1.0  0.88862  0.84049  0.30047  1.0000
  H   H1236     1.0  0.48384  0.95573  0.14505  1.0000
  H   H1237     1.0  0.53829  0.76232  0.12657  1.0000
  C   C1563     1.0  0.95100  0.54768  0.18388  1.0000
  C   C1564     1.0  0.97331  0.73547  0.24794  1.0000
  H   H1238     1.0  0.97289  0.87514  0.02840  1.0000
  H   H1239     1.0  0.50698  0.55070  0.23941  1.0000
  H   H1240     1.0  0.89850  0.89397  0.18516  1.0000
  C   C1565     1.0  0.63699  0.49978  0.00612  1.0000
  C   C1566     1.0  0.48815  0.53847  0.30155  1.0000
  C   C1567     1.0  0.53030  0.50858  0.05457  1.0000
  C   C1568     1.0  0.51307  0.71706  0.17092  1.0000
  C   C1569     1.0  0.51887  0.74219  0.15890  1.0000
  C   C1570     1.0  0.85763  0.94657  0.07722  1.0000
  H   H1241     1.0  0.89610  0.91062  0.00681  1.0000
  C   C1571     1.0  0.53910  0.69365  0.13747  1.0000
  C   C1572     1.0  0.52347  0.69282  0.16017  1.0000
  C   C1573     1.0  0.64569  0.63800  0.29651  1.0000
  P   P52       1.0  0.49419  0.71591  0.20094  1.0000
  C   C1574     1.0  0.97596  0.80875  0.29041  1.0000
  C   C1575     1.0  0.96407  0.71397  0.28940  1.0000
  C   C1576     1.0  0.88876  0.76041  0.29961  1.0000
  H   H1242     1.0  0.69566  0.72449  0.27682  1.0000
  H   H1243     1.0  0.52273  0.76341  0.22192  1.0000
  C   C1577     1.0  0.96035  0.89312  0.02518  1.0000
  C   C1578     1.0  0.53440  0.74293  0.13610  1.0000
  H   H1244     1.0  0.51126  0.76121  0.16693  1.0000
  H   H1245     1.0  0.91109  0.80070  0.23842  1.0000
  H   H1246     1.0  0.92623  0.66348  0.29147  1.0000
  H   H1247     1.0  0.54706  0.67480  0.12934  1.0000
  H   H1248     1.0  0.51977  0.67323  0.16941  1.0000
  C   C1579     1.0  0.95858  0.52928  0.98428  1.0000
  C   C1580     1.0  0.62248  0.65323  0.29015  1.0000
  C   C1581     1.0  0.75870  0.97473  0.18645  1.0000
  C   C1582     1.0  0.92728  0.93948  0.01805  1.0000
  C   C1583     1.0  0.91432  0.53935  0.04672  1.0000
  C   C1584     1.0  0.69572  0.73003  0.21076  1.0000
  H   H1249     1.0  0.93480  0.54199  0.05417  1.0000
  H   H1250     1.0  0.60537  0.80060  0.22969  1.0000
  H   H1251     1.0  0.48496  0.50166  0.12431  1.0000
  H   H1252     1.0  0.95021  0.88402  0.18972  1.0000
  C   C1585     1.0  0.93428  0.86900  0.25258  1.0000
  C   C1586     1.0  0.73736  0.97532  0.16848  1.0000
  H   H1253     1.0  0.89445  0.49295  0.11566  1.0000
  C   C1587     1.0  0.87756  0.75428  0.27542  1.0000
  H   H1254     1.0  0.97300  0.64419  0.22340  1.0000
  H   H1255     1.0  0.81282  0.66371  0.27411  1.0000
  H   H1256     1.0  0.96732  0.74978  0.23297  1.0000
  C   C1588     1.0  0.93561  0.58169  0.22500  1.0000
  C   C1589     1.0  0.92711  0.58775  0.19975  1.0000
  H   H1257     1.0  0.96150  0.66389  0.13988  1.0000
  H   H1258     1.0  0.68281  0.72738  0.19393  1.0000
  H   H1259     1.0  0.96791  0.64370  0.27131  1.0000
  C   C1590     1.0  0.97094  0.91924  0.02971  1.0000
  C   C1591     1.0  0.93645  0.88405  0.22954  1.0000
  C   C1592     1.0  0.88595  0.76881  0.25347  1.0000
  S   S208      1.0  0.97186  0.60297  0.13003  1.0000
  H   H1260     1.0  0.64681  0.65270  0.16289  1.0000
  H   H1261     1.0  0.91461  0.60562  0.19604  1.0000
  C   C1593     1.0  0.90579  0.78924  0.25563  1.0000
  C   C1594     1.0  0.97353  0.70523  0.09493  1.0000
  H   H1262     1.0  0.59992  0.80836  0.27706  1.0000
  S   S209      1.0  0.96893  0.58732  0.06808  1.0000
  H   H1263     1.0  0.53761  0.52668  0.06447  1.0000
  S   S210      1.0  0.93391  0.53584  0.11323  1.0000
  H   H1264     1.0  0.74186  0.74311  0.27077  1.0000
  C   C1595     1.0  0.72195  0.74089  0.20746  1.0000
  C   C1596     1.0  0.96343  0.48810  0.12070  1.0000
  H   H1265     1.0  0.55628  0.51681  0.14981  1.0000
  H   H1266     1.0  0.66183  0.54310  0.05221  1.0000
  C   C1597     1.0  0.87643  0.50930  0.03648  1.0000
  H   H1267     1.0  0.75878  0.75425  0.22646  1.0000
  C   C1598     1.0  0.97241  0.50583  0.02354  1.0000
  C   C1599     1.0  0.95640  0.73179  0.26952  1.0000
  C   C1600     1.0  0.87872  0.96769  0.03943  1.0000
  P   P53       1.0  0.94235  0.82238  0.28341  1.0000
  C   C1601     1.0  0.94453  0.84218  0.25385  1.0000
  H   H1268     1.0  0.62747  0.75831  0.21371  1.0000
  C   C1602     1.0  0.83322  0.48578  0.11173  1.0000
  C   C1603     1.0  0.95167  0.55850  0.22974  1.0000
  H   H1269     1.0  0.85659  0.92968  0.09083  1.0000
  H   H1270     1.0  0.91047  0.94212  0.17524  1.0000
  C   C1604     1.0  0.67338  0.66829  0.27010  1.0000
  H   H1271     1.0  0.96283  0.96237  0.03044  1.0000
  H   H1272     1.0  0.95753  0.55378  0.24950  1.0000
  Fe  Fe104     1.0  0.96937  0.56479  0.10597  1.0000
  H   H1273     1.0  0.72925  0.74603  0.18820  1.0000
  C   C1605     1.0  0.87209  0.55856  0.03075  1.0000
  C   C1606     1.0  0.62470  0.67617  0.27411  1.0000
  H   H1274     1.0  0.84805  0.51210  0.08156  1.0000
  C   C1607     1.0  0.83952  0.96856  0.07931  1.0000
  H   H1275     1.0  0.57138  0.72832  0.28265  1.0000
  P   P54       1.0  0.90498  0.96868  0.01469  1.0000
  H   H1276     1.0  0.55519  0.68200  0.27046  1.0000
  C   C1608     1.0  0.62326  0.96973  0.01004  1.0000
  H   H1277     1.0  0.48582  0.74748  0.10697  1.0000
  C   C1609     1.0  0.97200  0.67527  0.15486  1.0000
  H   H1278     1.0  0.95125  0.71173  0.30643  1.0000
  H   H1279     1.0  0.79417  0.95313  0.20004  1.0000
  H   H1280     1.0  0.98163  0.50062  0.12017  1.0000
  H   H1281     1.0  0.95265  0.48565  0.25940  1.0000
  C   C1610     1.0  0.51962  0.59412  0.99375  1.0000
  C   C1611     1.0  0.90834  0.78103  0.30193  1.0000
  C   C1612     1.0  0.92057  0.98367  0.11796  1.0000
  C   C1613     1.0  0.50523  0.53991  0.18894  1.0000
  H   H1282     1.0  0.84805  0.96654  0.99481  1.0000
  H   H1283     1.0  0.83081  0.50233  0.12551  1.0000
  H   H1284     1.0  0.87467  0.97436  0.16044  1.0000
  H   H1285     1.0  0.61456  0.95633  0.04904  1.0000
  H   H1286     1.0  0.64390  0.62033  0.30912  1.0000
  H   H1287     1.0  0.96190  0.77152  0.30916  1.0000
  H   H1288     1.0  0.49688  0.55906  0.19591  1.0000
  C   C1614     1.0  0.49570  0.54158  0.25519  1.0000
  C   C1615     1.0  0.84297  0.49125  0.08671  1.0000
  C   C1616     1.0  0.52659  0.49122  0.16894  1.0000
  C   C1617     1.0  0.62552  0.97090  0.03707  1.0000
  C   C1618     1.0  0.90350  0.84871  0.31383  1.0000
  C   C1619     1.0  0.49573  0.48589  0.02866  1.0000
  H   H1289     1.0  0.85981  0.49261  0.98288  1.0000
  H   H1290     1.0  0.56477  0.48405  0.06589  1.0000
  C   C1620     1.0  0.89047  0.96754  0.98248  1.0000
  Fe  Fe105     1.0  0.71786  0.88380  0.60123  1.0000
  S   S211      1.0  0.76373  0.88462  0.60161  1.0000
  S   S212      1.0  0.68567  0.91747  0.60203  1.0000
  Fe  Fe106     1.0  0.71638  0.82150  0.60838  1.0000
  S   S213      1.0  0.76213  0.81823  0.60992  1.0000
  C   C1621     1.0  0.63057  0.74050  0.43201  1.0000
  H   H1291     1.0  0.66132  0.76583  0.34812  1.0000
  Fe  Fe107     1.0  0.76168  0.84707  0.57557  1.0000
  S   S214      1.0  0.78985  0.83638  0.54089  1.0000
  C   C1622     1.0  0.56842  0.81185  0.47634  1.0000
  S   S215      1.0  0.71607  0.84858  0.57315  1.0000
  Fe  Fe108     1.0  0.66209  0.57267  0.60098  1.0000
  S   S216      1.0  0.61644  0.56856  0.59718  1.0000
  S   S217      1.0  0.69669  0.54345  0.59051  1.0000
  Fe  Fe109     1.0  0.65785  0.63070  0.62325  1.0000
  S   S218      1.0  0.61189  0.63032  0.62190  1.0000
  H   H1292     1.0  0.81397  0.88850  0.55619  1.0000
  C   C1623     1.0  0.69694  0.69700  0.33282  1.0000
  Fe  Fe110     1.0  0.61690  0.61202  0.58151  1.0000
  S   S219      1.0  0.59499  0.63394  0.54719  1.0000
  C   C1624     1.0  0.54892  0.73259  0.46056  1.0000
  S   S220      1.0  0.66272  0.61458  0.58286  1.0000
  Fe  Fe111     1.0  0.79888  0.79059  0.38299  1.0000
  S   S221      1.0  0.79902  0.74456  0.37970  1.0000
  S   S222      1.0  0.77798  0.81191  0.41826  1.0000
  Fe  Fe112     1.0  0.81833  0.79676  0.32524  1.0000
  H   H1293     1.0  0.64222  0.73583  0.39204  1.0000
  Fe  Fe113     1.0  0.77907  0.75050  0.34096  1.0000
  H   H1294     1.0  0.51990  0.64431  0.44596  1.0000
  Fe  Fe114     1.0  0.83891  0.74904  0.35813  1.0000
  S   S223      1.0  0.87106  0.71540  0.36135  1.0000
  S   S224      1.0  0.77673  0.79629  0.34454  1.0000
  S   S225      1.0  0.84058  0.79481  0.36384  1.0000
  H   H1295     1.0  0.72601  0.90410  0.54292  1.0000
  C   C1625     1.0  0.74598  0.74526  0.52364  1.0000
  Fe  Fe115     1.0  0.56530  0.64831  0.38891  1.0000
  S   S226      1.0  0.56771  0.69400  0.39067  1.0000
  S   S227      1.0  0.57712  0.62074  0.42372  1.0000
  Fe  Fe116     1.0  0.52878  0.69428  0.36763  1.0000
  S   S228      1.0  0.49919  0.72930  0.37428  1.0000
  Fe  Fe117     1.0  0.58892  0.69153  0.35214  1.0000
  P   P55       1.0  0.62636  0.77717  0.42902  1.0000
  S   S229      1.0  0.52449  0.64855  0.36798  1.0000
  S   S230      1.0  0.58907  0.64537  0.35108  1.0000
  C   C1626     1.0  0.71267  0.72097  0.33464  1.0000
  C   C1627     1.0  0.69980  0.74566  0.34085  1.0000
  C   C1628     1.0  0.62422  0.72649  0.45506  1.0000
  C   C1629     1.0  0.65555  0.72255  0.34210  1.0000
  C   C1630     1.0  0.66853  0.69770  0.33694  1.0000
  H   H1296     1.0  0.55944  0.72728  0.50084  1.0000
  C   C1631     1.0  0.70907  0.71474  0.63323  1.0000
  H   H1297     1.0  0.64184  0.78290  0.48338  1.0000
  H   H1298     1.0  0.80389  0.93315  0.48420  1.0000
  H   H1299     1.0  0.63989  0.91007  0.52913  1.0000
  C   C1632     1.0  0.90703  0.71958  0.36124  1.0000
  C   C1633     1.0  0.91922  0.74529  0.36375  1.0000
  C   C1634     1.0  0.94789  0.74756  0.36464  1.0000
  C   C1635     1.0  0.78983  0.92198  0.47196  1.0000
  C   C1636     1.0  0.95248  0.69857  0.35980  1.0000
  C   C1637     1.0  0.92379  0.69629  0.35904  1.0000
  H   H1300     1.0  0.90655  0.76332  0.36573  1.0000
  H   H1301     1.0  0.95715  0.76746  0.36719  1.0000
  C   C1638     1.0  0.61418  0.80322  0.38174  1.0000
  H   H1302     1.0  0.81884  0.74742  0.55362  1.0000
  C   C1639     1.0  0.59054  0.62973  0.51281  1.0000
  C   C1640     1.0  0.59618  0.60515  0.49992  1.0000
  C   C1641     1.0  0.59174  0.60283  0.47285  1.0000
  C   C1642     1.0  0.58191  0.62504  0.45803  1.0000
  C   C1643     1.0  0.57646  0.64970  0.47088  1.0000
  C   C1644     1.0  0.58073  0.65196  0.49800  1.0000
  H   H1303     1.0  0.60370  0.58780  0.51085  1.0000
  H   H1304     1.0  0.59602  0.58360  0.46329  1.0000
  H   H1305     1.0  0.56881  0.66700  0.45995  1.0000
  H   H1306     1.0  0.57620  0.67107  0.50765  1.0000
  C   C1645     1.0  0.78536  0.82806  0.50719  1.0000
  C   C1646     1.0  0.76125  0.83387  0.49367  1.0000
  C   C1647     1.0  0.75937  0.82845  0.46673  1.0000
  C   C1648     1.0  0.78135  0.81690  0.45273  1.0000
  C   C1649     1.0  0.80524  0.81055  0.46639  1.0000
  C   C1650     1.0  0.80725  0.81628  0.49329  1.0000
  H   H1307     1.0  0.74431  0.84315  0.50387  1.0000
  H   H1308     1.0  0.74078  0.83360  0.45666  1.0000
  H   H1309     1.0  0.82244  0.80175  0.45616  1.0000
  H   H1310     1.0  0.82608  0.81172  0.50338  1.0000
  C   C1651     1.0  0.68564  0.75383  0.61432  1.0000
  C   C1652     1.0  0.70884  0.74257  0.62604  1.0000
  H   H1311     1.0  0.52163  0.69552  0.50990  1.0000
  C   C1653     1.0  0.68638  0.69789  0.62836  1.0000
  C   C1654     1.0  0.66337  0.70911  0.61639  1.0000
  C   C1655     1.0  0.66302  0.73695  0.60945  1.0000
  C   C1656     1.0  0.54563  0.72154  0.48538  1.0000
  H   H1312     1.0  0.74089  0.88008  0.42834  1.0000
  H   H1313     1.0  0.60456  0.82269  0.34532  1.0000
  H   H1314     1.0  0.52527  0.64349  0.49712  1.0000
  C   C1657     1.0  0.68830  0.95280  0.59483  1.0000
  C   C1658     1.0  0.71278  0.96487  0.58676  1.0000
  S   S231      1.0  0.74778  0.71954  0.32682  1.0000
  C   C1659     1.0  0.69440  0.50764  0.59535  1.0000
  H   H1315     1.0  0.57787  0.75077  0.40829  1.0000
  C   C1660     1.0  0.66490  0.96923  0.59750  1.0000
  H   H1316     1.0  0.73093  0.95242  0.58483  1.0000
  H   H1317     1.0  0.67873  0.89063  0.55346  1.0000
  H   H1318     1.0  0.65065  0.50672  0.59909  1.0000
  H   H1319     1.0  0.64588  0.96006  0.60372  1.0000
  H   H1320     1.0  0.68145  0.76929  0.55098  1.0000
  H   H1321     1.0  0.75946  0.75280  0.42426  1.0000
  H   H1322     1.0  0.53274  0.73457  0.42165  1.0000
  C   C1661     1.0  0.68271  0.78400  0.53524  1.0000
  C   C1662     1.0  0.70226  0.71545  0.46265  1.0000
  H   H1323     1.0  0.91453  0.67631  0.35721  1.0000
  H   H1324     1.0  0.62446  0.69924  0.52774  1.0000
  C   C1663     1.0  0.96464  0.72422  0.36292  1.0000
  C   C1664     1.0  0.63123  0.68304  0.43337  1.0000
  H   H1325     1.0  0.61705  0.79991  0.52199  1.0000
  H   H1326     1.0  0.68955  0.83910  0.48150  1.0000
  C   C1665     1.0  0.50980  0.70687  0.44555  1.0000
  H   H1327     1.0  0.55069  0.75787  0.36862  1.0000
  C   C1666     1.0  0.71780  0.73584  0.47491  1.0000
  H   H1328     1.0  0.64280  0.67130  0.56370  1.0000
  C   C1667     1.0  0.79475  0.95394  0.56935  1.0000
  H   H1329     1.0  0.49589  0.70173  0.42993  1.0000
  C   C1668     1.0  0.58097  0.81105  0.50066  1.0000
  C   C1669     1.0  0.95030  0.85428  0.32797  1.0000
  H   H1330     1.0  0.68652  0.70442  0.47299  1.0000
  C   C1670     1.0  0.69106  0.72002  0.52530  1.0000
  H   H1331     1.0  0.90630  0.88687  0.36890  1.0000
  H   H1332     1.0  0.64644  0.50104  0.50300  1.0000
  H   H1333     1.0  0.64571  0.69640  0.61275  1.0000
  C   C1671     1.0  0.67101  0.80983  0.53867  1.0000
  C   C1672     1.0  0.69873  0.79759  0.49263  1.0000
  H   H1334     1.0  0.97195  0.85051  0.32583  1.0000
  C   C1673     1.0  0.74349  0.74226  0.43492  1.0000
  C   C1674     1.0  0.70722  0.70877  0.43664  1.0000
  H   H1335     1.0  0.56531  0.74680  0.45670  1.0000
  H   H1336     1.0  0.66095  0.81470  0.55687  1.0000
  C   C1675     1.0  0.66920  0.49467  0.59853  1.0000
  H   H1337     1.0  0.68605  0.85838  0.42992  1.0000
  C   C1676     1.0  0.68715  0.82351  0.49624  1.0000
  C   C1677     1.0  0.72685  0.53167  0.51570  1.0000
  S   S232      1.0  0.55014  0.69511  0.32926  1.0000
  C   C1678     1.0  0.76315  0.53858  0.54676  1.0000
  C   C1679     1.0  0.76366  0.56649  0.54065  1.0000
  C   C1680     1.0  0.74535  0.57733  0.52234  1.0000
  C   C1681     1.0  0.72719  0.55958  0.50962  1.0000
  P   P56       1.0  0.74396  0.61394  0.51690  1.0000
  C   C1682     1.0  0.74576  0.63062  0.54817  1.0000
  C   C1683     1.0  0.77135  0.62581  0.49625  1.0000
  C   C1684     1.0  0.79574  0.61087  0.49394  1.0000
  C   C1685     1.0  0.81693  0.62059  0.47816  1.0000
  C   C1686     1.0  0.81392  0.64524  0.46465  1.0000
  C   C1687     1.0  0.78973  0.66026  0.46690  1.0000
  C   C1688     1.0  0.76852  0.65062  0.48264  1.0000
  C   C1689     1.0  0.75906  0.65590  0.55103  1.0000
  C   C1690     1.0  0.75975  0.66886  0.57523  1.0000
  C   C1691     1.0  0.74716  0.65670  0.59669  1.0000
  C   C1692     1.0  0.73412  0.63147  0.59404  1.0000
  C   C1693     1.0  0.73340  0.61845  0.56994  1.0000
  C   C1694     1.0  0.71184  0.62235  0.50161  1.0000
  C   C1695     1.0  0.68931  0.63026  0.51662  1.0000
  C   C1696     1.0  0.66398  0.63479  0.50500  1.0000
  C   C1697     1.0  0.66092  0.63158  0.47828  1.0000
  C   C1698     1.0  0.68334  0.62418  0.46302  1.0000
  C   C1699     1.0  0.70874  0.61948  0.47463  1.0000
  Fe  Fe118     1.0  0.61523  0.58709  0.63772  1.0000
  H   H1338     1.0  0.77760  0.57978  0.55097  1.0000
  H   H1339     1.0  0.71261  0.56719  0.49564  1.0000
  H   H1340     1.0  0.79852  0.59179  0.50426  1.0000
  H   H1341     1.0  0.83574  0.60902  0.47640  1.0000
  H   H1342     1.0  0.83036  0.65272  0.45241  1.0000
  H   H1343     1.0  0.78744  0.67936  0.45636  1.0000
  H   H1344     1.0  0.74994  0.66257  0.48423  1.0000
  H   H1345     1.0  0.76878  0.66577  0.53470  1.0000
  H   H1346     1.0  0.76973  0.68852  0.57734  1.0000
  H   H1347     1.0  0.74714  0.66688  0.61537  1.0000
  H   H1348     1.0  0.72279  0.59904  0.56833  1.0000
  H   H1349     1.0  0.69100  0.63243  0.53737  1.0000
  H   H1350     1.0  0.64654  0.64015  0.51691  1.0000
  H   H1351     1.0  0.64100  0.63425  0.46959  1.0000
  H   H1352     1.0  0.68083  0.62143  0.44229  1.0000
  H   H1353     1.0  0.72575  0.61295  0.46267  1.0000
  H   H1354     1.0  0.70678  0.67785  0.32794  1.0000
  S   S233      1.0  0.71477  0.85683  0.63633  1.0000
  H   H1355     1.0  0.57020  0.81853  0.51763  1.0000
  S   S234      1.0  0.68331  0.78894  0.60620  1.0000
  P   P57       1.0  0.74844  0.94235  0.50392  1.0000
  C   C1700     1.0  0.57576  0.79087  0.35456  1.0000
  H   H1356     1.0  0.64232  0.68547  0.39293  1.0000
  H   H1357     1.0  0.71168  0.76427  0.34210  1.0000
  H   H1358     1.0  0.72506  0.83465  0.40889  1.0000
  C   C1701     1.0  0.59869  0.80714  0.35923  1.0000
  C   C1702     1.0  0.70934  0.91237  0.53155  1.0000
  C   C1703     1.0  0.66323  0.71833  0.51895  1.0000
  H   H1359     1.0  0.57195  0.80281  0.43587  1.0000
  C   C1704     1.0  0.68470  0.83673  0.42562  1.0000
  H   H1360     1.0  0.96515  0.68045  0.35860  1.0000
  H   H1361     1.0  0.82286  0.92584  0.58752  1.0000
  H   H1362     1.0  0.61994  0.68714  0.47355  1.0000
  C   C1705     1.0  0.78463  0.91170  0.53411  1.0000
  C   C1706     1.0  0.80029  0.90533  0.45224  1.0000
  H   H1363     1.0  0.73130  0.93521  0.63564  1.0000
  C   C1707     1.0  0.63769  0.72538  0.40996  1.0000
  C   C1708     1.0  0.50855  0.64084  0.51060  1.0000
  H   H1364     1.0  0.49445  0.60885  0.56769  1.0000
  C   C1709     1.0  0.67128  0.74649  0.34419  1.0000
  H   H1365     1.0  0.56384  0.79370  0.33706  1.0000
  C   C1710     1.0  0.70124  0.70404  0.54579  1.0000
  H   H1366     1.0  0.64824  0.94279  0.49310  1.0000
  C   C1711     1.0  0.58220  0.80203  0.45444  1.0000
  Fe  Fe119     1.0  0.76049  0.85582  0.63591  1.0000
  H   H1367     1.0  0.54790  0.82001  0.47445  1.0000
  C   C1712     1.0  0.70668  0.82342  0.41380  1.0000
  C   C1713     1.0  0.71422  0.93120  0.51153  1.0000
  C   C1714     1.0  0.50000  0.63710  0.43987  1.0000
  C   C1715     1.0  0.68131  0.78095  0.41401  1.0000
  C   C1716     1.0  0.94124  0.87003  0.34897  1.0000
  H   H1368     1.0  0.95584  0.87817  0.36271  1.0000
  C   C1717     1.0  0.73862  0.74900  0.46086  1.0000
  H   H1369     1.0  0.68053  0.75956  0.40890  1.0000
  C   C1718     1.0  0.60867  0.79116  0.45680  1.0000
  C   C1719     1.0  0.66086  0.82222  0.43145  1.0000
  C   C1720     1.0  0.66531  0.93403  0.50359  1.0000
  C   C1721     1.0  0.77898  0.76596  0.55274  1.0000
  H   H1370     1.0  0.71223  0.51825  0.50647  1.0000
  C   C1722     1.0  0.75283  0.76544  0.54188  1.0000
  H   H1371     1.0  0.66463  0.84977  0.52215  1.0000
  C   C1723     1.0  0.70509  0.79554  0.40825  1.0000
  C   C1724     1.0  0.91333  0.87496  0.35246  1.0000
  H   H1372     1.0  0.79076  0.87670  0.42176  1.0000
  C   C1725     1.0  0.69668  0.77764  0.51219  1.0000
  S   S235      1.0  0.66081  0.58896  0.64159  1.0000
  H   H1373     1.0  0.63024  0.66089  0.43338  1.0000
  C   C1726     1.0  0.60684  0.78283  0.39971  1.0000
  H   H1374     1.0  0.65489  0.73111  0.50378  1.0000
  H   H1375     1.0  0.53277  0.61677  0.53705  1.0000
  C   C1727     1.0  0.63787  0.69683  0.41052  1.0000
  H   H1376     1.0  0.79830  0.97009  0.58331  1.0000
  H   H1377     1.0  0.65656  0.67922  0.33529  1.0000
  C   C1728     1.0  0.74459  0.52123  0.53447  1.0000
  H   H1378     1.0  0.80689  0.71120  0.52187  1.0000
  H   H1379     1.0  0.63192  0.81594  0.38476  1.0000
  S   S236      1.0  0.81879  0.75147  0.31909  1.0000
  H   H1380     1.0  0.61782  0.73730  0.47226  1.0000
  C   C1729     1.0  0.79843  0.74646  0.54554  1.0000
  C   C1730     1.0  0.53079  0.72554  0.44077  1.0000
  C   C1731     1.0  0.64596  0.70058  0.53256  1.0000
  H   H1381     1.0  0.75120  0.76456  0.46992  1.0000
  C   C1732     1.0  0.79169  0.72614  0.52763  1.0000
  H   H1382     1.0  0.70960  0.79354  0.47478  1.0000
  C   C1733     1.0  0.68392  0.68637  0.55939  1.0000
  C   C1734     1.0  0.52429  0.70326  0.49038  1.0000
  C   C1735     1.0  0.65629  0.68471  0.55285  1.0000
  C   C1736     1.0  0.58372  0.76671  0.39486  1.0000
  C   C1737     1.0  0.68257  0.90456  0.53753  1.0000
  S   S237      1.0  0.68727  0.66319  0.63818  1.0000
  C   C1738     1.0  0.66059  0.91555  0.52378  1.0000
  C   C1739     1.0  0.60742  0.80062  0.50308  1.0000
  C   C1740     1.0  0.67324  0.82960  0.51920  1.0000
  C   C1741     1.0  0.51273  0.62535  0.53306  1.0000
  C   C1742     1.0  0.72776  0.72223  0.42275  1.0000
  H   H1383     1.0  0.72225  0.70569  0.55188  1.0000
  H   H1384     1.0  0.64371  0.83306  0.43988  1.0000
  H   H1385     1.0  0.64498  0.74552  0.60044  1.0000
  C   C1743     1.0  0.50656  0.69539  0.47032  1.0000
  C   C1744     1.0  0.62500  0.69787  0.45580  1.0000
  H   H1386     1.0  0.78439  0.78200  0.56629  1.0000
  H   H1387     1.0  0.76071  0.70980  0.50273  1.0000
  S   S238      1.0  0.61961  0.72523  0.34407  1.0000
  H   H1388     1.0  0.73154  0.71718  0.40254  1.0000
  P   P58       1.0  0.71261  0.74448  0.50871  1.0000
  H   H1389     1.0  0.72409  0.62219  0.61066  1.0000
  H   H1390     1.0  0.72232  0.78536  0.39913  1.0000
  C   C1745     1.0  0.69202  0.94173  0.49738  1.0000
  H   H1391     1.0  0.73836  0.78109  0.54758  1.0000
  H   H1392     1.0  0.69519  0.69309  0.42721  1.0000
  C   C1746     1.0  0.76555  0.72548  0.51677  1.0000
  Fe  Fe120     1.0  0.54837  0.64927  0.33015  1.0000
  H   H1393     1.0  0.69174  0.67439  0.57549  1.0000
  C   C1747     1.0  0.65885  0.79426  0.42542  1.0000
  C   C1748     1.0  0.62136  0.79097  0.48121  1.0000
  C   C1749     1.0  0.56827  0.77071  0.37240  1.0000
  C   C1750     1.0  0.75443  0.89203  0.44041  1.0000
  C   C1751     1.0  0.80359  0.90801  0.55407  1.0000
  H   H1394     1.0  0.51726  0.60772  0.41344  1.0000
  C   C1752     1.0  0.49114  0.62090  0.55029  1.0000
  H   H1395     1.0  0.72683  0.70625  0.64276  1.0000
  H   H1396     1.0  0.78063  0.89481  0.52104  1.0000
  H   H1397     1.0  0.72204  0.90878  0.46335  1.0000
  H   H1398     1.0  0.49336  0.54471  0.32110  1.0000
  C   C1753     1.0  0.77631  0.95798  0.54899  1.0000
  C   C1754     1.0  0.78262  0.89023  0.43658  1.0000
  H   H1399     1.0  0.82217  0.90363  0.44944  1.0000
  C   C1755     1.0  0.77135  0.93700  0.53098  1.0000
  C   C1756     1.0  0.74387  0.90839  0.46032  1.0000
  C   C1757     1.0  0.76152  0.92335  0.47642  1.0000
  H   H1400     1.0  0.74343  0.49985  0.53998  1.0000
  H   H1401     1.0  0.87277  0.86783  0.33754  1.0000
  H   H1402     1.0  0.77648  0.53056  0.56172  1.0000
  C   C1758     1.0  0.89447  0.86432  0.33485  1.0000
  H   H1403     1.0  0.73789  0.50155  0.59221  1.0000
  H   H1404     1.0  0.72637  0.75538  0.62993  1.0000
  C   C1759     1.0  0.80861  0.92906  0.57173  1.0000
  C   C1760     1.0  0.71831  0.49166  0.59455  1.0000
  H   H1405     1.0  0.91618  0.78597  0.32100  1.0000
  H   H1406     1.0  0.77701  0.97781  0.46600  1.0000
  C   C1761     1.0  0.49858  0.61623  0.42142  1.0000
  H   H1407     1.0  0.69532  0.95626  0.48180  1.0000
  H   H1408     1.0  0.66952  0.48590  0.54335  1.0000
  H   H1409     1.0  0.71296  0.98132  0.64364  1.0000
  H   H1410     1.0  0.81418  0.76376  0.63997  1.0000
  H   H1411     1.0  0.76605  0.97748  0.54748  1.0000
  H   H1412     1.0  0.88186  0.74954  0.31672  1.0000
  C   C1762     1.0  0.74695  0.97859  0.49691  1.0000
  C   C1763     1.0  0.48300  0.65277  0.50557  1.0000
  S   S239      1.0  0.78740  0.86633  0.67148  1.0000
  S   S240      1.0  0.55641  0.49844  0.89189  1.0000
  Fe  Fe121     1.0  0.80344  0.89391  0.83112  1.0000
  S   S241      1.0  0.80559  0.93974  0.83050  1.0000
  S   S242      1.0  0.78555  0.86962  0.79640  1.0000
  Fe  Fe122     1.0  0.81498  0.89233  0.89107  1.0000
  S   S243      1.0  0.81589  0.93805  0.89331  1.0000
  S   S244      1.0  0.82426  0.86388  0.92601  1.0000
  Fe  Fe123     1.0  0.77979  0.93837  0.86638  1.0000
  H   H1413     1.0  0.79753  0.95055  0.68791  1.0000
  Fe  Fe124     1.0  0.84169  0.93624  0.85721  1.0000
  C   C1764     1.0  0.78630  0.96413  0.75530  1.0000
  S   S245      1.0  0.77625  0.89255  0.86681  1.0000
  S   S246      1.0  0.84216  0.89004  0.85545  1.0000
  Fe  Fe125     1.0  0.56942  0.54062  0.82839  1.0000
  Fe  Fe126     1.0  0.53428  0.49571  0.85399  1.0000
  S   S247      1.0  0.58316  0.56753  0.79390  1.0000
  Fe  Fe127     1.0  0.55334  0.54391  0.88708  1.0000
  C   C1765     1.0  0.94532  0.50554  0.97550  1.0000
  S   S248      1.0  0.53650  0.57319  0.91842  1.0000
  Fe  Fe128     1.0  0.59452  0.50063  0.86749  1.0000
  H   H1414     1.0  0.68117  0.74699  0.68386  1.0000
  S   S249      1.0  0.74817  0.97255  0.86866  1.0000
  H   H1415     1.0  0.61841  0.59747  0.91893  1.0000
  S   S250      1.0  0.59357  0.54665  0.86539  1.0000
  S   S251      1.0  0.52894  0.54118  0.84984  1.0000
  C   C1766     1.0  0.53480  0.57223  0.95316  1.0000
  H   H1416     1.0  0.54139  0.65329  0.72747  1.0000
  C   C1767     1.0  0.54846  0.55247  0.96796  1.0000
  C   C1768     1.0  0.51759  0.62496  0.75031  1.0000
  H   H1417     1.0  0.55969  0.53642  0.95820  1.0000
  C   C1769     1.0  0.83523  0.86866  0.95899  1.0000
  H   H1418     1.0  0.77959  0.48704  0.76253  1.0000
  C   C1770     1.0  0.67710  0.52798  0.78659  1.0000
  P   P59       1.0  0.48695  0.58834  0.77992  1.0000
  H   H1419     1.0  0.88354  0.50120  0.90876  1.0000
  H   H1420     1.0  0.87128  0.89757  0.91778  1.0000
  C   C1771     1.0  0.94234  0.54512  0.90622  1.0000
  C   C1772     1.0  0.92220  0.94781  0.83872  1.0000
  H   H1421     1.0  0.85969  0.56991  0.97576  1.0000
  H   H1422     1.0  0.66300  0.51671  0.86863  1.0000
  H   H1423     1.0  0.64879  0.51513  0.91916  1.0000
  H   H1424     1.0  0.72343  0.51066  0.68236  1.0000
  C   C1773     1.0  0.55205  0.95140  0.93227  1.0000
  H   H1425     1.0  0.75255  0.72461  0.68595  1.0000
  C   C1774     1.0  0.70991  0.94148  0.93000  1.0000
  H   H1426     1.0  0.67296  0.85604  0.72802  1.0000
  C   C1775     1.0  0.52755  0.58764  0.71034  1.0000
  C   C1776     1.0  0.95892  0.50088  0.84821  1.0000
  H   H1427     1.0  0.90401  0.54596  0.97819  1.0000
  C   C1777     1.0  0.70098  0.56723  0.80450  1.0000
  C   C1778     1.0  0.90975  0.96892  0.85271  1.0000
  H   H1428     1.0  0.92161  0.52235  0.85737  1.0000
  C   C1779     1.0  0.49471  0.50578  0.93949  1.0000
  C   C1780     1.0  0.53941  0.61492  0.83646  1.0000
  C   C1781     1.0  0.86890  0.97013  0.93213  1.0000
  C   C1782     1.0  0.59120  0.56452  0.70409  1.0000
  C   C1783     1.0  0.60226  0.58609  0.71848  1.0000
  C   C1784     1.0  0.59997  0.58632  0.74586  1.0000
  C   C1785     1.0  0.58712  0.56481  0.75941  1.0000
  C   C1786     1.0  0.57715  0.54261  0.74511  1.0000
  C   C1787     1.0  0.57896  0.54264  0.71768  1.0000
  H   H1429     1.0  0.61165  0.60313  0.70848  1.0000
  H   H1430     1.0  0.60787  0.60358  0.75660  1.0000
  H   H1431     1.0  0.56743  0.52575  0.75507  1.0000
  H   H1432     1.0  0.57030  0.52582  0.70685  1.0000
  C   C1788     1.0  0.78469  0.86999  0.70613  1.0000
  C   C1789     1.0  0.80647  0.88205  0.71985  1.0000
  C   C1790     1.0  0.80636  0.88368  0.74731  1.0000
  C   C1791     1.0  0.78463  0.87276  0.76166  1.0000
  C   C1792     1.0  0.76246  0.86143  0.74790  1.0000
  C   C1793     1.0  0.76232  0.86030  0.72042  1.0000
  H   H1433     1.0  0.82395  0.88963  0.70920  1.0000
  H   H1434     1.0  0.82371  0.89223  0.75741  1.0000
  H   H1435     1.0  0.74547  0.85296  0.75867  1.0000
  H   H1436     1.0  0.74519  0.85135  0.71038  1.0000
  H   H1437     1.0  0.91005  0.93093  0.83166  1.0000
  C   C1794     1.0  0.68708  0.92696  0.93868  1.0000
  C   C1795     1.0  0.95241  0.52429  0.92243  1.0000
  P   P60       1.0  0.63466  0.49619  0.97137  1.0000
  C   C1796     1.0  0.62222  0.57847  0.92919  1.0000
  H   H1438     1.0  0.63853  0.52404  0.73359  1.0000
  C   C1797     1.0  0.67829  0.84000  0.71445  1.0000
  S   S252      1.0  0.49542  0.97278  0.82657  1.0000
  C   C1798     1.0  0.76716  0.79259  0.68020  1.0000
  C   C1799     1.0  0.71833  0.88014  0.81391  1.0000
  C   C1800     1.0  0.69761  0.86194  0.80706  1.0000
  C   C1801     1.0  0.67903  0.86902  0.78762  1.0000
  C   C1802     1.0  0.68137  0.89419  0.77487  1.0000
  C   C1803     1.0  0.70241  0.91245  0.78142  1.0000
  C   C1804     1.0  0.72074  0.90534  0.80124  1.0000
  P   P61       1.0  0.70532  0.94469  0.76442  1.0000
  C   C1805     1.0  0.69919  0.93795  0.73045  1.0000
  C   C1806     1.0  0.78386  0.74146  0.66179  1.0000
  H   H1439     1.0  0.61995  0.97214  0.80853  1.0000
  H   H1440     1.0  0.53230  0.61777  0.87767  1.0000
  H   H1441     1.0  0.50471  0.52327  0.93066  1.0000
  H   H1442     1.0  0.53163  0.57319  0.69485  1.0000
  C   C1807     1.0  0.63080  0.52878  0.95531  1.0000
  C   C1808     1.0  0.71062  0.91458  0.71893  1.0000
  C   C1809     1.0  0.70498  0.90819  0.69309  1.0000
  C   C1810     1.0  0.68767  0.92499  0.67854  1.0000
  C   C1811     1.0  0.67641  0.94848  0.68973  1.0000
  C   C1812     1.0  0.68206  0.95494  0.71562  1.0000
  C   C1813     1.0  0.73914  0.95849  0.76909  1.0000
  C   C1814     1.0  0.51241  0.57960  0.73206  1.0000
  C   C1815     1.0  0.90785  0.96728  0.96077  1.0000
  C   C1816     1.0  0.51999  0.59273  0.96631  1.0000
  C   C1817     1.0  0.79736  0.76512  0.65360  1.0000
  C   C1818     1.0  0.91264  0.50901  0.76837  1.0000
  H   H1443     1.0  0.73297  0.87455  0.82875  1.0000
  H   H1444     1.0  0.69603  0.84240  0.81687  1.0000
  H   H1445     1.0  0.66277  0.85503  0.78251  1.0000
  H   H1446     1.0  0.66674  0.89950  0.75994  1.0000
  H   H1447     1.0  0.73723  0.91884  0.80682  1.0000
  C   C1819     1.0  0.93749  0.52021  0.77647  1.0000
  S   S253      1.0  0.61880  0.96372  0.86337  1.0000
  H   H1448     1.0  0.53273  0.94382  0.92508  1.0000
  H   H1449     1.0  0.76090  0.81257  0.68697  1.0000
  C   C1820     1.0  0.61704  0.55039  0.96763  1.0000
  H   H1450     1.0  0.72386  0.90125  0.73004  1.0000
  H   H1451     1.0  0.71417  0.89024  0.68435  1.0000
  C   C1821     1.0  0.82831  0.50702  0.80546  1.0000
  H   H1452     1.0  0.66320  0.96164  0.67831  1.0000
  H   H1453     1.0  0.67854  0.66561  0.71398  1.0000
  H   H1454     1.0  0.66571  0.81976  0.65253  1.0000
  C   C1822     1.0  0.48511  0.59769  0.83315  1.0000
  H   H1455     1.0  0.87088  0.49736  0.80291  1.0000
  H   H1456     1.0  0.49153  0.52479  0.97687  1.0000
  C   C1823     1.0  0.61271  0.57511  0.95456  1.0000
  C   C1824     1.0  0.67684  0.57603  0.81636  1.0000
  C   C1825     1.0  0.65278  0.56113  0.81305  1.0000
  H   H1457     1.0  0.67666  0.59455  0.82789  1.0000
  H   H1458     1.0  0.63396  0.56823  0.82186  1.0000
  H   H1459     1.0  0.71143  0.92538  0.86658  1.0000
  C   C1826     1.0  0.70419  0.79885  0.70401  1.0000
  P   P62       1.0  0.72727  0.77152  0.71329  1.0000
  C   C1827     1.0  0.74168  0.77973  0.74469  1.0000
  C   C1828     1.0  0.70982  0.73889  0.71515  1.0000
  C   C1829     1.0  0.71944  0.71856  0.73220  1.0000
  C   C1830     1.0  0.70793  0.69236  0.73206  1.0000
  C   C1831     1.0  0.68700  0.68610  0.71466  1.0000
  C   C1832     1.0  0.71245  0.96933  0.86445  1.0000
  C   C1833     1.0  0.60115  0.95533  0.92789  1.0000
  C   C1834     1.0  0.76779  0.79143  0.74692  1.0000
  C   C1835     1.0  0.77755  0.79980  0.77112  1.0000
  C   C1836     1.0  0.76143  0.79663  0.79328  1.0000
  C   C1837     1.0  0.73565  0.78459  0.79136  1.0000
  C   C1838     1.0  0.72579  0.77616  0.76719  1.0000
  C   C1839     1.0  0.63776  0.97918  0.79804  1.0000
  H   H1460     1.0  0.66073  0.92281  0.86513  1.0000
  C   C1840     1.0  0.67987  0.50800  0.73417  1.0000
  H   H1461     1.0  0.73636  0.72265  0.74512  1.0000
  H   H1462     1.0  0.71563  0.67671  0.74503  1.0000
  H   H1463     1.0  0.64295  0.55945  0.89700  1.0000
  C   C1841     1.0  0.67071  0.94251  0.86404  1.0000
  C   C1842     1.0  0.96033  0.56079  0.89124  1.0000
  H   H1464     1.0  0.79727  0.80979  0.77261  1.0000
  H   H1465     1.0  0.76886  0.80402  0.81181  1.0000
  H   H1466     1.0  0.72316  0.78226  0.80859  1.0000
  H   H1467     1.0  0.70546  0.76754  0.76591  1.0000
  C   C1843     1.0  0.66413  0.94102  0.94794  1.0000
  C   C1844     1.0  0.90593  0.89656  0.94351  1.0000
  C   C1845     1.0  0.57622  0.94488  0.91922  1.0000
  H   H1468     1.0  0.71348  0.52137  0.87236  1.0000
  C   C1846     1.0  0.90765  0.91249  0.89911  1.0000
  C   C1847     1.0  0.93551  0.91812  0.90180  1.0000
  S   S254      1.0  0.58986  0.56495  0.66930  1.0000
  H   H1469     1.0  0.64023  0.53769  0.68745  1.0000
  C   C1848     1.0  0.84646  0.54873  0.94143  1.0000
  H   H1470     1.0  0.92974  0.96635  0.96319  1.0000
  H   H1471     1.0  0.78464  0.51207  0.80417  1.0000
  C   C1849     1.0  0.93066  0.50270  0.85301  1.0000
  C   C1850     1.0  0.69663  0.81941  0.72175  1.0000
  H   H1472     1.0  0.57565  0.93262  0.90170  1.0000
  C   C1851     1.0  0.68866  0.49404  0.95365  1.0000
  H   H1473     1.0  0.72942  0.97644  0.80650  1.0000
  H   H1474     1.0  0.51351  0.63978  0.76543  1.0000
  H   H1475     1.0  0.91055  0.96996  0.91900  1.0000
  H   H1476     1.0  0.83936  0.52501  0.90675  1.0000
  H   H1477     1.0  0.92072  0.54944  0.90506  1.0000
  C   C1852     1.0  0.95042  0.94889  0.83337  1.0000
  C   C1853     1.0  0.49628  0.60467  0.85723  1.0000
  H   H1478     1.0  0.82947  0.96876  0.95046  1.0000
  H   H1479     1.0  0.54142  0.60845  0.79548  1.0000
  H   H1480     1.0  0.80260  0.95970  0.74170  1.0000
  H   H1481     1.0  0.52742  0.49626  0.78700  1.0000
  C   C1854     1.0  0.80249  0.50409  0.79427  1.0000
  C   C1855     1.0  0.65738  0.96026  0.79000  1.0000
  S   S255      1.0  0.87423  0.96949  0.85911  1.0000
  C   C1856     1.0  0.65484  0.96644  0.86229  1.0000
  H   H1482     1.0  0.60127  0.59140  0.96387  1.0000
  C   C1857     1.0  0.50935  0.53627  0.78311  1.0000
  C   C1858     1.0  0.68864  0.73236  0.69784  1.0000
  C   C1859     1.0  0.89711  0.96926  0.93574  1.0000
  C   C1860     1.0  0.70486  0.51314  0.69359  1.0000
  C   C1861     1.0  0.65708  0.52049  0.72255  1.0000
  C   C1862     1.0  0.63587  0.55701  0.91679  1.0000
  H   H1483     1.0  0.94638  0.92743  0.88576  1.0000
  H   H1484     1.0  0.65423  0.93892  0.79462  1.0000
  H   H1485     1.0  0.95902  0.54764  0.97247  1.0000
  H   H1486     1.0  0.97149  0.51903  0.84875  1.0000
  H   H1487     1.0  0.66165  0.70097  0.68361  1.0000
  H   H1488     1.0  0.56075  0.62058  0.83781  1.0000
  C   C1863     1.0  0.68172  0.52445  0.68189  1.0000
  H   H1489     1.0  0.71959  0.57890  0.80690  1.0000
  C   C1864     1.0  0.52342  0.61328  0.85888  1.0000
  C   C1865     1.0  0.78915  0.79062  0.66300  1.0000
  H   H1490     1.0  0.72251  0.49724  0.72841  1.0000
  H   H1491     1.0  0.61944  0.95095  0.91682  1.0000
  C   C1866     1.0  0.70410  0.50145  0.87438  1.0000
  C   C1867     1.0  0.96637  0.97099  0.84198  1.0000
  H   H1492     1.0  0.65265  0.85587  0.68395  1.0000
  H   H1493     1.0  0.68325  0.91998  0.65849  1.0000
  C   C1868     1.0  0.65278  0.53729  0.79807  1.0000
  C   C1869     1.0  0.65796  0.52838  0.69645  1.0000
  C   C1870     1.0  0.73124  0.97495  0.65376  1.0000
  H   H1494     1.0  0.71991  0.53686  0.78033  1.0000
  H   H1495     1.0  0.69976  0.78493  0.66435  1.0000
  H   H1496     1.0  0.55066  0.61985  0.69226  1.0000
  C   C1871     1.0  0.67426  0.81965  0.67193  1.0000
  C   C1872     1.0  0.87835  0.51576  0.92381  1.0000
  C   C1873     1.0  0.53822  0.61407  0.70882  1.0000
  H   H1497     1.0  0.95256  0.57690  0.87882  1.0000
  C   C1874     1.0  0.50095  0.59968  0.81046  1.0000
  H   H1498     1.0  0.50450  0.55896  0.73280  1.0000
  H   H1499     1.0  0.93943  0.54209  0.77922  1.0000
  C   C1875     1.0  0.77899  0.95748  0.67847  1.0000
  C   C1876     1.0  0.69944  0.94389  0.86482  1.0000
  C   C1877     1.0  0.75401  0.76892  0.68918  1.0000
  H   H1500     1.0  0.68229  0.53053  0.66162  1.0000
  C   C1878     1.0  0.68063  0.96905  0.77646  1.0000
  C   C1879     1.0  0.69342  0.79969  0.67880  1.0000
  H   H1501     1.0  0.89426  0.88853  0.95969  1.0000
  C   C1880     1.0  0.93382  0.90207  0.94621  1.0000
  P   P63       1.0  0.67791  0.49695  0.76768  1.0000
  C   C1881     1.0  0.98060  0.51923  0.92321  1.0000
  C   C1882     1.0  0.89679  0.52127  0.94397  1.0000
  C   C1883     1.0  0.50858  0.50790  0.78650  1.0000
  H   H1502     1.0  0.82548  0.91148  0.96153  1.0000
  C   C1884     1.0  0.89292  0.90160  0.91989  1.0000
  C   C1885     1.0  0.88994  0.54091  0.96275  1.0000
  H   H1503     1.0  0.70511  0.82010  0.74108  1.0000
  C   C1886     1.0  0.94904  0.91196  0.92509  1.0000
  C   C1887     1.0  0.76010  0.95372  0.75098  1.0000
  H   H1504     1.0  0.89560  0.52252  0.76442  1.0000
  H   H1505     1.0  0.89729  0.91702  0.88104  1.0000
  C   C1888     1.0  0.50770  0.59809  0.75243  1.0000
  H   H1506     1.0  0.75659  0.94153  0.73383  1.0000
  C   C1889     1.0  0.67736  0.70610  0.69761  1.0000
  H   H1507     1.0  0.70995  0.49396  0.81616  1.0000
  H   H1508     1.0  0.63370  0.52646  0.79537  1.0000
  S   S256      1.0  0.57251  0.49487  0.82976  1.0000
  H   H1509     1.0  0.82708  0.55941  0.94034  1.0000
  H   H1510     1.0  0.72748  0.93069  0.92220  1.0000
  C   C1890     1.0  0.63952  0.53202  0.92955  1.0000
  C   C1891     1.0  0.48359  0.49465  0.78997  1.0000
  H   H1511     1.0  0.95990  0.93268  0.82226  1.0000
  P   P64       1.0  0.93001  0.50526  0.94356  1.0000
  C   C1892     1.0  0.74168  0.94879  0.64898  1.0000
  H   H1512     1.0  0.78051  0.79496  0.73012  1.0000
  H   H1513     1.0  0.64662  0.92947  0.95460  1.0000
  H   H1514     1.0  0.68811  0.51617  0.95310  1.0000
  C   C1893     1.0  0.70409  0.50524  0.71970  1.0000
  H   H1515     1.0  0.68710  0.90481  0.93790  1.0000
  H   H1516     1.0  0.67264  0.97289  0.72398  1.0000
  H   H1517     1.0  0.50922  0.60810  0.95518  1.0000
  C   C1894     1.0  0.67553  0.49889  0.87235  1.0000
  C   C1895     1.0  0.52828  0.60809  0.81236  1.0000
  H   H1518     1.0  0.52890  0.54639  0.78101  1.0000
  C   C1896     1.0  0.53314  0.63278  0.72873  1.0000
  C   C1897     1.0  0.95983  0.50315  0.78131  1.0000
  C   C1898     1.0  0.74490  0.97346  0.79167  1.0000
  C   C1899     1.0  0.85331  0.52941  0.92255  1.0000
  H   H1519     1.0  0.48430  0.60246  0.87480  1.0000
  H   H1520     1.0  0.94345  0.89867  0.96475  1.0000
  H   H1521     1.0  0.84709  0.82643  0.96340  1.0000
  C   C1900     1.0  0.66689  0.83996  0.68963  1.0000
  C   C1901     1.0  0.76242  0.74328  0.67969  1.0000
  H   H1522     1.0  0.48883  0.95409  0.88754  1.0000
  C   C1902     1.0  0.70108  0.54340  0.78951  1.0000
  C   C1903     1.0  0.86479  0.55452  0.96147  1.0000
  C   C1904     1.0  0.84548  0.84605  0.97299  1.0000
  C   C1905     1.0  0.76538  0.94001  0.66145  1.0000
  C   C1906     1.0  0.60216  0.97215  0.94987  1.0000
  H   H1523     1.0  0.72982  0.49228  0.93871  1.0000
  H   H1524     1.0  0.83050  0.51698  0.82414  1.0000
  C   C1907     1.0  0.83333  0.89387  0.97183  1.0000
  C   C1908     1.0  0.48714  0.50655  0.96564  1.0000
  C   C1909     1.0  0.55278  0.96852  0.95396  1.0000
  H   H1525     1.0  0.97896  0.51165  0.78817  1.0000
  H   H1526     1.0  0.79972  0.80902  0.65683  1.0000
  C   C1910     1.0  0.48511  0.55160  0.78304  1.0000
  H   H1527     1.0  0.85101  0.50579  0.71947  1.0000
  H   H1528     1.0  0.85200  0.51151  0.67197  1.0000
  C   C1911     1.0  0.86206  0.96756  0.97863  1.0000
  C   C1912     1.0  0.66368  0.96976  0.94810  1.0000
  C   C1913     1.0  0.79176  0.97931  0.77766  1.0000
  C   C1914     1.0  0.70997  0.97002  0.93092  1.0000
  H   H1529     1.0  0.77334  0.91972  0.65772  1.0000
  C   C1915     1.0  0.85137  0.96879  0.95350  1.0000
  H   H1530     1.0  0.86067  0.97166  0.91270  1.0000
  H   H1531     1.0  0.97657  0.88493  0.88271  1.0000
  H   H1532     1.0  0.97510  0.86307  0.94553  1.0000
  C   C1916     1.0  0.85130  0.49587  0.79329  1.0000
  C   C1917     1.0  0.86394  0.49541  0.68097  1.0000
  C   C1918     1.0  0.57774  0.97891  0.96272  1.0000
  H   H1533     1.0  0.72762  0.98119  0.92385  1.0000
  H   H1534     1.0  0.82519  0.48793  0.94833  1.0000
  C   C1919     1.0  0.79967  0.48994  0.77087  1.0000
  H   H1535     1.0  0.79014  0.72167  0.65445  1.0000
  C   C1920     1.0  0.86321  0.49191  0.70791  1.0000
  H   H1536     1.0  0.53393  0.97435  0.96351  1.0000
