data_image0
_chemical_formula_structural       H2CFeSHFeSFeSFeSHSFeCHFeHSFeSHSC2SC2H2C6H4C3H2C6H3CHCHC2HCH4CHC4P2C6H6C2SC2HSH4C4HCS2C3HC2H4CH3CHC2HC5SH2CH2C2HCH2C2HC2HC7FeHSH3C3H3CHCPC3HC2HC2HPHCHCH3C2H2C2H2C2HCHCHC2HCH2SCHSC2HC4FeSHFeS2FeHFeSCSFeSC6H5C9H3CHC4H3C3PC2H2CH4C9H2CH2C2H2CHCH3CH2CHCHC9PC2HCHCHC9H6C2H2CH2CHCHCHC4HC4H3CH2C2H2C4H2CHCH3SCHC2H3CHCHPHCPSPC2PCHCH2SHC3HCHCSC4H2C2HCH2CH4CHCH3C3HCH3C6H2CHC3H2CPH5C3HCHS2FeS2FeCSCSFeHS2C3H3C4HCH4C2H3CHC5H3C3HC4FeC4HC4PC4HCHC2HC2H2CHCHCH3CHCHC3H2CH4C3H2CHCHCHSC3HC7HCHC4H5C2H2CH2C2H3C2HC3H2SC2PCHC3H2CH4C6H3CHCHCH4PHSH5CH2CHC2H2CH3CPH2C2H4CH2C2HC3HC4HC3HC3PHC4HCH2SCHC3HC7HC2HSFeSHSC2SFeSFeS2CFeCSFeS2FeSCS2HFeSCHC2HC5HPHC6H4C3H2C6H4CSC3H2CHCFeCSHFeC2H5C2HC2HC2PHC3HC2H2CHC4H2C11H5CH8C5H2C3H9SCHC3HCH2C2HC2HC4H2CPC3HC9HCHC2H3CH2CHCH3PSHCHCHSHC2H4C4H3C2H3C5FeHC2HCH2FeCSFeSC2SFeSFeS2FeS3HC5H2C2H3C5H3C7H4FeS2FeSFeSFeS3CH2CFeS2FeSC2HC7H4C3H3CHC4FeH3C3HC6PC10H4CHCH5SHCHC6PC7H2C3H2SHFeCH2CH10C2H5CH2CHSH2CHCHC2PC9HC8HC4H7CH7CHC2H7CH4SC2HC3PC4H2C8HC2H2PH6C2H2CHCHCH2C4H3C2HCH2CHC2HCHCH6C4HFeC2FeS2FeCFeS2CSC7H6CFe2SHFe4SHSCHC7HPHC5H2CHCH2CH2CHC3SPHC6H2CHC4HCHC2H8SH2C3SCHC2H2CHC3H2C2HCHC3H4C2SC2H2C2HC2HCH2C3H3C2HCHCHCH3C2HC2PCPHCSHC2HC3HSCH2C2H3SCH2SCHSC3HCH2SC2HFeHFeS2FeSCHS2HCHC3HC2H2C2HC3H2C2FeC4HFeSCSH3C2H3C5H2CSC2H2C2H3C2FeHCFeCH3SCPH2CHC6H3CSHC5HCHCH4CH2CH2CH2CHC4HCH2CH2CHC2HCH4CH2CH2SH3C3H2SCH2CSH3C2HC2PC8HCHC3HSCH2C5HC2SCH2C2HC2H2CFeS2FeSFeS4FeC2SFeSC8H4C3H2C6H4CSFeSHSCHCSHFeS2FeS2FeSFeS2CHC7H3C4H2C8H2C5HCH3CH3C2HC3PCHC3H10CH3C5PC3HCH2C7SCH4CHCH2CH3CHC2FeC2HCH2CH2C2HC4HC2HC4H2C2H2CH2C2HC8H3SHCH3CHCHCH3C3H2C4HSHCHC3H5C4PHC3HFe2HC2H2CFeCSC3HC4H3CH3PH2C3SHC3HCH6FeC2H3CHCHFeS2FeCSFeSCFeSFeSFeS2CHC7H2C3H2C6H4C2HPC5SC6HC4HCH9C8PC15H16CH4CHC3H3SCHC3H2C2PHC3HC4HCH5C3HCH3C2HCHCH3CHCH2C2HSCHSFeC2H2C2HCHC8HCHSCSH8C2H3SC3SCH4SFeS2Fe2S3C7H4CHC6HCH2CH2C2HC2HC4HCFeC3PH3C2H2C3H4CPHCHCH4CHC3HCHC4HC3HC2HSCH2CPCHC3H4CH2CH3C6HCH4CHC2SCHCH2C2H2CH2C2HC3HC3HCH2SC2H2CHCSHC3HC2H4CHCHC3HCFeHCHC3PCH4C3H2FeHSFeS2FeS3C3H2C2SH2C5PC9FeCH9CHCH2CH2CSH2C2HCHC6H2CHC2H2C5HC4H8C3SHC3HCHCHSHCH2CH4C5HC2H2C4H2PC4H2C3H4C4HC2H3CH4C3SHCHCHC2H2C3SFeCPHC4H2C4H3C3H4FeC4SFeS2FeSC6H4C3H4C5PC11H4CH3CHCH2CHSCSH2CSHC3HSH3C2FeC6HCSCHCHFeCH3CHCSC5FeCHC4H2SH3CHC3HSCHSCH2C3FeHCSHCH2CHCH3CSFeH2CH2C3PCH2CHFeHC3HC3HCH2CH3C3HCSH2PHC2HCHC3H3CHCHSHCHCH6C3HPC2H2C3SFeS2HSFeSFeSHSFeCSFeCSFeSCSH2SH2CHC6H4CHC2HSHC3H5C9H2PHFeC3HCH2C4HSCHC2HC10HC4HPCHC2H3CHCSHFeC3H3C2HCP2C3H3C7HCHCH5C2H2CH5CH2CHC2H3CSCHPC8H3C4HCHCHC3HCH3CH2CHC3HCHCFeCH5C4FeSHFeS2FeHFeSHSFeSC6H4S2HC7H3C2HCH6C2PC19HC2H13CH2C9H8CHCH4C4H2C6HCHCHCHCSC3HC4HC4HC3HC2H2CHCH3PCH4C2H2C3H3CHC4H5C3HCS2FeCSPHC2HFeSCSH2SFeC3H2C3H2CHSC2H2CH3CH2CPH3CH2C3PHC2SHC7H3C3HCSHC3HCHCHCH4CHC2HC2HCHC2HCFeC2HC2HC3H2C3SHC5HCHCPCH3C2HC6PC3FeC3H2C9H7CHC4H5C5HCH2CH2CHCH2C2HCHC2H2CHC2H3CH4S2HSHCSFeSFeSC2FeHSFeS2FeSCS2CH2C5H2C3HSHC6H4C3H2C6H2CHCH2C3HCHC2HC2H2CHCHPCHC2SHC3HC6H4C6PHC6H5C2SCH8CH5C3H2C2H2CH5C5HC5FeHC4HCPHCHFeHC4HCSHC2H2C2H4CHFeCH2C2HC2H2CFe2SFeSCHSFeSFeS2FeS4C5H2C2HCH2C5H2C7H4FeS2FeSFeSFeS3H4FeS2FeSC2HC7H4C3H2CH2CHC2HC2HCH2C3SHC5H2C2H5CHCPC3HC8H4C2HCH3CHCHPCHCHSCHC11H2CH2C2H3C3H4C4H4CSCHCHC8H2CH2CHCH5C2HCHCHC3HC3PHCHCH2CH2CHC2H6C2H2CH2CH2C5HC5H2CH2C3H2C3HC4H2CH3C2H4PC2HCHC2H2CS2C3H4FeC2FeS2FeCFeS2FeSC7H3C2H2CFeSCHFeCFeSHSC6HCH4CHC2H2C2HPHCHC5PHC2H2CHCPHCSHFeCH3C4HCHC2H2C2H2C2H2C3H2C3H2C3SHC4HC2H3CH2C3PC5SC6HCHC2SCH12SHC2HCH2C2H2CHC3HSCH2C2HCSCHCHCH4C4HFeCHSH3C2HCSH4FeS2FeSCS3H2C4HC3HC6H4FeCSCHCS2HSCHC2SCHC2SC2PH2C3HC2HCHCHCHCH2C3HC8HSHC2HC3H5CFeH4C2HPC2HCHCH5CHCHCHCFeCFeH2CHCHFeC2HCHC2H2C2HC2H2C2H2CH2CHC3H2CHSHC4H2CSH2CHCHFeS2FeSFeS4CH2SFeSCSC6H4C3H2C6H4CSFeSHPCHCSHFeS2FeS2FeSFeS2C2HC5H3SHC3H2C6H2CH4C5H2CFeH5C2H2CPHC4HC3HC2H2C3HC14PC14HC3H6CH7CHC8H2CHCSH3C12H8C5PH2SCHCH5C3FeCHPC3HCHCHC2H3CHC3HC2PHCHCH2C2HSH3CH4C4PC2HCH2CHC3HCH2CHCHCH4CHCHC3H3C4HCH3CHC3H3C3H2CHCH2C7H2CH3SCHC3HPCH2CFeS2FeSFeSCHSFeSH2FeSFeHSFeS2CHCH2C3H3PHC2HC4H3CH2C2HCH2C7H4C2HCHCHSC3H2CHCHC2H2SC2SCH2CH5CH2C2H4CH3C2SCPCH2C7H2C2HC9PC11HC2H11C4H2C3SC6HC2HC4H2C3H2C2HCH5CHCHCH3C3H6FeH2FeS2FeSFeS3FeSC4SC4HCH5C6H4SHC4HCHC2HCH2CH2CHC6PC3HC14HC2H9CH8C3H2CHCHC3H4C2HC2SHCH5CPH3C9PC18H5CHCH2CHCH2C2H5CHCHCH4C3HCHCH3CH2C3H2SHCH4CHSH3CFeHSFeS2FeSC2S2H2SHC2H2C3H5CPC7H3SH3CHCH3CH2C4H2C2HC2HCHSCHC4HCH2CHC2PC2FeCSC4H2C7H2C2H3CHCH7C2HCHCH2C5H5C4HC2HC2HC2H2CHC3HC2SCHCHCHC3H4C2HC4H2PCHPCHCHC2HCHC9HC2H2CHCHC2HCHCH2CH2C3PSHCH2C3H3CH3CH2C4HCFeS2FeCFeSCSCSFeS2CSHCSHCFeSCHC6H7C3H6CH2C6H7FeHSPHSCHCSC2H4C3HC2HCSCHC2HC2SHC3SHC3HC2H2C2HC2PHC2H3C7HCH3C3SCHC4H2CHFeH4CH2C6H2C3HCH2FeCPC5HFeHCHC4HC2H4C2H2CHCHCH3FeHC5H5SCHCH4CFeH5C2H
_chemical_formula_sum              "H2304 C2880 Fe192 S384 P96"
_cell_length_a       59.9304
_cell_length_b       60.036
_cell_length_c       56.8195
_cell_angle_alpha    90.1647
_cell_angle_beta     90.0279
_cell_angle_gamma    120.07

_space_group_name_H-M_alt    "P 1"
_space_group_IT_number       1

loop_
  _space_group_symop_operation_xyz
  'x, y, z'

loop_
  _atom_site_type_symbol
  _atom_site_label
  _atom_site_symmetry_multiplicity
  _atom_site_fract_x
  _atom_site_fract_y
  _atom_site_fract_z
  _atom_site_occupancy
  H   H1        1.0  0.02983  0.06885  0.10689  1.0000
  H   H2        1.0  0.22816  0.17789  0.14953  1.0000
  C   C1        1.0  0.99023  0.15260  0.16681  1.0000
  Fe  Fe1       1.0  0.35878  0.01051  0.10452  1.0000
  S   S1        1.0  0.36082  0.04846  0.11091  1.0000
  H   H3        1.0  0.22358  0.29923  0.18547  1.0000
  Fe  Fe2       1.0  0.34862  0.99654  0.15638  1.0000
  S   S2        1.0  0.34912  0.03318  0.16536  1.0000
  Fe  Fe3       1.0  0.32459  0.02506  0.13268  1.0000
  S   S3        1.0  0.28903  0.03061  0.12879  1.0000
  Fe  Fe4       1.0  0.38509  0.05208  0.14304  1.0000
  S   S4        1.0  0.42252  0.08782  0.15652  1.0000
  H   H4        1.0  0.28360  0.10221  0.23377  1.0000
  S   S5        1.0  0.38494  0.01552  0.13521  1.0000
  Fe  Fe5       1.0  0.13164  0.17561  0.23450  1.0000
  C   C2        1.0  0.22869  0.16268  0.18373  1.0000
  H   H5        1.0  0.21445  0.06256  0.22705  1.0000
  Fe  Fe6       1.0  0.07339  0.13701  0.21940  1.0000
  H   H6        1.0  0.16990  0.08625  0.18003  1.0000
  S   S6        1.0  0.04146  0.12943  0.19181  1.0000
  Fe  Fe7       1.0  0.11005  0.11745  0.23159  1.0000
  S   S7        1.0  0.11960  0.08589  0.22731  1.0000
  H   H7        1.0  0.23994  0.08703  0.16979  1.0000
  S   S8        1.0  0.11263  0.14638  0.20509  1.0000
  C   C3        1.0  0.24428  0.26968  0.23719  1.0000
  C   C4        1.0  0.00175  0.99018  0.17072  1.0000
  S   S9        1.0  0.11338  0.03789  0.12702  1.0000
  C   C5        1.0  0.09960  0.99210  0.03658  1.0000
  C   C6        1.0  0.10729  0.01098  0.01895  1.0000
  H   H8        1.0  0.10186  0.99763  0.05495  1.0000
  H   H9        1.0  0.11550  0.03099  0.02391  1.0000
  C   C7        1.0  0.11500  0.07172  0.19939  1.0000
  C   C8        1.0  0.11122  0.04680  0.19752  1.0000
  C   C9        1.0  0.10947  0.03575  0.17532  1.0000
  C   C10       1.0  0.11206  0.04982  0.15494  1.0000
  C   C11       1.0  0.11526  0.07453  0.15682  1.0000
  C   C12       1.0  0.11662  0.08544  0.17903  1.0000
  H   H10       1.0  0.11001  0.03614  0.21324  1.0000
  H   H11       1.0  0.10710  0.01678  0.17406  1.0000
  H   H12       1.0  0.11718  0.08545  0.14108  1.0000
  H   H13       1.0  0.11959  0.10468  0.18034  1.0000
  C   C13       1.0  0.25459  0.00971  0.12963  1.0000
  C   C14       1.0  0.21107  0.00403  0.12476  1.0000
  C   C15       1.0  0.23829  0.01936  0.12311  1.0000
  H   H14       1.0  0.19904  0.01184  0.11951  1.0000
  H   H15       1.0  0.24679  0.03894  0.11688  1.0000
  C   C16       1.0  0.04102  0.99644  0.15248  1.0000
  C   C17       1.0  0.25338  0.02009  0.04900  1.0000
  C   C18       1.0  0.98909  0.09885  0.20418  1.0000
  C   C19       1.0  0.00761  0.10786  0.18626  1.0000
  C   C20       1.0  0.99875  0.10140  0.16281  1.0000
  C   C21       1.0  0.97374  0.02660  0.13508  1.0000
  H   H16       1.0  0.05581  0.00473  0.13918  1.0000
  H   H17       1.0  0.99526  0.10382  0.22227  1.0000
  H   H18       1.0  0.01265  0.10840  0.14866  1.0000
  C   C22       1.0  0.06983  0.03019  0.08007  1.0000
  H   H19       1.0  0.46474  0.06027  0.06851  1.0000
  C   C23       1.0  0.04676  0.04324  0.00006  1.0000
  H   H20       1.0  0.15416  0.26220  0.22594  1.0000
  C   C24       1.0  0.25544  0.25755  0.22480  1.0000
  C   C25       1.0  0.36342  0.99224  0.02124  1.0000
  H   H21       1.0  0.41434  0.00572  0.22369  1.0000
  C   C26       1.0  0.20088  0.23178  0.23225  1.0000
  H   H22       1.0  0.06359  0.01590  0.04453  1.0000
  H   H23       1.0  0.23611  0.02069  0.05347  1.0000
  H   H24       1.0  0.17155  0.97835  0.00719  1.0000
  H   H25       1.0  0.45061  0.98096  0.22255  1.0000
  C   C27       1.0  0.42221  0.02620  0.22532  1.0000
  H   H26       1.0  0.09062  0.03874  0.07921  1.0000
  C   C28       1.0  0.40932  0.03744  0.21449  1.0000
  C   C29       1.0  0.22376  0.02351  0.18941  1.0000
  C   C30       1.0  0.03140  0.01977  0.10279  1.0000
  C   C31       1.0  0.05832  0.03180  0.10090  1.0000
  P   P1        1.0  0.01740  0.02118  0.13066  1.0000
  P   P2        1.0  0.23036  0.14361  0.22768  1.0000
  C   C32       1.0  0.03546  0.05435  0.13986  1.0000
  C   C33       1.0  0.04739  0.06115  0.16204  1.0000
  C   C34       1.0  0.06219  0.08705  0.16844  1.0000
  C   C35       1.0  0.06565  0.10628  0.15261  1.0000
  C   C36       1.0  0.05386  0.09965  0.13050  1.0000
  C   C37       1.0  0.03875  0.07376  0.12413  1.0000
  H   H27       1.0  0.40302  0.98540  0.18310  1.0000
  H   H28       1.0  0.01630  0.99755  0.04629  1.0000
  H   H29       1.0  0.27104  0.08148  0.19443  1.0000
  H   H30       1.0  0.99556  0.99926  0.08313  1.0000
  H   H31       1.0  0.05636  0.11463  0.11840  1.0000
  H   H32       1.0  0.41746  0.99369  0.11006  1.0000
  C   C38       1.0  0.21718  0.16861  0.16522  1.0000
  C   C39       1.0  0.17242  0.07010  0.17542  1.0000
  S   S10       1.0  0.28951  0.27285  0.21939  1.0000
  C   C40       1.0  0.17356  0.06440  0.15175  1.0000
  C   C41       1.0  0.18912  0.14565  0.20614  1.0000
  H   H33       1.0  0.24573  0.04439  0.00908  1.0000
  S   S11       1.0  0.37025  0.00255  0.06858  1.0000
  H   H34       1.0  0.04563  0.04665  0.17436  1.0000
  H   H35       1.0  0.07108  0.09226  0.18569  1.0000
  H   H36       1.0  0.07709  0.12634  0.15770  1.0000
  H   H37       1.0  0.19998  0.20020  0.21352  1.0000
  C   C42       1.0  0.17519  0.03264  0.18702  1.0000
  C   C43       1.0  0.19157  0.16276  0.16703  1.0000
  C   C44       1.0  0.22611  0.98387  0.21289  1.0000
  C   C45       1.0  0.25394  0.00648  0.02903  1.0000
  H   H38       1.0  0.17453  0.03749  0.12726  1.0000
  C   C46       1.0  0.17552  0.02660  0.16320  1.0000
  S   S12       1.0  0.35961  0.30841  0.24566  1.0000
  S   S13       1.0  0.16666  0.21723  0.23631  1.0000
  C   C47       1.0  0.99222  0.04273  0.20126  1.0000
  C   C48       1.0  0.18207  0.02643  0.23828  1.0000
  C   C49       1.0  0.43937  0.02577  0.08723  1.0000
  H   H39       1.0  0.31381  0.04095  0.07032  1.0000
  C   C50       1.0  0.17995  0.30227  0.23430  1.0000
  C   C51       1.0  0.24600  0.00010  0.19775  1.0000
  H   H40       1.0  0.17201  0.07612  0.13808  1.0000
  H   H41       1.0  0.32060  0.21590  0.23192  1.0000
  H   H42       1.0  0.07048  0.04232  0.11569  1.0000
  H   H43       1.0  0.06100  0.06305  0.00408  1.0000
  C   C52       1.0  0.30081  0.20865  0.23737  1.0000
  H   H44       1.0  0.22198  0.11349  0.18395  1.0000
  H   H45       1.0  0.15795  0.14720  0.18898  1.0000
  H   H46       1.0  0.39167  0.02563  0.20468  1.0000
  C   C53       1.0  0.45292  0.09254  0.16731  1.0000
  H   H47       1.0  0.42372  0.01999  0.07475  1.0000
  C   C54       1.0  0.04310  0.98108  0.16978  1.0000
  C   C55       1.0  0.43587  0.01089  0.10720  1.0000
  H   H48       1.0  0.22334  0.03895  0.18007  1.0000
  C   C56       1.0  0.12347  0.98127  0.21550  1.0000
  C   C57       1.0  0.97209  0.08640  0.15736  1.0000
  C   C58       1.0  0.25583  0.17474  0.23734  1.0000
  C   C59       1.0  0.19956  0.97881  0.13337  1.0000
  C   C60       1.0  0.25998  0.11988  0.23117  1.0000
  S   S14       1.0  0.32211  0.98703  0.12509  1.0000
  H   H49       1.0  0.05906  0.97743  0.16939  1.0000
  H   H50       1.0  0.17601  0.00942  0.15821  1.0000
  C   C61       1.0  0.20505  0.98753  0.21641  1.0000
  H   H51       1.0  0.38426  0.00293  0.02043  1.0000
  H   H52       1.0  0.12410  0.99832  0.22267  1.0000
  C   C62       1.0  0.98350  0.01064  0.12808  1.0000
  C   C63       1.0  0.05461  0.01738  0.06056  1.0000
  H   H53       1.0  0.31571  0.01827  0.03444  1.0000
  C   C64       1.0  0.27009  0.10472  0.22301  1.0000
  H   H54       1.0  0.17847  0.09820  0.22944  1.0000
  H   H55       1.0  0.44719  0.05557  0.15696  1.0000
  C   C65       1.0  0.27492  0.03245  0.06377  1.0000
  C   C66       1.0  0.17221  0.27947  0.22178  1.0000
  H   H56       1.0  0.16765  0.30279  0.24800  1.0000
  C   C67       1.0  0.21727  0.25698  0.24076  1.0000
  C   C68       1.0  0.23547  0.11137  0.19504  1.0000
  H   H57       1.0  0.24865  0.16756  0.18213  1.0000
  C   C69       1.0  0.20347  0.00708  0.20432  1.0000
  C   C70       1.0  0.18798  0.27869  0.20410  1.0000
  C   C71       1.0  0.01097  0.04354  0.21640  1.0000
  C   C72       1.0  0.17292  0.05412  0.19302  1.0000
  C   C73       1.0  0.24289  0.12363  0.21709  1.0000
  C   C74       1.0  0.29828  0.01877  0.03848  1.0000
  C   C75       1.0  0.17485  0.04252  0.14564  1.0000
  Fe  Fe8       1.0  0.10556  0.99717  0.12495  1.0000
  H   H58       1.0  0.99787  0.05629  0.18687  1.0000
  S   S15       1.0  0.12850  0.98759  0.09982  1.0000
  H   H59       1.0  0.17072  0.05819  0.21113  1.0000
  H   H60       1.0  0.18260  0.16735  0.15272  1.0000
  H   H61       1.0  0.45285  0.00765  0.13954  1.0000
  C   C76       1.0  0.27671  0.00614  0.02376  1.0000
  C   C77       1.0  0.17763  0.15135  0.18747  1.0000
  C   C78       1.0  0.24307  0.98436  0.13777  1.0000
  H   H62       1.0  0.27790  0.99588  0.00855  1.0000
  H   H63       1.0  0.45122  0.10016  0.22764  1.0000
  H   H64       1.0  0.03107  0.05790  0.21390  1.0000
  C   C79       1.0  0.45576  0.01871  0.12368  1.0000
  H   H65       1.0  0.18213  0.26077  0.19480  1.0000
  C   C80       1.0  0.98865  0.15474  0.19115  1.0000
  P   P3        1.0  0.17648  0.01201  0.20936  1.0000
  C   C81       1.0  0.26299  0.09301  0.20085  1.0000
  C   C82       1.0  0.21459  0.15065  0.20414  1.0000
  C   C83       1.0  0.14615  0.98214  0.20771  1.0000
  H   H66       1.0  0.27420  0.04231  0.07953  1.0000
  C   C84       1.0  0.46272  0.04853  0.08369  1.0000
  C   C85       1.0  0.97780  0.00748  0.23818  1.0000
  H   H67       1.0  0.26043  0.03260  0.17448  1.0000
  C   C86       1.0  0.02016  0.00091  0.15262  1.0000
  C   C87       1.0  0.18481  0.10455  0.24731  1.0000
  H   H68       1.0  0.46527  0.13093  0.17983  1.0000
  P   P4        1.0  0.22511  0.98818  0.01144  1.0000
  H   H69       1.0  0.00802  0.15544  0.15910  1.0000
  C   C88       1.0  0.24495  0.02007  0.18625  1.0000
  H   H70       1.0  0.24735  0.22261  0.20679  1.0000
  C   C89       1.0  0.24556  0.09620  0.18695  1.0000
  H   H71       1.0  0.28687  0.17230  0.22011  1.0000
  H   H72       1.0  0.26222  0.99724  0.19474  1.0000
  H   H73       1.0  0.40987  0.07283  0.20687  1.0000
  C   C90       1.0  0.35105  0.98966  0.04291  1.0000
  C   C91       1.0  0.01623  0.00765  0.08279  1.0000
  H   H74       1.0  0.00513  0.15901  0.20216  1.0000
  H   H75       1.0  0.25652  0.28895  0.24377  1.0000
  C   C92       1.0  0.23909  0.23231  0.21642  1.0000
  C   C93       1.0  0.21213  0.21943  0.22030  1.0000
  H   H76       1.0  0.26575  0.12896  0.24832  1.0000
  H   H77       1.0  0.98644  0.04608  0.14116  1.0000
  C   C94       1.0  0.28159  0.18386  0.23081  1.0000
  C   C95       1.0  0.02788  0.00665  0.06174  1.0000
  H   H78       1.0  0.98574  0.99373  0.17168  1.0000
  C   C96       1.0  0.44278  0.07942  0.22757  1.0000
  H   H79       1.0  0.17799  0.13770  0.22200  1.0000
  C   C97       1.0  0.41952  0.06403  0.21577  1.0000
  H   H80       1.0  0.01457  0.04952  0.00260  1.0000
  C   C98       1.0  0.29730  0.03168  0.05860  1.0000
  C   C99       1.0  0.44519  0.04140  0.23784  1.0000
  H   H81       1.0  0.30395  0.99145  0.19084  1.0000
  C   C100      1.0  0.34910  0.98098  0.00057  1.0000
  H   H82       1.0  0.01848  0.02620  0.24616  1.0000
  H   H83       1.0  0.30097  0.98049  0.23308  1.0000
  S   S16       1.0  0.07052  0.10669  0.24446  1.0000
  C   C101      1.0  0.00380  0.02577  0.23471  1.0000
  H   H84       1.0  0.46215  0.12687  0.12291  1.0000
  S   S17       1.0  0.09266  0.16894  0.24657  1.0000
  C   C102      1.0  0.21159  0.30061  0.19897  1.0000
  C   C103      1.0  0.96883  0.14630  0.15254  1.0000
  H   H85       1.0  0.97061  0.14497  0.13372  1.0000
  C   C104      1.0  0.20241  0.05170  0.24170  1.0000
  C   C105      1.0  0.46028  0.07384  0.16515  1.0000
  C   C106      1.0  0.45575  0.06823  0.23835  1.0000
  C   C107      1.0  0.10171  0.23873  0.32399  1.0000
  Fe  Fe9       1.0  0.12358  0.09034  0.47748  1.0000
  S   S18       1.0  0.09667  0.08832  0.44885  1.0000
  H   H86       1.0  0.22266  0.08277  0.26643  1.0000
  Fe  Fe10      1.0  0.16441  0.14811  0.46453  1.0000
  S   S19       1.0  0.13941  0.14907  0.43564  1.0000
  S   S20       1.0  0.20590  0.18228  0.46994  1.0000
  Fe  Fe11      1.0  0.10674  0.12791  0.46088  1.0000
  H   H87       1.0  0.06653  0.21388  0.30516  1.0000
  Fe  Fe12      1.0  0.13157  0.10970  0.42585  1.0000
  S   S21       1.0  0.13243  0.09957  0.38742  1.0000
  C   C108      1.0  0.20904  0.12621  0.25180  1.0000
  S   S22       1.0  0.15848  0.10917  0.45337  1.0000
  Fe  Fe13      1.0  0.09220  0.13877  0.27055  1.0000
  S   S23       1.0  0.08266  0.13769  0.30945  1.0000
  C   C109      1.0  0.11895  0.11074  0.36591  1.0000
  C   C110      1.0  0.11918  0.10435  0.34213  1.0000
  C   C111      1.0  0.10832  0.11265  0.32463  1.0000
  C   C112      1.0  0.09708  0.12741  0.33079  1.0000
  C   C113      1.0  0.09685  0.13381  0.35457  1.0000
  C   C114      1.0  0.10781  0.12561  0.37204  1.0000
  H   H88       1.0  0.12763  0.09277  0.33722  1.0000
  H   H89       1.0  0.10842  0.10743  0.30640  1.0000
  H   H90       1.0  0.08804  0.14506  0.35951  1.0000
  H   H91       1.0  0.10726  0.13049  0.39029  1.0000
  H   H92       1.0  0.97272  0.99342  0.25202  1.0000
  C   C115      1.0  0.34201  0.29801  0.40569  1.0000
  C   C116      1.0  0.07044  0.23669  0.45526  1.0000
  C   C117      1.0  0.97866  0.06701  0.46769  1.0000
  C   C118      1.0  0.24232  0.27128  0.46876  1.0000
  C   C119      1.0  0.25745  0.25975  0.46543  1.0000
  C   C120      1.0  0.24592  0.23259  0.46522  1.0000
  C   C121      1.0  0.21903  0.21643  0.46765  1.0000
  C   C122      1.0  0.20380  0.22796  0.46989  1.0000
  C   C123      1.0  0.21540  0.25510  0.47068  1.0000
  H   H93       1.0  0.27811  0.27174  0.46360  1.0000
  H   H94       1.0  0.07887  0.01483  0.47436  1.0000
  H   H95       1.0  0.44336  0.97816  0.34840  1.0000
  C   C124      1.0  0.43195  0.04137  0.43423  1.0000
  H   H96       1.0  0.18275  0.00632  0.45288  1.0000
  C   C125      1.0  0.29444  0.22452  0.25029  1.0000
  C   C126      1.0  0.24545  0.03033  0.46864  1.0000
  C   C127      1.0  0.41638  0.98903  0.27102  1.0000
  C   C128      1.0  0.13842  0.04259  0.45064  1.0000
  H   H97       1.0  0.28860  0.28248  0.27018  1.0000
  H   H98       1.0  0.99756  0.99750  0.47482  1.0000
  H   H99       1.0  0.06826  0.18521  0.48277  1.0000
  C   C129      1.0  0.02901  0.02035  0.49792  1.0000
  C   C130      1.0  0.01350  0.03836  0.46813  1.0000
  C   C131      1.0  0.03319  0.06312  0.47447  1.0000
  P   P5        1.0  0.99219  0.03429  0.44389  1.0000
  C   C132      1.0  0.98322  0.14276  0.46369  1.0000
  C   C133      1.0  0.18984  0.27400  0.30218  1.0000
  H   H100      1.0  0.18317  0.21598  0.47202  1.0000
  H   H101      1.0  0.24439  0.26494  0.41055  1.0000
  C   C134      1.0  0.12728  0.04411  0.42953  1.0000
  H   H102      1.0  0.20495  0.24279  0.36850  1.0000
  H   H103      1.0  0.46485  0.99659  0.38645  1.0000
  H   H104      1.0  0.98258  0.12834  0.45177  1.0000
  H   H105      1.0  0.38593  0.27378  0.48008  1.0000
  C   C135      1.0  0.01201  0.04870  0.41816  1.0000
  C   C136      1.0  0.03570  0.04937  0.41583  1.0000
  C   C137      1.0  0.05145  0.06109  0.39629  1.0000
  C   C138      1.0  0.04354  0.07194  0.37879  1.0000
  C   C139      1.0  0.09282  0.20550  0.45366  1.0000
  C   C140      1.0  0.00425  0.05971  0.40048  1.0000
  C   C141      1.0  0.20129  0.01920  0.46087  1.0000
  C   C142      1.0  0.03424  0.23815  0.49604  1.0000
  C   C143      1.0  0.16550  0.05169  0.40844  1.0000
  H   H106      1.0  0.20427  0.24044  0.29486  1.0000
  H   H107      1.0  0.03577  0.07991  0.46499  1.0000
  C   C144      1.0  0.97044  0.00025  0.43925  1.0000
  H   H108      1.0  0.45643  0.05338  0.29080  1.0000
  H   H109      1.0  0.16026  0.01314  0.29483  1.0000
  C   C145      1.0  0.24459  0.30054  0.40945  1.0000
  C   C146      1.0  0.26884  0.21565  0.25661  1.0000
  H   H110      1.0  0.04226  0.04114  0.42922  1.0000
  H   H111      1.0  0.07000  0.06213  0.39481  1.0000
  C   C147      1.0  0.24955  0.19100  0.24989  1.0000
  H   H112      1.0  0.25799  0.22404  0.46344  1.0000
  C   C148      1.0  0.22159  0.01424  0.45803  1.0000
  H   H113      1.0  0.12184  0.20110  0.36359  1.0000
  H   H114      1.0  0.26385  0.22839  0.26578  1.0000
  H   H115      1.0  0.11514  0.22921  0.42466  1.0000
  C   C149      1.0  0.19188  0.04933  0.28309  1.0000
  H   H116      1.0  0.44567  0.00351  0.48178  1.0000
  H   H117      1.0  0.12450  0.19217  0.30183  1.0000
  C   C150      1.0  0.19418  0.22050  0.29983  1.0000
  H   H118      1.0  0.15867  0.14792  0.31510  1.0000
  C   C151      1.0  0.05000  0.06648  0.49292  1.0000
  H   H119      1.0  0.19548  0.05827  0.30032  1.0000
  C   C152      1.0  0.20484  0.04050  0.47415  1.0000
  C   C153      1.0  0.43224  0.04733  0.45805  1.0000
  C   C154      1.0  0.18765  0.26556  0.32558  1.0000
  C   C155      1.0  0.21205  0.19079  0.36512  1.0000
  C   C156      1.0  0.21000  0.18217  0.38824  1.0000
  C   C157      1.0  0.22780  0.19813  0.40516  1.0000
  C   C158      1.0  0.24737  0.22284  0.39909  1.0000
  C   C159      1.0  0.24929  0.23191  0.37597  1.0000
  C   C160      1.0  0.23160  0.21552  0.35892  1.0000
  P   P6        1.0  0.27391  0.26454  0.36892  1.0000
  C   C161      1.0  0.27832  0.26915  0.33744  1.0000
  C   C162      1.0  0.26517  0.28738  0.38004  1.0000
  H   H120      1.0  0.05579  0.08107  0.36368  1.0000
  C   C163      1.0  0.17198  0.02394  0.27997  1.0000
  H   H121      1.0  0.33959  0.24171  0.39172  1.0000
  C   C164      1.0  0.30129  0.27362  0.32665  1.0000
  H   H122      1.0  0.00747  0.22697  0.46679  1.0000
  C   C165      1.0  0.28560  0.27865  0.28888  1.0000
  C   C166      1.0  0.26287  0.27463  0.29948  1.0000
  C   C167      1.0  0.25922  0.26994  0.32367  1.0000
  C   C168      1.0  0.30351  0.27043  0.38282  1.0000
  C   C169      1.0  0.31093  0.25167  0.38186  1.0000
  C   C170      1.0  0.33379  0.25613  0.39270  1.0000
  C   C171      1.0  0.01186  0.01691  0.47973  1.0000
  C   C172      1.0  0.03544  0.12751  0.49141  1.0000
  C   C173      1.0  0.13468  0.22641  0.32257  1.0000
  H   H123      1.0  0.19830  0.17824  0.35207  1.0000
  H   H124      1.0  0.19459  0.16313  0.39308  1.0000
  H   H125      1.0  0.22625  0.19136  0.42307  1.0000
  H   H126      1.0  0.26084  0.23498  0.41256  1.0000
  H   H127      1.0  0.23260  0.22161  0.34089  1.0000
  H   H128      1.0  0.09531  0.25690  0.42608  1.0000
  C   C174      1.0  0.16722  0.01241  0.25770  1.0000
  C   C175      1.0  0.17670  0.05017  0.42956  1.0000
  H   H129      1.0  0.01410  0.07997  0.36736  1.0000
  H   H130      1.0  0.42830  0.06235  0.46351  1.0000
  C   C176      1.0  0.42473  0.30012  0.46998  1.0000
  H   H131      1.0  0.24167  0.26726  0.33172  1.0000
  H   H132      1.0  0.29914  0.23370  0.37257  1.0000
  C   C177      1.0  0.20004  0.12018  0.29380  1.0000
  H   H133      1.0  0.14707  0.17685  0.33578  1.0000
  C   C178      1.0  0.18613  0.23174  0.37648  1.0000
  H   H134      1.0  0.21469  0.21130  0.27418  1.0000
  C   C179      1.0  0.40594  0.28176  0.48483  1.0000
  H   H135      1.0  0.24827  0.27550  0.28895  1.0000
  C   C180      1.0  0.16225  0.18476  0.32270  1.0000
  C   C181      1.0  0.44132  0.00757  0.44441  1.0000
  C   C182      1.0  0.15642  0.01999  0.49762  1.0000
  C   C183      1.0  0.08559  0.21755  0.30993  1.0000
  H   H136      1.0  0.06508  0.08568  0.49772  1.0000
  C   C184      1.0  0.20045  0.20390  0.28809  1.0000
  C   C185      1.0  0.01998  0.07125  0.38087  1.0000
  C   C186      1.0  0.30478  0.27819  0.30244  1.0000
  C   C187      1.0  0.17487  0.21107  0.31715  1.0000
  H   H137      1.0  0.22963  0.18485  0.25388  1.0000
  H   H138      1.0  0.20158  0.23084  0.41063  1.0000
  H   H139      1.0  0.20589  0.12620  0.31184  1.0000
  C   C188      1.0  0.00698  0.16398  0.46997  1.0000
  H   H140      1.0  0.30921  0.24405  0.25464  1.0000
  H   H141      1.0  0.42807  0.05204  0.42109  1.0000
  C   C189      1.0  0.16028  0.21018  0.41074  1.0000
  C   C190      1.0  0.44174  0.01381  0.46831  1.0000
  H   H142      1.0  0.10128  0.19322  0.45301  1.0000
  H   H143      1.0  0.96652  0.08981  0.48738  1.0000
  C   C191      1.0  0.13951  0.20851  0.37369  1.0000
  C   C192      1.0  0.32060  0.22514  0.49084  1.0000
  C   C193      1.0  0.18874  0.07759  0.49032  1.0000
  C   C194      1.0  0.10052  0.22567  0.43767  1.0000
  H   H144      1.0  0.99148  0.99651  0.40993  1.0000
  H   H145      1.0  0.20340  0.26365  0.47327  1.0000
  C   C195      1.0  0.25058  0.28238  0.40069  1.0000
  H   H146      1.0  0.19192  0.16474  0.28399  1.0000
  C   C196      1.0  0.07766  0.00742  0.49192  1.0000
  H   H147      1.0  0.23582  0.14939  0.27938  1.0000
  H   H148      1.0  0.13234  0.05038  0.39217  1.0000
  H   H149      1.0  0.35560  0.22459  0.48402  1.0000
  S   S24       1.0  0.25581  0.30547  0.47165  1.0000
  C   C197      1.0  0.08933  0.24125  0.43847  1.0000
  H   H150      1.0  0.17885  0.26048  0.28823  1.0000
  C   C198      1.0  0.31924  0.29363  0.39476  1.0000
  C   C199      1.0  0.34932  0.27929  0.40464  1.0000
  H   H151      1.0  0.31693  0.27434  0.33679  1.0000
  H   H152      1.0  0.32278  0.28214  0.29431  1.0000
  H   H153      1.0  0.43631  0.01740  0.40885  1.0000
  C   C200      1.0  0.16300  0.04512  0.45078  1.0000
  H   H154      1.0  0.10844  0.04252  0.42963  1.0000
  C   C201      1.0  0.43652  0.02161  0.42739  1.0000
  H   H155      1.0  0.99576  0.07361  0.47830  1.0000
  P   P7        1.0  0.16576  0.23196  0.33218  1.0000
  H   H156      1.0  0.19836  0.27847  0.36175  1.0000
  C   C202      1.0  0.14079  0.04860  0.40843  1.0000
  P   P8        1.0  0.03858  0.21055  0.49356  1.0000
  S   S25       1.0  0.13188  0.12946  0.49091  1.0000
  P   P9        1.0  0.44793  0.98250  0.43561  1.0000
  C   C203      1.0  0.37397  0.00027  0.48525  1.0000
  C   C204      1.0  0.11853  0.20539  0.30818  1.0000
  P   P10       1.0  0.17809  0.04586  0.47850  1.0000
  C   C205      1.0  0.00806  0.18284  0.48539  1.0000
  H   H157      1.0  0.37850  0.01299  0.47036  1.0000
  C   C206      1.0  0.16805  0.09136  0.26586  1.0000
  H   H158      1.0  0.02371  0.12301  0.47573  1.0000
  H   H159      1.0  0.22821  0.14075  0.47594  1.0000
  S   S26       1.0  0.13137  0.14681  0.25975  1.0000
  H   H160      1.0  0.19617  0.05346  0.42929  1.0000
  C   C207      1.0  0.07401  0.20095  0.47050  1.0000
  C   C208      1.0  0.13786  0.20160  0.39738  1.0000
  C   C209      1.0  0.06152  0.13497  0.48950  1.0000
  H   H161      1.0  0.06210  0.24904  0.45556  1.0000
  C   C210      1.0  0.06265  0.21650  0.47145  1.0000
  H   H162      1.0  0.21648  0.09697  0.46252  1.0000
  C   C211      1.0  0.20719  0.06314  0.26399  1.0000
  S   S27       1.0  0.07477  0.13709  0.46158  1.0000
  C   C212      1.0  0.09397  0.20089  0.30213  1.0000
  C   C213      1.0  0.16875  0.16825  0.31103  1.0000
  C   C214      1.0  0.01348  0.26189  0.48297  1.0000
  C   C215      1.0  0.18770  0.17777  0.29362  1.0000
  H   H163      1.0  0.36711  0.28286  0.41293  1.0000
  H   H164      1.0  0.31409  0.30848  0.39553  1.0000
  C   C216      1.0  0.17552  0.09934  0.28907  1.0000
  C   C217      1.0  0.12612  0.24309  0.33039  1.0000
  H   H165      1.0  0.02432  0.16547  0.46269  1.0000
  C   C218      1.0  0.97235  0.04858  0.44979  1.0000
  H   H166      1.0  0.17616  0.05583  0.39213  1.0000
  H   H167      1.0  0.16224  0.08936  0.30336  1.0000
  C   C219      1.0  0.21685  0.13345  0.27527  1.0000
  H   H168      1.0  0.11918  0.18919  0.40530  1.0000
  H   H169      1.0  0.23354  0.29669  0.42553  1.0000
  H   H170      1.0  0.00011  0.26372  0.47141  1.0000
  H   H171      1.0  0.98626  0.05970  0.40180  1.0000
  C   C220      1.0  0.18437  0.22501  0.40025  1.0000
  H   H172      1.0  0.12807  0.03991  0.46693  1.0000
  C   C221      1.0  0.01759  0.24103  0.48053  1.0000
  H   H173      1.0  0.15904  0.20492  0.42912  1.0000
  H   H174      1.0  0.09518  0.25161  0.33008  1.0000
  H   H175      1.0  0.13825  0.25936  0.34160  1.0000
  C   C222      1.0  0.20080  0.28383  0.34340  1.0000
  C   C223      1.0  0.16370  0.22414  0.36314  1.0000
  C   C224      1.0  0.44210  0.99687  0.26542  1.0000
  H   H176      1.0  0.14901  0.07520  0.26214  1.0000
  C   C225      1.0  0.13425  0.99842  0.48860  1.0000
  H   H177      1.0  0.08123  0.18416  0.29166  1.0000
  H   H178      1.0  0.12920  0.99710  0.47018  1.0000
  H   H179      1.0  0.15208  0.99257  0.25582  1.0000
  C   C226      1.0  0.20759  0.09927  0.47822  1.0000
  C   C227      1.0  0.22875  0.05636  0.48508  1.0000
  C   C228      1.0  0.97504  0.98672  0.42152  1.0000
  C   C229      1.0  0.43714  0.03356  0.47501  1.0000
  C   C230      1.0  0.44547  0.98017  0.38633  1.0000
  C   C231      1.0  0.45219  0.98106  0.27175  1.0000
  H   H180      1.0  0.41904  0.30606  0.45416  1.0000
  H   H181      1.0  0.31163  0.21571  0.47440  1.0000
  C   C232      1.0  0.98499  0.17977  0.49479  1.0000
  H   H182      1.0  0.23173  0.07236  0.49610  1.0000
  C   C233      1.0  0.24901  0.05134  0.48219  1.0000
  C   C234      1.0  0.21431  0.12407  0.48576  1.0000
  C   C235      1.0  0.06191  0.98066  0.49627  1.0000
  H   H183      1.0  0.40837  0.00131  0.26739  1.0000
  H   H184      1.0  0.26742  0.06356  0.49069  1.0000
  C   C236      1.0  0.21683  0.30978  0.33769  1.0000
  P   P11       1.0  0.46258  0.02698  0.25055  1.0000
  H   H185      1.0  0.26112  0.02634  0.46659  1.0000
  H   H186      1.0  0.32878  0.29951  0.47750  1.0000
  H   H187      1.0  0.20896  0.26687  0.24995  1.0000
  H   H188      1.0  0.21874  0.99773  0.44781  1.0000
  H   H189      1.0  0.20801  0.30605  0.27840  1.0000
  C   C237      1.0  0.20619  0.29986  0.29652  1.0000
  C   C238      1.0  0.33024  0.30172  0.49647  1.0000
  C   C239      1.0  0.34551  0.23028  0.49631  1.0000
  H   H190      1.0  0.43702  0.03809  0.49345  1.0000
  C   C240      1.0  0.45819  0.30390  0.49627  1.0000
  H   H191      1.0  0.36836  0.30663  0.49794  1.0000
  S   S28       1.0  0.01073  0.29433  0.55697  1.0000
  S   S29       1.0  0.01348  0.15091  0.71499  1.0000
  Fe  Fe14      1.0  0.41978  0.07822  0.53940  1.0000
  S   S30       1.0  0.44658  0.07579  0.56565  1.0000
  S   S31       1.0  0.39684  0.04556  0.51187  1.0000
  Fe  Fe15      1.0  0.43772  0.13573  0.55468  1.0000
  C   C241      1.0  0.98621  0.04936  0.60573  1.0000
  S   S32       1.0  0.43214  0.17135  0.55514  1.0000
  C   C242      1.0  0.45360  0.20257  0.63753  1.0000
  S   S33       1.0  0.02588  0.12801  0.56196  1.0000
  Fe  Fe16      1.0  0.43383  0.09593  0.59103  1.0000
  H   H192      1.0  0.05162  0.08092  0.61220  1.0000
  S   S34       1.0  0.45023  0.11777  0.52621  1.0000
  S   S35       1.0  0.40502  0.09638  0.56572  1.0000
  C   C243      1.0  0.03945  0.13121  0.53393  1.0000
  C   C244      1.0  0.40459  0.25143  0.59495  1.0000
  C   C245      1.0  0.04317  0.27769  0.51584  1.0000
  H   H193      1.0  0.38639  0.19150  0.71832  1.0000
  H   H194      1.0  0.42931  0.19695  0.50167  1.0000
  H   H195      1.0  0.05091  0.23827  0.68875  1.0000
  C   C246      1.0  0.98962  0.13507  0.69299  1.0000
  C   C247      1.0  0.38080  0.01097  0.50812  1.0000
  C   C248      1.0  0.42355  0.20587  0.70194  1.0000
  C   C249      1.0  0.04908  0.20520  0.52170  1.0000
  H   H196      1.0  0.05999  0.25503  0.52590  1.0000
  C   C250      1.0  0.99675  0.13972  0.66919  1.0000
  H   H197      1.0  0.20664  0.14662  0.51051  1.0000
  H   H198      1.0  0.19105  0.25399  0.54871  1.0000
  H   H199      1.0  0.98437  0.13020  0.63302  1.0000
  H   H200      1.0  0.01659  0.15305  0.66463  1.0000
  C   C251      1.0  0.40558  0.20787  0.71617  1.0000
  C   C252      1.0  0.12432  0.97888  0.52724  1.0000
  H   H201      1.0  0.08989  0.22716  0.51355  1.0000
  H   H202      1.0  0.02221  0.17681  0.61956  1.0000
  H   H203      1.0  0.44564  0.28048  0.52722  1.0000
  C   C253      1.0  0.99019  0.26002  0.55523  1.0000
  H   H204      1.0  0.97303  0.06859  0.52530  1.0000
  C   C254      1.0  0.44619  0.22233  0.56442  1.0000
  C   C255      1.0  0.99735  0.99691  0.60741  1.0000
  C   C256      1.0  0.98536  0.21689  0.55886  1.0000
  C   C257      1.0  0.00031  0.24400  0.56113  1.0000
  C   C258      1.0  0.44850  0.09793  0.65132  1.0000
  H   H205      1.0  0.42989  0.21418  0.57623  1.0000
  H   H206      1.0  0.99353  0.20502  0.56353  1.0000
  H   H207      1.0  0.01997  0.25264  0.56738  1.0000
  C   C259      1.0  0.37423  0.99387  0.52704  1.0000
  C   C260      1.0  0.06571  0.13927  0.53196  1.0000
  C   C261      1.0  0.18337  0.10596  0.51741  1.0000
  H   H208      1.0  0.29595  0.26984  0.57794  1.0000
  C   C262      1.0  0.30724  0.23213  0.50659  1.0000
  C   C263      1.0  0.23046  0.23380  0.52615  1.0000
  C   C264      1.0  0.16281  0.02030  0.52145  1.0000
  C   C265      1.0  0.04787  0.04511  0.50467  1.0000
  Fe  Fe17      1.0  0.98430  0.11811  0.56233  1.0000
  C   C266      1.0  0.01271  0.00867  0.58754  1.0000
  C   C267      1.0  0.08953  0.01402  0.53293  1.0000
  C   C268      1.0  0.07355  0.98732  0.53734  1.0000
  C   C269      1.0  0.41322  0.27415  0.50546  1.0000
  H   H209      1.0  0.46253  0.03511  0.52527  1.0000
  C   C270      1.0  0.20873  0.25440  0.54388  1.0000
  C   C271      1.0  0.01191  0.05600  0.60142  1.0000
  C   C272      1.0  0.99870  0.19211  0.63211  1.0000
  C   C273      1.0  0.45696  0.19814  0.66119  1.0000
  P   P12       1.0  0.96812  0.21158  0.64925  1.0000
  C   C274      1.0  0.31227  0.30494  0.53382  1.0000
  C   C275      1.0  0.04507  0.21728  0.62764  1.0000
  C   C276      1.0  0.03800  0.22501  0.72391  1.0000
  C   C277      1.0  0.42705  0.01035  0.57769  1.0000
  H   H210      1.0  0.45374  0.98349  0.53570  1.0000
  C   C278      1.0  0.29476  0.29752  0.62984  1.0000
  H   H211      1.0  0.17329  0.10846  0.53208  1.0000
  C   C279      1.0  0.45007  0.98613  0.60119  1.0000
  C   C280      1.0  0.98368  0.28060  0.62083  1.0000
  H   H212      1.0  0.98521  0.19367  0.50717  1.0000
  C   C281      1.0  0.46057  0.24942  0.56129  1.0000
  C   C282      1.0  0.02437  0.12538  0.51360  1.0000
  H   H213      1.0  0.33139  0.02822  0.73151  1.0000
  H   H214      1.0  0.44490  0.04006  0.60412  1.0000
  C   C283      1.0  0.00012  0.08087  0.63718  1.0000
  H   H215      1.0  0.16138  0.06487  0.51907  1.0000
  C   C284      1.0  0.41249  0.23089  0.72800  1.0000
  H   H216      1.0  0.39142  0.15573  0.51340  1.0000
  C   C285      1.0  0.02307  0.99568  0.57505  1.0000
  H   H217      1.0  0.06121  0.04770  0.51867  1.0000
  H   H218      1.0  0.41125  0.97805  0.55410  1.0000
  H   H219      1.0  0.03571  0.06655  0.74563  1.0000
  C   C286      1.0  0.07551  0.21591  0.52662  1.0000
  H   H220      1.0  0.45406  0.99549  0.70221  1.0000
  C   C287      1.0  0.41189  0.21972  0.51057  1.0000
  H   H221      1.0  0.05254  0.29165  0.52986  1.0000
  C   C288      1.0  0.96855  0.25574  0.73374  1.0000
  C   C289      1.0  0.02572  0.08759  0.63304  1.0000
  C   C290      1.0  0.99821  0.21389  0.64047  1.0000
  H   H222      1.0  0.43994  0.18547  0.60332  1.0000
  H   H223      1.0  0.04199  0.27412  0.69122  1.0000
  C   C291      1.0  0.03165  0.07522  0.61525  1.0000
  H   H224      1.0  0.18922  0.21671  0.52782  1.0000
  H   H225      1.0  0.42240  0.07568  0.67912  1.0000
  H   H226      1.0  0.27164  0.25537  0.52621  1.0000
  H   H227      1.0  0.45103  0.16887  0.68675  1.0000
  C   C292      1.0  0.46024  0.10203  0.69302  1.0000
  C   C293      1.0  0.44855  0.22701  0.69935  1.0000
  C   C294      1.0  0.20767  0.23335  0.53224  1.0000
  H   H228      1.0  0.99571  0.19789  0.68457  1.0000
  H   H229      1.0  0.45982  0.22178  0.63119  1.0000
  C   C295      1.0  0.02738  0.31008  0.68367  1.0000
  H   H230      1.0  0.98893  0.00624  0.61734  1.0000
  C   C296      1.0  0.29438  0.28305  0.58992  1.0000
  H   H231      1.0  0.30843  0.24951  0.54012  1.0000
  C   C297      1.0  0.45256  0.20570  0.55230  1.0000
  H   H232      1.0  0.40533  0.29835  0.54770  1.0000
  S   S36       1.0  0.46486  0.13553  0.58169  1.0000
  C   C298      1.0  0.97157  0.01143  0.52057  1.0000
  C   C299      1.0  0.04296  0.24135  0.70472  1.0000
  C   C300      1.0  0.23259  0.27602  0.54919  1.0000
  H   H233      1.0  0.06265  0.25724  0.63755  1.0000
  C   C301      1.0  0.44231  0.18201  0.62159  1.0000
  C   C302      1.0  0.31874  0.24409  0.52788  1.0000
  C   C303      1.0  0.03104  0.19160  0.53939  1.0000
  C   C304      1.0  0.03931  0.18850  0.56150  1.0000
  C   C305      1.0  0.06551  0.19842  0.56601  1.0000
  C   C306      1.0  0.08363  0.21224  0.54861  1.0000
  C   C307      1.0  0.36846  0.19603  0.52609  1.0000
  H   H234      1.0  0.42576  0.14109  0.61661  1.0000
  C   C308      1.0  0.97883  0.29824  0.72069  1.0000
  H   H235      1.0  0.07249  0.97987  0.55486  1.0000
  C   C309      1.0  0.15164  0.08465  0.74772  1.0000
  C   C310      1.0  0.42321  0.98670  0.56955  1.0000
  C   C311      1.0  0.39802  0.25970  0.55440  1.0000
  C   C312      1.0  0.09187  0.02440  0.51020  1.0000
  H   H236      1.0  0.37868  0.00141  0.54477  1.0000
  H   H237      1.0  0.45909  0.26108  0.66115  1.0000
  H   H238      1.0  0.29317  0.29873  0.50017  1.0000
  H   H239      1.0  0.98116  0.17370  0.63062  1.0000
  H   H240      1.0  0.98496  0.18163  0.72489  1.0000
  C   C313      1.0  0.16456  0.06319  0.71920  1.0000
  C   C314      1.0  0.02150  0.23731  0.64270  1.0000
  H   H241      1.0  0.44217  0.04673  0.74627  1.0000
  H   H242      1.0  0.01058  0.18331  0.53627  1.0000
  C   C315      1.0  0.02205  0.19381  0.62579  1.0000
  H   H243      1.0  0.42914  0.23746  0.50606  1.0000
  H   H244      1.0  0.10397  0.22002  0.55212  1.0000
  C   C316      1.0  0.02724  0.26545  0.72687  1.0000
  C   C317      1.0  0.41090  0.27645  0.60120  1.0000
  H   H245      1.0  0.41631  0.28314  0.61917  1.0000
  H   H246      1.0  0.40511  0.23866  0.60809  1.0000
  H   H247      1.0  0.15301  0.02373  0.72683  1.0000
  C   C318      1.0  0.44187  0.09045  0.67488  1.0000
  C   C319      1.0  0.44977  0.03384  0.74381  1.0000
  H   H248      1.0  0.01149  0.29122  0.67929  1.0000
  C   C320      1.0  0.41209  0.19667  0.50793  1.0000
  C   C321      1.0  0.44227  0.02187  0.59760  1.0000
  C   C322      1.0  0.15266  0.04076  0.73267  1.0000
  H   H249      1.0  0.02828  0.02654  0.72572  1.0000
  H   H250      1.0  0.35226  0.25890  0.54984  1.0000
  S   S37       1.0  0.42468  0.08313  0.62911  1.0000
  C   C323      1.0  0.99918  0.03673  0.55306  1.0000
  C   C324      1.0  0.99398  0.05645  0.54759  1.0000
  P   P13       1.0  0.01935  0.04021  0.57806  1.0000
  C   C325      1.0  0.39802  0.24300  0.57167  1.0000
  H   H251      1.0  0.45494  0.09610  0.71109  1.0000
  C   C326      1.0  0.03767  0.26155  0.70616  1.0000
  C   C327      1.0  0.41073  0.29308  0.58415  1.0000
  C   C328      1.0  0.07672  0.14102  0.50976  1.0000
  H   H252      1.0  0.17326  0.10250  0.71627  1.0000
  H   H253      1.0  0.07164  0.19505  0.58291  1.0000
  C   C329      1.0  0.04717  0.25677  0.51361  1.0000
  H   H254      1.0  0.10040  0.02672  0.54727  1.0000
  H   H255      1.0  0.45537  0.26178  0.57080  1.0000
  H   H256      1.0  0.39345  0.22363  0.56724  1.0000
  H   H257      1.0  0.00227  0.98461  0.74479  1.0000
  C   C330      1.0  0.05291  0.05968  0.57001  1.0000
  C   C331      1.0  0.06084  0.08054  0.55459  1.0000
  C   C332      1.0  0.08665  0.09488  0.54765  1.0000
  C   C333      1.0  0.10475  0.08879  0.55623  1.0000
  C   C334      1.0  0.09724  0.06876  0.57232  1.0000
  C   C335      1.0  0.07149  0.05440  0.57939  1.0000
  H   H258      1.0  0.23312  0.29208  0.55844  1.0000
  H   H259      1.0  0.07748  0.14406  0.54765  1.0000
  H   H260      1.0  0.04099  0.10265  0.64348  1.0000
  C   C336      1.0  0.25433  0.25551  0.53116  1.0000
  H   H261      1.0  0.00224  0.07391  0.55800  1.0000
  C   C337      1.0  0.98707  0.28102  0.72762  1.0000
  H   H262      1.0  0.00419  0.11903  0.51490  1.0000
  C   C338      1.0  0.14665  0.99995  0.53625  1.0000
  H   H263      1.0  0.34910  0.07542  0.73291  1.0000
  H   H264      1.0  0.03475  0.00418  0.55949  1.0000
  H   H265      1.0  0.30083  0.26611  0.62072  1.0000
  H   H266      1.0  0.04190  0.20922  0.72277  1.0000
  P   P14       1.0  0.28624  0.30475  0.54999  1.0000
  H   H267      1.0  0.41788  0.18779  0.69318  1.0000
  S   S38       1.0  0.97203  0.14028  0.58564  1.0000
  H   H268      1.0  0.04716  0.08558  0.54759  1.0000
  H   H269      1.0  0.09258  0.11046  0.53523  1.0000
  H   H270      1.0  0.12453  0.09943  0.55019  1.0000
  H   H271      1.0  0.11133  0.06411  0.57903  1.0000
  H   H272      1.0  0.06617  0.03910  0.59201  1.0000
  C   C339      1.0  0.16404  0.08510  0.72672  1.0000
  H   H273      1.0  0.43108  0.13294  0.65835  1.0000
  H   H274      1.0  0.02172  0.25428  0.64951  1.0000
  C   C340      1.0  0.45538  0.24999  0.71150  1.0000
  H   H275      1.0  0.99221  0.99904  0.54247  1.0000
  C   C341      1.0  0.43734  0.15239  0.65259  1.0000
  C   C342      1.0  0.97747  0.05353  0.52900  1.0000
  H   H276      1.0  0.29686  0.29580  0.64860  1.0000
  H   H277      1.0  0.22956  0.21741  0.51716  1.0000
  C   C343      1.0  0.98832  0.01442  0.53903  1.0000
  H   H278      1.0  0.06311  0.21856  0.62263  1.0000
  H   H279      1.0  0.41796  0.01963  0.56868  1.0000
  H   H280      1.0  0.43806  0.02590  0.70754  1.0000
  C   C344      1.0  0.40465  0.28490  0.56078  1.0000
  P   P15       1.0  0.38962  0.24921  0.52424  1.0000
  H   H281      1.0  0.02529  0.17757  0.57490  1.0000
  H   H282      1.0  0.02250  0.29596  0.50308  1.0000
  C   C345      1.0  0.04480  0.23903  0.63609  1.0000
  C   C346      1.0  0.25558  0.27705  0.54227  1.0000
  H   H283      1.0  0.09703  0.14745  0.50831  1.0000
  H   H284      1.0  0.18027  0.03630  0.52860  1.0000
  H   H285      1.0  0.35161  0.19548  0.53364  1.0000
  H   H286      1.0  0.17417  0.06358  0.70292  1.0000
  C   C347      1.0  0.44863  0.17284  0.66861  1.0000
  H   H287      1.0  0.98866  0.24891  0.61091  1.0000
  H   H288      1.0  0.02785  0.00381  0.50673  1.0000
  C   C348      1.0  0.43428  0.15697  0.62906  1.0000
  C   C349      1.0  0.97846  0.12690  0.65122  1.0000
  H   H289      1.0  0.97418  0.24216  0.73963  1.0000
  C   C350      1.0  0.98165  0.25663  0.62445  1.0000
  C   C351      1.0  0.43737  0.25191  0.72567  1.0000
  C   C352      1.0  0.11825  0.97804  0.50341  1.0000
  H   H290      1.0  0.28798  0.22824  0.50228  1.0000
  C   C353      1.0  0.43949  0.28579  0.51128  1.0000
  C   C354      1.0  0.17671  0.08115  0.50999  1.0000
  C   C355      1.0  0.02227  0.24886  0.74602  1.0000
  C   C356      1.0  0.38994  0.21957  0.51948  1.0000
  H   H291      1.0  0.15141  0.00046  0.55470  1.0000
  C   C357      1.0  0.39067  0.17338  0.51454  1.0000
  C   C358      1.0  0.02058  0.02557  0.74318  1.0000
  C   C359      1.0  0.31017  0.30133  0.50934  1.0000
  H   H292      1.0  0.35255  0.15501  0.52926  1.0000
  C   C360      1.0  0.20210  0.12742  0.50527  1.0000
  C   C361      1.0  0.28986  0.30232  0.58124  1.0000
  C   C362      1.0  0.02769  0.22881  0.74455  1.0000
  P   P16       1.0  0.02119  0.29201  0.72964  1.0000
  H   H293      1.0  0.99231  0.29116  0.60479  1.0000
  C   C363      1.0  0.34375  0.24949  0.53330  1.0000
  C   C364      1.0  0.45394  0.00987  0.60921  1.0000
  C   C365      1.0  0.36886  0.17305  0.52362  1.0000
  C   C366      1.0  0.35262  0.30589  0.50797  1.0000
  H   H294      1.0  0.97611  0.30953  0.63495  1.0000
  C   C367      1.0  0.35746  0.24287  0.51742  1.0000
  H   H295      1.0  0.44280  0.26953  0.73534  1.0000
  H   H296      1.0  0.39880  0.23236  0.73944  1.0000
  S   S39       1.0  0.11276  0.05855  0.50587  1.0000
  C   C368      1.0  0.44751  0.02211  0.72199  1.0000
  H   H297      1.0  0.97068  0.03477  0.59519  1.0000
  C   C369      1.0  0.98038  0.06179  0.62352  1.0000
  C   C370      1.0  0.97808  0.19535  0.69225  1.0000
  C   C371      1.0  0.33796  0.06354  0.74758  1.0000
  H   H298      1.0  0.99556  0.09059  0.65086  1.0000
  C   C372      1.0  0.45703  0.00524  0.71894  1.0000
  C   C373      1.0  0.32802  0.03694  0.74682  1.0000
  C   C374      1.0  0.29703  0.28081  0.61412  1.0000
  C   C375      1.0  0.97204  0.18604  0.71526  1.0000
  C   C376      1.0  0.02618  0.28015  0.50069  1.0000
  C   C377      1.0  0.97061  0.24275  0.64522  1.0000
  C   C378      1.0  0.97447  0.29088  0.63775  1.0000
  H   H299      1.0  0.46574  0.01888  0.62461  1.0000
  C   C379      1.0  0.33524  0.31009  0.54513  1.0000
  C   C380      1.0  0.35520  0.31027  0.53224  1.0000
  H   H300      1.0  0.45911  0.97711  0.61061  1.0000
  S   S40       1.0  0.31211  0.99359  0.92426  1.0000
  Fe  Fe18      1.0  0.34556  0.00050  0.90129  1.0000
  S   S41       1.0  0.37925  0.04041  0.89505  1.0000
  H   H301      1.0  0.43276  0.15166  0.91097  1.0000
  S   S42       1.0  0.98818  0.13774  0.82060  1.0000
  C   C381      1.0  0.13401  0.11173  0.79305  1.0000
  C   C382      1.0  0.44505  0.23473  0.79026  1.0000
  S   S43       1.0  0.03052  0.17079  0.78110  1.0000
  Fe  Fe19      1.0  0.02081  0.13532  0.80298  1.0000
  S   S44       1.0  0.05179  0.12980  0.82307  1.0000
  Fe  Fe20      1.0  0.99546  0.17071  0.79620  1.0000
  S   S45       1.0  0.99770  0.20947  0.80578  1.0000
  S   S46       1.0  0.99602  0.10853  0.77414  1.0000
  C   C383      1.0  0.01011  0.99189  0.98917  1.0000
  Fe  Fe21      1.0  0.15047  0.02008  0.89491  1.0000
  C   C384      1.0  0.00040  0.02318  0.78800  1.0000
  S   S47       1.0  0.19259  0.02978  0.88867  1.0000
  Fe  Fe22      1.0  0.10584  0.03246  0.88421  1.0000
  S   S48       1.0  0.08116  0.00402  0.91196  1.0000
  S   S49       1.0  0.08163  0.04686  0.86349  1.0000
  Fe  Fe23      1.0  0.11611  0.01948  0.93491  1.0000
  S   S50       1.0  0.11441  0.02857  0.97341  1.0000
  C   C385      1.0  0.39345  0.17413  0.84063  1.0000
  S   S51       1.0  0.14075  0.04999  0.90857  1.0000
  S   S52       1.0  0.11765  0.00498  0.86845  1.0000
  H   H302      1.0  0.34143  0.09545  0.76792  1.0000
  Fe  Fe24      1.0  0.43543  0.29183  0.79111  1.0000
  S   S53       1.0  0.42547  0.24947  0.78683  1.0000
  C   C386      1.0  0.43661  0.99900  0.82264  1.0000
  H   H303      1.0  0.24728  0.99193  0.84211  1.0000
  C   C387      1.0  0.19256  0.98293  0.88714  1.0000
  C   C388      1.0  0.03641  0.99962  0.99108  1.0000
  H   H304      1.0  0.41713  0.23877  0.83760  1.0000
  C   C389      1.0  0.39537  0.19749  0.83416  1.0000
  C   C390      1.0  0.23036  0.05093  0.97742  1.0000
  C   C391      1.0  0.09405  0.97823  0.98882  1.0000
  C   C392      1.0  0.99070  0.25190  0.80643  1.0000
  C   C393      1.0  0.08929  0.08025  0.78511  1.0000
  H   H305      1.0  0.16263  0.04608  0.79756  1.0000
  P   P17       1.0  0.40942  0.14363  0.86389  1.0000
  H   H306      1.0  0.01011  0.26207  0.81341  1.0000
  C   C394      1.0  0.05901  0.10623  0.83515  1.0000
  C   C395      1.0  0.08344  0.11460  0.84540  1.0000
  C   C396      1.0  0.09062  0.09694  0.85415  1.0000
  C   C397      1.0  0.07351  0.07032  0.85283  1.0000
  C   C398      1.0  0.04888  0.06196  0.84306  1.0000
  C   C399      1.0  0.04166  0.07963  0.83437  1.0000
  H   H307      1.0  0.09712  0.13502  0.84634  1.0000
  H   H308      1.0  0.10949  0.10403  0.86186  1.0000
  H   H309      1.0  0.03505  0.04165  0.84261  1.0000
  H   H310      1.0  0.02262  0.07267  0.82718  1.0000
  C   C400      1.0  0.24619  0.00632  0.89318  1.0000
  C   C401      1.0  0.23382  0.02119  0.89322  1.0000
  C   C402      1.0  0.20692  0.00971  0.89009  1.0000
  H   H311      1.0  0.26684  0.01554  0.89545  1.0000
  H   H312      1.0  0.24522  0.04180  0.89566  1.0000
  C   C403      1.0  0.39282  0.04508  0.86676  1.0000
  C   C404      1.0  0.38441  0.02468  0.85075  1.0000
  C   C405      1.0  0.39467  0.02909  0.82794  1.0000
  C   C406      1.0  0.41378  0.05376  0.82119  1.0000
  C   C407      1.0  0.42262  0.07401  0.83735  1.0000
  C   C408      1.0  0.41216  0.06969  0.86005  1.0000
  H   H313      1.0  0.37024  0.00547  0.85592  1.0000
  H   H314      1.0  0.38792  0.01336  0.81553  1.0000
  H   H315      1.0  0.43671  0.09324  0.83216  1.0000
  H   H316      1.0  0.41905  0.08558  0.87226  1.0000
  C   C409      1.0  0.05820  0.07137  0.91006  1.0000
  S   S54       1.0  0.46408  0.12839  0.76346  1.0000
  C   C410      1.0  0.43372  0.22055  0.85814  1.0000
  C   C411      1.0  0.22135  0.00868  0.99044  1.0000
  C   C412      1.0  0.31961  0.05955  0.78640  1.0000
  H   H317      1.0  0.98136  0.09832  0.86515  1.0000
  H   H318      1.0  0.46538  0.10858  0.89522  1.0000
  C   C413      1.0  0.03225  0.06155  0.90422  1.0000
  H   H319      1.0  0.42255  0.00203  0.81335  1.0000
  C   C414      1.0  0.12785  0.13132  0.79317  1.0000
  Fe  Fe25      1.0  0.46192  0.09694  0.78653  1.0000
  C   C415      1.0  0.97918  0.98058  0.89050  1.0000
  S   S55       1.0  0.12771  0.99123  0.92284  1.0000
  H   H320      1.0  0.05268  0.02326  0.94514  1.0000
  Fe  Fe26      1.0  0.00308  0.14356  0.75377  1.0000
  C   C416      1.0  0.14028  0.04024  0.75369  1.0000
  C   C417      1.0  0.20561  0.99771  0.97051  1.0000
  H   H321      1.0  0.99268  0.03712  0.95674  1.0000
  H   H322      1.0  0.42524  0.15429  0.81468  1.0000
  H   H323      1.0  0.19011  0.00468  0.93890  1.0000
  H   H324      1.0  0.01438  0.25153  0.76224  1.0000
  H   H325      1.0  0.98474  0.07569  0.90003  1.0000
  C   C418      1.0  0.07948  0.01814  0.77057  1.0000
  C   C419      1.0  0.02075  0.02407  0.92831  1.0000
  H   H326      1.0  0.30615  0.00100  0.76487  1.0000
  C   C420      1.0  0.97809  0.07893  0.86342  1.0000
  C   C421      1.0  0.46156  0.02875  0.76262  1.0000
  H   H327      1.0  0.38173  0.19785  0.82186  1.0000
  C   C422      1.0  0.21386  0.98070  0.82062  1.0000
  C   C423      1.0  0.97953  0.22555  0.80067  1.0000
  P   P18       1.0  0.97953  0.02495  0.90625  1.0000
  H   H328      1.0  0.44425  0.17866  0.77559  1.0000
  C   C424      1.0  0.06548  0.05752  0.92478  1.0000
  C   C425      1.0  0.97383  0.03469  0.95363  1.0000
  C   C426      1.0  0.41175  0.17384  0.85590  1.0000
  H   H329      1.0  0.02739  0.07247  0.89229  1.0000
  C   C427      1.0  0.97997  0.06604  0.88311  1.0000
  C   C428      1.0  0.29880  0.98718  0.81416  1.0000
  H   H330      1.0  0.15376  0.11660  0.79635  1.0000
  H   H331      1.0  0.37789  0.15636  0.83350  1.0000
  C   C429      1.0  0.45693  0.06943  0.89172  1.0000
  H   H332      1.0  0.18632  0.07270  0.86819  1.0000
  C   C430      1.0  0.33361  0.07480  0.76729  1.0000
  C   C431      1.0  0.04677  0.03393  0.93393  1.0000
  C   C432      1.0  0.45083  0.19728  0.78363  1.0000
  C   C433      1.0  0.97705  0.26535  0.80338  1.0000
  H   H333      1.0  0.27356  0.04638  0.82952  1.0000
  H   H334      1.0  0.98596  0.28544  0.80823  1.0000
  C   C434      1.0  0.03281  0.30718  0.75806  1.0000
  C   C435      1.0  0.29987  0.03232  0.83682  1.0000
  C   C436      1.0  0.31821  0.03327  0.85278  1.0000
  C   C437      1.0  0.32371  0.04780  0.87346  1.0000
  C   C438      1.0  0.31138  0.06183  0.87812  1.0000
  C   C439      1.0  0.29353  0.06144  0.86211  1.0000
  C   C440      1.0  0.28774  0.04672  0.84157  1.0000
  C   C441      1.0  0.43193  0.19725  0.86461  1.0000
  C   C442      1.0  0.10251  0.12545  0.78912  1.0000
  C   C443      1.0  0.44696  0.15375  0.89807  1.0000
  C   C444      1.0  0.05963  0.99240  0.77107  1.0000
  H   H335      1.0  0.31676  0.06880  0.80154  1.0000
  H   H336      1.0  0.33741  0.04799  0.88600  1.0000
  H   H337      1.0  0.31530  0.07265  0.89432  1.0000
  H   H338      1.0  0.28368  0.07204  0.86590  1.0000
  H   H339      1.0  0.41945  0.20133  0.76966  1.0000
  C   C445      1.0  0.96964  0.02890  0.85871  1.0000
  H   H340      1.0  0.33900  0.01025  0.80408  1.0000
  H   H341      1.0  0.07279  0.08948  0.90264  1.0000
  H   H342      1.0  0.04301  0.98590  0.98884  1.0000
  H   H343      1.0  0.35890  0.98295  0.98407  1.0000
  H   H344      1.0  0.01702  0.00326  0.82266  1.0000
  H   H345      1.0  0.08296  0.02914  0.75456  1.0000
  H   H346      1.0  0.99281  0.02268  0.80539  1.0000
  H   H347      1.0  0.21207  0.05173  0.94487  1.0000
  C   C446      1.0  0.37562  0.08140  0.81915  1.0000
  C   C447      1.0  0.38792  0.09193  0.79782  1.0000
  C   C448      1.0  0.40537  0.11829  0.79623  1.0000
  C   C449      1.0  0.20235  0.01324  0.95420  1.0000
  C   C450      1.0  0.38144  0.09703  0.83913  1.0000
  H   H348      1.0  0.03897  0.99428  0.85467  1.0000
  H   H349      1.0  0.39705  0.09981  0.89455  1.0000
  C   C451      1.0  0.35251  0.10655  0.92567  1.0000
  C   C452      1.0  0.36808  0.09659  0.91852  1.0000
  C   C453      1.0  0.38494  0.10762  0.89958  1.0000
  H   H350      1.0  0.97203  0.14946  0.89026  1.0000
  H   H351      1.0  0.06361  0.09567  0.78276  1.0000
  H   H352      1.0  0.36255  0.06087  0.82049  1.0000
  H   H353      1.0  0.38438  0.07955  0.78269  1.0000
  H   H354      1.0  0.37233  0.08817  0.85556  1.0000
  H   H355      1.0  0.41497  0.12649  0.77971  1.0000
  H   H356      1.0  0.33953  0.09804  0.94044  1.0000
  H   H357      1.0  0.36716  0.08027  0.92761  1.0000
  H   H358      1.0  0.99948  0.99290  0.88660  1.0000
  S   S56       1.0  0.42571  0.05885  0.79231  1.0000
  C   C454      1.0  0.43684  0.21030  0.78018  1.0000
  H   H359      1.0  0.32819  0.02277  0.84945  1.0000
  C   C455      1.0  0.41540  0.22066  0.84302  1.0000
  C   C456      1.0  0.39968  0.12341  0.83789  1.0000
  C   C457      1.0  0.30991  0.03285  0.78596  1.0000
  H   H360      1.0  0.09749  0.14048  0.78985  1.0000
  C   C458      1.0  0.97608  0.04103  0.88084  1.0000
  H   H361      1.0  0.01765  0.06435  0.78532  1.0000
  H   H362      1.0  0.44962  0.23861  0.86441  1.0000
  C   C459      1.0  0.01469  0.04690  0.77677  1.0000
  C   C460      1.0  0.38627  0.12860  0.88742  1.0000
  H   H363      1.0  0.12853  0.08415  0.83525  1.0000
  C   C461      1.0  0.01326  0.03783  0.91338  1.0000
  C   C462      1.0  0.37030  0.13830  0.89452  1.0000
  H   H364      1.0  0.15605  0.08964  0.86932  1.0000
  C   C463      1.0  0.05459  0.02522  0.99627  1.0000
  C   C464      1.0  0.21475  0.03983  0.95761  1.0000
  C   C465      1.0  0.41121  0.13398  0.81614  1.0000
  C   C466      1.0  0.32361  0.99138  0.80921  1.0000
  H   H365      1.0  0.45165  0.98071  0.89936  1.0000
  H   H366      1.0  0.23978  0.07155  0.98011  1.0000
  C   C467      1.0  0.23366  0.03544  0.99383  1.0000
  P   P19       1.0  0.12335  0.06110  0.78856  1.0000
  C   C468      1.0  0.14418  0.06564  0.81337  1.0000
  C   C469      1.0  0.09523  0.02935  0.79045  1.0000
  C   C470      1.0  0.09027  0.01470  0.81096  1.0000
  H   H367      1.0  0.96821  0.04031  0.99025  1.0000
  C   C471      1.0  0.01122  0.98354  0.82655  1.0000
  C   C472      1.0  0.08330  0.09999  0.78507  1.0000
  C   C473      1.0  0.13967  0.06220  0.76142  1.0000
  C   C474      1.0  0.16125  0.05600  0.81289  1.0000
  C   C475      1.0  0.17640  0.05861  0.83261  1.0000
  C   C476      1.0  0.17476  0.07098  0.85284  1.0000
  C   C477      1.0  0.15775  0.08049  0.85349  1.0000
  C   C478      1.0  0.14231  0.07757  0.83398  1.0000
  C   C479      1.0  0.25743  0.99932  0.80523  1.0000
  H   H368      1.0  0.34137  0.13497  0.91909  1.0000
  C   C480      1.0  0.99543  0.00029  0.77667  1.0000
  H   H369      1.0  0.43792  0.06134  0.89950  1.0000
  C   C481      1.0  0.10474  0.00418  0.99500  1.0000
  C   C482      1.0  0.97168  0.06674  0.84149  1.0000
  H   H370      1.0  0.08569  0.06486  0.92877  1.0000
  H   H371      1.0  0.97002  0.07669  0.82629  1.0000
  H   H372      1.0  0.07392  0.06062  0.78264  1.0000
  C   C483      1.0  0.24026  0.99082  0.82431  1.0000
  H   H373      1.0  0.10162  0.02293  0.82673  1.0000
  H   H374      1.0  0.07484  0.03111  0.99753  1.0000
  C   C484      1.0  0.46008  0.15400  0.85773  1.0000
  H   H375      1.0  0.46273  0.03750  0.77963  1.0000
  C   C485      1.0  0.11479  0.08602  0.78900  1.0000
  H   H376      1.0  0.00652  0.00570  0.93550  1.0000
  H   H377      1.0  0.37092  0.15451  0.88564  1.0000
  H   H378      1.0  0.45298  0.03250  0.88479  1.0000
  P   P20       1.0  0.29159  0.01286  0.81045  1.0000
  S   S57       1.0  0.96892  0.14502  0.76784  1.0000
  H   H379      1.0  0.14261  0.15103  0.79677  1.0000
  C   C486      1.0  0.44078  0.15006  0.87396  1.0000
  H   H380      1.0  0.98230  0.17365  0.85268  1.0000
  C   C487      1.0  0.35352  0.12730  0.91359  1.0000
  H   H381      1.0  0.18917  0.05068  0.83249  1.0000
  S   S58       1.0  0.41154  0.30734  0.77436  1.0000
  H   H382      1.0  0.44653  0.19771  0.87611  1.0000
  C   C488      1.0  0.45715  0.01960  0.83434  1.0000
  C   C489      1.0  0.31386  0.02161  0.76583  1.0000
  H   H383      1.0  0.45630  0.15199  0.83903  1.0000
  H   H384      1.0  0.45859  0.03834  0.83386  1.0000
  H   H385      1.0  0.21380  0.98533  0.76099  1.0000
  H   H386      1.0  0.02379  0.21616  0.75948  1.0000
  C   C490      1.0  0.07079  0.98892  0.81124  1.0000
  C   C491      1.0  0.00233  0.01001  0.99390  1.0000
  C   C492      1.0  0.24771  0.99723  0.78233  1.0000
  C   C493      1.0  0.20432  0.97875  0.79781  1.0000
  H   H387      1.0  0.26044  0.00347  0.76729  1.0000
  H   H388      1.0  0.24826  0.98840  0.96586  1.0000
  H   H389      1.0  0.06346  0.29804  0.76047  1.0000
  C   C494      1.0  0.22123  0.98695  0.77867  1.0000
  C   C495      1.0  0.05404  0.30738  0.76879  1.0000
  H   H390      1.0  0.98220  0.00450  0.99413  1.0000
  H   H391      1.0  0.04782  0.98368  0.75560  1.0000
  H   H392      1.0  0.13119  0.02268  0.76392  1.0000
  C   C496      1.0  0.00584  0.00173  0.75418  1.0000
  C   C497      1.0  0.02480  0.04812  0.75437  1.0000
  C   C498      1.0  0.23195  0.97968  0.88944  1.0000
  C   C499      1.0  0.96709  0.04163  0.83921  1.0000
  C   C500      1.0  0.46554  0.05313  0.88337  1.0000
  Fe  Fe27      1.0  0.09465  0.97809  0.89764  1.0000
  H   H393      1.0  0.15146  0.10184  0.75305  1.0000
  C   C501      1.0  0.02376  0.97848  0.84475  1.0000
  C   C502      1.0  0.02063  0.03560  0.99908  1.0000
  H   H394      1.0  0.96648  0.00966  0.85646  1.0000
  C   C503      1.0  0.05549  0.97769  0.79133  1.0000
  H   H395      1.0  0.19570  0.97710  0.96758  1.0000
  H   H396      1.0  0.06760  0.97766  0.82701  1.0000
  Fe  Fe28      1.0  0.35699  0.36961  0.23388  1.0000
  C   C504      1.0  0.27104  0.39979  0.18588  1.0000
  S   S59       1.0  0.36011  0.40847  0.23232  1.0000
  Fe  Fe29      1.0  0.38685  0.34223  0.22273  1.0000
  S   S60       1.0  0.42052  0.34393  0.20098  1.0000
  C   C505      1.0  0.96857  0.38486  0.19834  1.0000
  C   C506      1.0  0.44800  0.39169  0.12930  1.0000
  S   S61       1.0  0.32741  0.43754  0.13673  1.0000
  Fe  Fe30      1.0  0.13243  0.45629  0.12845  1.0000
  S   S62       1.0  0.16728  0.44992  0.13287  1.0000
  Fe  Fe31      1.0  0.07376  0.43740  0.14037  1.0000
  S   S63       1.0  0.07300  0.46486  0.11395  1.0000
  S   S64       1.0  0.04034  0.41614  0.16743  1.0000
  Fe  Fe32      1.0  0.09569  0.45385  0.08989  1.0000
  S   S65       1.0  0.08853  0.44601  0.05067  1.0000
  S   S66       1.0  0.09406  0.42395  0.11504  1.0000
  S   S67       1.0  0.11231  0.46730  0.15602  1.0000
  H   H397      1.0  0.15569  0.58975  0.21881  1.0000
  C   C507      1.0  0.10108  0.47097  0.02940  1.0000
  C   C508      1.0  0.26854  0.34301  0.18593  1.0000
  C   C509      1.0  0.24549  0.47798  0.13415  1.0000
  C   C510      1.0  0.21835  0.46156  0.13415  1.0000
  C   C511      1.0  0.20149  0.47134  0.13091  1.0000
  H   H398      1.0  0.25805  0.47016  0.13704  1.0000
  H   H399      1.0  0.21032  0.44116  0.13703  1.0000
  C   C512      1.0  0.34449  0.48245  0.04038  1.0000
  C   C513      1.0  0.33370  0.46401  0.02224  1.0000
  H   H400      1.0  0.33968  0.47664  0.05852  1.0000
  H   H401      1.0  0.32064  0.44405  0.02657  1.0000
  H   H402      1.0  0.04327  0.59268  0.16971  1.0000
  C   C514      1.0  0.22398  0.39884  0.18484  1.0000
  C   C515      1.0  0.98823  0.38777  0.15285  1.0000
  C   C516      1.0  0.00577  0.39986  0.17136  1.0000
  C   C517      1.0  0.99556  0.39820  0.19412  1.0000
  C   C518      1.0  0.45967  0.45556  0.05648  1.0000
  H   H403      1.0  0.42072  0.35233  0.13827  1.0000
  H   H404      1.0  0.99549  0.38824  0.13534  1.0000
  H   H405      1.0  0.00871  0.40718  0.20871  1.0000
  C   C519      1.0  0.17220  0.49493  0.04743  1.0000
  C   C520      1.0  0.35186  0.41647  0.20528  1.0000
  C   C521      1.0  0.35544  0.44119  0.20226  1.0000
  C   C522      1.0  0.34878  0.44805  0.18093  1.0000
  C   C523      1.0  0.33798  0.43003  0.16273  1.0000
  C   C524      1.0  0.33449  0.40532  0.16568  1.0000
  C   C525      1.0  0.34142  0.39853  0.18694  1.0000
  H   H406      1.0  0.36332  0.45506  0.21646  1.0000
  H   H407      1.0  0.35162  0.46716  0.17879  1.0000
  H   H408      1.0  0.32617  0.39135  0.15161  1.0000
  H   H409      1.0  0.33829  0.37933  0.18923  1.0000
  Fe  Fe33      1.0  0.36372  0.52141  0.09528  1.0000
  S   S68       1.0  0.36501  0.55103  0.12068  1.0000
  S   S69       1.0  0.37679  0.53174  0.05733  1.0000
  Fe  Fe34      1.0  0.34198  0.47988  0.13224  1.0000
  S   S70       1.0  0.34134  0.50613  0.16007  1.0000
  Fe  Fe35      1.0  0.32481  0.51969  0.13137  1.0000
  S   S71       1.0  0.29029  0.52686  0.13335  1.0000
  Fe  Fe36      1.0  0.38168  0.53475  0.14695  1.0000
  S   S72       1.0  0.41471  0.55495  0.17471  1.0000
  S   S73       1.0  0.32329  0.49161  0.10448  1.0000
  S   S74       1.0  0.38253  0.50709  0.12064  1.0000
  C   C526      1.0  0.46052  0.57479  0.20005  1.0000
  H   H410      1.0  0.44053  0.45226  0.05268  1.0000
  H   H411      1.0  0.26895  0.56485  0.15364  1.0000
  C   C527      1.0  0.42615  0.37236  0.14053  1.0000
  Fe  Fe37      1.0  0.09749  0.60411  0.23270  1.0000
  S   S75       1.0  0.09705  0.56641  0.23134  1.0000
  S   S76       1.0  0.13432  0.48488  0.10217  1.0000
  Fe  Fe38      1.0  0.11168  0.49357  0.12835  1.0000
  S   S77       1.0  0.12053  0.53451  0.13246  1.0000
  C   C528      1.0  0.11293  0.49698  0.03583  1.0000
  C   C529      1.0  0.12224  0.51620  0.01835  1.0000
  H   H412      1.0  0.11464  0.50226  0.05423  1.0000
  C   C530      1.0  0.04464  0.56118  0.18629  1.0000
  C   C531      1.0  0.10271  0.55720  0.20364  1.0000
  C   C532      1.0  0.10276  0.53400  0.20132  1.0000
  C   C533      1.0  0.10792  0.52666  0.17943  1.0000
  C   C534      1.0  0.11295  0.54248  0.15984  1.0000
  C   C535      1.0  0.11263  0.56551  0.16213  1.0000
  C   C536      1.0  0.10767  0.57294  0.18399  1.0000
  H   H413      1.0  0.09903  0.52179  0.21649  1.0000
  H   H414      1.0  0.10828  0.50893  0.17780  1.0000
  H   H415      1.0  0.11618  0.57757  0.14692  1.0000
  H   H416      1.0  0.10784  0.59088  0.18558  1.0000
  C   C537      1.0  0.25626  0.50456  0.13106  1.0000
  C   C538      1.0  0.21234  0.49776  0.12686  1.0000
  C   C539      1.0  0.23943  0.51412  0.12690  1.0000
  H   H417      1.0  0.19983  0.50570  0.12430  1.0000
  H   H418      1.0  0.24741  0.53440  0.12389  1.0000
  H   H419      1.0  0.37098  0.44418  0.11406  1.0000
  C   C540      1.0  0.00760  0.52983  0.15314  1.0000
  H   H420      1.0  0.28679  0.43677  0.16909  1.0000
  C   C541      1.0  0.99931  0.60236  0.18806  1.0000
  C   C542      1.0  0.98735  0.57613  0.19371  1.0000
  C   C543      1.0  0.20334  0.50376  0.01623  1.0000
  C   C544      1.0  0.22291  0.50063  0.19266  1.0000
  Fe  Fe39      1.0  0.32637  0.31095  0.22970  1.0000
  H   H421      1.0  0.99758  0.56925  0.20436  1.0000
  H   H422      1.0  0.46594  0.48550  0.10738  1.0000
  H   H423      1.0  0.24017  0.63584  0.15920  1.0000
  C   C545      1.0  0.36184  0.50821  0.03500  1.0000
  C   C546      1.0  0.21967  0.32358  0.21161  1.0000
  C   C547      1.0  0.17818  0.57083  0.21947  1.0000
  H   H424      1.0  0.45801  0.57828  0.14059  1.0000
  C   C548      1.0  0.02646  0.46562  0.23099  1.0000
  C   C549      1.0  0.04773  0.46351  0.22420  1.0000
  C   C550      1.0  0.05622  0.46829  0.20092  1.0000
  C   C551      1.0  0.04331  0.47482  0.18426  1.0000
  C   C552      1.0  0.02159  0.47642  0.19082  1.0000
  C   C553      1.0  0.01365  0.47243  0.21445  1.0000
  P   P21       1.0  0.00448  0.48443  0.16942  1.0000
  C   C554      1.0  0.01626  0.51868  0.16992  1.0000
  C   C555      1.0  0.00964  0.47489  0.14062  1.0000
  C   C556      1.0  0.99854  0.44869  0.13496  1.0000
  C   C557      1.0  0.00254  0.44104  0.11285  1.0000
  C   C558      1.0  0.01793  0.45950  0.09628  1.0000
  C   C559      1.0  0.02965  0.48564  0.10193  1.0000
  C   C560      1.0  0.02579  0.49334  0.12408  1.0000
  C   C561      1.0  0.03515  0.53466  0.18628  1.0000
  C   C562      1.0  0.26120  0.60895  0.18521  1.0000
  C   C563      1.0  0.23009  0.52571  0.18585  1.0000
  H   H425      1.0  0.99429  0.63059  0.16909  1.0000
  H   H426      1.0  0.01023  0.56492  0.14045  1.0000
  H   H427      1.0  0.07242  0.46619  0.19551  1.0000
  H   H428      1.0  0.05011  0.47808  0.16624  1.0000
  C   C564      1.0  0.99803  0.48559  0.04685  1.0000
  H   H429      1.0  0.44094  0.49232  0.07683  1.0000
  C   C565      1.0  0.24129  0.43395  0.00443  1.0000
  H   H430      1.0  0.04260  0.49989  0.08947  1.0000
  H   H431      1.0  0.03612  0.51364  0.12838  1.0000
  H   H432      1.0  0.17595  0.45220  0.00267  1.0000
  H   H433      1.0  0.04311  0.52691  0.19876  1.0000
  H   H434      1.0  0.24145  0.51329  0.02878  1.0000
  S   S78       1.0  0.10052  0.63004  0.20282  1.0000
  H   H435      1.0  0.42958  0.49041  0.16783  1.0000
  C   C566      1.0  0.14434  0.63607  0.14547  1.0000
  H   H436      1.0  0.02184  0.45351  0.07951  1.0000
  C   C567      1.0  0.42725  0.48931  0.02562  1.0000
  C   C568      1.0  0.46566  0.63373  0.18861  1.0000
  C   C569      1.0  0.99774  0.46313  0.03978  1.0000
  C   C570      1.0  0.19096  0.58733  0.17291  1.0000
  C   C571      1.0  0.20016  0.57214  0.18308  1.0000
  C   C572      1.0  0.19406  0.56438  0.20663  1.0000
  P   P22       1.0  0.22045  0.56334  0.16659  1.0000
  C   C573      1.0  0.21177  0.53120  0.17615  1.0000
  C   C574      1.0  0.21273  0.56154  0.13543  1.0000
  C   C575      1.0  0.18696  0.55105  0.12821  1.0000
  C   C576      1.0  0.18072  0.54987  0.10435  1.0000
  C   C577      1.0  0.20001  0.55846  0.08733  1.0000
  C   C578      1.0  0.22568  0.56874  0.09420  1.0000
  C   C579      1.0  0.23207  0.57052  0.11810  1.0000
  H   H437      1.0  0.20779  0.36170  0.20064  1.0000
  H   H438      1.0  0.01480  0.50418  0.04322  1.0000
  C   C580      1.0  0.19728  0.48098  0.19058  1.0000
  C   C581      1.0  0.17876  0.48645  0.18195  1.0000
  C   C582      1.0  0.18592  0.51137  0.17467  1.0000
  H   H439      1.0  0.98346  0.57931  0.24330  1.0000
  H   H440      1.0  0.15678  0.41415  0.09001  1.0000
  S   S79       1.0  0.03128  0.62583  0.19815  1.0000
  H   H441      1.0  0.24995  0.54040  0.18820  1.0000
  Fe  Fe40      1.0  0.06604  0.62941  0.21985  1.0000
  C   C583      1.0  0.09887  0.46446  0.00540  1.0000
  H   H442      1.0  0.30164  0.31057  0.18273  1.0000
  H   H443      1.0  0.19550  0.59379  0.15489  1.0000
  C   C584      1.0  0.26842  0.34827  0.16185  1.0000
  H   H444      1.0  0.17155  0.54404  0.14099  1.0000
  H   H445      1.0  0.16078  0.54211  0.09904  1.0000
  H   H446      1.0  0.19496  0.55700  0.06883  1.0000
  H   H447      1.0  0.24064  0.57522  0.08097  1.0000
  H   H448      1.0  0.25209  0.57861  0.12267  1.0000
  H   H449      1.0  0.24505  0.43612  0.16846  1.0000
  H   H450      1.0  0.24672  0.61269  0.19254  1.0000
  H   H451      1.0  0.19177  0.46141  0.19527  1.0000
  H   H452      1.0  0.28100  0.34512  0.12712  1.0000
  H   H453      1.0  0.17118  0.51495  0.16780  1.0000
  C   C585      1.0  0.36791  0.51541  0.01132  1.0000
  C   C586      1.0  0.17495  0.59358  0.18580  1.0000
  H   H454      1.0  0.29292  0.48059  0.01141  1.0000
  H   H455      1.0  0.97775  0.50178  0.06415  1.0000
  H   H456      1.0  0.42950  0.50120  0.04073  1.0000
  H   H457      1.0  0.31445  0.59656  0.16054  1.0000
  H   H458      1.0  0.17288  0.56417  0.23741  1.0000
  C   C587      1.0  0.98543  0.61048  0.17379  1.0000
  H   H459      1.0  0.25869  0.35816  0.15548  1.0000
  H   H460      1.0  0.45581  0.33989  0.16905  1.0000
  C   C588      1.0  0.44766  0.48629  0.01717  1.0000
  H   H461      1.0  0.16695  0.60433  0.17767  1.0000
  S   S80       1.0  0.35337  0.34255  0.20472  1.0000
  H   H462      1.0  0.03681  0.53138  0.23971  1.0000
  H   H463      1.0  0.28932  0.40028  0.18555  1.0000
  C   C589      1.0  0.19115  0.50038  0.06437  1.0000
  H   H464      1.0  0.18630  0.49864  0.08289  1.0000
  C   C590      1.0  0.22224  0.50888  0.03346  1.0000
  H   H465      1.0  0.05913  0.57331  0.19904  1.0000
  C   C591      1.0  0.29269  0.32145  0.17698  1.0000
  C   C592      1.0  0.16852  0.58530  0.20902  1.0000
  P   P23       1.0  0.24667  0.44057  0.03576  1.0000
  C   C593      1.0  0.21699  0.43044  0.05175  1.0000
  C   C594      1.0  0.26242  0.42392  0.04726  1.0000
  C   C595      1.0  0.25765  0.40047  0.03735  1.0000
  C   C596      1.0  0.27013  0.38784  0.04622  1.0000
  C   C597      1.0  0.28715  0.39834  0.06522  1.0000
  C   C598      1.0  0.29159  0.42139  0.07545  1.0000
  C   C599      1.0  0.27923  0.43410  0.06657  1.0000
  C   C600      1.0  0.20922  0.41202  0.06976  1.0000
  C   C601      1.0  0.18753  0.40613  0.08342  1.0000
  H   H466      1.0  0.97219  0.43190  0.18693  1.0000
  C   C602      1.0  0.44936  0.57090  0.17742  1.0000
  C   C603      1.0  0.20263  0.44271  0.04766  1.0000
  C   C604      1.0  0.26790  0.47460  0.04120  1.0000
  C   C605      1.0  0.28941  0.48904  0.02674  1.0000
  C   C606      1.0  0.30752  0.51445  0.03262  1.0000
  C   C607      1.0  0.30432  0.52574  0.05289  1.0000
  C   C608      1.0  0.28286  0.51169  0.06722  1.0000
  C   C609      1.0  0.26482  0.48618  0.06157  1.0000
  H   H467      1.0  0.20569  0.39841  0.18415  1.0000
  C   C610      1.0  0.45186  0.36763  0.19011  1.0000
  C   C611      1.0  0.24613  0.42008  0.17593  1.0000
  C   C612      1.0  0.01719  0.55640  0.15318  1.0000
  C   C613      1.0  0.24899  0.37845  0.19520  1.0000
  H   H468      1.0  0.24441  0.39197  0.02270  1.0000
  H   H469      1.0  0.26667  0.36996  0.03827  1.0000
  H   H470      1.0  0.29690  0.38865  0.07209  1.0000
  H   H471      1.0  0.30469  0.42951  0.09026  1.0000
  H   H472      1.0  0.28287  0.45186  0.07482  1.0000
  H   H473      1.0  0.22006  0.40253  0.07371  1.0000
  H   H474      1.0  0.18186  0.39233  0.09760  1.0000
  C   C614      1.0  0.17334  0.41839  0.07913  1.0000
  H   H475      1.0  0.20862  0.45736  0.03428  1.0000
  H   H476      1.0  0.99375  0.51805  0.13979  1.0000
  H   H477      1.0  0.12377  0.62574  0.14199  1.0000
  H   H478      1.0  0.31888  0.54512  0.05786  1.0000
  H   H479      1.0  0.28073  0.52025  0.08325  1.0000
  H   H480      1.0  0.24912  0.47538  0.07371  1.0000
  H   H481      1.0  0.15895  0.47107  0.18009  1.0000
  C   C615      1.0  0.25415  0.58643  0.17215  1.0000
  H   H482      1.0  0.20119  0.55296  0.21498  1.0000
  C   C616      1.0  0.29299  0.32726  0.15317  1.0000
  C   C617      1.0  0.40440  0.46875  0.09343  1.0000
  H   H483      1.0  0.32459  0.52511  0.02191  1.0000
  H   H484      1.0  0.44802  0.56720  0.21519  1.0000
  H   H485      1.0  0.16963  0.44589  0.05793  1.0000
  H   H486      1.0  0.41194  0.46943  0.24030  1.0000
  H   H487      1.0  0.45942  0.38660  0.11813  1.0000
  H   H488      1.0  0.23732  0.49635  0.19922  1.0000
  H   H489      1.0  0.13112  0.53623  0.02346  1.0000
  C   C618      1.0  0.28083  0.34064  0.14560  1.0000
  H   H490      1.0  0.45449  0.40006  0.20862  1.0000
  H   H491      1.0  0.15263  0.48890  0.05278  1.0000
  H   H492      1.0  0.45135  0.62562  0.15307  1.0000
  H   H493      1.0  0.32660  0.63659  0.18305  1.0000
  S   S81       1.0  0.06221  0.60199  0.24855  1.0000
  C   C619      1.0  0.27368  0.58222  0.16336  1.0000
  C   C620      1.0  0.43119  0.48056  0.09182  1.0000
  H   H494      1.0  0.05748  0.45785  0.23684  1.0000
  C   C621      1.0  0.40586  0.45075  0.13108  1.0000
  C   C622      1.0  0.43286  0.46284  0.12966  1.0000
  C   C623      1.0  0.44536  0.47710  0.10952  1.0000
  P   P24       1.0  0.45049  0.45757  0.15257  1.0000
  C   C624      1.0  0.43994  0.46276  0.18073  1.0000
  C   C625      1.0  0.44170  0.42429  0.14865  1.0000
  C   C626      1.0  0.41937  0.40469  0.15941  1.0000
  C   C627      1.0  0.41175  0.37886  0.15543  1.0000
  H   H495      1.0  0.20190  0.42652  0.00387  1.0000
  H   H496      1.0  0.16302  0.49197  0.01071  1.0000
  C   C628      1.0  0.44090  0.44952  0.20066  1.0000
  C   C629      1.0  0.43078  0.45191  0.22207  1.0000
  C   C630      1.0  0.42052  0.46824  0.22391  1.0000
  C   C631      1.0  0.42055  0.48236  0.20438  1.0000
  C   C632      1.0  0.43021  0.47965  0.18284  1.0000
  C   C633      1.0  0.26963  0.42050  0.17638  1.0000
  C   C634      1.0  0.40309  0.47654  0.01474  1.0000
  C   C635      1.0  0.29964  0.60022  0.16727  1.0000
  H   H497      1.0  0.28063  0.32455  0.21171  1.0000
  C   C636      1.0  0.18074  0.43647  0.06112  1.0000
  C   C637      1.0  0.30644  0.62268  0.17999  1.0000
  H   H498      1.0  0.29573  0.39931  0.22552  1.0000
  H   H499      1.0  0.39563  0.43912  0.14620  1.0000
  P   P25       1.0  0.25118  0.35146  0.20676  1.0000
  H   H500      1.0  0.40771  0.40919  0.17087  1.0000
  H   H501      1.0  0.39508  0.36382  0.16443  1.0000
  H   H502      1.0  0.38753  0.47897  0.02143  1.0000
  H   H503      1.0  0.01968  0.46159  0.24896  1.0000
  H   H504      1.0  0.43015  0.44048  0.23703  1.0000
  H   H505      1.0  0.01424  0.46432  0.03070  1.0000
  C   C638      1.0  0.03579  0.57207  0.16970  1.0000
  C   C639      1.0  0.28723  0.62702  0.18897  1.0000
  H   H506      1.0  0.41241  0.49490  0.20569  1.0000
  H   H507      1.0  0.30253  0.32123  0.14060  1.0000
  C   C640      1.0  0.22534  0.37805  0.19436  1.0000
  H   H508      1.0  0.39339  0.47145  0.07971  1.0000
  C   C641      1.0  0.39176  0.45356  0.11291  1.0000
  H   H509      1.0  0.99726  0.47411  0.21999  1.0000
  C   C642      1.0  0.16029  0.62823  0.13477  1.0000
  H   H510      1.0  0.08972  0.44443  0.00023  1.0000
  H   H511      1.0  0.23060  0.51101  0.07068  1.0000
  C   C643      1.0  0.21614  0.50735  0.05741  1.0000
  C   C644      1.0  0.17821  0.49661  0.02352  1.0000
  C   C645      1.0  0.97688  0.48410  0.05875  1.0000
  C   C646      1.0  0.18678  0.64136  0.13950  1.0000
  H   H512      1.0  0.99428  0.42077  0.10880  1.0000
  H   H513      1.0  0.19867  0.63483  0.13108  1.0000
  H   H514      1.0  0.01431  0.62566  0.24580  1.0000
  C   C647      1.0  0.97031  0.46547  0.17595  1.0000
  C   C648      1.0  0.28069  0.32941  0.19337  1.0000
  H   H515      1.0  0.38130  0.53530  0.00703  1.0000
  C   C649      1.0  0.46604  0.58089  0.15810  1.0000
  H   H516      1.0  0.15206  0.61177  0.12296  1.0000
  H   H517      1.0  0.98728  0.43409  0.14777  1.0000
  C   C650      1.0  0.97637  0.43912  0.04480  1.0000
  H   H518      1.0  0.44821  0.61788  0.19591  1.0000
  C   C651      1.0  0.20364  0.32421  0.22934  1.0000
  C   C652      1.0  0.45551  0.41754  0.13303  1.0000
  H   H519      1.0  0.20313  0.63538  0.23908  1.0000
  C   C653      1.0  0.26846  0.35962  0.23453  1.0000
  H   H520      1.0  0.26461  0.62451  0.13143  1.0000
  C   C654      1.0  0.28925  0.38449  0.23874  1.0000
  H   H521      1.0  0.44865  0.43669  0.19947  1.0000
  H   H522      1.0  0.20966  0.34163  0.23949  1.0000
  H   H523      1.0  0.00345  0.54395  0.24218  1.0000
  H   H524      1.0  0.44509  0.41999  0.07567  1.0000
  H   H525      1.0  0.97630  0.42169  0.03956  1.0000
  H   H526      1.0  0.46578  0.54288  0.02711  1.0000
  C   C655      1.0  0.46215  0.43717  0.06954  1.0000
  C   C656      1.0  0.46483  0.35990  0.17424  1.0000
  C   C657      1.0  0.46408  0.39369  0.19655  1.0000
  C   C658      1.0  0.26342  0.64171  0.12860  1.0000
  H   H527      1.0  0.24617  0.32128  0.24907  1.0000
  Fe  Fe41      1.0  0.35406  0.36426  0.46130  1.0000
  C   C659      1.0  0.01045  0.61370  0.26125  1.0000
  C   C660      1.0  0.38570  0.43562  0.30145  1.0000
  Fe  Fe42      1.0  0.32662  0.37816  0.42518  1.0000
  S   S82       1.0  0.29924  0.37876  0.45220  1.0000
  S   S83       1.0  0.32567  0.38589  0.38615  1.0000
  Fe  Fe43      1.0  0.33445  0.40059  0.47580  1.0000
  C   C661      1.0  0.05269  0.62917  0.48846  1.0000
  Fe  Fe44      1.0  0.29587  0.34138  0.46510  1.0000
  S   S84       1.0  0.36155  0.40222  0.44755  1.0000
  S   S85       1.0  0.32126  0.34027  0.43684  1.0000
  C   C662      1.0  0.98786  0.57166  0.27984  1.0000
  S   S86       1.0  0.36532  0.33413  0.31133  1.0000
  C   C663      1.0  0.38890  0.41450  0.29714  1.0000
  C   C664      1.0  0.33598  0.37071  0.36550  1.0000
  C   C665      1.0  0.33286  0.37312  0.34130  1.0000
  C   C666      1.0  0.34121  0.36153  0.32452  1.0000
  C   C667      1.0  0.35314  0.34776  0.33180  1.0000
  C   C668      1.0  0.35613  0.34527  0.35599  1.0000
  C   C669      1.0  0.34754  0.35662  0.37275  1.0000
  H   H528      1.0  0.32417  0.38419  0.33554  1.0000
  H   H529      1.0  0.33897  0.36372  0.30595  1.0000
  H   H530      1.0  0.35030  0.35483  0.39128  1.0000
  H   H531      1.0  0.05215  0.60900  0.41002  1.0000
  H   H532      1.0  0.99127  0.51113  0.44500  1.0000
  H   H533      1.0  0.97409  0.54811  0.42001  1.0000
  C   C670      1.0  0.06143  0.52862  0.33781  1.0000
  Fe  Fe45      1.0  0.36177  0.33774  0.27186  1.0000
  Fe  Fe46      1.0  0.11237  0.57791  0.47383  1.0000
  S   S87       1.0  0.08872  0.57982  0.44387  1.0000
  H   H534      1.0  0.10195  0.62664  0.38954  1.0000
  Fe  Fe47      1.0  0.09095  0.63647  0.26932  1.0000
  Fe  Fe48      1.0  0.09515  0.61646  0.46017  1.0000
  Fe  Fe49      1.0  0.15254  0.63780  0.46776  1.0000
  Fe  Fe50      1.0  0.12569  0.60501  0.42494  1.0000
  S   S88       1.0  0.13156  0.60023  0.38626  1.0000
  H   H535      1.0  0.46542  0.32550  0.46427  1.0000
  S   S89       1.0  0.14982  0.60110  0.45339  1.0000
  C   C671      1.0  0.06006  0.50937  0.43657  1.0000
  H   H536      1.0  0.08447  0.53144  0.30755  1.0000
  C   C672      1.0  0.11899  0.61229  0.36484  1.0000
  C   C673      1.0  0.12291  0.60951  0.34091  1.0000
  C   C674      1.0  0.11301  0.61872  0.32339  1.0000
  C   C675      1.0  0.42039  0.35312  0.49212  1.0000
  C   C676      1.0  0.27438  0.31121  0.36878  1.0000
  C   C677      1.0  0.10508  0.62441  0.37115  1.0000
  C   C678      1.0  0.98098  0.44617  0.48587  1.0000
  H   H537      1.0  0.11605  0.61629  0.30505  1.0000
  P   P26       1.0  0.96801  0.46646  0.47759  1.0000
  H   H538      1.0  0.22666  0.32384  0.35150  1.0000
  C   C679      1.0  0.45147  0.49022  0.35997  1.0000
  C   C680      1.0  0.09663  0.53519  0.41146  1.0000
  C   C681      1.0  0.00207  0.58261  0.30054  1.0000
  C   C682      1.0  0.44503  0.45387  0.40426  1.0000
  C   C683      1.0  0.99436  0.49914  0.48020  1.0000
  H   H539      1.0  0.03082  0.61733  0.31769  1.0000
  H   H540      1.0  0.98374  0.51788  0.39902  1.0000
  C   C684      1.0  0.40722  0.40221  0.40952  1.0000
  H   H541      1.0  0.04080  0.50516  0.27103  1.0000
  C   C685      1.0  0.07297  0.53847  0.31599  1.0000
  H   H542      1.0  0.42973  0.40192  0.43893  1.0000
  H   H543      1.0  0.40427  0.39123  0.31010  1.0000
  C   C686      1.0  0.00465  0.53210  0.25594  1.0000
  H   H544      1.0  0.35412  0.31605  0.41486  1.0000
  H   H545      1.0  0.09663  0.45999  0.49401  1.0000
  C   C687      1.0  0.04349  0.50967  0.41937  1.0000
  H   H546      1.0  0.45994  0.47376  0.40277  1.0000
  C   C688      1.0  0.00422  0.47120  0.37619  1.0000
  C   C689      1.0  0.44436  0.51039  0.46622  1.0000
  C   C690      1.0  0.42395  0.44282  0.38862  1.0000
  S   S90       1.0  0.32873  0.36300  0.49089  1.0000
  P   P27       1.0  0.42055  0.46185  0.36561  1.0000
  H   H547      1.0  0.39248  0.38221  0.41177  1.0000
  C   C691      1.0  0.39727  0.47107  0.37443  1.0000
  C   C692      1.0  0.40070  0.49532  0.36849  1.0000
  C   C693      1.0  0.38207  0.50183  0.37467  1.0000
  C   C694      1.0  0.35969  0.48407  0.38643  1.0000
  C   C695      1.0  0.35588  0.45974  0.39189  1.0000
  C   C696      1.0  0.37450  0.45325  0.38581  1.0000
  H   H548      1.0  0.45007  0.48112  0.48259  1.0000
  H   H549      1.0  0.03261  0.56474  0.34586  1.0000
  C   C697      1.0  0.02580  0.51020  0.27214  1.0000
  H   H550      1.0  0.39090  0.52670  0.47748  1.0000
  C   C698      1.0  0.41226  0.42244  0.33393  1.0000
  C   C699      1.0  0.37165  0.48665  0.48795  1.0000
  C   C700      1.0  0.08015  0.53580  0.39436  1.0000
  C   C701      1.0  0.98828  0.52498  0.27559  1.0000
  H   H551      1.0  0.44677  0.44621  0.28999  1.0000
  C   C702      1.0  0.43901  0.48506  0.46989  1.0000
  H   H552      1.0  0.01176  0.49196  0.30571  1.0000
  C   C703      1.0  0.99306  0.55491  0.41257  1.0000
  C   C704      1.0  0.42824  0.41334  0.42489  1.0000
  H   H553      1.0  0.13357  0.60010  0.33589  1.0000
  H   H554      1.0  0.41747  0.50910  0.35875  1.0000
  H   H555      1.0  0.38484  0.52057  0.37013  1.0000
  H   H556      1.0  0.34519  0.48903  0.39115  1.0000
  H   H557      1.0  0.33835  0.44567  0.40065  1.0000
  H   H558      1.0  0.37091  0.43422  0.38999  1.0000
  H   H559      1.0  0.43324  0.53433  0.44669  1.0000
  H   H560      1.0  0.30635  0.37624  0.29374  1.0000
  S   S91       1.0  0.38676  0.35617  0.46203  1.0000
  H   H561      1.0  0.02541  0.43027  0.46731  1.0000
  H   H562      1.0  0.98306  0.50987  0.35352  1.0000
  C   C705      1.0  0.25374  0.32412  0.39810  1.0000
  C   C706      1.0  0.02347  0.52492  0.25437  1.0000
  C   C707      1.0  0.04261  0.57235  0.39490  1.0000
  S   S92       1.0  0.08559  0.64180  0.30810  1.0000
  C   C708      1.0  0.02251  0.54162  0.46394  1.0000
  H   H563      1.0  0.45861  0.47593  0.32739  1.0000
  C   C709      1.0  0.06984  0.55756  0.30505  1.0000
  C   C710      1.0  0.27513  0.34675  0.27334  1.0000
  H   H564      1.0  0.39248  0.46612  0.32524  1.0000
  H   H565      1.0  0.42256  0.41702  0.34615  1.0000
  C   C711      1.0  0.99101  0.51050  0.29356  1.0000
  H   H566      1.0  0.02303  0.50026  0.42296  1.0000
  C   C712      1.0  0.41021  0.49469  0.43701  1.0000
  C   C713      1.0  0.40489  0.46955  0.44091  1.0000
  C   C714      1.0  0.41923  0.46471  0.45737  1.0000
  H   H567      1.0  0.11732  0.54594  0.40875  1.0000
  H   H568      1.0  0.41486  0.44514  0.46058  1.0000
  C   C715      1.0  0.42980  0.51508  0.44969  1.0000
  C   C716      1.0  0.04377  0.55715  0.33781  1.0000
  H   H569      1.0  0.24993  0.33857  0.40545  1.0000
  C   C717      1.0  0.03702  0.58929  0.40690  1.0000
  H   H570      1.0  0.06212  0.57917  0.38881  1.0000
  C   C718      1.0  0.39543  0.44999  0.32214  1.0000
  C   C719      1.0  0.04730  0.53837  0.34919  1.0000
  C   C720      1.0  0.09887  0.63057  0.32966  1.0000
  H   H571      1.0  0.00671  0.45731  0.45599  1.0000
  H   H572      1.0  0.98308  0.42972  0.37472  1.0000
  H   H573      1.0  0.39866  0.49831  0.42465  1.0000
  H   H574      1.0  0.38934  0.45377  0.43148  1.0000
  C   C721      1.0  0.00424  0.49400  0.37061  1.0000
  C   C722      1.0  0.03669  0.54912  0.48483  1.0000
  S   S93       1.0  0.12598  0.63622  0.25589  1.0000
  C   C723      1.0  0.40853  0.44334  0.33870  1.0000
  C   C724      1.0  0.05504  0.56670  0.31585  1.0000
  H   H575      1.0  0.36941  0.47944  0.47017  1.0000
  H   H576      1.0  0.02058  0.47176  0.38487  1.0000
  C   C725      1.0  0.99860  0.53787  0.40051  1.0000
  C   C726      1.0  0.29554  0.37164  0.27743  1.0000
  H   H577      1.0  0.00835  0.59367  0.42580  1.0000
  C   C727      1.0  0.40221  0.40794  0.31333  1.0000
  C   C728      1.0  0.02340  0.54662  0.39136  1.0000
  H   H578      1.0  0.38843  0.40786  0.37994  1.0000
  C   C729      1.0  0.45761  0.42226  0.27061  1.0000
  H   H579      1.0  0.07893  0.56532  0.28820  1.0000
  H   H580      1.0  0.42626  0.34638  0.47703  1.0000
  C   C730      1.0  0.99270  0.58732  0.25998  1.0000
  C   C731      1.0  0.00148  0.51667  0.46153  1.0000
  C   C732      1.0  0.46112  0.44579  0.27875  1.0000
  H   H581      1.0  0.05290  0.58169  0.30738  1.0000
  H   H582      1.0  0.05257  0.50011  0.45339  1.0000
  H   H583      1.0  0.09948  0.52240  0.44616  1.0000
  C   C733      1.0  0.40204  0.36081  0.48943  1.0000
  C   C734      1.0  0.09403  0.49467  0.49429  1.0000
  H   H584      1.0  0.37530  0.44053  0.28880  1.0000
  C   C735      1.0  0.05339  0.52268  0.39801  1.0000
  H   H585      1.0  0.02827  0.55519  0.44957  1.0000
  C   C736      1.0  0.44717  0.43914  0.42224  1.0000
  H   H586      1.0  0.38071  0.40305  0.28137  1.0000
  C   C737      1.0  0.01229  0.58060  0.41579  1.0000
  H   H587      1.0  0.44072  0.40440  0.27576  1.0000
  H   H588      1.0  0.99981  0.57074  0.31566  1.0000
  H   H589      1.0  0.00523  0.57704  0.49644  1.0000
  C   C738      1.0  0.46156  0.51100  0.37589  1.0000
  C   C739      1.0  0.26857  0.32939  0.37775  1.0000
  H   H590      1.0  0.08859  0.54735  0.37880  1.0000
  C   C740      1.0  0.40499  0.41686  0.39156  1.0000
  C   C741      1.0  0.02943  0.62905  0.49104  1.0000
  P   P28       1.0  0.96637  0.53724  0.27838  1.0000
  C   C742      1.0  0.01063  0.43053  0.47809  1.0000
  P   P29       1.0  0.03193  0.52505  0.37711  1.0000
  H   H591      1.0  0.36540  0.33473  0.36180  1.0000
  C   C743      1.0  0.26163  0.34076  0.25202  1.0000
  S   S94       1.0  0.05982  0.62043  0.46125  1.0000
  H   H592      1.0  0.06389  0.51370  0.34598  1.0000
  C   C744      1.0  0.08660  0.52200  0.43254  1.0000
  C   C745      1.0  0.00006  0.44581  0.47181  1.0000
  H   H593      1.0  0.23218  0.33789  0.30993  1.0000
  C   C746      1.0  0.01973  0.60898  0.30175  1.0000
  C   C747      1.0  0.02397  0.62453  0.28211  1.0000
  C   C748      1.0  0.45084  0.31117  0.47568  1.0000
  H   H594      1.0  0.28679  0.31621  0.35350  1.0000
  S   S95       1.0  0.39149  0.37083  0.25058  1.0000
  C   C749      1.0  0.00950  0.50288  0.29168  1.0000
  H   H595      1.0  0.45100  0.51015  0.39167  1.0000
  H   H596      1.0  0.27617  0.34793  0.36926  1.0000
  C   C750      1.0  0.98314  0.49248  0.35840  1.0000
  C   C751      1.0  0.21977  0.31775  0.31426  1.0000
  H   H597      1.0  0.44430  0.56587  0.48981  1.0000
  H   H598      1.0  0.10973  0.50467  0.48203  1.0000
  H   H599      1.0  0.27022  0.33198  0.28650  1.0000
  S   S96       1.0  0.12993  0.64201  0.43841  1.0000
  C   C752      1.0  0.30259  0.39045  0.26014  1.0000
  H   H600      1.0  0.45134  0.60694  0.47398  1.0000
  H   H601      1.0  0.05322  0.56835  0.48655  1.0000
  S   S97       1.0  0.11751  0.61441  0.49088  1.0000
  C   C753      1.0  0.38380  0.51359  0.49220  1.0000
  H   H602      1.0  0.31901  0.40954  0.26295  1.0000
  S   S98       1.0  0.32757  0.33858  0.25712  1.0000
  C   C754      1.0  0.45991  0.57638  0.47748  1.0000
  C   C755      1.0  0.09494  0.63338  0.35360  1.0000
  C   C756      1.0  0.00240  0.41572  0.49854  1.0000
  H   H603      1.0  0.97944  0.50559  0.30927  1.0000
  C   C757      1.0  0.46375  0.59962  0.46837  1.0000
  H   H604      1.0  0.01646  0.62423  0.47621  1.0000
  H   H605      1.0  0.46341  0.44773  0.43426  1.0000
  S   S99       1.0  0.09103  0.54011  0.49607  1.0000
  C   C758      1.0  0.98308  0.44726  0.37022  1.0000
  C   C759      1.0  0.46575  0.49173  0.33982  1.0000
  H   H606      1.0  0.08395  0.64246  0.35856  1.0000
  Fe  Fe51      1.0  0.00459  0.32941  0.55873  1.0000
  H   H607      1.0  0.98783  0.42534  0.71524  1.0000
  Fe  Fe52      1.0  0.02817  0.38896  0.54819  1.0000
  S   S100      1.0  0.00161  0.39192  0.57427  1.0000
  S   S101      1.0  0.05882  0.42358  0.52625  1.0000
  Fe  Fe53      1.0  0.00886  0.36637  0.59829  1.0000
  S   S102      1.0  0.01763  0.37112  0.63762  1.0000
  C   C760      1.0  0.31046  0.38144  0.54383  1.0000
  H   H608      1.0  0.06504  0.34557  0.72980  1.0000
  S   S103      1.0  0.03803  0.36600  0.57358  1.0000
  S   S104      1.0  0.99705  0.35213  0.53105  1.0000
  H   H609      1.0  0.39807  0.43433  0.50861  1.0000
  C   C761      1.0  0.06158  0.49371  0.51995  1.0000
  H   H610      1.0  0.97905  0.52104  0.63596  1.0000
  C   C762      1.0  0.07865  0.43483  0.59071  1.0000
  C   C763      1.0  0.06642  0.45554  0.51745  1.0000
  C   C764      1.0  0.07465  0.42495  0.61350  1.0000
  H   H611      1.0  0.05195  0.50310  0.52759  1.0000
  C   C765      1.0  0.01727  0.57228  0.53086  1.0000
  C   C766      1.0  0.39484  0.37008  0.50889  1.0000
  H   H612      1.0  0.08325  0.37855  0.69885  1.0000
  H   H613      1.0  0.32355  0.35829  0.56112  1.0000
  C   C767      1.0  0.99340  0.36299  0.65919  1.0000
  C   C768      1.0  0.00008  0.36520  0.68314  1.0000
  H   H614      1.0  0.44373  0.44604  0.51139  1.0000
  C   C769      1.0  0.40517  0.37050  0.53120  1.0000
  C   C770      1.0  0.40816  0.44047  0.52532  1.0000
  C   C771      1.0  0.43038  0.35313  0.51441  1.0000
  H   H615      1.0  0.01958  0.37063  0.68811  1.0000
  H   H616      1.0  0.98747  0.36360  0.71907  1.0000
  C   C772      1.0  0.28960  0.31631  0.62138  1.0000
  C   C773      1.0  0.06683  0.54510  0.62316  1.0000
  Fe  Fe54      1.0  0.42225  0.59186  0.54656  1.0000
  C   C774      1.0  0.46344  0.41191  0.60589  1.0000
  C   C775      1.0  0.99570  0.42173  0.62844  1.0000
  C   C776      1.0  0.99904  0.56892  0.51382  1.0000
  C   C777      1.0  0.42263  0.36160  0.53403  1.0000
  H   H617      1.0  0.42801  0.49724  0.51204  1.0000
  Fe  Fe55      1.0  0.43655  0.61786  0.59630  1.0000
  S   S105      1.0  0.42597  0.61487  0.63514  1.0000
  C   C778      1.0  0.08653  0.46917  0.50120  1.0000
  S   S106      1.0  0.41037  0.61697  0.56714  1.0000
  H   H618      1.0  0.02028  0.49994  0.74738  1.0000
  H   H619      1.0  0.09169  0.50916  0.64424  1.0000
  H   H620      1.0  0.44314  0.53597  0.57839  1.0000
  C   C779      1.0  0.36455  0.47924  0.52958  1.0000
  C   C780      1.0  0.98416  0.55404  0.73550  1.0000
  H   H621      1.0  0.00748  0.41839  0.61622  1.0000
  H   H622      1.0  0.44234  0.52022  0.71718  1.0000
  H   H623      1.0  0.44477  0.41347  0.57424  1.0000
  C   C781      1.0  0.26934  0.33505  0.52731  1.0000
  C   C782      1.0  0.46372  0.36076  0.67642  1.0000
  C   C783      1.0  0.46102  0.62949  0.69940  1.0000
  C   C784      1.0  0.00368  0.55780  0.65185  1.0000
  C   C785      1.0  0.00342  0.46383  0.72935  1.0000
  H   H624      1.0  0.42258  0.61529  0.68564  1.0000
  H   H625      1.0  0.07919  0.41008  0.61775  1.0000
  C   C786      1.0  0.99559  0.47838  0.57071  1.0000
  S   S107      1.0  0.97630  0.32938  0.58458  1.0000
  C   C787      1.0  0.06253  0.64112  0.52959  1.0000
  C   C788      1.0  0.08507  0.53892  0.63125  1.0000
  H   H626      1.0  0.00481  0.58738  0.59096  1.0000
  H   H627      1.0  0.07297  0.56435  0.61684  1.0000
  C   C789      1.0  0.44861  0.53561  0.56028  1.0000
  C   C790      1.0  0.05377  0.46803  0.52654  1.0000
  H   H628      1.0  0.07289  0.49966  0.68435  1.0000
  H   H629      1.0  0.03823  0.45802  0.53897  1.0000
  H   H630      1.0  0.41678  0.49775  0.55333  1.0000
  C   C791      1.0  0.06087  0.46167  0.60200  1.0000
  C   C792      1.0  0.05741  0.34051  0.71210  1.0000
  Fe  Fe56      1.0  0.98837  0.63434  0.56264  1.0000
  H   H631      1.0  0.02766  0.59710  0.66338  1.0000
  C   C793      1.0  0.99021  0.54154  0.63297  1.0000
  Fe  Fe57      1.0  0.97127  0.35457  0.55852  1.0000
  C   C794      1.0  0.36179  0.46908  0.50660  1.0000
  H   H632      1.0  0.00387  0.56983  0.73687  1.0000
  H   H633      1.0  0.02720  0.41730  0.67540  1.0000
  H   H634      1.0  0.44329  0.46186  0.58556  1.0000
  S   S108      1.0  0.44541  0.59045  0.57713  1.0000
  C   C795      1.0  0.44259  0.62243  0.68124  1.0000
  P   P30       1.0  0.97249  0.53075  0.58658  1.0000
  H   H635      1.0  0.45949  0.44512  0.70790  1.0000
  H   H636      1.0  0.05520  0.47550  0.59691  1.0000
  C   C796      1.0  0.37690  0.50618  0.53385  1.0000
  H   H637      1.0  0.01253  0.48704  0.62957  1.0000
  C   C797      1.0  0.99132  0.44481  0.66143  1.0000
  C   C798      1.0  0.39495  0.44116  0.54528  1.0000
  C   C799      1.0  0.40770  0.44895  0.56692  1.0000
  C   C800      1.0  0.43372  0.45607  0.56862  1.0000
  C   C801      1.0  0.44713  0.45516  0.54870  1.0000
  C   C802      1.0  0.43413  0.44737  0.52698  1.0000
  H   H638      1.0  0.37851  0.51337  0.55162  1.0000
  H   H639      1.0  0.37481  0.43567  0.54390  1.0000
  H   H640      1.0  0.39739  0.44951  0.58236  1.0000
  C   C803      1.0  0.44047  0.51386  0.52265  1.0000
  S   S109      1.0  0.45584  0.62756  0.53073  1.0000
  H   H641      1.0  0.99984  0.45997  0.67446  1.0000
  C   C804      1.0  0.04075  0.52630  0.62271  1.0000
  C   C805      1.0  0.43389  0.51402  0.54622  1.0000
  C   C806      1.0  0.44979  0.62412  0.65747  1.0000
  C   C807      1.0  0.03778  0.32897  0.66623  1.0000
  C   C808      1.0  0.01764  0.58444  0.64864  1.0000
  H   H642      1.0  0.28252  0.33302  0.59106  1.0000
  C   C809      1.0  0.03692  0.31576  0.70680  1.0000
  H   H643      1.0  0.00888  0.47697  0.55866  1.0000
  C   C810      1.0  0.28773  0.33465  0.54238  1.0000
  H   H644      1.0  0.44751  0.39328  0.61092  1.0000
  H   H645      1.0  0.35426  0.60895  0.74758  1.0000
  H   H646      1.0  0.32675  0.39953  0.54955  1.0000
  H   H647      1.0  0.45205  0.56243  0.73383  1.0000
  C   C811      1.0  0.00479  0.63076  0.67010  1.0000
  H   H648      1.0  0.04140  0.53752  0.51929  1.0000
  H   H649      1.0  0.28755  0.32907  0.63360  1.0000
  C   C812      1.0  0.97285  0.55548  0.51929  1.0000
  H   H650      1.0  0.06616  0.44930  0.74067  1.0000
  H   H651      1.0  0.39913  0.37710  0.54634  1.0000
  C   C813      1.0  0.99359  0.50063  0.57118  1.0000
  H   H652      1.0  0.06086  0.42530  0.64802  1.0000
  H   H653      1.0  0.96640  0.60214  0.71741  1.0000
  C   C814      1.0  0.00474  0.57867  0.60764  1.0000
  H   H654      1.0  0.25379  0.31746  0.51998  1.0000
  C   C815      1.0  0.43819  0.52160  0.73552  1.0000
  C   C816      1.0  0.98577  0.62291  0.65243  1.0000
  C   C817      1.0  0.27141  0.35844  0.52075  1.0000
  C   C818      1.0  0.07201  0.45337  0.58507  1.0000
  H   H655      1.0  0.10538  0.55334  0.63107  1.0000
  C   C819      1.0  0.38666  0.52376  0.51518  1.0000
  H   H656      1.0  0.00393  0.49348  0.51557  1.0000
  H   H657      1.0  0.02491  0.64258  0.66548  1.0000
  C   C820      1.0  0.98188  0.36116  0.70074  1.0000
  H   H658      1.0  0.44792  0.36445  0.67425  1.0000
  H   H659      1.0  0.00301  0.54982  0.66907  1.0000
  C   C821      1.0  0.06781  0.35935  0.69459  1.0000
  H   H660      1.0  0.29381  0.39979  0.52359  1.0000
  C   C822      1.0  0.07722  0.51395  0.63895  1.0000
  C   C823      1.0  0.01814  0.59484  0.62655  1.0000
  H   H661      1.0  0.37302  0.31456  0.54096  1.0000
  C   C824      1.0  0.97042  0.55030  0.71460  1.0000
  H   H662      1.0  0.02369  0.56377  0.56597  1.0000
  H   H663      1.0  0.02682  0.53094  0.61567  1.0000
  H   H664      1.0  0.99131  0.62862  0.63436  1.0000
  H   H665      1.0  0.35683  0.46616  0.54428  1.0000
  C   C825      1.0  0.05787  0.35362  0.67171  1.0000
  H   H666      1.0  0.99811  0.47103  0.71420  1.0000
  H   H667      1.0  0.03799  0.41143  0.71597  1.0000
  C   C826      1.0  0.00703  0.44176  0.64496  1.0000
  H   H668      1.0  0.38083  0.37624  0.50693  1.0000
  H   H669      1.0  0.44335  0.34574  0.51646  1.0000
  S   S110      1.0  0.44903  0.35246  0.72291  1.0000
  H   H670      1.0  0.98143  0.44035  0.58475  1.0000
  H   H671      1.0  0.33812  0.31450  0.56373  1.0000
  H   H672      1.0  0.02844  0.61554  0.62414  1.0000
  C   C827      1.0  0.99795  0.62346  0.69365  1.0000
  C   C828      1.0  0.99747  0.43815  0.72999  1.0000
  C   C829      1.0  0.30855  0.35807  0.55031  1.0000
  H   H673      1.0  0.07522  0.46098  0.56738  1.0000
  H   H674      1.0  0.03763  0.58339  0.52674  1.0000
  S   S111      1.0  0.40146  0.55825  0.51922  1.0000
  C   C830      1.0  0.29188  0.38161  0.52910  1.0000
  H   H675      1.0  0.06536  0.36838  0.65825  1.0000
  H   H676      1.0  0.25750  0.35860  0.50866  1.0000
  C   C831      1.0  0.00927  0.56127  0.55310  1.0000
  S   S112      1.0  0.43308  0.35942  0.56236  1.0000
  H   H677      1.0  0.08324  0.49339  0.72486  1.0000
  H   H678      1.0  0.00547  0.51601  0.55926  1.0000
  H   H679      1.0  0.08652  0.42788  0.57724  1.0000
  C   C832      1.0  0.28697  0.31863  0.59718  1.0000
  C   C833      1.0  0.08180  0.50739  0.50374  1.0000
  H   H680      1.0  0.97816  0.40553  0.52915  1.0000
  C   C834      1.0  0.05095  0.49510  0.63916  1.0000
  C   C835      1.0  0.03276  0.50140  0.63070  1.0000
  P   P31       1.0  0.04161  0.46230  0.64653  1.0000
  C   C836      1.0  0.05688  0.45195  0.62505  1.0000
  C   C837      1.0  0.05004  0.45885  0.67638  1.0000
  C   C838      1.0  0.03987  0.43407  0.68586  1.0000
  C   C839      1.0  0.04592  0.43067  0.70884  1.0000
  C   C840      1.0  0.06173  0.45205  0.72279  1.0000
  C   C841      1.0  0.07133  0.47685  0.71382  1.0000
  C   C842      1.0  0.06548  0.48030  0.69071  1.0000
  C   C843      1.0  0.06405  0.43363  0.63068  1.0000
  H   H681      1.0  0.41599  0.31261  0.58895  1.0000
  C   C844      1.0  0.46201  0.42338  0.58498  1.0000
  H   H682      1.0  0.39963  0.63902  0.65515  1.0000
  C   C845      1.0  0.99098  0.55181  0.61059  1.0000
  C   C846      1.0  0.00875  0.50686  0.50114  1.0000
  C   C847      1.0  0.98288  0.54695  0.55854  1.0000
  H   H683      1.0  0.99265  0.31800  0.71628  1.0000
  S   S113      1.0  0.02249  0.63329  0.71529  1.0000
  C   C848      1.0  0.97621  0.50253  0.58658  1.0000
  H   H684      1.0  0.45519  0.62793  0.71762  1.0000
  H   H685      1.0  0.45663  0.40406  0.71986  1.0000
  C   C849      1.0  0.98020  0.45777  0.58547  1.0000
  C   C850      1.0  0.44359  0.54537  0.74483  1.0000
  C   C851      1.0  0.02234  0.63415  0.51302  1.0000
  C   C852      1.0  0.98425  0.41681  0.51314  1.0000
  C   C853      1.0  0.01605  0.48025  0.74838  1.0000
  H   H686      1.0  0.42269  0.48133  0.74213  1.0000
  C   C854      1.0  0.97361  0.43203  0.50692  1.0000
  C   C855      1.0  0.97187  0.60811  0.69938  1.0000
  S   S114      1.0  0.34554  0.43450  0.50236  1.0000
  C   C856      1.0  0.96800  0.35543  0.65300  1.0000
  H   H687      1.0  0.02985  0.32480  0.64855  1.0000
  H   H688      1.0  0.08760  0.63618  0.50571  1.0000
  C   C857      1.0  0.06941  0.63554  0.50767  1.0000
  C   C858      1.0  0.46206  0.53541  0.51300  1.0000
  H   H689      1.0  0.97942  0.56330  0.69993  1.0000
  C   C859      1.0  0.96900  0.40517  0.62816  1.0000
  C   C860      1.0  0.03886  0.64017  0.53234  1.0000
  H   H690      1.0  0.00411  0.63342  0.51494  1.0000
  H   H691      1.0  0.01038  0.40365  0.50325  1.0000
  C   C861      1.0  0.02986  0.53173  0.50338  1.0000
  Fe  Fe58      1.0  0.34267  0.44370  0.88839  1.0000
  S   S115      1.0  0.36756  0.47072  0.91718  1.0000
  S   S116      1.0  0.36434  0.42558  0.86901  1.0000
  Fe  Fe59      1.0  0.30140  0.46176  0.89625  1.0000
  S   S117      1.0  0.26089  0.45630  0.88827  1.0000
  Fe  Fe60      1.0  0.33147  0.45804  0.93792  1.0000
  S   S118      1.0  0.32727  0.44718  0.97650  1.0000
  S   S119      1.0  0.33547  0.47382  0.87149  1.0000
  S   S120      1.0  0.30634  0.42903  0.91051  1.0000
  S   S121      1.0  0.06320  0.44732  0.89403  1.0000
  Fe  Fe61      1.0  0.46603  0.62645  0.79565  1.0000
  C   C862      1.0  0.43622  0.44604  0.89981  1.0000
  C   C863      1.0  0.30374  0.49318  0.83555  1.0000
  S   S122      1.0  0.02414  0.39439  0.79461  1.0000
  Fe  Fe62      1.0  0.41885  0.33274  0.80651  1.0000
  S   S123      1.0  0.38771  0.33942  0.82464  1.0000
  C   C864      1.0  0.34488  0.59490  0.84492  1.0000
  C   C865      1.0  0.32148  0.56243  0.88603  1.0000
  C   C866      1.0  0.05268  0.43340  0.86608  1.0000
  C   C867      1.0  0.06980  0.44009  0.84720  1.0000
  C   C868      1.0  0.06092  0.42782  0.82532  1.0000
  C   C869      1.0  0.03484  0.40949  0.82210  1.0000
  C   C870      1.0  0.01765  0.40329  0.84082  1.0000
  C   C871      1.0  0.02665  0.41492  0.86287  1.0000
  H   H692      1.0  0.08995  0.45415  0.84964  1.0000
  H   H693      1.0  0.07431  0.43229  0.81097  1.0000
  H   H694      1.0  0.99748  0.38932  0.83845  1.0000
  H   H695      1.0  0.01336  0.40972  0.87744  1.0000
  C   C872      1.0  0.24423  0.47428  0.89117  1.0000
  C   C873      1.0  0.20390  0.47564  0.88649  1.0000
  C   C874      1.0  0.21770  0.46213  0.88568  1.0000
  H   H696      1.0  0.18370  0.46593  0.88176  1.0000
  H   H697      1.0  0.20773  0.44210  0.88042  1.0000
  C   C875      1.0  0.37077  0.40146  0.85681  1.0000
  C   C876      1.0  0.35248  0.37513  0.85722  1.0000
  C   C877      1.0  0.35812  0.35675  0.84741  1.0000
  C   C878      1.0  0.38224  0.36406  0.83711  1.0000
  C   C879      1.0  0.40074  0.39041  0.83693  1.0000
  C   C880      1.0  0.39493  0.40886  0.84642  1.0000
  H   H698      1.0  0.33380  0.36885  0.86503  1.0000
  H   H699      1.0  0.34355  0.33657  0.84780  1.0000
  H   H700      1.0  0.41945  0.39657  0.82929  1.0000
  H   H701      1.0  0.40929  0.42903  0.84574  1.0000
  C   C881      1.0  0.28760  0.53019  0.98280  1.0000
  S   S124      1.0  0.32487  0.48939  0.92486  1.0000
  Fe  Fe63      1.0  0.35875  0.49955  0.90134  1.0000
  S   S125      1.0  0.39163  0.54051  0.89940  1.0000
  H   H702      1.0  0.10599  0.47828  0.96957  1.0000
  S   S126      1.0  0.42463  0.59518  0.80052  1.0000
  C   C882      1.0  0.03107  0.33263  0.79064  1.0000
  H   H703      1.0  0.43804  0.50337  0.88699  1.0000
  C   C883      1.0  0.15900  0.45322  0.93700  1.0000
  S   S127      1.0  0.99848  0.60084  0.77793  1.0000
  H   H704      1.0  0.38188  0.41613  0.79241  1.0000
  Fe  Fe64      1.0  0.15981  0.51627  0.89473  1.0000
  S   S128      1.0  0.13169  0.49039  0.92209  1.0000
  S   S129      1.0  0.20077  0.52082  0.89156  1.0000
  Fe  Fe65      1.0  0.12471  0.54087  0.88266  1.0000
  S   S130      1.0  0.09575  0.51692  0.91018  1.0000
  S   S131      1.0  0.11937  0.56827  0.85707  1.0000
  Fe  Fe66      1.0  0.12902  0.52457  0.93379  1.0000
  S   S132      1.0  0.13101  0.53436  0.97284  1.0000
  Fe  Fe67      1.0  0.10077  0.48468  0.89630  1.0000
  S   S133      1.0  0.15840  0.55145  0.90753  1.0000
  S   S134      1.0  0.12857  0.50787  0.86756  1.0000
  C   C884      1.0  0.44549  0.48869  0.85518  1.0000
  H   H705      1.0  0.26773  0.47838  0.94670  1.0000
  C   C885      1.0  0.24088  0.50695  0.97904  1.0000
  C   C886      1.0  0.06210  0.59759  0.83908  1.0000
  C   C887      1.0  0.05771  0.58147  0.85869  1.0000
  C   C888      1.0  0.07453  0.57195  0.86426  1.0000
  C   C889      1.0  0.09640  0.57859  0.85046  1.0000
  C   C890      1.0  0.10062  0.59448  0.83073  1.0000
  C   C891      1.0  0.08370  0.60383  0.82505  1.0000
  H   H706      1.0  0.04121  0.57640  0.86978  1.0000
  H   H707      1.0  0.07082  0.55983  0.87949  1.0000
  H   H708      1.0  0.11733  0.59985  0.81981  1.0000
  C   C892      1.0  0.26653  0.49183  0.95870  1.0000
  C   C893      1.0  0.25658  0.50025  0.89798  1.0000
  C   C894      1.0  0.24293  0.51391  0.89821  1.0000
  C   C895      1.0  0.21646  0.50182  0.89245  1.0000
  H   H709      1.0  0.27678  0.51000  0.90269  1.0000
  H   H710      1.0  0.25302  0.53412  0.90268  1.0000
  C   C896      1.0  0.40030  0.55562  0.87185  1.0000
  C   C897      1.0  0.42168  0.58050  0.87031  1.0000
  C   C898      1.0  0.42958  0.59278  0.84843  1.0000
  C   C899      1.0  0.41574  0.58033  0.82811  1.0000
  C   C900      1.0  0.39418  0.55561  0.82970  1.0000
  C   C901      1.0  0.38646  0.54323  0.85152  1.0000
  C   C902      1.0  0.28898  0.51193  0.96852  1.0000
  C   C903      1.0  0.46087  0.40850  0.88454  1.0000
  H   H711      1.0  0.38364  0.54591  0.81394  1.0000
  H   H712      1.0  0.36981  0.52417  0.85254  1.0000
  C   C904      1.0  0.28494  0.58547  0.85336  1.0000
  C   C905      1.0  0.42191  0.50147  0.77357  1.0000
  C   C906      1.0  0.43775  0.54715  0.76830  1.0000
  C   C907      1.0  0.01481  0.48477  0.92281  1.0000
  C   C908      1.0  0.41768  0.45057  0.78304  1.0000
  H   H713      1.0  0.02223  0.34259  0.79900  1.0000
  C   C909      1.0  0.31642  0.49759  0.81398  1.0000
  H   H714      1.0  0.31572  0.48167  0.80434  1.0000
  H   H715      1.0  0.44619  0.61190  0.84731  1.0000
  H   H716      1.0  0.10845  0.47061  0.78682  1.0000
  C   C910      1.0  0.40114  0.42389  0.78546  1.0000
  H   H717      1.0  0.19601  0.41845  0.96129  1.0000
  H   H718      1.0  0.34122  0.56217  0.80994  1.0000
  H   H719      1.0  0.27266  0.43025  0.95570  1.0000
  C   C911      1.0  0.21413  0.42293  0.96950  1.0000
  C   C912      1.0  0.43453  0.41594  0.77091  1.0000
  H   H720      1.0  0.22030  0.55914  0.84482  1.0000
  C   C913      1.0  0.02110  0.46808  0.86197  1.0000
  C   C914      1.0  0.02132  0.47578  0.82000  1.0000
  C   C915      1.0  0.03445  0.48057  0.84155  1.0000
  P   P32       1.0  0.03851  0.49172  0.79347  1.0000
  C   C916      1.0  0.07135  0.49819  0.79613  1.0000
  H   H721      1.0  0.45359  0.56347  0.82983  1.0000
  C   C917      1.0  0.40956  0.40671  0.77936  1.0000
  C   C918      1.0  0.09025  0.52135  0.80648  1.0000
  C   C919      1.0  0.11551  0.52631  0.80925  1.0000
  H   H722      1.0  0.14157  0.51177  0.80477  1.0000
  H   H723      1.0  0.42132  0.64191  0.79198  1.0000
  H   H724      1.0  0.97626  0.50647  0.90154  1.0000
  H   H725      1.0  0.03161  0.47101  0.87828  1.0000
  H   H726      1.0  0.05509  0.49345  0.84268  1.0000
  H   H727      1.0  0.01929  0.43712  0.78490  1.0000
  H   H728      1.0  0.30150  0.60351  0.85873  1.0000
  H   H729      1.0  0.08546  0.53541  0.81306  1.0000
  H   H730      1.0  0.12979  0.54400  0.81768  1.0000
  H   H731      1.0  0.39681  0.38614  0.78166  1.0000
  C   C920      1.0  0.39078  0.62619  0.84634  1.0000
  H   H732      1.0  0.46166  0.48776  0.86255  1.0000
  H   H733      1.0  0.01151  0.51548  0.81677  1.0000
  H   H734      1.0  0.00390  0.45499  0.94863  1.0000
  C   C921      1.0  0.43223  0.49753  0.86897  1.0000
  C   C922      1.0  0.41142  0.49881  0.85952  1.0000
  C   C923      1.0  0.40383  0.49132  0.83623  1.0000
  C   C924      1.0  0.41696  0.48227  0.82222  1.0000
  C   C925      1.0  0.43806  0.48128  0.83183  1.0000
  P   P33       1.0  0.40744  0.47310  0.79192  1.0000
  C   C926      1.0  0.98122  0.44640  0.83986  1.0000
  C   C927      1.0  0.21772  0.42786  0.99373  1.0000
  C   C928      1.0  0.03961  0.52209  0.78974  1.0000
  H   H735      1.0  0.44868  0.47459  0.82152  1.0000
  C   C929      1.0  0.24118  0.53878  0.84156  1.0000
  H   H736      1.0  0.42893  0.39884  0.90833  1.0000
  H   H737      1.0  0.26583  0.52268  0.84126  1.0000
  C   C930      1.0  0.05189  0.33238  0.80139  1.0000
  C   C931      1.0  0.37274  0.45800  0.78997  1.0000
  C   C932      1.0  0.15186  0.43044  0.97377  1.0000
  C   C933      1.0  0.26371  0.52802  0.98764  1.0000
  C   C934      1.0  0.31881  0.43519  0.78820  1.0000
  C   C935      1.0  0.34267  0.55428  0.91860  1.0000
  C   C936      1.0  0.19743  0.56411  0.96910  1.0000
  S   S135      1.0  0.99585  0.63853  0.81891  1.0000
  C   C937      1.0  0.14564  0.43065  0.95010  1.0000
  H   H738      1.0  0.40102  0.50547  0.87032  1.0000
  H   H739      1.0  0.38763  0.49252  0.82926  1.0000
  H   H740      1.0  0.18581  0.57191  0.97581  1.0000
  H   H741      1.0  0.37318  0.59095  0.86562  1.0000
  C   C938      1.0  0.26097  0.58399  0.85127  1.0000
  H   H742      1.0  0.42641  0.52106  0.97543  1.0000
  C   C939      1.0  0.07818  0.47996  0.78902  1.0000
  H   H743      1.0  0.29597  0.57661  0.89653  1.0000
  H   H744      1.0  0.25916  0.60077  0.85474  1.0000
  C   C940      1.0  0.33079  0.54306  0.81740  1.0000
  H   H745      1.0  0.46620  0.49609  0.95030  1.0000
  H   H746      1.0  0.44094  0.40248  0.76630  1.0000
  H   H747      1.0  0.30371  0.57608  0.93881  1.0000
  C   C941      1.0  0.04183  0.56948  0.78349  1.0000
  H   H748      1.0  0.22398  0.52045  0.83799  1.0000
  C   C942      1.0  0.44063  0.53034  0.96164  1.0000
  C   C943      1.0  0.25728  0.42960  0.96628  1.0000
  Fe  Fe68      1.0  0.97058  0.61292  0.78976  1.0000
  C   C944      1.0  0.00691  0.49918  0.90957  1.0000
  C   C945      1.0  0.44291  0.45969  0.77478  1.0000
  H   H749      1.0  0.34756  0.54749  0.88240  1.0000
  C   C946      1.0  0.36088  0.46344  0.77127  1.0000
  H   H750      1.0  0.37854  0.60538  0.78155  1.0000
  H   H751      1.0  0.08763  0.61618  0.80997  1.0000
  C   C947      1.0  0.18458  0.47575  0.97141  1.0000
  H   H752      1.0  0.04314  0.58809  0.78168  1.0000
  H   H753      1.0  0.02026  0.51352  0.89734  1.0000
  C   C948      1.0  0.35731  0.44101  0.80764  1.0000
  C   C949      1.0  0.36271  0.63368  0.82110  1.0000
  H   H754      1.0  0.00538  0.32036  0.76123  1.0000
  C   C950      1.0  0.05644  0.53980  0.77307  1.0000
  C   C951      1.0  0.35688  0.49702  0.99315  1.0000
  C   C952      1.0  0.99770  0.46624  0.93854  1.0000
  C   C953      1.0  0.39878  0.46037  0.99552  1.0000
  H   H755      1.0  0.29284  0.47381  0.84252  1.0000
  C   C954      1.0  0.99455  0.45091  0.86113  1.0000
  C   C955      1.0  0.45781  0.48204  0.93628  1.0000
  H   H756      1.0  0.41508  0.44363  0.97273  1.0000
  C   C956      1.0  0.02252  0.47098  0.76843  1.0000
  C   C957      1.0  0.43231  0.47302  0.92931  1.0000
  C   C958      1.0  0.42158  0.45506  0.91107  1.0000
  C   C959      1.0  0.98187  0.49507  0.91202  1.0000
  H   H757      1.0  0.22554  0.47368  0.95581  1.0000
  H   H758      1.0  0.06402  0.46151  0.78200  1.0000
  C   C960      1.0  0.38664  0.62290  0.77123  1.0000
  C   C961      1.0  0.02153  0.32002  0.76914  1.0000
  H   H759      1.0  0.03419  0.48788  0.92086  1.0000
  H   H760      1.0  0.33980  0.52598  0.78819  1.0000
  C   C962      1.0  0.12214  0.50815  0.80198  1.0000
  H   H761      1.0  0.42077  0.47987  0.93795  1.0000
  H   H762      1.0  0.40191  0.44826  0.90543  1.0000
  C   C963      1.0  0.38718  0.64185  0.83049  1.0000
  C   C964      1.0  0.33793  0.55391  0.89446  1.0000
  H   H763      1.0  0.29800  0.42634  0.78757  1.0000
  C   C965      1.0  0.21148  0.57388  0.94839  1.0000
  C   C966      1.0  0.22546  0.56304  0.93913  1.0000
  C   C967      1.0  0.22543  0.54247  0.95060  1.0000
  C   C968      1.0  0.21135  0.53246  0.97147  1.0000
  C   C969      1.0  0.26509  0.54016  0.84356  1.0000
  C   C970      1.0  0.42214  0.36649  0.88727  1.0000
  C   C971      1.0  0.23395  0.42394  0.95576  1.0000
  C   C972      1.0  0.43268  0.53190  0.93891  1.0000
  H   H764      1.0  0.44157  0.56552  0.77536  1.0000
  H   H765      1.0  0.30744  0.51351  0.96472  1.0000
  H   H766      1.0  0.40303  0.35413  0.89435  1.0000
  S   S136      1.0  0.04012  0.60937  0.83319  1.0000
  H   H767      1.0  0.18809  0.49302  0.93715  1.0000
  C   C973      1.0  0.24256  0.48922  0.96399  1.0000
  H   H768      1.0  0.29515  0.50989  0.86499  1.0000
  H   H769      1.0  0.26301  0.54278  0.99809  1.0000
  H   H770      1.0  0.37224  0.47647  0.75736  1.0000
  C   C974      1.0  0.30906  0.57029  0.90228  1.0000
  H   H771      1.0  0.42047  0.33712  0.86428  1.0000
  C   C975      1.0  0.11976  0.50965  0.99432  1.0000
  H   H772      1.0  0.13029  0.41343  0.94191  1.0000
  C   C976      1.0  0.99451  0.45896  0.81941  1.0000
  H   H773      1.0  0.21075  0.58923  0.93908  1.0000
  H   H774      1.0  0.23536  0.56975  0.92246  1.0000
  H   H775      1.0  0.42768  0.43259  0.88534  1.0000
  C   C977      1.0  0.45123  0.44242  0.76866  1.0000
  C   C978      1.0  0.19709  0.54333  0.98049  1.0000
  C   C979      1.0  0.02530  0.55208  0.80025  1.0000
  H   H776      1.0  0.43236  0.59022  0.88605  1.0000
  H   H777      1.0  0.30505  0.54609  0.99006  1.0000
  C   C980      1.0  0.36976  0.60283  0.85354  1.0000
  C   C981      1.0  0.05745  0.56338  0.76992  1.0000
  C   C982      1.0  0.33399  0.45203  0.77041  1.0000
  C   C983      1.0  0.02410  0.52843  0.80339  1.0000
  H   H778      1.0  0.42207  0.52721  0.80059  1.0000
  S   S137      1.0  0.45542  0.36525  0.79169  1.0000
  H   H779      1.0  0.35588  0.54830  0.92498  1.0000
  C   C984      1.0  0.32992  0.52252  0.80490  1.0000
  H   H780      1.0  0.98566  0.54056  0.86396  1.0000
  C   C985      1.0  0.43673  0.39208  0.89475  1.0000
  C   C986      1.0  0.46143  0.45412  0.90736  1.0000
  C   C987      1.0  0.33061  0.56253  0.93454  1.0000
  H   H781      1.0  0.33459  0.56299  0.95317  1.0000
  H   H782      1.0  0.32308  0.60384  0.81999  1.0000
  H   H783      1.0  0.98316  0.54147  0.77093  1.0000
  H   H784      1.0  0.41233  0.52395  0.93524  1.0000
  H   H785      1.0  0.15412  0.45348  0.91867  1.0000
  C   C988      1.0  0.45083  0.54396  0.92099  1.0000
  C   C989      1.0  0.33050  0.42972  0.80683  1.0000
  C   C990      1.0  0.17829  0.47573  0.94761  1.0000
  C   C991      1.0  0.23909  0.56062  0.84550  1.0000
  P   P34       1.0  0.31770  0.56483  0.85468  1.0000
  H   H786      1.0  0.36608  0.43646  0.82205  1.0000
  C   C992      1.0  0.31346  0.57012  0.92643  1.0000
  C   C993      1.0  0.41869  0.45673  0.98729  1.0000
  C   C994      1.0  0.42678  0.52530  0.78260  1.0000
  H   H787      1.0  0.31889  0.41670  0.82073  1.0000
  Fe  Fe69      1.0  0.44929  0.33920  0.76052  1.0000
  Fe  Fe70      1.0  0.02518  0.62785  0.80576  1.0000
  H   H788      1.0  0.98446  0.44067  0.87687  1.0000
  C   C995      1.0  0.43199  0.35685  0.87034  1.0000
  C   C996      1.0  0.10349  0.48501  0.79185  1.0000
  H   H789      1.0  0.23133  0.42047  0.93691  1.0000
  H   H790      1.0  0.23559  0.53374  0.94261  1.0000
  C   C997      1.0  0.34170  0.61012  0.82799  1.0000
  Fe  Fe71      1.0  0.98125  0.36733  0.79265  1.0000
  C   C998      1.0  0.10817  0.48366  0.98796  1.0000
  S   S138      1.0  0.43863  0.31359  0.82458  1.0000
  C   C999      1.0  0.17141  0.45282  0.98435  1.0000
  C   C1000     1.0  0.01559  0.44496  0.76922  1.0000
  C   C1001     1.0  0.41085  0.64353  0.77714  1.0000
  H   H791      1.0  0.36186  0.50272  0.97499  1.0000
  C   C1002     1.0  0.31844  0.53882  0.83930  1.0000
  C   C1003     1.0  0.26094  0.43458  0.99045  1.0000
  C   C1004     1.0  0.30504  0.51373  0.84831  1.0000
  C   C1005     1.0  0.97491  0.53223  0.84787  1.0000
  H   H792      1.0  0.01405  0.55743  0.81130  1.0000
  H   H793      1.0  0.98391  0.45504  0.80311  1.0000
  H   H794      1.0  0.44411  0.54537  0.90369  1.0000
  C   C1006     1.0  0.28723  0.56354  0.84952  1.0000
  H   H795      1.0  0.45627  0.48017  0.77337  1.0000
  H   H796      1.0  0.32492  0.45624  0.75594  1.0000
  H   H797      1.0  0.05911  0.34206  0.81814  1.0000
  P   P35       1.0  0.21009  0.50460  0.98499  1.0000
  H   H798      1.0  0.97532  0.56698  0.83762  1.0000
  H   H799      1.0  0.40993  0.63203  0.85294  1.0000
  C   C1007     1.0  0.97269  0.46213  0.94111  1.0000
  C   C1008     1.0  0.42724  0.49968  0.74977  1.0000
  C   C1009     1.0  0.97227  0.53805  0.75486  1.0000
  S   S139      1.0  0.96922  0.33645  0.76542  1.0000
  H   H800      1.0  0.18512  0.53559  0.99589  1.0000
  C   C1010     1.0  0.33994  0.47118  0.99859  1.0000
  C   C1011     1.0  0.45654  0.37269  0.86106  1.0000
  C   C1012     1.0  0.96906  0.54714  0.83303  1.0000
  H   H801      1.0  0.46437  0.57466  0.87161  1.0000
  C   C1013     1.0  0.06337  0.31974  0.79048  1.0000
  H   H802      1.0  0.07952  0.31955  0.79884  1.0000
  H   H803      1.0  0.46431  0.36513  0.84817  1.0000
  H   H804      1.0  0.37987  0.45039  0.98725  1.0000
  H   H805      1.0  0.14129  0.41299  0.98398  1.0000
  H   H806      1.0  0.45793  0.46619  0.99145  1.0000
  H   H807      1.0  0.06891  0.53542  0.76267  1.0000
  Fe  Fe72      1.0  0.01317  0.63489  0.75389  1.0000
  C   C1014     1.0  0.44302  0.46965  0.99799  1.0000
  C   C1015     1.0  0.37311  0.62491  0.75208  1.0000
  H   H808      1.0  0.07073  0.57720  0.75736  1.0000
  H   H809      1.0  0.97066  0.49486  0.85381  1.0000
  H   H810      1.0  0.96670  0.47932  0.77572  1.0000
  C   C1016     1.0  0.96664  0.50660  0.84205  1.0000
  H   H811      1.0  0.27910  0.43863  0.99823  1.0000
  C   C1017     1.0  0.00378  0.42883  0.74987  1.0000
  H   H812      1.0  0.99936  0.40896  0.75040  1.0000
  Fe  Fe73      1.0  0.33722  0.84551  0.20635  1.0000
  S   S140      1.0  0.34097  0.81178  0.19490  1.0000
  S   S141      1.0  0.32225  0.85976  0.17717  1.0000
  Fe  Fe74      1.0  0.32116  0.79449  0.22934  1.0000
  C   C1018     1.0  0.26534  0.66915  0.22049  1.0000
  S   S142      1.0  0.31607  0.82769  0.24003  1.0000
  Fe  Fe75      1.0  0.12686  0.66259  0.22748  1.0000
  S   S143      1.0  0.16434  0.70001  0.21689  1.0000
  C   C1019     1.0  0.40135  0.95471  0.20403  1.0000
  Fe  Fe76      1.0  0.12930  0.96254  0.12869  1.0000
  S   S144      1.0  0.16522  0.95870  0.13720  1.0000
  Fe  Fe77      1.0  0.07025  0.94182  0.14153  1.0000
  S   S145      1.0  0.03864  0.91963  0.17006  1.0000
  Fe  Fe78      1.0  0.08981  0.95416  0.09027  1.0000
  S   S146      1.0  0.07948  0.94193  0.05213  1.0000
  S   S147      1.0  0.09122  0.92775  0.11781  1.0000
  C   C1020     1.0  0.19960  0.96529  0.05342  1.0000
  H   H813      1.0  0.20752  0.94977  0.14615  1.0000
  C   C1021     1.0  0.27563  0.65737  0.10920  1.0000
  C   C1022     1.0  0.25285  0.73930  0.23105  1.0000
  C   C1023     1.0  0.24183  0.75296  0.22122  1.0000
  C   C1024     1.0  0.21488  0.74072  0.21722  1.0000
  C   C1025     1.0  0.19827  0.71473  0.22330  1.0000
  C   C1026     1.0  0.20925  0.70124  0.23357  1.0000
  C   C1027     1.0  0.39903  0.87146  0.14577  1.0000
  H   H814      1.0  0.25416  0.77281  0.21615  1.0000
  H   H815      1.0  0.20682  0.75146  0.20921  1.0000
  C   C1028     1.0  0.99351  0.90048  0.19633  1.0000
  C   C1029     1.0  0.00407  0.90467  0.17345  1.0000
  C   C1030     1.0  0.98682  0.89533  0.15441  1.0000
  H   H816      1.0  0.00639  0.90743  0.21131  1.0000
  H   H817      1.0  0.99431  0.89810  0.13669  1.0000
  C   C1031     1.0  0.32902  0.89153  0.18048  1.0000
  C   C1032     1.0  0.32818  0.90505  0.16077  1.0000
  C   C1033     1.0  0.33328  0.93046  0.16313  1.0000
  C   C1034     1.0  0.33887  0.94215  0.18531  1.0000
  C   C1035     1.0  0.33904  0.92836  0.20510  1.0000
  C   C1036     1.0  0.33443  0.90316  0.20267  1.0000
  H   H818      1.0  0.32387  0.89593  0.14364  1.0000
  H   H819      1.0  0.33302  0.94105  0.14786  1.0000
  H   H820      1.0  0.34326  0.93739  0.22228  1.0000
  H   H821      1.0  0.33491  0.89269  0.21794  1.0000
  C   C1037     1.0  0.26134  0.67675  0.19838  1.0000
  C   C1038     1.0  0.23634  0.66988  0.19091  1.0000
  H   H822      1.0  0.27193  0.93555  0.24610  1.0000
  P   P36       1.0  0.23143  0.67942  0.16203  1.0000
  C   C1039     1.0  0.24308  0.71363  0.16035  1.0000
  C   C1040     1.0  0.09969  0.95851  0.21348  1.0000
  C   C1041     1.0  0.26080  0.68644  0.12154  1.0000
  C   C1042     1.0  0.02446  0.97009  0.18737  1.0000
  C   C1043     1.0  0.37960  0.93703  0.11100  1.0000
  S   S148      1.0  0.09259  0.66445  0.24208  1.0000
  C   C1044     1.0  0.23205  0.72301  0.14412  1.0000
  C   C1045     1.0  0.24125  0.74945  0.14231  1.0000
  C   C1046     1.0  0.26172  0.76679  0.15650  1.0000
  C   C1047     1.0  0.27295  0.75765  0.17243  1.0000
  C   C1048     1.0  0.26368  0.73123  0.17443  1.0000
  C   C1049     1.0  0.98776  0.94600  0.03127  1.0000
  H   H823      1.0  0.44655  0.89684  0.23855  1.0000
  C   C1050     1.0  0.17396  0.97192  0.02427  1.0000
  C   C1051     1.0  0.40781  0.93492  0.16138  1.0000
  C   C1052     1.0  0.40779  0.95831  0.16188  1.0000
  C   C1053     1.0  0.21539  0.65481  0.20577  1.0000
  H   H824      1.0  0.27780  0.68820  0.18719  1.0000
  C   C1054     1.0  0.44424  0.93031  0.13005  1.0000
  H   H825      1.0  0.41905  0.95573  0.05310  1.0000
  H   H826      1.0  0.19588  0.64927  0.20075  1.0000
  H   H827      1.0  0.21630  0.70991  0.13283  1.0000
  H   H828      1.0  0.23243  0.75650  0.13000  1.0000
  H   H829      1.0  0.26880  0.78730  0.15534  1.0000
  H   H830      1.0  0.28845  0.77097  0.18380  1.0000
  H   H831      1.0  0.27249  0.72487  0.18733  1.0000
  H   H832      1.0  0.18909  0.68641  0.17776  1.0000
  H   H833      1.0  0.01929  0.92032  0.06037  1.0000
  C   C1055     1.0  0.39036  0.88674  0.13487  1.0000
  C   C1056     1.0  0.19745  0.66244  0.15507  1.0000
  C   C1057     1.0  0.25702  0.84840  0.19270  1.0000
  C   C1058     1.0  0.23366  0.82545  0.18976  1.0000
  C   C1059     1.0  0.21252  0.82586  0.17984  1.0000
  C   C1060     1.0  0.21475  0.84919  0.17268  1.0000
  C   C1061     1.0  0.23816  0.87236  0.17562  1.0000
  C   C1062     1.0  0.25930  0.87175  0.18566  1.0000
  P   P37       1.0  0.24180  0.90257  0.16554  1.0000
  C   C1063     1.0  0.21067  0.90040  0.16274  1.0000
  C   C1064     1.0  0.26060  0.92728  0.18694  1.0000
  C   C1065     1.0  0.27677  0.95282  0.17984  1.0000
  C   C1066     1.0  0.25860  0.92124  0.21101  1.0000
  C   C1067     1.0  0.20148  0.91022  0.18038  1.0000
  C   C1068     1.0  0.17809  0.90979  0.17737  1.0000
  C   C1069     1.0  0.16371  0.89960  0.15677  1.0000
  C   C1070     1.0  0.17247  0.88938  0.13935  1.0000
  C   C1071     1.0  0.19577  0.88964  0.14233  1.0000
  C   C1072     1.0  0.25791  0.91097  0.13729  1.0000
  C   C1073     1.0  0.25452  0.92735  0.12192  1.0000
  C   C1074     1.0  0.26731  0.93428  0.10027  1.0000
  C   C1075     1.0  0.28365  0.92498  0.09381  1.0000
  C   C1076     1.0  0.28718  0.90873  0.10898  1.0000
  C   C1077     1.0  0.27434  0.90169  0.13059  1.0000
  H   H834      1.0  0.27358  0.84813  0.20008  1.0000
  H   H835      1.0  0.23201  0.80732  0.19499  1.0000
  H   H836      1.0  0.19822  0.84899  0.16481  1.0000
  H   H837      1.0  0.27773  0.88931  0.18773  1.0000
  H   H838      1.0  0.27891  0.95805  0.16146  1.0000
  H   H839      1.0  0.24605  0.90173  0.21697  1.0000
  H   H840      1.0  0.21250  0.91874  0.19623  1.0000
  H   H841      1.0  0.17145  0.91811  0.19063  1.0000
  H   H842      1.0  0.14609  0.90019  0.15406  1.0000
  H   H843      1.0  0.16139  0.88172  0.12330  1.0000
  H   H844      1.0  0.20242  0.88191  0.12851  1.0000
  H   H845      1.0  0.24218  0.93501  0.12670  1.0000
  H   H846      1.0  0.26491  0.94726  0.08868  1.0000
  H   H847      1.0  0.29375  0.93054  0.07713  1.0000
  H   H848      1.0  0.30005  0.90173  0.10406  1.0000
  H   H849      1.0  0.27751  0.88918  0.14201  1.0000
  C   C1078     1.0  0.40132  0.93397  0.10927  1.0000
  H   H850      1.0  0.32962  0.83910  0.12056  1.0000
  H   H851      1.0  0.28894  0.95276  0.02401  1.0000
  H   H852      1.0  0.07972  0.91937  0.20086  1.0000
  H   H853      1.0  0.28617  0.65223  0.09693  1.0000
  C   C1079     1.0  0.15550  0.95361  0.06220  1.0000
  H   H854      1.0  0.28372  0.69183  0.09058  1.0000
  C   C1080     1.0  0.09830  0.93667  0.20319  1.0000
  C   C1081     1.0  0.12066  0.93766  0.19468  1.0000
  C   C1082     1.0  0.19755  0.97407  0.03102  1.0000
  H   H855      1.0  0.00861  0.86020  0.19251  1.0000
  H   H856      1.0  0.19444  0.80801  0.17751  1.0000
  H   H857      1.0  0.14266  0.66343  0.16910  1.0000
  S   S149      1.0  0.28711  0.75301  0.23475  1.0000
  C   C1083     1.0  0.21875  0.93910  0.00511  1.0000
  H   H858      1.0  0.40020  0.92189  0.22019  1.0000
  C   C1084     1.0  0.28924  0.96573  0.22036  1.0000
  C   C1085     1.0  0.08618  0.95931  0.00646  1.0000
  C   C1086     1.0  0.27301  0.94039  0.22763  1.0000
  H   H859      1.0  0.40596  0.90428  0.18289  1.0000
  H   H860      1.0  0.08214  0.95801  0.21902  1.0000
  C   C1087     1.0  0.18130  0.67027  0.16561  1.0000
  C   C1088     1.0  0.37233  0.94689  0.09210  1.0000
  P   P38       1.0  0.41083  0.92142  0.13386  1.0000
  H   H861      1.0  0.45922  0.96830  0.14516  1.0000
  C   C1089     1.0  0.23623  0.71342  0.23736  1.0000
  C   C1090     1.0  0.15489  0.65717  0.16078  1.0000
  C   C1091     1.0  0.40433  0.96802  0.18308  1.0000
  H   H862      1.0  0.07810  0.93932  0.00151  1.0000
  C   C1092     1.0  0.99337  0.94262  0.00797  1.0000
  C   C1093     1.0  0.00813  0.93073  0.00384  1.0000
  C   C1094     1.0  0.40803  0.95044  0.06928  1.0000
  C   C1095     1.0  0.01710  0.92247  0.02272  1.0000
  H   H863      1.0  0.34594  0.81236  0.13844  1.0000
  C   C1096     1.0  0.34926  0.84807  0.12699  1.0000
  H   H864      1.0  0.97326  0.97212  0.11702  1.0000
  H   H865      1.0  0.31437  0.97394  0.06024  1.0000
  H   H866      1.0  0.24435  0.70261  0.24507  1.0000
  H   H867      1.0  0.43210  0.93833  0.08620  1.0000
  H   H868      1.0  0.99279  0.94068  0.06807  1.0000
  C   C1097     1.0  0.01150  0.92599  0.04581  1.0000
  C   C1098     1.0  0.96676  0.81920  0.15152  1.0000
  C   C1099     1.0  0.44912  0.86110  0.18659  1.0000
  H   H869      1.0  0.41799  0.88008  0.15369  1.0000
  C   C1100     1.0  0.27426  0.67969  0.10564  1.0000
  H   H870      1.0  0.35734  0.88596  0.11830  1.0000
  H   H871      1.0  0.16127  0.96102  0.18895  1.0000
  H   H872      1.0  0.21560  0.90193  0.00078  1.0000
  C   C1101     1.0  0.35837  0.83303  0.13722  1.0000
  C   C1102     1.0  0.40569  0.92216  0.18265  1.0000
  H   H873      1.0  0.11939  0.92117  0.18559  1.0000
  C   C1103     1.0  0.41541  0.94064  0.08818  1.0000
  H   H874      1.0  0.20924  0.93423  0.02202  1.0000
  C   C1104     1.0  0.14447  0.96035  0.19673  1.0000
  H   H875      1.0  0.00496  0.85247  0.14961  1.0000
  H   H876      1.0  0.13936  0.94606  0.07430  1.0000
  H   H877      1.0  0.44454  0.89408  0.19183  1.0000
  C   C1105     1.0  0.40254  0.93211  0.20388  1.0000
  H   H878      1.0  0.35591  0.94979  0.09365  1.0000
  C   C1106     1.0  0.99120  0.84417  0.18526  1.0000
  H   H879      1.0  0.97729  0.95598  0.03494  1.0000
  H   H880      1.0  0.02931  0.91420  0.01956  1.0000
  C   C1107     1.0  0.45735  0.88750  0.18580  1.0000
  C   C1108     1.0  0.36512  0.87481  0.12586  1.0000
  H   H881      1.0  0.25417  0.81230  0.23671  1.0000
  S   S150      1.0  0.41790  0.83698  0.19769  1.0000
  C   C1109     1.0  0.21941  0.64682  0.22767  1.0000
  H   H882      1.0  0.26005  0.70385  0.11850  1.0000
  S   S151      1.0  0.37652  0.86664  0.22309  1.0000
  Fe  Fe79      1.0  0.37972  0.83219  0.21341  1.0000
  C   C1110     1.0  0.24857  0.67083  0.14112  1.0000
  C   C1111     1.0  0.38324  0.84473  0.14662  1.0000
  H   H883      1.0  0.36841  0.93197  0.12704  1.0000
  H   H884      1.0  0.39015  0.83312  0.15501  1.0000
  C   C1112     1.0  0.99666  0.93756  0.05010  1.0000
  C   C1113     1.0  0.30976  0.96395  0.02316  1.0000
  H   H885      1.0  0.43629  0.89491  0.11244  1.0000
  C   C1114     1.0  0.96646  0.88717  0.20016  1.0000
  H   H886      1.0  0.28475  0.67526  0.22644  1.0000
  C   C1115     1.0  0.24436  0.65405  0.23507  1.0000
  C   C1116     1.0  0.38652  0.95355  0.07124  1.0000
  C   C1117     1.0  0.32219  0.96641  0.00150  1.0000
  C   C1118     1.0  0.21590  0.96915  0.13964  1.0000
  C   C1119     1.0  0.24978  0.64830  0.14441  1.0000
  C   C1120     1.0  0.98918  0.83974  0.16101  1.0000
  C   C1121     1.0  0.15309  0.96177  0.03983  1.0000
  C   C1122     1.0  0.17874  0.95536  0.06899  1.0000
  H   H887      1.0  0.18061  0.94929  0.08649  1.0000
  C   C1123     1.0  0.08906  0.96616  0.03041  1.0000
  H   H888      1.0  0.02600  0.95783  0.20046  1.0000
  S   S152      1.0  0.36032  0.81075  0.24702  1.0000
  C   C1124     1.0  0.45094  0.91347  0.11905  1.0000
  S   S153      1.0  0.06664  0.96581  0.11300  1.0000
  H   H889      1.0  0.21747  0.96656  0.05906  1.0000
  H   H890      1.0  0.38092  0.96134  0.05665  1.0000
  H   H891      1.0  0.39753  0.96152  0.22034  1.0000
  H   H892      1.0  0.19695  0.68131  0.23838  1.0000
  H   H893      1.0  0.45279  0.94090  0.23706  1.0000
  H   H894      1.0  0.46046  0.83307  0.17861  1.0000
  H   H895      1.0  0.13503  0.96044  0.03465  1.0000
  H   H896      1.0  0.97262  0.83236  0.21873  1.0000
  C   C1125     1.0  0.97058  0.82849  0.20002  1.0000
  C   C1126     1.0  0.29090  0.97193  0.19652  1.0000
  H   H897      1.0  0.98935  0.96612  0.20152  1.0000
  H   H898      1.0  0.40978  0.96885  0.14593  1.0000
  H   H899      1.0  0.22707  0.96848  0.22187  1.0000
  S   S154      1.0  0.34656  0.97418  0.18884  1.0000
  C   C1127     1.0  0.46389  0.95469  0.13737  1.0000
  C   C1128     1.0  0.00382  0.97468  0.18789  1.0000
  C   C1129     1.0  0.46586  0.91350  0.23854  1.0000
  S   S155      1.0  0.10865  0.97449  0.15466  1.0000
  C   C1130     1.0  0.32410  0.97581  0.04373  1.0000
  H   H900      1.0  0.18989  0.97502  0.22839  1.0000
  H   H901      1.0  0.29256  0.64436  0.19897  1.0000
  H   H902      1.0  0.22756  0.83276  0.24361  1.0000
  H   H903      1.0  0.25517  0.97675  0.14320  1.0000
  S   S156      1.0  0.31741  0.85026  0.48210  1.0000
  Fe  Fe80      1.0  0.31831  0.87034  0.41708  1.0000
  S   S157      1.0  0.29026  0.86929  0.44417  1.0000
  S   S158      1.0  0.31349  0.87826  0.37881  1.0000
  Fe  Fe81      1.0  0.32479  0.88915  0.46874  1.0000
  Fe  Fe82      1.0  0.28560  0.83079  0.45498  1.0000
  S   S159      1.0  0.24495  0.79439  0.45478  1.0000
  S   S160      1.0  0.31207  0.83159  0.42671  1.0000
  S   S161      1.0  0.19115  0.67333  0.47927  1.0000
  C   C1131     1.0  0.23085  0.76070  0.46125  1.0000
  C   C1132     1.0  0.20570  0.70694  0.47215  1.0000
  C   C1133     1.0  0.19407  0.71653  0.45701  1.0000
  C   C1134     1.0  0.20642  0.74317  0.45180  1.0000
  C   C1135     1.0  0.32840  0.87133  0.35524  1.0000
  C   C1136     1.0  0.31758  0.86721  0.33256  1.0000
  C   C1137     1.0  0.32990  0.86341  0.31310  1.0000
  H   H904      1.0  0.29976  0.86734  0.32999  1.0000
  H   H905      1.0  0.32154  0.86054  0.29570  1.0000
  H   H906      1.0  0.19702  0.75029  0.44033  1.0000
  H   H907      1.0  0.17560  0.70334  0.44923  1.0000
  C   C1138     1.0  0.20548  0.73947  0.31121  1.0000
  H   H908      1.0  0.29914  0.81218  0.37279  1.0000
  C   C1139     1.0  0.07832  0.67336  0.42917  1.0000
  C   C1140     1.0  0.09817  0.67787  0.41360  1.0000
  C   C1141     1.0  0.12364  0.69584  0.41937  1.0000
  C   C1142     1.0  0.30112  0.75839  0.38871  1.0000
  C   C1143     1.0  0.18589  0.73055  0.32829  1.0000
  C   C1144     1.0  0.30472  0.79755  0.37264  1.0000
  H   H909      1.0  0.18788  0.74164  0.34394  1.0000
  C   C1145     1.0  0.29346  0.77697  0.38840  1.0000
  H   H910      1.0  0.27923  0.77587  0.40082  1.0000
  H   H911      1.0  0.13912  0.69901  0.40752  1.0000
  C   C1146     1.0  0.23688  0.77918  0.38624  1.0000
  H   H912      1.0  0.23223  0.76718  0.40178  1.0000
  H   H913      1.0  0.22736  0.74818  0.36207  1.0000
  C   C1147     1.0  0.24628  0.80555  0.38884  1.0000
  C   C1148     1.0  0.23402  0.76850  0.36375  1.0000
  H   H914      1.0  0.24895  0.81394  0.40629  1.0000
  C   C1149     1.0  0.43641  0.95711  0.28225  1.0000
  C   C1150     1.0  0.28384  0.74247  0.29942  1.0000
  H   H915      1.0  0.24388  0.72586  0.30818  1.0000
  C   C1151     1.0  0.26195  0.74363  0.30602  1.0000
  C   C1152     1.0  0.24963  0.81055  0.34646  1.0000
  C   C1153     1.0  0.30735  0.76513  0.29596  1.0000
  C   C1154     1.0  0.30915  0.78899  0.29959  1.0000
  H   H916      1.0  0.26048  0.84174  0.37108  1.0000
  C   C1155     1.0  0.23953  0.78395  0.34364  1.0000
  Fe  Fe83      1.0  0.34385  0.85309  0.45281  1.0000
  C   C1156     1.0  0.26347  0.76757  0.30900  1.0000
  C   C1157     1.0  0.25274  0.82121  0.36897  1.0000
  C   C1158     1.0  0.28738  0.79023  0.30635  1.0000
  P   P39       1.0  0.23508  0.76994  0.31456  1.0000
  H   H917      1.0  0.32735  0.80659  0.29679  1.0000
  H   H918      1.0  0.28902  0.80890  0.30875  1.0000
  H   H919      1.0  0.25539  0.82322  0.33140  1.0000
  C   C1159     1.0  0.40706  0.94878  0.40678  1.0000
  C   C1160     1.0  0.23343  0.79050  0.29230  1.0000
  H   H920      1.0  0.20709  0.79810  0.31205  1.0000
  H   H921      1.0  0.10786  0.76593  0.48745  1.0000
  C   C1161     1.0  0.24259  0.75107  0.47619  1.0000
  C   C1162     1.0  0.24598  0.79400  0.27057  1.0000
  C   C1163     1.0  0.21778  0.80145  0.29582  1.0000
  H   H922      1.0  0.16970  0.80277  0.44089  1.0000
  H   H923      1.0  0.37517  0.92269  0.38482  1.0000
  H   H924      1.0  0.44413  0.94473  0.28672  1.0000
  H   H925      1.0  0.17945  0.67072  0.38570  1.0000
  C   C1164     1.0  0.25193  0.71461  0.40242  1.0000
  P   P40       1.0  0.28613  0.73191  0.40917  1.0000
  H   H926      1.0  0.25758  0.72265  0.36499  1.0000
  C   C1165     1.0  0.23347  0.70077  0.41978  1.0000
  H   H927      1.0  0.21517  0.73257  0.27624  1.0000
  C   C1166     1.0  0.20093  0.72546  0.29018  1.0000
  H   H928      1.0  0.25716  0.78475  0.26680  1.0000
  H   H929      1.0  0.44007  0.82643  0.45462  1.0000
  H   H930      1.0  0.28241  0.72402  0.29616  1.0000
  H   H931      1.0  0.31554  0.78433  0.43028  1.0000
  C   C1167     1.0  0.24377  0.71261  0.37886  1.0000
  H   H932      1.0  0.23884  0.70165  0.43803  1.0000
  C   C1168     1.0  0.29342  0.74371  0.43923  1.0000
  C   C1169     1.0  0.28646  0.72619  0.45792  1.0000
  C   C1170     1.0  0.20749  0.68512  0.41369  1.0000
  H   H933      1.0  0.05144  0.96786  0.48184  1.0000
  C   C1171     1.0  0.30853  0.77019  0.44412  1.0000
  H   H934      1.0  0.27579  0.70564  0.45466  1.0000
  C   C1172     1.0  0.43329  0.96990  0.36473  1.0000
  C   C1173     1.0  0.21772  0.69708  0.37289  1.0000
  C   C1174     1.0  0.16287  0.70725  0.32494  1.0000
  C   C1175     1.0  0.32353  0.79955  0.35694  1.0000
  H   H935      1.0  0.33229  0.81556  0.34481  1.0000
  C   C1176     1.0  0.43508  0.95662  0.45679  1.0000
  C   C1177     1.0  0.08388  0.68660  0.45062  1.0000
  C   C1178     1.0  0.12924  0.70926  0.44071  1.0000
  H   H936      1.0  0.14912  0.72286  0.44499  1.0000
  C   C1179     1.0  0.10941  0.70487  0.45650  1.0000
  C   C1180     1.0  0.17774  0.70240  0.28678  1.0000
  H   H937      1.0  0.32406  0.76424  0.29001  1.0000
  S   S162      1.0  0.35280  0.89230  0.44070  1.0000
  C   C1181     1.0  0.44859  0.72778  0.47214  1.0000
  H   H938      1.0  0.14086  0.67535  0.30147  1.0000
  H   H939      1.0  0.26107  0.76421  0.48397  1.0000
  C   C1182     1.0  0.35160  0.87144  0.35834  1.0000
  P   P41       1.0  0.41927  0.77626  0.47841  1.0000
  C   C1183     1.0  0.29896  0.71056  0.40557  1.0000
  H   H940      1.0  0.21156  0.69541  0.35470  1.0000
  C   C1184     1.0  0.19959  0.68323  0.39030  1.0000
  C   C1185     1.0  0.35358  0.86447  0.31611  1.0000
  C   C1186     1.0  0.14644  0.76809  0.46073  1.0000
  H   H941      1.0  0.12970  0.76189  0.44952  1.0000
  H   H942      1.0  0.09386  0.66709  0.39729  1.0000
  H   H943      1.0  0.26726  0.68223  0.38430  1.0000
  H   H944      1.0  0.38269  0.86943  0.34127  1.0000
  C   C1187     1.0  0.41133  0.70670  0.49750  1.0000
  H   H945      1.0  0.36014  0.87461  0.37570  1.0000
  H   H946      1.0  0.20382  0.82532  0.28125  1.0000
  C   C1188     1.0  0.24408  0.80942  0.25323  1.0000
  H   H947      1.0  0.33310  0.73424  0.42648  1.0000
  H   H948      1.0  0.41555  0.75229  0.43212  1.0000
  H   H949      1.0  0.44249  0.90646  0.47461  1.0000
  C   C1189     1.0  0.28560  0.68766  0.39251  1.0000
  C   C1190     1.0  0.21579  0.81677  0.27836  1.0000
  C   C1191     1.0  0.31540  0.77893  0.46726  1.0000
  C   C1192     1.0  0.36435  0.86853  0.33879  1.0000
  C   C1193     1.0  0.38804  0.84559  0.48353  1.0000
  C   C1194     1.0  0.31973  0.76027  0.37256  1.0000
  H   H950      1.0  0.23923  0.71747  0.49355  1.0000
  C   C1195     1.0  0.39361  0.76320  0.41007  1.0000
  H   H951      1.0  0.24746  0.64826  0.25225  1.0000
  H   H952      1.0  0.43615  0.69145  0.48942  1.0000
  H   H953      1.0  0.39821  0.93022  0.29474  1.0000
  H   H954      1.0  0.35603  0.96568  0.46362  1.0000
  C   C1196     1.0  0.41288  0.95078  0.46985  1.0000
  H   H955      1.0  0.05864  0.65883  0.42509  1.0000
  C   C1197     1.0  0.29338  0.73501  0.48108  1.0000
  C   C1198     1.0  0.33092  0.78087  0.35677  1.0000
  S   S163      1.0  0.33583  0.92156  0.49679  1.0000
  C   C1199     1.0  0.38026  0.77668  0.40850  1.0000
  H   H956      1.0  0.38749  0.79868  0.46468  1.0000
  C   C1200     1.0  0.39491  0.93863  0.38520  1.0000
  H   H957      1.0  0.17409  0.69184  0.27040  1.0000
  H   H958      1.0  0.37206  0.77786  0.39188  1.0000
  C   C1201     1.0  0.16903  0.79118  0.45573  1.0000
  C   C1202     1.0  0.15886  0.69316  0.30423  1.0000
  H   H959      1.0  0.45721  0.76445  0.45832  1.0000
  H   H960      1.0  0.35075  0.70514  0.42221  1.0000
  C   C1203     1.0  0.44563  0.94042  0.45858  1.0000
  H   H961      1.0  0.19344  0.67417  0.42717  1.0000
  H   H962      1.0  0.14781  0.70025  0.33814  1.0000
  C   C1204     1.0  0.38894  0.78822  0.44971  1.0000
  C   C1205     1.0  0.32258  0.71679  0.41616  1.0000
  H   H963      1.0  0.46501  0.72814  0.46380  1.0000
  C   C1206     1.0  0.37778  0.78902  0.42835  1.0000
  C   C1207     1.0  0.43444  0.91904  0.47342  1.0000
  C   C1208     1.0  0.41054  0.94897  0.28687  1.0000
  H   H964      1.0  0.36373  0.74951  0.48764  1.0000
  C   C1209     1.0  0.31921  0.67754  0.40081  1.0000
  C   C1210     1.0  0.45531  0.82648  0.46485  1.0000
  C   C1211     1.0  0.19105  0.79901  0.46952  1.0000
  H   H965      1.0  0.14048  0.68863  0.48125  1.0000
  C   C1212     1.0  0.33265  0.70033  0.41378  1.0000
  H   H966      1.0  0.32562  0.74595  0.37204  1.0000
  H   H967      1.0  0.34533  0.78243  0.34433  1.0000
  S   S164      1.0  0.37118  0.86231  0.29205  1.0000
  C   C1213     1.0  0.41384  0.85216  0.48629  1.0000
  C   C1214     1.0  0.43229  0.70704  0.48643  1.0000
  H   H968      1.0  0.36771  0.79979  0.42711  1.0000
  H   H969      1.0  0.03835  0.64483  0.28286  1.0000
  C   C1215     1.0  0.44414  0.74835  0.46918  1.0000
  H   H970      1.0  0.46224  0.94390  0.44834  1.0000
  C   C1216     1.0  0.40251  0.77481  0.45146  1.0000
  S   S165      1.0  0.37567  0.84356  0.45513  1.0000
  H   H971      1.0  0.97476  0.93561  0.49290  1.0000
  C   C1217     1.0  0.42345  0.74848  0.48072  1.0000
  C   C1218     1.0  0.30767  0.76140  0.48575  1.0000
  C   C1219     1.0  0.40806  0.94904  0.36418  1.0000
  H   H972      1.0  0.42580  0.85568  0.47094  1.0000
  C   C1220     1.0  0.40480  0.76233  0.43143  1.0000
  C   C1221     1.0  0.22908  0.82090  0.25713  1.0000
  H   H973      1.0  0.20885  0.81648  0.46527  1.0000
  H   H974      1.0  0.06821  0.68203  0.46262  1.0000
  H   H975      1.0  0.32671  0.79941  0.47082  1.0000
  H   H976      1.0  0.39568  0.75379  0.39461  1.0000
  C   C1222     1.0  0.14567  0.75277  0.47971  1.0000
  H   H977      1.0  0.28730  0.72134  0.49541  1.0000
  C   C1223     1.0  0.19045  0.78388  0.48840  1.0000
  H   H978      1.0  0.40347  0.96209  0.46805  1.0000
  C   C1224     1.0  0.40062  0.96504  0.28149  1.0000
  C   C1225     1.0  0.23004  0.72449  0.48170  1.0000
  C   C1226     1.0  0.45071  0.80503  0.47836  1.0000
  H   H979      1.0  0.39640  0.94056  0.42281  1.0000
  C   C1227     1.0  0.40204  0.92962  0.48497  1.0000
  Fe  Fe84      1.0  0.35586  0.84489  0.25585  1.0000
  H   H980      1.0  0.38491  0.92517  0.49496  1.0000
  C   C1228     1.0  0.09047  0.72512  0.49479  1.0000
  H   H981      1.0  0.32689  0.66465  0.39915  1.0000
  C   C1229     1.0  0.41270  0.91367  0.48659  1.0000
  C   C1230     1.0  0.43255  0.96940  0.40755  1.0000
  C   C1231     1.0  0.09132  0.74894  0.49434  1.0000
  P   P42       1.0  0.11723  0.72174  0.48442  1.0000
  C   C1232     1.0  0.29572  0.67123  0.39018  1.0000
  H   H982      1.0  0.38065  0.95885  0.28542  1.0000
  H   H983      1.0  0.40384  0.89686  0.49771  1.0000
  H   H984      1.0  0.28517  0.65343  0.38030  1.0000
  H   H985      1.0  0.10084  0.96167  0.49652  1.0000
  C   C1233     1.0  0.16788  0.76086  0.49354  1.0000
  C   C1234     1.0  0.36114  0.97327  0.48132  1.0000
  C   C1235     1.0  0.40691  0.72732  0.49474  1.0000
  H   H986      1.0  0.39856  0.94097  0.34751  1.0000
  H   H987      1.0  0.20786  0.78963  0.49854  1.0000
  Fe  Fe85      1.0  0.00614  0.84344  0.56125  1.0000
  H   H988      1.0  0.98846  0.86655  0.72029  1.0000
  S   S166      1.0  0.01202  0.80892  0.55286  1.0000
  Fe  Fe86      1.0  0.02177  0.90129  0.54925  1.0000
  S   S167      1.0  0.99455  0.90066  0.57683  1.0000
  S   S168      1.0  0.04047  0.93586  0.52299  1.0000
  Fe  Fe87      1.0  0.00865  0.88002  0.60007  1.0000
  S   S169      1.0  0.01806  0.89046  0.63869  1.0000
  S   S170      1.0  0.03805  0.88281  0.57351  1.0000
  S   S171      1.0  0.99250  0.86197  0.53460  1.0000
  C   C1236     1.0  0.99230  0.77481  0.55736  1.0000
  C   C1237     1.0  0.98524  0.73110  0.55067  1.0000
  C   C1238     1.0  0.00033  0.75817  0.54802  1.0000
  H   H989      1.0  0.99165  0.71872  0.54312  1.0000
  H   H990      1.0  0.01830  0.76628  0.53843  1.0000
  C   C1239     1.0  0.99418  0.87395  0.66043  1.0000
  C   C1240     1.0  0.00135  0.87668  0.68428  1.0000
  S   S172      1.0  0.97571  0.65142  0.59113  1.0000
  H   H991      1.0  0.02144  0.88846  0.68911  1.0000
  H   H992      1.0  0.07541  0.64590  0.54446  1.0000
  C   C1241     1.0  0.04672  0.85318  0.64582  1.0000
  C   C1242     1.0  0.04830  0.83476  0.60843  1.0000
  C   C1243     1.0  0.03282  0.81003  0.61748  1.0000
  C   C1244     1.0  0.02433  0.80660  0.64095  1.0000
  C   C1245     1.0  0.03114  0.82852  0.65491  1.0000
  P   P43       1.0  0.00235  0.77490  0.65251  1.0000
  C   C1246     1.0  0.00886  0.75057  0.64056  1.0000
  C   C1247     1.0  0.00437  0.74368  0.61664  1.0000
  C   C1248     1.0  0.00939  0.72500  0.60742  1.0000
  C   C1249     1.0  0.01864  0.71274  0.62198  1.0000
  C   C1250     1.0  0.02276  0.71904  0.64583  1.0000
  C   C1251     1.0  0.01785  0.73776  0.65515  1.0000
  C   C1252     1.0  0.00705  0.77673  0.68407  1.0000
  C   C1253     1.0  0.03204  0.78669  0.69328  1.0000
  C   C1254     1.0  0.03603  0.78833  0.71760  1.0000
  Fe  Fe88      1.0  0.44610  0.65257  0.55378  1.0000
  C   C1255     1.0  0.12424  0.70413  0.50610  1.0000
  H   H993      1.0  0.02731  0.79394  0.60578  1.0000
  H   H994      1.0  0.02396  0.82676  0.67269  1.0000
  H   H995      1.0  0.99654  0.75236  0.60509  1.0000
  H   H996      1.0  0.00578  0.71968  0.58900  1.0000
  H   H997      1.0  0.02238  0.69817  0.61478  1.0000
  H   H998      1.0  0.02971  0.70929  0.65711  1.0000
  H   H999      1.0  0.02080  0.74167  0.67380  1.0000
  H   H1000     1.0  0.04839  0.79307  0.68158  1.0000
  H   H1001     1.0  0.05531  0.79582  0.72461  1.0000
  C   C1256     1.0  0.98628  0.67826  0.69777  1.0000
  H   H1002     1.0  0.03347  0.73146  0.52005  1.0000
  C   C1257     1.0  0.01222  0.68749  0.70324  1.0000
  H   H1003     1.0  0.00060  0.94192  0.60886  1.0000
  H   H1004     1.0  0.05137  0.86995  0.65651  1.0000
  C   C1258     1.0  0.05530  0.85632  0.62260  1.0000
  H   H1005     1.0  0.05427  0.83718  0.59015  1.0000
  H   H1006     1.0  0.06680  0.87549  0.61544  1.0000
  C   C1259     1.0  0.11940  0.70585  0.53005  1.0000
  S   S173      1.0  0.03054  0.64727  0.55979  1.0000
  H   H1007     1.0  0.11075  0.71704  0.53573  1.0000
  H   H1008     1.0  0.02277  0.67959  0.69444  1.0000
  C   C1260     1.0  0.04840  0.70601  0.51361  1.0000
  C   C1261     1.0  0.45406  0.94882  0.74718  1.0000
  H   H1009     1.0  0.97467  0.71432  0.73714  1.0000
  C   C1262     1.0  0.45008  0.78159  0.60952  1.0000
  H   H1010     1.0  0.97419  0.76471  0.73590  1.0000
  C   C1263     1.0  0.02439  0.70621  0.72067  1.0000
  C   C1264     1.0  0.12576  0.69312  0.54702  1.0000
  C   C1265     1.0  0.97029  0.91632  0.74286  1.0000
  C   C1266     1.0  0.37267  0.84120  0.50340  1.0000
  C   C1267     1.0  0.35901  0.76130  0.52207  1.0000
  C   C1268     1.0  0.99295  0.97287  0.61494  1.0000
  H   H1011     1.0  0.39278  0.66834  0.62957  1.0000
  H   H1012     1.0  0.43465  0.93244  0.71405  1.0000
  C   C1269     1.0  0.40129  0.69642  0.65703  1.0000
  H   H1013     1.0  0.45722  0.67252  0.62672  1.0000
  C   C1270     1.0  0.98619  0.76872  0.69957  1.0000
  C   C1271     1.0  0.45377  0.85443  0.69409  1.0000
  H   H1014     1.0  0.96686  0.76131  0.69297  1.0000
  H   H1015     1.0  0.39783  0.89465  0.73227  1.0000
  C   C1272     1.0  0.99029  0.77064  0.72392  1.0000
  C   C1273     1.0  0.01072  0.71600  0.73247  1.0000
  C   C1274     1.0  0.06885  0.70375  0.50455  1.0000
  C   C1275     1.0  0.42553  0.76402  0.73570  1.0000
  C   C1276     1.0  0.96812  0.85874  0.65443  1.0000
  H   H1016     1.0  0.35700  0.87502  0.52455  1.0000
  C   C1277     1.0  0.45064  0.77539  0.63324  1.0000
  C   C1278     1.0  0.14274  0.67759  0.51657  1.0000
  C   C1279     1.0  0.41293  0.90916  0.74327  1.0000
  C   C1280     1.0  0.36083  0.96686  0.52315  1.0000
  H   H1017     1.0  0.44458  0.86111  0.51076  1.0000
  H   H1018     1.0  0.45563  0.67455  0.70684  1.0000
  H   H1019     1.0  0.39099  0.72684  0.50411  1.0000
  H   H1020     1.0  0.99346  0.95231  0.53229  1.0000
  H   H1021     1.0  0.37136  0.84080  0.54133  1.0000
  H   H1022     1.0  0.44496  0.89079  0.64737  1.0000
  H   H1023     1.0  0.12154  0.69416  0.56539  1.0000
  H   H1024     1.0  0.46033  0.85286  0.63434  1.0000
  C   C1281     1.0  0.40060  0.77666  0.50319  1.0000
  C   C1282     1.0  0.01865  0.97167  0.58267  1.0000
  C   C1283     1.0  0.39817  0.67342  0.64786  1.0000
  S   S174      1.0  0.97837  0.84033  0.58920  1.0000
  H   H1025     1.0  0.04425  0.71270  0.72539  1.0000
  C   C1284     1.0  0.13742  0.67898  0.54027  1.0000
  C   C1285     1.0  0.40968  0.66359  0.68570  1.0000
  C   C1286     1.0  0.40863  0.70307  0.68056  1.0000
  H   H1026     1.0  0.16821  0.74921  0.50789  1.0000
  C   C1287     1.0  0.43058  0.74519  0.72693  1.0000
  H   H1027     1.0  0.35531  0.95411  0.53807  1.0000
  C   C1288     1.0  0.40212  0.65691  0.66227  1.0000
  H   H1028     1.0  0.42834  0.76188  0.66528  1.0000
  S   S175      1.0  0.44271  0.68857  0.54426  1.0000
  H   H1029     1.0  0.36007  0.77689  0.55656  1.0000
  C   C1289     1.0  0.40900  0.66765  0.74373  1.0000
  H   H1030     1.0  0.43493  0.78317  0.72828  1.0000
  H   H1031     1.0  0.97688  0.80529  0.65897  1.0000
  C   C1290     1.0  0.05977  0.97023  0.51897  1.0000
  H   H1032     1.0  0.14241  0.66912  0.55337  1.0000
  H   H1033     1.0  0.32370  0.88336  0.54100  1.0000
  H   H1034     1.0  0.07150  0.76956  0.50302  1.0000
  H   H1035     1.0  0.98323  0.91041  0.73550  1.0000
  C   C1291     1.0  0.44725  0.84704  0.67045  1.0000
  C   C1292     1.0  0.45869  0.70722  0.72604  1.0000
  C   C1293     1.0  0.46162  0.69209  0.63022  1.0000
  C   C1294     1.0  0.38777  0.90402  0.54571  1.0000
  C   C1295     1.0  0.41267  0.90868  0.60965  1.0000
  H   H1036     1.0  0.39809  0.70911  0.64580  1.0000
  C   C1296     1.0  0.01519  0.78044  0.73289  1.0000
  C   C1297     1.0  0.44890  0.94687  0.54715  1.0000
  H   H1037     1.0  0.46493  0.80802  0.67293  1.0000
  H   H1038     1.0  0.39000  0.76143  0.64875  1.0000
  C   C1298     1.0  0.43434  0.97417  0.58148  1.0000
  C   C1299     1.0  0.42811  0.78070  0.60011  1.0000
  C   C1300     1.0  0.42858  0.76741  0.64714  1.0000
  C   C1301     1.0  0.39482  0.92382  0.56226  1.0000
  H   H1039     1.0  0.38023  0.94191  0.58601  1.0000
  H   H1040     1.0  0.39913  0.69082  0.50902  1.0000
  P   P44       1.0  0.42798  0.94282  0.57174  1.0000
  C   C1302     1.0  0.98268  0.86429  0.70199  1.0000
  C   C1303     1.0  0.42453  0.85534  0.50886  1.0000
  C   C1304     1.0  0.38327  0.84405  0.52597  1.0000
  C   C1305     1.0  0.00376  0.96037  0.60272  1.0000
  H   H1041     1.0  0.42800  0.78568  0.58184  1.0000
  H   H1042     1.0  0.41273  0.65046  0.69641  1.0000
  C   C1306     1.0  0.40675  0.76694  0.63777  1.0000
  C   C1307     1.0  0.37555  0.92754  0.57244  1.0000
  C   C1308     1.0  0.43408  0.93039  0.73299  1.0000
  H   H1043     1.0  0.11154  0.96320  0.53868  1.0000
  H   H1044     1.0  0.33524  0.91625  0.57226  1.0000
  H   H1045     1.0  0.44756  0.91057  0.55266  1.0000
  H   H1046     1.0  0.40194  0.89972  0.53868  1.0000
  C   C1309     1.0  0.41796  0.72023  0.73645  1.0000
  C   C1310     1.0  0.34993  0.91279  0.56496  1.0000
  C   C1311     1.0  0.44177  0.90081  0.63309  1.0000
  C   C1312     1.0  0.40654  0.77366  0.61427  1.0000
  H   H1047     1.0  0.42827  0.72807  0.54326  1.0000
  C   C1313     1.0  0.43337  0.92629  0.59571  1.0000
  C   C1314     1.0  0.37130  0.77652  0.54178  1.0000
  H   H1048     1.0  0.39320  0.90448  0.60614  1.0000
  H   H1049     1.0  0.02681  0.96179  0.57303  1.0000
  H   H1050     1.0  0.44445  0.75012  0.71286  1.0000
  C   C1315     1.0  0.44878  0.73776  0.54656  1.0000
  H   H1051     1.0  0.42774  0.83244  0.66598  1.0000
  H   H1052     1.0  0.41054  0.72077  0.68716  1.0000
  H   H1053     1.0  0.98131  0.96398  0.63040  1.0000
  H   H1054     1.0  0.43356  0.80382  0.52398  1.0000
  C   C1316     1.0  0.41690  0.89604  0.62827  1.0000
  C   C1317     1.0  0.36221  0.88956  0.53804  1.0000
  C   C1318     1.0  0.39814  0.79152  0.54237  1.0000
  S   S176      1.0  0.42220  0.85593  0.55727  1.0000
  H   H1055     1.0  0.02006  0.73017  0.74632  1.0000
  C   C1319     1.0  0.34335  0.89410  0.54749  1.0000
  H   H1056     1.0  0.33821  0.74949  0.52172  1.0000
  C   C1320     1.0  0.41332  0.68690  0.69506  1.0000
  H   H1057     1.0  0.40760  0.80355  0.55754  1.0000
  C   C1321     1.0  0.40930  0.85146  0.52875  1.0000
  C   C1322     1.0  0.98474  0.70675  0.72720  1.0000
  H   H1058     1.0  0.38969  0.77341  0.60699  1.0000
  H   H1059     1.0  0.40084  0.88224  0.63878  1.0000
  C   C1323     1.0  0.45835  0.93115  0.60085  1.0000
  C   C1324     1.0  0.41280  0.79170  0.52317  1.0000
  C   C1325     1.0  0.45542  0.92792  0.54221  1.0000
  S   S177      1.0  0.42976  0.83978  0.71611  1.0000
  Fe  Fe89      1.0  0.96674  0.86110  0.56362  1.0000
  C   C1326     1.0  0.46245  0.91824  0.61933  1.0000
  P   P45       1.0  0.42443  0.69577  0.72520  1.0000
  H   H1060     1.0  0.15212  0.66692  0.51144  1.0000
  C   C1327     1.0  0.46102  0.72297  0.54884  1.0000
  C   C1328     1.0  0.45883  0.96882  0.53277  1.0000
  C   C1329     1.0  0.46202  0.70766  0.61188  1.0000
  C   C1330     1.0  0.46575  0.85853  0.65247  1.0000
  H   H1061     1.0  0.45797  0.70012  0.59408  1.0000
  H   H1062     1.0  0.45299  0.77586  0.54618  1.0000
  C   C1331     1.0  0.07074  0.75114  0.50331  1.0000
  C   C1332     1.0  0.35408  0.95617  0.50030  1.0000
  C   C1333     1.0  0.97220  0.68763  0.70988  1.0000
  C   C1334     1.0  0.96907  0.76383  0.56990  1.0000
  H   H1063     1.0  0.37351  0.64847  0.72355  1.0000
  H   H1064     1.0  0.03199  0.68938  0.52141  1.0000
  H   H1065     1.0  0.35262  0.83559  0.50142  1.0000
  C   C1335     1.0  0.46279  0.76501  0.54839  1.0000
  C   C1336     1.0  0.97288  0.94396  0.52949  1.0000
  C   C1337     1.0  0.38417  0.64728  0.73842  1.0000
  H   H1066     1.0  0.97707  0.66320  0.68461  1.0000
  H   H1067     1.0  0.31265  0.76837  0.50368  1.0000
  H   H1068     1.0  0.46569  0.68904  0.66721  1.0000
  H   H1069     1.0  0.06800  0.68535  0.50544  1.0000
  Fe  Fe90      1.0  0.46375  0.86622  0.56015  1.0000
  C   C1338     1.0  0.04930  0.72970  0.51294  1.0000
  C   C1339     1.0  0.37356  0.76140  0.50280  1.0000
  C   C1340     1.0  0.97017  0.76850  0.64564  1.0000
  C   C1341     1.0  0.13610  0.68999  0.49948  1.0000
  S   S178      1.0  0.04221  0.66192  0.78062  1.0000
  Fe  Fe91      1.0  0.01047  0.67013  0.79164  1.0000
  S   S179      1.0  0.01784  0.71177  0.79576  1.0000
  S   S180      1.0  0.06500  0.93604  0.89562  1.0000
  Fe  Fe92      1.0  0.98616  0.85895  0.79162  1.0000
  S   S181      1.0  0.02724  0.89135  0.79366  1.0000
  C   C1342     1.0  0.05524  0.92352  0.86728  1.0000
  C   C1343     1.0  0.07013  0.93629  0.84762  1.0000
  C   C1344     1.0  0.06161  0.92605  0.82503  1.0000
  C   C1345     1.0  0.03809  0.90319  0.82210  1.0000
  C   C1346     1.0  0.02350  0.89023  0.84184  1.0000
  C   C1347     1.0  0.03205  0.90037  0.86440  1.0000
  H   H1070     1.0  0.08832  0.95387  0.84979  1.0000
  H   H1071     1.0  0.07312  0.93597  0.80980  1.0000
  H   H1072     1.0  0.00561  0.87246  0.83984  1.0000
  H   H1073     1.0  0.02059  0.89038  0.87961  1.0000
  C   C1348     1.0  0.99649  0.72464  0.79530  1.0000
  C   C1349     1.0  0.99090  0.76260  0.79350  1.0000
  C   C1350     1.0  0.00675  0.75133  0.79235  1.0000
  H   H1074     1.0  0.99929  0.78319  0.79162  1.0000
  H   H1075     1.0  0.02724  0.76345  0.78945  1.0000
  H   H1076     1.0  0.19372  0.94761  0.88359  1.0000
  H   H1077     1.0  0.05095  0.73549  0.88481  1.0000
  C   C1351     1.0  0.06101  0.77455  0.89308  1.0000
  C   C1352     1.0  0.04274  0.75340  0.85592  1.0000
  C   C1353     1.0  0.04360  0.77575  0.84775  1.0000
  C   C1354     1.0  0.05399  0.79798  0.86183  1.0000
  C   C1355     1.0  0.06189  0.79695  0.88488  1.0000
  P   P46       1.0  0.05378  0.82635  0.85166  1.0000
  C   C1356     1.0  0.02368  0.82266  0.86206  1.0000
  C   C1357     1.0  0.08181  0.85572  0.86148  1.0000
  C   C1358     1.0  0.10472  0.85604  0.86754  1.0000
  C   C1359     1.0  0.12637  0.87894  0.87499  1.0000
  C   C1360     1.0  0.12543  0.90172  0.87610  1.0000
  C   C1361     1.0  0.10303  0.90172  0.86930  1.0000
  C   C1362     1.0  0.08146  0.87892  0.86163  1.0000
  C   C1363     1.0  0.02281  0.83692  0.88133  1.0000
  C   C1364     1.0  0.32884  0.97119  0.81104  1.0000
  C   C1365     1.0  0.00053  0.80410  0.85153  1.0000
  C   C1366     1.0  0.05498  0.82837  0.81996  1.0000
  H   H1078     1.0  0.03595  0.77555  0.83052  1.0000
  H   H1079     1.0  0.06862  0.81340  0.89654  1.0000
  H   H1080     1.0  0.10603  0.83875  0.86636  1.0000
  H   H1081     1.0  0.14393  0.87910  0.87986  1.0000
  C   C1367     1.0  0.35546  0.81437  0.92032  1.0000
  H   H1082     1.0  0.06451  0.87942  0.85586  1.0000
  H   H1083     1.0  0.04025  0.85077  0.89031  1.0000
  H   H1084     1.0  0.00067  0.79253  0.83693  1.0000
  C   C1368     1.0  0.97690  0.80037  0.85967  1.0000
  H   H1085     1.0  0.03070  0.84560  0.81742  1.0000
  C   C1369     1.0  0.05163  0.75285  0.87853  1.0000
  H   H1086     1.0  0.25560  0.78862  0.97562  1.0000
  H   H1087     1.0  0.06743  0.77395  0.91077  1.0000
  C   C1370     1.0  0.04192  0.83887  0.80795  1.0000
  H   H1088     1.0  0.41049  0.94979  0.91837  1.0000
  S   S182      1.0  0.24688  0.96029  0.88618  1.0000
  C   C1371     1.0  0.43765  0.84806  0.87593  1.0000
  S   S183      1.0  0.28941  0.93246  0.91065  1.0000
  H   H1089     1.0  0.26855  0.87239  0.84615  1.0000
  H   H1090     1.0  0.18382  0.97082  0.79502  1.0000
  C   C1372     1.0  0.01274  0.95806  0.94315  1.0000
  S   S184      1.0  0.98305  0.64486  0.76357  1.0000
  H   H1091     1.0  0.99699  0.91473  0.89848  1.0000
  C   C1373     1.0  0.99483  0.92338  0.91447  1.0000
  C   C1374     1.0  0.27571  0.85932  0.84944  1.0000
  C   C1375     1.0  0.01507  0.94695  0.92229  1.0000
  H   H1092     1.0  0.44069  0.81403  0.88002  1.0000
  S   S185      1.0  0.32038  0.97571  0.87186  1.0000
  H   H1093     1.0  0.36014  0.64550  0.80824  1.0000
  H   H1094     1.0  0.22069  0.75648  0.90871  1.0000
  H   H1095     1.0  0.21987  0.75421  0.95229  1.0000
  C   C1376     1.0  0.25597  0.78963  0.95657  1.0000
  C   C1377     1.0  0.23584  0.77025  0.94345  1.0000
  Fe  Fe93      1.0  0.44012  0.84665  0.75499  1.0000
  C   C1378     1.0  0.42484  0.94426  0.91488  1.0000
  C   C1379     1.0  0.23630  0.77154  0.91889  1.0000
  C   C1380     1.0  0.28394  0.85766  0.87207  1.0000
  C   C1381     1.0  0.27657  0.81033  0.94515  1.0000
  C   C1382     1.0  0.25685  0.79222  0.90740  1.0000
  C   C1383     1.0  0.27714  0.81184  0.92046  1.0000
  H   H1096     1.0  0.25675  0.79276  0.88838  1.0000
  C   C1384     1.0  0.96991  0.70932  0.79875  1.0000
  S   S186      1.0  0.45864  0.85387  0.82065  1.0000
  C   C1385     1.0  0.24052  0.96946  0.97354  1.0000
  H   H1097     1.0  0.31387  0.93141  0.82024  1.0000
  C   C1386     1.0  0.43403  0.97455  0.82316  1.0000
  H   H1098     1.0  0.43486  0.89366  0.92133  1.0000
  Fe  Fe94      1.0  0.42768  0.86028  0.80468  1.0000
  C   C1387     1.0  0.46287  0.72540  0.80606  1.0000
  H   H1099     1.0  0.28280  0.86945  0.88594  1.0000
  H   H1100     1.0  0.08119  0.81362  0.81615  1.0000
  H   H1101     1.0  0.03501  0.73645  0.84469  1.0000
  C   C1388     1.0  0.27963  0.96269  0.82169  1.0000
  H   H1102     1.0  0.35746  0.80208  0.93306  1.0000
  C   C1389     1.0  0.07187  0.82336  0.78265  1.0000
  S   S187      1.0  0.45306  0.88372  0.77453  1.0000
  C   C1390     1.0  0.97195  0.91098  0.92733  1.0000
  C   C1391     1.0  0.99914  0.83339  0.88923  1.0000
  C   C1392     1.0  0.20502  0.96815  0.88656  1.0000
  C   C1393     1.0  0.35029  0.84597  0.88735  1.0000
  C   C1394     1.0  0.28500  0.94261  0.82361  1.0000
  Fe  Fe95      1.0  0.28700  0.96625  0.89611  1.0000
  C   C1395     1.0  0.98996  0.94552  0.95641  1.0000
  H   H1103     1.0  0.27128  0.84628  0.81349  1.0000
  C   C1396     1.0  0.27740  0.84474  0.83105  1.0000
  C   C1397     1.0  0.98473  0.93779  0.81907  1.0000
  C   C1398     1.0  0.04366  0.84133  0.78346  1.0000
  C   C1399     1.0  0.39630  0.73381  0.76434  1.0000
  H   H1104     1.0  0.99863  0.84487  0.90374  1.0000
  H   H1105     1.0  0.38466  0.92982  0.88058  1.0000
  S   S188      1.0  0.35167  0.96994  0.91775  1.0000
  H   H1106     1.0  0.14209  0.91943  0.88206  1.0000
  H   H1107     1.0  0.17191  0.97368  0.88467  1.0000
  H   H1108     1.0  0.31963  0.80778  0.93451  1.0000
  C   C1400     1.0  0.37439  0.82691  0.90319  1.0000
  H   H1109     1.0  0.29208  0.82513  0.95559  1.0000
  C   C1401     1.0  0.44805  0.96172  0.90413  1.0000
  C   C1402     1.0  0.44898  0.83424  0.88443  1.0000
  C   C1403     1.0  0.42190  0.66595  0.76363  1.0000
  H   H1110     1.0  0.99237  0.91313  0.84090  1.0000
  S   S189      1.0  0.43961  0.77924  0.80850  1.0000
  C   C1404     1.0  0.36689  0.88310  0.82731  1.0000
  H   H1111     1.0  0.36694  0.92562  0.93519  1.0000
  S   S190      1.0  0.33278  0.91768  0.86389  1.0000
  C   C1405     1.0  0.39646  0.90805  0.85826  1.0000
  H   H1112     1.0  0.99934  0.94561  0.76483  1.0000
  H   H1113     1.0  0.34798  0.97448  0.80737  1.0000
  C   C1406     1.0  0.43076  0.92521  0.78193  1.0000
  C   C1407     1.0  0.44805  0.73773  0.80828  1.0000
  C   C1408     1.0  0.34985  0.89160  0.83505  1.0000
  Fe  Fe96      1.0  0.32543  0.94446  0.88876  1.0000
  H   H1114     1.0  0.06003  0.83579  0.75186  1.0000
  C   C1409     1.0  0.24383  0.95098  0.96153  1.0000
  S   S191      1.0  0.41212  0.82294  0.78375  1.0000
  H   H1115     1.0  0.36161  0.87004  0.81251  1.0000
  C   C1410     1.0  0.05858  0.83356  0.77081  1.0000
  H   H1116     1.0  0.27529  0.85636  0.93504  1.0000
  H   H1117     1.0  0.28936  0.89547  0.95923  1.0000
  C   C1411     1.0  0.29549  0.87100  0.93531  1.0000
  H   H1118     1.0  0.38372  0.72980  0.77935  1.0000
  C   C1412     1.0  0.96953  0.92194  0.94824  1.0000
  H   H1119     1.0  0.42944  0.92310  0.80085  1.0000
  H   H1120     1.0  0.40350  0.66004  0.82507  1.0000
  H   H1121     1.0  0.02893  0.97608  0.94886  1.0000
  C   C1413     1.0  0.07033  0.82103  0.80718  1.0000
  S   S192      1.0  0.41234  0.88001  0.83066  1.0000
  Fe  Fe97      1.0  0.31563  0.96055  0.93828  1.0000
  H   H1122     1.0  0.41452  0.91460  0.86743  1.0000
  H   H1123     1.0  0.10237  0.91943  0.87003  1.0000
  C   C1414     1.0  0.01731  0.95317  0.84967  1.0000
  H   H1124     1.0  0.27030  0.92395  0.82993  1.0000
  H   H1125     1.0  0.23815  0.91269  0.96226  1.0000
  C   C1415     1.0  0.30332  0.89309  0.94902  1.0000
  C   C1416     1.0  0.29435  0.84169  0.87639  1.0000
  C   C1417     1.0  0.31364  0.86800  0.92208  1.0000
  P   P47       1.0  0.30390  0.83859  0.90579  1.0000
  C   C1418     1.0  0.28732  0.82844  0.83529  1.0000
  H   H1126     1.0  0.40516  0.77316  0.76163  1.0000
  H   H1127     1.0  0.43957  0.88457  0.87414  1.0000
  C   C1419     1.0  0.39035  0.89106  0.83896  1.0000
  H   H1128     1.0  0.04051  0.95756  0.79172  1.0000
  Fe  Fe98      1.0  0.44552  0.81884  0.79734  1.0000
  H   H1129     1.0  0.33522  0.92960  0.95995  1.0000
  C   C1420     1.0  0.32918  0.91247  0.94934  1.0000
  C   C1421     1.0  0.37952  0.91676  0.86583  1.0000
  C   C1422     1.0  0.37179  0.84270  0.88671  1.0000
  H   H1130     1.0  0.97856  0.94636  0.87801  1.0000
  C   C1423     1.0  0.30954  0.94681  0.81818  1.0000
  C   C1424     1.0  0.42013  0.91971  0.92096  1.0000
  C   C1425     1.0  0.45216  0.94618  0.77174  1.0000
  H   H1131     1.0  0.33178  0.88501  0.82591  1.0000
  C   C1426     1.0  0.34713  0.91012  0.93551  1.0000
  H   H1132     1.0  0.45446  0.70523  0.81031  1.0000
  H   H1133     1.0  0.28874  0.81720  0.82101  1.0000
  C   C1427     1.0  0.29565  0.82679  0.85788  1.0000
  H   H1134     1.0  0.30311  0.81393  0.86088  1.0000
  H   H1135     1.0  0.35360  0.88691  0.91096  1.0000
  H   H1136     1.0  0.39101  0.82432  0.90266  1.0000
  C   C1428     1.0  0.33393  0.81763  0.92103  1.0000
  C   C1429     1.0  0.33942  0.88805  0.92183  1.0000
  C   C1430     1.0  0.35584  0.90843  0.85446  1.0000
  H   H1137     1.0  0.34870  0.85844  0.87456  1.0000
  C   C1431     1.0  0.33116  0.83346  0.90452  1.0000
  S   S193      1.0  0.30362  0.94930  0.97654  1.0000
  H   H1138     1.0  0.03375  0.84971  0.77434  1.0000
  H   H1139     1.0  0.38640  0.85240  0.87336  1.0000
  P   P48       1.0  0.98658  0.95831  0.98422  1.0000
  H   H1140     1.0  0.42827  0.72675  0.81417  1.0000
  C   C1432     1.0  0.96743  0.95428  0.88539  1.0000
  C   C1433     1.0  0.43866  0.91261  0.91626  1.0000
  H   H1141     1.0  0.42070  0.83865  0.86474  1.0000
  C   C1434     1.0  0.44866  0.87428  0.88103  1.0000
  H   H1142     1.0  0.40210  0.90615  0.92925  1.0000
  C   C1435     1.0  0.41123  0.90662  0.76775  1.0000
  C   C1436     1.0  0.99769  0.93283  0.83692  1.0000
  C   C1437     1.0  0.45248  0.97085  0.83476  1.0000
  H   H1143     1.0  0.96921  0.92166  0.80977  1.0000
  H   H1144     1.0  0.08364  0.81753  0.77289  1.0000
  H   H1145     1.0  0.44078  0.68169  0.76846  1.0000
  C   C1438     1.0  0.45865  0.76418  0.80341  1.0000
  H   H1146     1.0  0.02739  0.94936  0.86351  1.0000
  C   C1439     1.0  0.97621  0.81523  0.87832  1.0000
  H   H1147     1.0  0.39128  0.69599  0.76349  1.0000
  S   S194      1.0  0.97545  0.82701  0.76548  1.0000
  H   H1148     1.0  0.39496  0.89012  0.77579  1.0000
  C   C1440     1.0  0.99170  0.96326  0.81348  1.0000
  H   H1149     1.0  0.09185  0.97271  0.97044  1.0000
  C   C1441     1.0  0.23489  0.92668  0.97137  1.0000
  H   H1150     1.0  0.03281  0.95634  0.91232  1.0000
  H   H1151     1.0  0.01837  0.78206  0.75169  1.0000
  H   H1152     1.0  0.41770  0.95848  0.81459  1.0000
  H   H1153     1.0  0.25377  0.95565  0.94474  1.0000
  H   H1154     1.0  0.26062  0.95900  0.82650  1.0000
  H   H1155     1.0  0.45053  0.95189  0.83513  1.0000
  C   C1442     1.0  0.40086  0.71476  0.75535  1.0000
  C   C1443     1.0  0.40849  0.75835  0.75443  1.0000
  C   C1444     1.0  0.22784  0.96362  0.99540  1.0000
  H   H1156     1.0  0.01377  0.92880  0.98619  1.0000
  P   P49       1.0  0.97462  0.96961  0.79066  1.0000
  C   C1445     1.0  0.46191  0.92998  0.90518  1.0000
  C   C1446     1.0  0.97930  0.93621  0.75949  1.0000
  H   H1157     1.0  0.20083  0.97435  0.83553  1.0000
  H   H1158     1.0  0.97573  0.66896  0.90188  1.0000
  C   C1447     1.0  0.22231  0.92072  0.99311  1.0000
  C   C1448     1.0  0.69229  0.04639  0.11449  1.0000
  C   C1449     1.0  0.85018  0.98437  0.03868  1.0000
  S   S195      1.0  0.78964  0.26804  0.22498  1.0000
  Fe  Fe99      1.0  0.86171  0.02450  0.09206  1.0000
  S   S196      1.0  0.86169  0.05089  0.12057  1.0000
  S   S197      1.0  0.86769  0.03471  0.05323  1.0000
  H   H1159     1.0  0.57246  0.05582  0.18091  1.0000
  S   S198      1.0  0.84937  0.00540  0.15752  1.0000
  Fe  Fe100     1.0  0.82548  0.01539  0.13341  1.0000
  S   S199      1.0  0.78947  0.01818  0.14401  1.0000
  Fe  Fe101     1.0  0.88572  0.03875  0.14236  1.0000
  S   S200      1.0  0.91924  0.06015  0.16957  1.0000
  H   H1160     1.0  0.93222  0.07427  0.09571  1.0000
  S   S201      1.0  0.88808  0.01535  0.11255  1.0000
  Fe  Fe102     1.0  0.63117  0.17106  0.22432  1.0000
  C   C1450     1.0  0.96583  0.15119  0.20122  1.0000
  S   S202      1.0  0.66527  0.21251  0.21819  1.0000
  Fe  Fe103     1.0  0.57295  0.12916  0.21374  1.0000
  C   C1451     1.0  0.94443  0.14506  0.18698  1.0000
  S   S203      1.0  0.53333  0.10785  0.19400  1.0000
  Fe  Fe104     1.0  0.61353  0.11412  0.22760  1.0000
  S   S204      1.0  0.62307  0.08220  0.22717  1.0000
  C   C1452     1.0  0.53147  0.11698  0.05575  1.0000
  S   S205      1.0  0.61156  0.13795  0.19808  1.0000
  H   H1161     1.0  0.56658  0.02860  0.14575  1.0000
  H   H1162     1.0  0.53562  0.13332  0.06680  1.0000
  S   S206      1.0  0.62353  0.03443  0.12829  1.0000
  H   H1163     1.0  0.51783  0.05950  0.01500  1.0000
  H   H1164     1.0  0.61920  0.99349  0.05319  1.0000
  C   C1453     1.0  0.93018  0.99192  0.12764  1.0000
  H   H1165     1.0  0.86892  0.03575  0.00262  1.0000
  C   C1454     1.0  0.62631  0.07041  0.19984  1.0000
  C   C1455     1.0  0.62367  0.04588  0.19868  1.0000
  C   C1456     1.0  0.62349  0.03485  0.17681  1.0000
  C   C1457     1.0  0.62666  0.04862  0.15611  1.0000
  C   C1458     1.0  0.63120  0.07385  0.15743  1.0000
  C   C1459     1.0  0.63052  0.08460  0.17923  1.0000
  H   H1166     1.0  0.62079  0.03501  0.21464  1.0000
  H   H1167     1.0  0.62043  0.01560  0.17598  1.0000
  H   H1168     1.0  0.63452  0.08486  0.14147  1.0000
  H   H1169     1.0  0.63319  0.10378  0.18007  1.0000
  C   C1460     1.0  0.48126  0.12947  0.12045  1.0000
  H   H1170     1.0  0.77291  0.06612  0.03516  1.0000
  C   C1461     1.0  0.73904  0.00738  0.15060  1.0000
  C   C1462     1.0  0.90933  0.12436  0.09602  1.0000
  H   H1171     1.0  0.74788  0.02573  0.15962  1.0000
  S   S207      1.0  0.57451  0.10333  0.24161  1.0000
  H   H1172     1.0  0.69747  0.00096  0.02712  1.0000
  C   C1463     1.0  0.48476  0.07888  0.17331  1.0000
  C   C1464     1.0  0.50236  0.10253  0.18407  1.0000
  C   C1465     1.0  0.49486  0.12110  0.18646  1.0000
  H   H1173     1.0  0.56700  0.09711  0.16512  1.0000
  H   H1174     1.0  0.94949  0.17751  0.11314  1.0000
  H   H1175     1.0  0.49003  0.06426  0.17127  1.0000
  H   H1176     1.0  0.90953  0.98443  0.12776  1.0000
  H   H1177     1.0  0.71460  0.28425  0.10543  1.0000
  C   C1466     1.0  0.50863  0.11235  0.10830  1.0000
  C   C1467     1.0  0.85926  0.00994  0.03203  1.0000
  C   C1468     1.0  0.50294  0.15222  0.12790  1.0000
  C   C1469     1.0  0.75501  0.25322  0.22414  1.0000
  C   C1470     1.0  0.74233  0.26736  0.22159  1.0000
  C   C1471     1.0  0.71503  0.25461  0.22008  1.0000
  C   C1472     1.0  0.69976  0.22754  0.22142  1.0000
  C   C1473     1.0  0.71241  0.21347  0.22467  1.0000
  C   C1474     1.0  0.94713  0.01717  0.13496  1.0000
  H   H1178     1.0  0.75356  0.28809  0.22024  1.0000
  H   H1179     1.0  0.70565  0.26583  0.21757  1.0000
  P   P50       1.0  0.54791  0.98424  0.23701  1.0000
  H   H1180     1.0  0.74702  0.06718  0.14669  1.0000
  Fe  Fe105     1.0  0.85124  0.98292  0.12673  1.0000
  C   C1475     1.0  0.55982  0.02456  0.20536  1.0000
  C   C1476     1.0  0.47051  0.11619  0.17804  1.0000
  C   C1477     1.0  0.72337  0.03924  0.09320  1.0000
  H   H1181     1.0  0.96473  0.15311  0.22007  1.0000
  C   C1478     1.0  0.86961  0.01429  0.21819  1.0000
  H   H1182     1.0  0.68545  0.02937  0.08016  1.0000
  H   H1183     1.0  0.95230  0.21960  0.10709  1.0000
  C   C1479     1.0  0.47823  0.02166  0.22583  1.0000
  C   C1480     1.0  0.70326  0.02104  0.02583  1.0000
  C   C1481     1.0  0.69917  0.03760  0.09451  1.0000
  C   C1482     1.0  0.73971  0.22618  0.22580  1.0000
  H   H1184     1.0  0.70007  0.99984  0.15656  1.0000
  S   S208      1.0  0.63551  0.98093  0.10378  1.0000
  C   C1483     1.0  0.74067  0.05015  0.11212  1.0000
  H   H1185     1.0  0.81916  0.08042  0.03183  1.0000
  C   C1484     1.0  0.77809  0.03140  0.08009  1.0000
  C   C1485     1.0  0.80433  0.03967  0.07809  1.0000
  H   H1186     1.0  0.83941  0.06337  0.05904  1.0000
  C   C1486     1.0  0.72013  0.03883  0.04245  1.0000
  C   C1487     1.0  0.71812  0.30296  0.11124  1.0000
  C   C1488     1.0  0.91267  0.02187  0.22570  1.0000
  C   C1489     1.0  0.49951  0.04257  0.21525  1.0000
  C   C1490     1.0  0.71640  0.07264  0.02256  1.0000
  C   C1491     1.0  0.46760  0.99722  0.21533  1.0000
  C   C1492     1.0  0.92703  0.10137  0.11656  1.0000
  C   C1493     1.0  0.92633  0.08864  0.09570  1.0000
  C   C1494     1.0  0.52749  0.15526  0.12536  1.0000
  C   C1495     1.0  0.87756  0.97854  0.21869  1.0000
  H   H1187     1.0  0.63747  0.02573  0.02113  1.0000
  C   C1496     1.0  0.53777  0.12110  0.03185  1.0000
  C   C1497     1.0  0.54661  0.98277  0.18822  1.0000
  C   C1498     1.0  0.90403  0.17163  0.15266  1.0000
  C   C1499     1.0  0.81913  0.05734  0.06073  1.0000
  H   H1188     1.0  0.54427  0.17275  0.13147  1.0000
  P   P51       1.0  0.73206  0.02848  0.06682  1.0000
  C   C1500     1.0  0.90861  0.11156  0.07516  1.0000
  H   H1189     1.0  0.73902  0.07863  0.05379  1.0000
  C   C1501     1.0  0.91720  0.09379  0.07499  1.0000
  C   C1502     1.0  0.56133  0.01999  0.16307  1.0000
  H   H1190     1.0  0.93957  0.02934  0.14075  1.0000
  H   H1191     1.0  0.52733  0.05522  0.18730  1.0000
  H   H1192     1.0  0.50796  0.13941  0.19457  1.0000
  C   C1503     1.0  0.78140  0.05876  0.04743  1.0000
  H   H1193     1.0  0.81313  0.03217  0.08992  1.0000
  C   C1504     1.0  0.92305  0.21273  0.13268  1.0000
  S   S209      1.0  0.59233  0.16427  0.23757  1.0000
  H   H1194     1.0  0.95193  0.02422  0.19273  1.0000
  Fe  Fe106     1.0  0.61268  0.99262  0.12681  1.0000
  C   C1505     1.0  0.73372  0.05903  0.13206  1.0000
  C   C1506     1.0  0.75494  0.99854  0.14106  1.0000
  C   C1507     1.0  0.56479  0.03531  0.18284  1.0000
  H   H1195     1.0  0.90091  0.11496  0.05919  1.0000
  H   H1196     1.0  0.92703  0.14279  0.19499  1.0000
  H   H1197     1.0  0.90428  0.09614  0.18212  1.0000
  C   C1508     1.0  0.48402  0.10953  0.11084  1.0000
  C   C1509     1.0  0.72654  0.06471  0.04077  1.0000
  H   H1198     1.0  0.86262  0.06237  0.19721  1.0000
  C   C1510     1.0  0.52152  0.07553  0.02636  1.0000
  P   P52       1.0  0.92528  0.98291  0.22693  1.0000
  P   P53       1.0  0.51245  0.08659  0.09611  1.0000
  C   C1511     1.0  0.53825  0.08510  0.11114  1.0000
  C   C1512     1.0  0.52010  0.09204  0.06514  1.0000
  C   C1513     1.0  0.70949  0.05704  0.13328  1.0000
  H   H1199     1.0  0.82290  0.08472  0.14830  1.0000
  H   H1200     1.0  0.76684  0.01737  0.09344  1.0000
  H   H1201     1.0  0.89392  0.20083  0.15949  1.0000
  C   C1514     1.0  0.51517  0.07133  0.05024  1.0000
  C   C1515     1.0  0.54302  0.09194  0.13502  1.0000
  C   C1516     1.0  0.56310  0.09126  0.14681  1.0000
  C   C1517     1.0  0.57836  0.08340  0.13497  1.0000
  C   C1518     1.0  0.57346  0.07595  0.11137  1.0000
  C   C1519     1.0  0.55348  0.07681  0.09943  1.0000
  C   C1520     1.0  0.86186  0.01605  0.00795  1.0000
  H   H1202     1.0  0.50723  0.06187  0.22228  1.0000
  C   C1521     1.0  0.71692  0.99378  0.06634  1.0000
  H   H1203     1.0  0.82172  0.05654  0.18047  1.0000
  C   C1522     1.0  0.90383  0.99550  0.22295  1.0000
  H   H1204     1.0  0.74907  0.21486  0.22755  1.0000
  H   H1205     1.0  0.50061  0.16728  0.13603  1.0000
  H   H1206     1.0  0.92449  0.23130  0.13013  1.0000
  H   H1207     1.0  0.50494  0.98045  0.14024  1.0000
  H   H1208     1.0  0.49422  0.04731  0.13326  1.0000
  C   C1523     1.0  0.76642  0.04098  0.06489  1.0000
  C   C1524     1.0  0.53038  0.13551  0.11542  1.0000
  H   H1209     1.0  0.75943  0.05172  0.11176  1.0000
  H   H1210     1.0  0.72107  0.09254  0.02148  1.0000
  C   C1525     1.0  0.80767  0.06689  0.04542  1.0000
  H   H1211     1.0  0.50666  0.05197  0.05714  1.0000
  H   H1212     1.0  0.53136  0.09803  0.14452  1.0000
  H   H1213     1.0  0.59401  0.08318  0.14412  1.0000
  H   H1214     1.0  0.58535  0.06971  0.10234  1.0000
  H   H1215     1.0  0.55018  0.07112  0.08113  1.0000
  C   C1526     1.0  0.95353  0.07804  0.17527  1.0000
  H   H1216     1.0  0.70394  0.06366  0.14879  1.0000
  H   H1217     1.0  0.85651  0.02158  0.21575  1.0000
  C   C1527     1.0  0.91934  0.16467  0.13933  1.0000
  H   H1218     1.0  0.54957  0.13820  0.11366  1.0000
  C   C1528     1.0  0.94547  0.14162  0.16262  1.0000
  C   C1529     1.0  0.93869  0.20611  0.11968  1.0000
  H   H1219     1.0  0.86468  0.11908  0.13297  1.0000
  H   H1220     1.0  0.90190  0.13748  0.09597  1.0000
  H   H1221     1.0  0.56345  0.03711  0.22031  1.0000
  C   C1530     1.0  0.51082  0.03886  0.19524  1.0000
  S   S210      1.0  0.82495  0.99015  0.10391  1.0000
  C   C1531     1.0  0.62728  0.00542  0.01684  1.0000
  H   H1222     1.0  0.91614  0.08350  0.05893  1.0000
  P   P54       1.0  0.91801  0.13438  0.14423  1.0000
  C   C1532     1.0  0.91894  0.11962  0.11681  1.0000
  C   C1533     1.0  0.88769  0.11100  0.15713  1.0000
  C   C1534     1.0  0.86448  0.10736  0.14751  1.0000
  C   C1535     1.0  0.84079  0.08795  0.15611  1.0000
  C   C1536     1.0  0.84011  0.07194  0.17423  1.0000
  C   C1537     1.0  0.86310  0.07524  0.18369  1.0000
  C   C1538     1.0  0.88679  0.09460  0.17512  1.0000
  C   C1539     1.0  0.47924  0.04135  0.12009  1.0000
  H   H1223     1.0  0.94856  0.07863  0.21278  1.0000
  H   H1224     1.0  0.70118  0.19270  0.22566  1.0000
  H   H1225     1.0  0.67352  0.04488  0.11541  1.0000
  C   C1540     1.0  0.55206  0.99367  0.16578  1.0000
  C   C1541     1.0  0.53283  0.10040  0.01716  1.0000
  C   C1542     1.0  0.69321  0.02903  0.00762  1.0000
  C   C1543     1.0  0.48296  0.05634  0.09997  1.0000
  H   H1226     1.0  0.54662  0.14040  0.02473  1.0000
  C   C1544     1.0  0.50055  0.01437  0.18527  1.0000
  H   H1227     1.0  0.68353  0.29866  0.09535  1.0000
  C   C1545     1.0  0.61694  0.98718  0.03504  1.0000
  H   H1228     1.0  0.74479  0.99343  0.04226  1.0000
  C   C1546     1.0  0.71177  0.99268  0.14886  1.0000
  C   C1547     1.0  0.69419  0.97833  0.07895  1.0000
  C   C1548     1.0  0.86057  0.98795  0.21613  1.0000
  H   H1229     1.0  0.89094  0.15879  0.16588  1.0000
  C   C1549     1.0  0.95873  0.00727  0.22363  1.0000
  H   H1230     1.0  0.47432  0.08070  0.24646  1.0000
  H   H1231     1.0  0.90265  0.05168  0.22447  1.0000
  H   H1232     1.0  0.50938  0.01166  0.16975  1.0000
  C   C1550     1.0  0.90579  0.19552  0.14920  1.0000
  H   H1233     1.0  0.79616  0.98570  0.17693  1.0000
  H   H1234     1.0  0.96594  0.08187  0.13924  1.0000
  C   C1551     1.0  0.93697  0.18223  0.12308  1.0000
  H   H1235     1.0  0.93339  0.09660  0.13260  1.0000
  C   C1552     1.0  0.89560  0.03122  0.22314  1.0000
  C   C1553     1.0  0.47893  0.99352  0.19531  1.0000
  C   C1554     1.0  0.55132  0.99827  0.20823  1.0000
  H   H1236     1.0  0.68580  0.98679  0.09009  1.0000
  C   C1555     1.0  0.72739  0.98193  0.05234  1.0000
  H   H1237     1.0  0.93267  0.03527  0.22976  1.0000
  C   C1556     1.0  0.69971  0.05478  0.00600  1.0000
  Fe  Fe107     1.0  0.82561  0.30916  0.22609  1.0000
  C   C1557     1.0  0.96241  0.08444  0.19869  1.0000
  H   H1238     1.0  0.54999  0.98181  0.15060  1.0000
  H   H1239     1.0  0.49708  0.97887  0.23646  1.0000
  H   H1240     1.0  0.46680  0.09186  0.10590  1.0000
  H   H1241     1.0  0.84833  0.97943  0.05714  1.0000
  H   H1242     1.0  0.58898  0.98574  0.20634  1.0000
  C   C1558     1.0  0.58931  0.97767  0.22321  1.0000
  C   C1559     1.0  0.96620  0.02464  0.20477  1.0000
  C   C1560     1.0  0.96624  0.98511  0.12138  1.0000
  C   C1561     1.0  0.88778  0.28594  0.44926  1.0000
  Fe  Fe108     1.0  0.62278  0.09403  0.47315  1.0000
  S   S211      1.0  0.59446  0.08967  0.44504  1.0000
  H   H1243     1.0  0.68803  0.22478  0.46975  1.0000
  Fe  Fe109     1.0  0.66255  0.15167  0.45691  1.0000
  S   S212      1.0  0.63552  0.14972  0.42852  1.0000
  S   S213      1.0  0.70435  0.18713  0.45673  1.0000
  Fe  Fe110     1.0  0.60414  0.12964  0.45532  1.0000
  H   H1244     1.0  0.79944  0.28718  0.49135  1.0000
  Fe  Fe111     1.0  0.62837  0.11010  0.42073  1.0000
  S   S214      1.0  0.62886  0.09747  0.38307  1.0000
  H   H1245     1.0  0.49179  0.02717  0.45877  1.0000
  S   S215      1.0  0.65676  0.11211  0.44792  1.0000
  Fe  Fe112     1.0  0.59565  0.13837  0.26425  1.0000
  S   S216      1.0  0.58479  0.13843  0.30248  1.0000
  C   C1562     1.0  0.61665  0.10898  0.36073  1.0000
  C   C1563     1.0  0.61914  0.10400  0.33696  1.0000
  C   C1564     1.0  0.60934  0.11280  0.31892  1.0000
  C   C1565     1.0  0.59702  0.12668  0.32454  1.0000
  C   C1566     1.0  0.59428  0.13138  0.34828  1.0000
  C   C1567     1.0  0.60415  0.12270  0.36628  1.0000
  H   H1246     1.0  0.62873  0.09335  0.33251  1.0000
  H   H1247     1.0  0.61124  0.10883  0.30069  1.0000
  H   H1248     1.0  0.58461  0.14194  0.35279  1.0000
  H   H1249     1.0  0.60185  0.12643  0.38450  1.0000
  S   S217      1.0  0.63491  0.14719  0.25264  1.0000
  S   S218      1.0  0.57110  0.13741  0.45620  1.0000
  H   H1250     1.0  0.74565  0.29795  0.41325  1.0000
  C   C1568     1.0  0.47645  0.05829  0.29023  1.0000
  C   C1569     1.0  0.74862  0.27711  0.46106  1.0000
  C   C1570     1.0  0.76079  0.26366  0.45330  1.0000
  C   C1571     1.0  0.74691  0.23637  0.45187  1.0000
  C   C1572     1.0  0.72053  0.22185  0.45789  1.0000
  C   C1573     1.0  0.70822  0.23536  0.46505  1.0000
  C   C1574     1.0  0.49312  0.98458  0.41971  1.0000
  H   H1251     1.0  0.78099  0.27424  0.44865  1.0000
  H   H1252     1.0  0.75677  0.22641  0.44612  1.0000
  H   H1253     1.0  0.75216  0.21278  0.34651  1.0000
  C   C1575     1.0  0.94943  0.04023  0.43693  1.0000
  C   C1576     1.0  0.68362  0.10668  0.27017  1.0000
  H   H1254     1.0  0.53497  0.07557  0.48891  1.0000
  C   C1577     1.0  0.76686  0.24837  0.38744  1.0000
  H   H1255     1.0  0.57189  0.01984  0.47239  1.0000
  H   H1256     1.0  0.59299  0.03292  0.24984  1.0000
  H   H1257     1.0  0.87495  0.26203  0.47989  1.0000
  H   H1258     1.0  0.94197  0.12356  0.46821  1.0000
  H   H1259     1.0  0.73635  0.15466  0.29760  1.0000
  H   H1260     1.0  0.54870  0.07794  0.28831  1.0000
  C   C1578     1.0  0.69809  0.14998  0.29883  1.0000
  C   C1579     1.0  0.48515  0.04808  0.27255  1.0000
  P   P55       1.0  0.70703  0.17762  0.31740  1.0000
  C   C1580     1.0  0.68511  0.18931  0.31091  1.0000
  C   C1581     1.0  0.70390  0.16839  0.34803  1.0000
  C   C1582     1.0  0.69931  0.14388  0.35453  1.0000
  C   C1583     1.0  0.69650  0.13685  0.37826  1.0000
  C   C1584     1.0  0.69843  0.15423  0.39565  1.0000
  C   C1585     1.0  0.70277  0.17851  0.38934  1.0000
  C   C1586     1.0  0.70517  0.18549  0.36561  1.0000
  C   C1587     1.0  0.66350  0.18236  0.32528  1.0000
  C   C1588     1.0  0.64571  0.19006  0.31945  1.0000
  C   C1589     1.0  0.64903  0.20436  0.29911  1.0000
  C   C1590     1.0  0.67026  0.21113  0.28461  1.0000
  C   C1591     1.0  0.68808  0.20343  0.29032  1.0000
  C   C1592     1.0  0.73976  0.20219  0.31036  1.0000
  C   C1593     1.0  0.75751  0.21638  0.32824  1.0000
  C   C1594     1.0  0.78267  0.23546  0.32263  1.0000
  C   C1595     1.0  0.79046  0.24026  0.29913  1.0000
  C   C1596     1.0  0.77313  0.22595  0.28125  1.0000
  C   C1597     1.0  0.74792  0.20698  0.28679  1.0000
  C   C1598     1.0  0.50947  0.17357  0.47364  1.0000
  H   H1261     1.0  0.64531  0.10114  0.27212  1.0000
  C   C1599     1.0  0.53623  0.01676  0.43190  1.0000
  C   C1600     1.0  0.93296  0.04975  0.44219  1.0000
  H   H1262     1.0  0.80985  0.25525  0.29470  1.0000
  H   H1263     1.0  0.69730  0.12990  0.34141  1.0000
  H   H1264     1.0  0.69202  0.11762  0.38318  1.0000
  H   H1265     1.0  0.69605  0.14873  0.41402  1.0000
  H   H1266     1.0  0.70380  0.19161  0.40301  1.0000
  H   H1267     1.0  0.70775  0.20409  0.36090  1.0000
  H   H1268     1.0  0.65963  0.17011  0.34049  1.0000
  H   H1269     1.0  0.62871  0.18399  0.33021  1.0000
  H   H1270     1.0  0.63464  0.20939  0.29415  1.0000
  H   H1271     1.0  0.67238  0.22155  0.26844  1.0000
  H   H1272     1.0  0.70353  0.20784  0.27812  1.0000
  H   H1273     1.0  0.71233  0.27259  0.47263  1.0000
  H   H1274     1.0  0.52123  0.12936  0.46801  1.0000
  C   C1601     1.0  0.92757  0.98165  0.27602  1.0000
  H   H1275     1.0  0.51847  0.04660  0.25943  1.0000
  H   H1276     1.0  0.73486  0.19606  0.27259  1.0000
  C   C1602     1.0  0.67105  0.23593  0.36524  1.0000
  C   C1603     1.0  0.66530  0.22204  0.38621  1.0000
  C   C1604     1.0  0.68511  0.22640  0.40180  1.0000
  C   C1605     1.0  0.71075  0.24387  0.39601  1.0000
  C   C1606     1.0  0.71689  0.25663  0.37420  1.0000
  C   C1607     1.0  0.69667  0.25358  0.35951  1.0000
  C   C1608     1.0  0.74149  0.26381  0.31940  1.0000
  C   C1609     1.0  0.74870  0.26603  0.29569  1.0000
  C   C1610     1.0  0.77357  0.28441  0.28881  1.0000
  H   H1277     1.0  0.65558  0.23321  0.35355  1.0000
  H   H1278     1.0  0.64546  0.20829  0.39067  1.0000
  H   H1279     1.0  0.68059  0.21626  0.41847  1.0000
  H   H1280     1.0  0.72561  0.24749  0.40878  1.0000
  H   H1281     1.0  0.70059  0.26497  0.34371  1.0000
  H   H1282     1.0  0.72264  0.24841  0.32428  1.0000
  H   H1283     1.0  0.73528  0.25316  0.28257  1.0000
  H   H1284     1.0  0.77927  0.28558  0.27053  1.0000
  C   C1611     1.0  0.58349  0.04638  0.28115  1.0000
  H   H1285     1.0  0.53867  0.04503  0.45671  1.0000
  C   C1612     1.0  0.77255  0.27366  0.38290  1.0000
  H   H1286     1.0  0.94151  0.00203  0.27518  1.0000
  H   H1287     1.0  0.91187  0.01265  0.47958  1.0000
  H   H1288     1.0  0.56920  0.05493  0.31263  1.0000
  H   H1289     1.0  0.65776  0.13877  0.29752  1.0000
  C   C1613     1.0  0.87319  0.27633  0.46977  1.0000
  C   C1614     1.0  0.57809  0.02899  0.26267  1.0000
  C   C1615     1.0  0.48254  0.99610  0.43400  1.0000
  C   C1616     1.0  0.55068  0.20168  0.49206  1.0000
  H   H1290     1.0  0.74456  0.18035  0.48112  1.0000
  H   H1291     1.0  0.92886  0.98057  0.31393  1.0000
  C   C1617     1.0  0.55373  0.00679  0.26067  1.0000
  C   C1618     1.0  0.49919  0.01790  0.44745  1.0000
  C   C1619     1.0  0.66516  0.11280  0.27770  1.0000
  C   C1620     1.0  0.72216  0.26262  0.46671  1.0000
  C   C1621     1.0  0.54066  0.01914  0.29669  1.0000
  C   C1622     1.0  0.80844  0.26439  0.40623  1.0000
  H   H1292     1.0  0.54607  0.18849  0.45613  1.0000
  C   C1623     1.0  0.56484  0.04145  0.29821  1.0000
  H   H1293     1.0  0.49836  0.16298  0.45836  1.0000
  C   C1624     1.0  0.70926  0.12179  0.27746  1.0000
  H   H1294     1.0  0.72355  0.11695  0.27173  1.0000
  C   C1625     1.0  0.57291  0.01182  0.48908  1.0000
  H   H1295     1.0  0.55698  0.02491  0.43099  1.0000
  C   C1626     1.0  0.55659  0.98512  0.49354  1.0000
  S   S219      1.0  0.63119  0.13390  0.48475  1.0000
  C   C1627     1.0  0.52589  0.02814  0.44637  1.0000
  C   C1628     1.0  0.71647  0.14324  0.29196  1.0000
  C   C1629     1.0  0.78461  0.24377  0.39929  1.0000
  H   H1296     1.0  0.79612  0.24666  0.33648  1.0000
  C   C1630     1.0  0.67232  0.13427  0.29203  1.0000
  C   C1631     1.0  0.51117  0.05452  0.27242  1.0000
  C   C1632     1.0  0.75883  0.28096  0.33627  1.0000
  C   C1633     1.0  0.85663  0.28524  0.47719  1.0000
  H   H1297     1.0  0.77978  0.22420  0.40323  1.0000
  C   C1634     1.0  0.96206  0.07636  0.47296  1.0000
  C   C1635     1.0  0.81450  0.28957  0.40122  1.0000
  C   C1636     1.0  0.55548  0.13237  0.48338  1.0000
  C   C1637     1.0  0.93915  0.06762  0.46037  1.0000
  H   H1298     1.0  0.92586  0.07414  0.46521  1.0000
  C   C1638     1.0  0.80836  0.24329  0.49649  1.0000
  C   C1639     1.0  0.49369  0.07545  0.30695  1.0000
  C   C1640     1.0  0.51969  0.08245  0.30620  1.0000
  H   H1299     1.0  0.52632  0.01531  0.31007  1.0000
  C   C1641     1.0  0.53513  0.00176  0.27809  1.0000
  C   C1642     1.0  0.85470  0.30367  0.46358  1.0000
  H   H1300     1.0  0.82221  0.26091  0.41551  1.0000
  H   H1301     1.0  0.82438  0.23296  0.46702  1.0000
  C   C1643     1.0  0.78401  0.29904  0.32917  1.0000
  H   H1302     1.0  0.48787  0.05769  0.48951  1.0000
  C   C1644     1.0  0.53632  0.18804  0.47235  1.0000
  H   H1303     1.0  0.67796  0.09031  0.25859  1.0000
  H   H1304     1.0  0.60222  0.06370  0.28222  1.0000
  H   H1305     1.0  0.51661  0.98430  0.27775  1.0000
  P   P56       1.0  0.75006  0.27980  0.36701  1.0000
  C   C1645     1.0  0.89731  0.00064  0.49216  1.0000
  H   H1306     1.0  0.83305  0.30558  0.40620  1.0000
  H   H1307     1.0  0.53327  0.09629  0.31874  1.0000
  H   H1308     1.0  0.78388  0.19309  0.45753  1.0000
  H   H1309     1.0  0.52796  0.98605  0.40757  1.0000
  C   C1646     1.0  0.94908  0.98685  0.45418  1.0000
  C   C1647     1.0  0.79663  0.29425  0.38976  1.0000
  H   H1310     1.0  0.91500  0.04275  0.43265  1.0000
  H   H1311     1.0  0.74861  0.23222  0.38214  1.0000
  C   C1648     1.0  0.51985  0.99493  0.41864  1.0000
  C   C1649     1.0  0.88585  0.30439  0.43592  1.0000
  C   C1650     1.0  0.52838  0.07196  0.28900  1.0000
  H   H1312     1.0  0.77921  0.22984  0.26301  1.0000
  H   H1313     1.0  0.94523  0.99683  0.46809  1.0000
  H   H1314     1.0  0.94364  0.15635  0.49590  1.0000
  C   C1651     1.0  0.76248  0.19763  0.48565  1.0000
  H   H1315     1.0  0.94402  0.02596  0.42311  1.0000
  C   C1652     1.0  0.53072  0.12928  0.48417  1.0000
  C   C1653     1.0  0.80752  0.22766  0.47766  1.0000
  C   C1654     1.0  0.78463  0.20494  0.47227  1.0000
  C   C1655     1.0  0.79134  0.30059  0.30561  1.0000
  H   H1316     1.0  0.90082  0.27933  0.44388  1.0000
  H   H1317     1.0  0.57144  0.21320  0.49053  1.0000
  H   H1318     1.0  0.47620  0.16127  0.49568  1.0000
  H   H1319     1.0  0.47223  0.98719  0.26834  1.0000
  H   H1320     1.0  0.48706  0.08375  0.32025  1.0000
  C   C1656     1.0  0.49701  0.17239  0.49476  1.0000
  C   C1657     1.0  0.96038  0.14009  0.47287  1.0000
  C   C1658     1.0  0.96129  0.15859  0.48840  1.0000
  H   H1321     1.0  0.55337  0.29056  0.49780  1.0000
  C   C1659     1.0  0.75468  0.31037  0.37698  1.0000
  S   S220      1.0  0.49972  0.29442  0.53976  1.0000
  S   S221      1.0  0.50944  0.13547  0.70982  1.0000
  Fe  Fe113     1.0  0.92973  0.07899  0.54549  1.0000
  C   C1660     1.0  0.55753  0.28401  0.51409  1.0000
  S   S222      1.0  0.91470  0.04607  0.51756  1.0000
  P   P57       1.0  0.47243  0.22451  0.68193  1.0000
  H   H1322     1.0  0.57164  0.18098  0.52809  1.0000
  C   C1661     1.0  0.55541  0.12949  0.52591  1.0000
  C   C1662     1.0  0.58787  0.22103  0.53765  1.0000
  H   H1323     1.0  0.60550  0.02873  0.54083  1.0000
  Fe  Fe114     1.0  0.94031  0.10128  0.59622  1.0000
  S   S223      1.0  0.92946  0.09223  0.63474  1.0000
  C   C1663     1.0  0.55734  0.00134  0.59646  1.0000
  S   S224      1.0  0.91282  0.09864  0.56753  1.0000
  H   H1324     1.0  0.50521  0.17604  0.62493  1.0000
  H   H1325     1.0  0.47903  0.12322  0.62806  1.0000
  S   S225      1.0  0.61288  0.06194  0.50122  1.0000
  Fe  Fe115     1.0  0.49922  0.12918  0.74867  1.0000
  C   C1664     1.0  0.51987  0.30074  0.64145  1.0000
  C   C1665     1.0  0.52125  0.20048  0.70605  1.0000
  C   C1666     1.0  0.52211  0.20493  0.73025  1.0000
  H   H1326     1.0  0.58579  0.05807  0.55141  1.0000
  H   H1327     1.0  0.53142  0.19135  0.69875  1.0000
  C   C1667     1.0  0.88736  0.25625  0.55558  1.0000
  C   C1668     1.0  0.92505  0.97750  0.56512  1.0000
  C   C1669     1.0  0.84611  0.24279  0.53685  1.0000
  H   H1328     1.0  0.93048  0.21270  0.53759  1.0000
  H   H1329     1.0  0.92581  0.09140  0.68526  1.0000
  C   C1670     1.0  0.56061  0.25112  0.53636  1.0000
  H   H1330     1.0  0.57110  0.00086  0.60853  1.0000
  S   S226      1.0  0.95464  0.07919  0.57526  1.0000
  C   C1671     1.0  0.89438  0.01191  0.51292  1.0000
  C   C1672     1.0  0.92292  0.99944  0.56853  1.0000
  H   H1331     1.0  0.55869  0.18244  0.57162  1.0000
  H   H1332     1.0  0.48296  0.23048  0.73334  1.0000
  C   C1673     1.0  0.56826  0.29064  0.55552  1.0000
  H   H1333     1.0  0.95816  0.11398  0.71696  1.0000
  H   H1334     1.0  0.55191  0.29432  0.64549  1.0000
  H   H1335     1.0  0.96059  0.05704  0.62652  1.0000
  C   C1674     1.0  0.48549  0.12107  0.68771  1.0000
  H   H1336     1.0  0.78636  0.24689  0.52505  1.0000
  H   H1337     1.0  0.57084  0.26040  0.57309  1.0000
  C   C1675     1.0  0.87510  0.99587  0.52876  1.0000
  P   P58       1.0  0.48024  0.97747  0.73447  1.0000
  H   H1338     1.0  0.50313  0.25172  0.52077  1.0000
  H   H1339     1.0  0.88944  0.13439  0.59150  1.0000
  H   H1340     1.0  0.51659  0.22308  0.56445  1.0000
  C   C1676     1.0  0.54002  0.20488  0.56549  1.0000
  H   H1341     1.0  0.93752  0.15530  0.65282  1.0000
  H   H1342     1.0  0.48480  0.03238  0.56065  1.0000
  C   C1677     1.0  0.50541  0.99064  0.66620  1.0000
  C   C1678     1.0  0.47369  0.11717  0.64606  1.0000
  C   C1679     1.0  0.53830  0.20038  0.51346  1.0000
  P   P59       1.0  0.55692  0.21937  0.53839  1.0000
  H   H1343     1.0  0.95654  0.26026  0.54243  1.0000
  C   C1680     1.0  0.54048  0.97923  0.58379  1.0000
  C   C1681     1.0  0.48751  0.24373  0.53331  1.0000
  S   S227      1.0  0.96071  0.11756  0.53150  1.0000
  H   H1344     1.0  0.85781  0.06056  0.72542  1.0000
  C   C1682     1.0  0.94236  0.18735  0.63138  1.0000
  C   C1683     1.0  0.93109  0.16120  0.63745  1.0000
  C   C1684     1.0  0.53091  0.12700  0.52672  1.0000
  C   C1685     1.0  0.49113  0.25431  0.66602  1.0000
  C   C1686     1.0  0.91466  0.17504  0.59687  1.0000
  C   C1687     1.0  0.93397  0.19410  0.61093  1.0000
  C   C1688     1.0  0.94992  0.22130  0.54441  1.0000
  H   H1345     1.0  0.85873  0.30854  0.54425  1.0000
  H   H1346     1.0  0.95248  0.02838  0.50191  1.0000
  H   H1347     1.0  0.82596  0.22843  0.53473  1.0000
  C   C1689     1.0  0.93775  0.19535  0.68969  1.0000
  C   C1690     1.0  0.90248  0.99791  0.58160  1.0000
  C   C1691     1.0  0.88320  0.28421  0.52750  1.0000
  H   H1348     1.0  0.49945  0.12447  0.50636  1.0000
  C   C1692     1.0  0.83005  0.29547  0.51634  1.0000
  S   S228      1.0  0.94086  0.17128  0.54492  1.0000
  H   H1349     1.0  0.65420  0.22434  0.53190  1.0000
  C   C1693     1.0  0.84913  0.05154  0.74203  1.0000
  C   C1694     1.0  0.49374  0.22246  0.72529  1.0000
  C   C1695     1.0  0.58913  0.19898  0.53165  1.0000
  H   H1350     1.0  0.58668  0.13433  0.50379  1.0000
  C   C1696     1.0  0.86130  0.23796  0.55242  1.0000
  H   H1351     1.0  0.57249  0.30233  0.57125  1.0000
  C   C1697     1.0  0.49271  0.21798  0.70090  1.0000
  H   H1352     1.0  0.65236  0.26341  0.54299  1.0000
  C   C1698     1.0  0.91193  0.14222  0.62321  1.0000
  H   H1353     1.0  0.94249  0.21389  0.60537  1.0000
  H   H1354     1.0  0.91836  0.29381  0.54584  1.0000
  H   H1355     1.0  0.91410  0.25964  0.72726  1.0000
  H   H1356     1.0  0.56515  0.12998  0.54205  1.0000
  C   C1699     1.0  0.84315  0.31006  0.53631  1.0000
  H   H1357     1.0  0.92388  0.19807  0.67973  1.0000
  C   C1700     1.0  0.95259  0.29042  0.72033  1.0000
  C   C1701     1.0  0.52397  0.06566  0.50444  1.0000
  H   H1358     1.0  0.94499  0.17534  0.74374  1.0000
  C   C1702     1.0  0.57530  0.99010  0.53207  1.0000
  C   C1703     1.0  0.96013  0.20530  0.55007  1.0000
  H   H1359     1.0  0.50975  0.00308  0.55135  1.0000
  C   C1704     1.0  0.49212  0.12856  0.66416  1.0000
  H   H1360     1.0  0.52433  0.02812  0.74670  1.0000
  C   C1705     1.0  0.47936  0.26812  0.65801  1.0000
  C   C1706     1.0  0.53290  0.17784  0.59968  1.0000
  H   H1361     1.0  0.53665  0.16440  0.60913  1.0000
  C   C1707     1.0  0.61083  0.24426  0.54190  1.0000
  Fe  Fe116     1.0  0.47554  0.11568  0.55431  1.0000
  C   C1708     1.0  0.50847  0.21600  0.73984  1.0000
  C   C1709     1.0  0.76324  0.21288  0.50457  1.0000
  H   H1362     1.0  0.50141  0.18340  0.53115  1.0000
  C   C1710     1.0  0.96120  0.20060  0.67941  1.0000
  C   C1711     1.0  0.94559  0.10495  0.68070  1.0000
  H   H1363     1.0  0.87213  0.00405  0.54459  1.0000
  C   C1712     1.0  0.80995  0.29820  0.50669  1.0000
  C   C1713     1.0  0.90379  0.14913  0.60288  1.0000
  C   C1714     1.0  0.51137  0.18526  0.51477  1.0000
  H   H1364     1.0  0.50123  0.01237  0.69416  1.0000
  H   H1365     1.0  0.90876  0.18031  0.58077  1.0000
  C   C1715     1.0  0.56319  0.29910  0.53439  1.0000
  C   C1716     1.0  0.53165  0.28698  0.64905  1.0000
  C   C1717     1.0  0.47337  0.21675  0.53667  1.0000
  S   S229      1.0  0.51721  0.12620  0.55412  1.0000
  H   H1366     1.0  0.51162  0.14324  0.65990  1.0000
  C   C1718     1.0  0.85700  0.26597  0.52424  1.0000
  C   C1719     1.0  0.82262  0.04084  0.74546  1.0000
  C   C1720     1.0  0.50936  0.20064  0.59571  1.0000
  C   C1721     1.0  0.51737  0.26385  0.66131  1.0000
  C   C1722     1.0  0.51835  0.12642  0.50582  1.0000
  H   H1367     1.0  0.81072  0.04161  0.73148  1.0000
  C   C1723     1.0  0.52342  0.98006  0.56756  1.0000
  H   H1368     1.0  0.92816  0.22883  0.73882  1.0000
  C   C1724     1.0  0.95280  0.10936  0.65689  1.0000
  P   P60       1.0  0.83794  0.27253  0.50376  1.0000
  C   C1725     1.0  0.96390  0.11774  0.69869  1.0000
  H   H1369     1.0  0.57682  0.98204  0.54857  1.0000
  H   H1370     1.0  0.85286  0.22005  0.56212  1.0000
  H   H1371     1.0  0.90378  0.12208  0.62768  1.0000
  C   C1726     1.0  0.50670  0.20703  0.69140  1.0000
  C   C1727     1.0  0.52159  0.21074  0.57423  1.0000
  H   H1372     1.0  0.90076  0.01492  0.58400  1.0000
  C   C1728     1.0  0.51647  0.06184  0.63878  1.0000
  C   C1729     1.0  0.50355  0.07544  0.63471  1.0000
  C   C1730     1.0  0.50115  0.08230  0.61179  1.0000
  C   C1731     1.0  0.51163  0.07559  0.59297  1.0000
  C   C1732     1.0  0.52429  0.06155  0.59675  1.0000
  C   C1733     1.0  0.52686  0.05496  0.61991  1.0000
  P   P61       1.0  0.53963  0.05494  0.57235  1.0000
  C   C1734     1.0  0.53955  0.02510  0.57703  1.0000
  C   C1735     1.0  0.52292  0.05313  0.54524  1.0000
  C   C1736     1.0  0.49591  0.04152  0.54499  1.0000
  Fe  Fe117     1.0  0.94616  0.13720  0.55583  1.0000
  C   C1737     1.0  0.89826  0.27939  0.54317  1.0000
  C   C1738     1.0  0.48319  0.04289  0.52489  1.0000
  C   C1739     1.0  0.53677  0.06456  0.52455  1.0000
  H   H1373     1.0  0.51374  0.00674  0.65416  1.0000
  H   H1374     1.0  0.95616  0.28533  0.67137  1.0000
  C   C1740     1.0  0.59086  0.02797  0.50599  1.0000
  C   C1741     1.0  0.54534  0.18809  0.57827  1.0000
  C   C1742     1.0  0.55706  0.02426  0.59296  1.0000
  C   C1743     1.0  0.57251  0.08095  0.56983  1.0000
  C   C1744     1.0  0.57945  0.10585  0.57756  1.0000
  C   C1745     1.0  0.60449  0.12631  0.57393  1.0000
  C   C1746     1.0  0.62268  0.12209  0.56245  1.0000
  C   C1747     1.0  0.61589  0.09738  0.55470  1.0000
  C   C1748     1.0  0.59093  0.07687  0.55838  1.0000
  H   H1375     1.0  0.51879  0.05706  0.65665  1.0000
  H   H1376     1.0  0.49569  0.08103  0.64931  1.0000
  H   H1377     1.0  0.95337  0.24369  0.67862  1.0000
  H   H1378     1.0  0.51018  0.08179  0.57549  1.0000
  H   H1379     1.0  0.53723  0.04495  0.62353  1.0000
  H   H1380     1.0  0.93679  0.01761  0.56069  1.0000
  H   H1381     1.0  0.49151  0.09321  0.60853  1.0000
  C   C1749     1.0  0.46972  0.00073  0.73753  1.0000
  H   H1382     1.0  0.55755  0.07347  0.52394  1.0000
  C   C1750     1.0  0.59172  0.01674  0.52756  1.0000
  C   C1751     1.0  0.78615  0.23545  0.51019  1.0000
  C   C1752     1.0  0.51514  0.18434  0.60854  1.0000
  C   C1753     1.0  0.63572  0.22337  0.53375  1.0000
  H   H1383     1.0  0.57080  0.04145  0.60237  1.0000
  H   H1384     1.0  0.56542  0.10972  0.58573  1.0000
  H   H1385     1.0  0.60961  0.14555  0.57956  1.0000
  H   H1386     1.0  0.64192  0.13801  0.55917  1.0000
  H   H1387     1.0  0.62973  0.09415  0.54521  1.0000
  C   C1754     1.0  0.55628  0.26012  0.51501  1.0000
  C   C1755     1.0  0.52280  0.00282  0.56428  1.0000
  C   C1756     1.0  0.48136  0.26040  0.54556  1.0000
  C   C1757     1.0  0.49732  0.05536  0.50475  1.0000
  C   C1758     1.0  0.56721  0.26685  0.55649  1.0000
  H   H1388     1.0  0.91414  0.18300  0.72082  1.0000
  C   C1759     1.0  0.93202  0.18653  0.71288  1.0000
  H   H1389     1.0  0.48478  0.30218  0.64007  1.0000
  H   H1390     1.0  0.48391  0.98938  0.50372  1.0000
  C   C1760     1.0  0.96468  0.24837  0.54717  1.0000
  H   H1391     1.0  0.89195  0.30233  0.51811  1.0000
  H   H1392     1.0  0.49503  0.20508  0.60215  1.0000
  C   C1761     1.0  0.61294  0.20016  0.52964  1.0000
  H   H1393     1.0  0.89911  0.25261  0.56773  1.0000
  C   C1762     1.0  0.63466  0.24538  0.53996  1.0000
  H   H1394     1.0  0.61048  0.26161  0.54637  1.0000
  H   H1395     1.0  0.50596  0.20302  0.67272  1.0000
  C   C1763     1.0  0.94929  0.18211  0.72575  1.0000
  C   C1764     1.0  0.94231  0.24799  0.73318  1.0000
  H   H1396     1.0  0.47792  0.20444  0.52638  1.0000
  C   C1765     1.0  0.93435  0.26535  0.72669  1.0000
  H   H1397     1.0  0.52691  0.25357  0.66709  1.0000
  C   C1766     1.0  0.96154  0.25337  0.66223  1.0000
  C   C1767     1.0  0.49798  0.99364  0.68880  1.0000
  H   H1398     1.0  0.74588  0.20732  0.51465  1.0000
  H   H1399     1.0  0.94642  0.30406  0.71576  1.0000
  C   C1768     1.0  0.56764  0.13203  0.50425  1.0000
  H   H1400     1.0  0.47474  0.26636  0.71029  1.0000
  C   C1769     1.0  0.96329  0.27722  0.65835  1.0000
  C   C1770     1.0  0.49375  0.29132  0.64592  1.0000
  H   H1401     1.0  0.53311  0.19949  0.74160  1.0000
  H   H1402     1.0  0.96259  0.99383  0.51029  1.0000
  H   H1403     1.0  0.94086  0.97893  0.55498  1.0000
  C   C1771     1.0  0.96598  0.03089  0.51573  1.0000
  H   H1404     1.0  0.89419  0.12842  0.74355  1.0000
  H   H1405     1.0  0.61365  0.18310  0.52453  1.0000
  H   H1406     1.0  0.55127  0.24856  0.49917  1.0000
  H   H1407     1.0  0.92631  0.98168  0.91082  1.0000
  S   S230      1.0  0.92572  0.07631  0.79391  1.0000
  S   S231      1.0  0.89288  0.03857  0.89820  1.0000
  H   H1408     1.0  0.47423  0.26454  0.81191  1.0000
  S   S232      1.0  0.48606  0.12348  0.81559  1.0000
  H   H1409     1.0  0.85974  0.17802  0.83370  1.0000
  C   C1772     1.0  0.93566  0.03369  0.96920  1.0000
  S   S233      1.0  0.52655  0.15778  0.77537  1.0000
  Fe  Fe118     1.0  0.51922  0.12314  0.79719  1.0000
  S   S234      1.0  0.54952  0.11924  0.81940  1.0000
  Fe  Fe119     1.0  0.49076  0.15540  0.79122  1.0000
  S   S235      1.0  0.49066  0.19195  0.80437  1.0000
  C   C1773     1.0  0.49690  0.10646  0.87925  1.0000
  C   C1774     1.0  0.46763  0.24592  0.80385  1.0000
  Fe  Fe120     1.0  0.66947  0.01186  0.89123  1.0000
  H   H1410     1.0  0.91076  0.25869  0.84529  1.0000
  S   S236      1.0  0.71093  0.02022  0.88464  1.0000
  Fe  Fe121     1.0  0.62859  0.02970  0.88280  1.0000
  S   S237      1.0  0.60123  0.00082  0.90901  1.0000
  S   S238      1.0  0.61976  0.06050  0.86790  1.0000
  Fe  Fe122     1.0  0.63571  0.01184  0.93207  1.0000
  S   S239      1.0  0.63800  0.02136  0.97099  1.0000
  C   C1775     1.0  0.47295  0.20811  0.79786  1.0000
  S   S240      1.0  0.66288  0.04262  0.90726  1.0000
  S   S241      1.0  0.63777  0.00162  0.86443  1.0000
  C   C1776     1.0  0.92527  0.02944  0.94656  1.0000
  H   H1411     1.0  0.86755  0.07568  0.89145  1.0000
  H   H1412     1.0  0.87766  0.09397  0.85122  1.0000
  C   C1777     1.0  0.74234  0.02178  0.98214  1.0000
  C   C1778     1.0  0.86253  0.07429  0.85381  1.0000
  C   C1779     1.0  0.47246  0.09607  0.88939  1.0000
  C   C1780     1.0  0.96006  0.03659  0.97270  1.0000
  C   C1781     1.0  0.82494  0.02279  0.86039  1.0000
  H   H1413     1.0  0.57632  0.00783  0.77915  1.0000
  H   H1414     1.0  0.79245  0.09089  0.87500  1.0000
  C   C1782     1.0  0.86173  0.13514  0.85070  1.0000
  C   C1783     1.0  0.48123  0.23260  0.80780  1.0000
  C   C1784     1.0  0.90172  0.12985  0.80300  1.0000
  H   H1415     1.0  0.92088  0.21605  0.78274  1.0000
  S   S242      1.0  0.49466  0.09517  0.76917  1.0000
  H   H1416     1.0  0.49828  0.24132  0.81879  1.0000
  C   C1785     1.0  0.56255  0.09832  0.82779  1.0000
  C   C1786     1.0  0.55492  0.05185  0.81798  1.0000
  C   C1787     1.0  0.57628  0.04618  0.83343  1.0000
  C   C1788     1.0  0.59868  0.06841  0.85209  1.0000
  C   C1789     1.0  0.60370  0.09861  0.85832  1.0000
  C   C1790     1.0  0.58759  0.11331  0.84768  1.0000
  H   H1417     1.0  0.54107  0.03645  0.80654  1.0000
  H   H1418     1.0  0.57568  0.02802  0.83121  1.0000
  H   H1419     1.0  0.61906  0.10975  0.87069  1.0000
  H   H1420     1.0  0.59331  0.13262  0.85344  1.0000
  C   C1791     1.0  0.55783  0.00207  0.77099  1.0000
  C   C1792     1.0  0.75120  0.01117  0.89304  1.0000
  C   C1793     1.0  0.72474  0.99994  0.88769  1.0000
  H   H1421     1.0  0.78369  0.00522  0.89809  1.0000
  H   H1422     1.0  0.76232  0.03159  0.89669  1.0000
  C   C1794     1.0  0.90288  0.04884  0.86931  1.0000
  C   C1795     1.0  0.89492  0.03116  0.85076  1.0000
  C   C1796     1.0  0.90192  0.03977  0.82762  1.0000
  C   C1797     1.0  0.91710  0.06609  0.82299  1.0000
  C   C1798     1.0  0.92535  0.08383  0.84154  1.0000
  C   C1799     1.0  0.91837  0.07516  0.86472  1.0000
  H   H1423     1.0  0.88357  0.01087  0.85423  1.0000
  H   H1424     1.0  0.89580  0.02599  0.81335  1.0000
  C   C1800     1.0  0.94330  0.16493  0.84669  1.0000
  H   H1425     1.0  0.92464  0.08881  0.87908  1.0000
  C   C1801     1.0  0.73020  0.99491  0.98226  1.0000
  H   H1426     1.0  0.86724  0.22231  0.83613  1.0000
  H   H1427     1.0  0.90697  0.10859  0.77507  1.0000
  C   C1802     1.0  0.83001  0.12374  0.88183  1.0000
  C   C1803     1.0  0.81827  0.09887  0.84577  1.0000
  C   C1804     1.0  0.91725  0.98673  0.80118  1.0000
  H   H1428     1.0  0.85364  0.06772  0.81721  1.0000
  C   C1805     1.0  0.77988  0.00725  0.81526  1.0000
  H   H1429     1.0  0.80396  0.08330  0.83507  1.0000
  C   C1806     1.0  0.83791  0.03835  0.87975  1.0000
  C   C1807     1.0  0.91807  0.15335  0.85552  1.0000
  H   H1430     1.0  0.56614  0.04096  0.76566  1.0000
  C   C1808     1.0  0.50986  0.98716  0.75016  1.0000
  C   C1809     1.0  0.87880  0.19361  0.83815  1.0000
  H   H1431     1.0  0.96147  0.03212  0.82228  1.0000
  H   H1432     1.0  0.70948  0.99365  0.82179  1.0000
  C   C1810     1.0  0.81175  0.10324  0.86823  1.0000
  H   H1433     1.0  0.51044  0.17121  0.89524  1.0000
  C   C1811     1.0  0.85334  0.03891  0.78145  1.0000
  H   H1434     1.0  0.93063  0.02444  0.91000  1.0000
  P   P62       1.0  0.81243  0.01283  0.81297  1.0000
  C   C1812     1.0  0.84922  0.05900  0.83443  1.0000
  H   H1435     1.0  0.83386  0.03033  0.89730  1.0000
  C   C1813     1.0  0.88721  0.15223  0.76749  1.0000
  C   C1814     1.0  0.89484  0.14838  0.80891  1.0000
  S   S243      1.0  0.93255  0.26804  0.79234  1.0000
  H   H1436     1.0  0.82484  0.12733  0.89913  1.0000
  C   C1815     1.0  0.94051  0.22625  0.78909  1.0000
  C   C1816     1.0  0.72908  0.99752  0.81966  1.0000
  C   C1817     1.0  0.95435  0.21291  0.79165  1.0000
  H   H1437     1.0  0.68000  0.01522  0.99488  1.0000
  C   C1818     1.0  0.88745  0.15941  0.79097  1.0000
  C   C1819     1.0  0.81140  0.98225  0.81575  1.0000
  C   C1820     1.0  0.85527  0.99683  0.99067  1.0000
  C   C1821     1.0  0.91243  0.13999  0.87697  1.0000
  C   C1822     1.0  0.86447  0.05057  0.76004  1.0000
  C   C1823     1.0  0.85679  0.06404  0.87646  1.0000
  H   H1438     1.0  0.94531  0.19273  0.78715  1.0000
  H   H1439     1.0  0.74498  0.05503  0.96500  1.0000
  H   H1440     1.0  0.78924  0.03816  0.84021  1.0000
  H   H1441     1.0  0.94692  0.25078  0.85233  1.0000
  C   C1824     1.0  0.54341  0.07558  0.79159  1.0000
  C   C1825     1.0  0.57575  0.08745  0.79240  1.0000
  C   C1826     1.0  0.59108  0.08786  0.81787  1.0000
  C   C1827     1.0  0.55853  0.06897  0.85234  1.0000
  C   C1828     1.0  0.52791  0.05937  0.84288  1.0000
  C   C1829     1.0  0.52192  0.06305  0.81431  1.0000
  P   P63       1.0  0.50122  0.04228  0.86272  1.0000
  H   H1442     1.0  0.92733  0.12793  0.90576  1.0000
  C   C1830     1.0  0.51088  0.02968  0.88727  1.0000
  C   C1831     1.0  0.52734  0.01962  0.88364  1.0000
  C   C1832     1.0  0.53690  0.01231  0.90275  1.0000
  C   C1833     1.0  0.52888  0.01340  0.92556  1.0000
  C   C1834     1.0  0.51164  0.02230  0.92932  1.0000
  C   C1835     1.0  0.50289  0.03069  0.91033  1.0000
  H   H1443     1.0  0.89319  0.13051  0.88416  1.0000
  H   H1444     1.0  0.86869  0.15584  0.88364  1.0000
  H   H1445     1.0  0.90726  0.12077  0.81645  1.0000
  H   H1446     1.0  0.94023  0.20714  0.84995  1.0000
  H   H1447     1.0  0.84697  0.99379  0.79680  1.0000
  C   C1836     1.0  0.49013  0.06344  0.87324  1.0000
  C   C1837     1.0  0.50584  0.09023  0.87144  1.0000
  S   S244      1.0  0.82936  0.98582  0.92558  1.0000
  C   C1838     1.0  0.92383  0.20973  0.84735  1.0000
  H   H1448     1.0  0.90642  0.02742  0.94378  1.0000
  H   H1449     1.0  0.50893  0.12707  0.87715  1.0000
  H   H1450     1.0  0.53555  0.07678  0.77482  1.0000
  H   H1451     1.0  0.58697  0.09540  0.77658  1.0000
  H   H1452     1.0  0.61198  0.09597  0.81712  1.0000
  H   H1453     1.0  0.56136  0.06685  0.87102  1.0000
  H   H1454     1.0  0.50215  0.05696  0.80986  1.0000
  H   H1455     1.0  0.53368  0.01839  0.86608  1.0000
  C   C1839     1.0  0.93906  0.02776  0.92745  1.0000
  H   H1456     1.0  0.53646  0.00779  0.94031  1.0000
  H   H1457     1.0  0.50564  0.02340  0.94705  1.0000
  H   H1458     1.0  0.49030  0.03833  0.91387  1.0000
  H   H1459     1.0  0.88149  0.16087  0.75378  1.0000
  H   H1460     1.0  0.92480  0.03487  0.98395  1.0000
  C   C1840     1.0  0.95168  0.25262  0.79487  1.0000
  C   C1841     1.0  0.76348  0.99628  0.89363  1.0000
  C   C1842     1.0  0.89928  0.18892  0.84189  1.0000
  H   H1461     1.0  0.52492  0.09870  0.86384  1.0000
  H   H1462     1.0  0.88188  0.17357  0.79501  1.0000
  C   C1843     1.0  0.75971  0.98691  0.80272  1.0000
  C   C1844     1.0  0.70557  0.99297  0.94771  1.0000
  H   H1463     1.0  0.93678  0.10420  0.83807  1.0000
  H   H1464     1.0  0.85742  0.00186  0.97224  1.0000
  C   C1845     1.0  0.71745  0.01983  0.94787  1.0000
  H   H1465     1.0  0.90854  0.99595  0.79146  1.0000
  H   H1466     1.0  0.94814  0.17523  0.83014  1.0000
  H   H1467     1.0  0.81036  0.00289  0.86333  1.0000
  H   H1468     1.0  0.71246  0.02951  0.93455  1.0000
  H   H1469     1.0  0.48761  0.98828  0.85449  1.0000
  C   C1846     1.0  0.92777  0.23469  0.84892  1.0000
  C   C1847     1.0  0.81142  0.02913  0.76689  1.0000
  C   C1848     1.0  0.77431  0.02271  0.82992  1.0000
  C   C1849     1.0  0.82671  0.02807  0.78515  1.0000
  C   C1850     1.0  0.62456  0.99760  0.99318  1.0000
  H   H1470     1.0  0.84765  0.11083  0.81957  1.0000
  C   C1851     1.0  0.85484  0.13977  0.87304  1.0000
  C   C1852     1.0  0.84314  0.11469  0.83701  1.0000
  C   C1853     1.0  0.93182  0.13849  0.88937  1.0000
  C   C1854     1.0  0.49098  0.16512  0.88940  1.0000
  C   C1855     1.0  0.74906  0.01795  0.83194  1.0000
  Fe  Fe123     1.0  0.86257  0.99678  0.90106  1.0000
  H   H1471     1.0  0.79089  0.02112  0.76907  1.0000
  C   C1856     1.0  0.83063  0.03293  0.83754  1.0000
  C   C1857     1.0  0.73584  0.03423  0.96502  1.0000
  C   C1858     1.0  0.88288  0.21864  0.83961  1.0000
  C   C1859     1.0  0.96319  0.02976  0.93087  1.0000
  H   H1472     1.0  0.49995  0.16532  0.85262  1.0000
  C   C1860     1.0  0.89423  0.13392  0.76174  1.0000
  P   P64       1.0  0.89373  0.15644  0.83938  1.0000
  H   H1473     1.0  0.55114  0.00650  0.89994  1.0000
  C   C1861     1.0  0.90145  0.12274  0.77951  1.0000
  H   H1474     1.0  0.74482  0.02975  0.84352  1.0000
  Fe  Fe124     1.0  0.94048  0.31021  0.79190  1.0000
  H   H1475     1.0  0.86569  0.03874  0.79526  1.0000
  C   C1862     1.0  0.90736  0.23916  0.84497  1.0000
  C   C1863     1.0  0.55205  0.02074  0.76343  1.0000
  C   C1864     1.0  0.96471  0.99078  0.90037  1.0000
  C   C1865     1.0  0.93685  0.98378  0.79096  1.0000
  H   H1476     1.0  0.55983  0.98786  0.85350  1.0000
  C   C1866     1.0  0.47189  0.16103  0.90574  1.0000
  S   S245      1.0  0.64425  0.98223  0.91762  1.0000
  H   H1477     1.0  0.48040  0.00844  0.77440  1.0000
  C   C1867     1.0  0.47546  0.01592  0.84656  1.0000
  C   C1868     1.0  0.52821  0.01336  0.75293  1.0000
  H   H1478     1.0  0.53787  0.10366  0.99867  1.0000
  H   H1479     1.0  0.69137  0.06069  0.99209  1.0000
  C   C1869     1.0  0.48506  0.16162  0.86543  1.0000
  C   C1870     1.0  0.47160  0.01235  0.75952  1.0000
  H   H1480     1.0  0.89370  0.98004  0.83204  1.0000
  H   H1481     1.0  0.94313  0.99080  0.77326  1.0000
  H   H1482     1.0  0.50898  0.21918  0.75868  1.0000
  H   H1483     1.0  0.96097  0.97870  0.95510  1.0000
  C   C1871     1.0  0.47334  0.99152  0.84609  1.0000
  H   H1484     1.0  0.60055  0.30242  0.87421  1.0000
  Fe  Fe125     1.0  0.96415  0.11249  0.79071  1.0000
  C   C1872     1.0  0.95697  0.15051  0.88062  1.0000
  H   H1485     1.0  0.47654  0.16396  0.92433  1.0000
  H   H1486     1.0  0.75663  0.03294  0.99541  1.0000
  C   C1873     1.0  0.96273  0.16391  0.85939  1.0000
  C   C1874     1.0  0.73439  0.98202  0.80500  1.0000
  H   H1487     1.0  0.69189  0.98236  0.93389  1.0000
  C   C1875     1.0  0.90903  0.97801  0.82405  1.0000
  C   C1876     1.0  0.71163  0.98031  0.96510  1.0000
  H   H1488     1.0  0.73527  0.98549  0.99573  1.0000
  H   H1489     1.0  0.88507  0.05891  0.75747  1.0000
  C   C1877     1.0  0.83101  0.97862  0.80623  1.0000
  Fe  Fe126     1.0  0.84903  0.36738  0.22375  1.0000
  Fe  Fe127     1.0  0.57169  0.62971  0.21504  1.0000
  S   S246      1.0  0.84450  0.40197  0.21909  1.0000
  Fe  Fe128     1.0  0.88421  0.34597  0.21158  1.0000
  S   S247      1.0  0.91648  0.35469  0.18397  1.0000
  C   C1878     1.0  0.48283  0.52759  0.05118  1.0000
  H   H1490     1.0  0.84474  0.44870  0.05115  1.0000
  S   S248      1.0  0.83512  0.43720  0.11739  1.0000
  Fe  Fe129     1.0  0.62722  0.45846  0.12496  1.0000
  S   S249      1.0  0.66150  0.45083  0.12808  1.0000
  Fe  Fe130     1.0  0.56875  0.44240  0.13514  1.0000
  S   S250      1.0  0.56993  0.46902  0.10646  1.0000
  S   S251      1.0  0.53239  0.42745  0.15932  1.0000
  Fe  Fe131     1.0  0.59203  0.45559  0.08424  1.0000
  S   S252      1.0  0.58928  0.44552  0.04505  1.0000
  S   S253      1.0  0.58842  0.42660  0.11153  1.0000
  S   S254      1.0  0.60746  0.47170  0.15094  1.0000
  S   S255      1.0  0.84562  0.33834  0.19694  1.0000
  C   C1879     1.0  0.59198  0.46588  0.02128  1.0000
  C   C1880     1.0  0.75211  0.49091  0.01714  1.0000
  C   C1881     1.0  0.73869  0.47413  0.12612  1.0000
  C   C1882     1.0  0.71158  0.46040  0.12285  1.0000
  C   C1883     1.0  0.69594  0.47027  0.13084  1.0000
  H   H1491     1.0  0.75017  0.46586  0.12029  1.0000
  H   H1492     1.0  0.70256  0.44176  0.11433  1.0000
  C   C1884     1.0  0.83306  0.48592  0.03137  1.0000
  C   C1885     1.0  0.49379  0.50643  0.14733  1.0000
  H   H1493     1.0  0.82983  0.47932  0.04938  1.0000
  C   C1886     1.0  0.88248  0.39810  0.12318  1.0000
  H   H1494     1.0  0.50501  0.55224  0.10605  1.0000
  H   H1495     1.0  0.49675  0.45216  0.15814  1.0000
  C   C1887     1.0  0.50862  0.46310  0.06703  1.0000
  C   C1888     1.0  0.50151  0.40382  0.17119  1.0000
  C   C1889     1.0  0.48921  0.37778  0.16469  1.0000
  C   C1890     1.0  0.48694  0.56612  0.08212  1.0000
  C   C1891     1.0  0.68176  0.40417  0.15906  1.0000
  H   H1496     1.0  0.47398  0.52312  0.20663  1.0000
  H   H1497     1.0  0.49854  0.37132  0.15237  1.0000
  C   C1892     1.0  0.65999  0.38086  0.16507  1.0000
  C   C1893     1.0  0.84458  0.41136  0.19000  1.0000
  C   C1894     1.0  0.85561  0.43759  0.18504  1.0000
  C   C1895     1.0  0.85399  0.44562  0.16233  1.0000
  C   C1896     1.0  0.84039  0.42738  0.14480  1.0000
  C   C1897     1.0  0.82987  0.40114  0.14959  1.0000
  C   C1898     1.0  0.83227  0.39311  0.17216  1.0000
  H   H1498     1.0  0.86509  0.45169  0.19885  1.0000
  H   H1499     1.0  0.86288  0.46589  0.15849  1.0000
  H   H1500     1.0  0.81931  0.38701  0.13605  1.0000
  H   H1501     1.0  0.82353  0.37281  0.17605  1.0000
  Fe  Fe132     1.0  0.85434  0.52235  0.08809  1.0000
  S   S256      1.0  0.85732  0.54750  0.11908  1.0000
  S   S257      1.0  0.85912  0.53538  0.04987  1.0000
  Fe  Fe133     1.0  0.84150  0.47732  0.11946  1.0000
  S   S258      1.0  0.84181  0.49823  0.15240  1.0000
  Fe  Fe134     1.0  0.81982  0.51255  0.13076  1.0000
  S   S259      1.0  0.78491  0.51629  0.14288  1.0000
  Fe  Fe135     1.0  0.87938  0.53102  0.13819  1.0000
  S   S260      1.0  0.91540  0.54384  0.16262  1.0000
  S   S261      1.0  0.81670  0.48872  0.09919  1.0000
  S   S262      1.0  0.87891  0.50885  0.10582  1.0000
  H   H1502     1.0  0.76259  0.35565  0.14118  1.0000
  H   H1503     1.0  0.96095  0.49497  0.16719  1.0000
  H   H1504     1.0  0.94980  0.55329  0.11918  1.0000
  H   H1505     1.0  0.51014  0.55750  0.18419  1.0000
  Fe  Fe136     1.0  0.60770  0.61040  0.23016  1.0000
  S   S263      1.0  0.61534  0.57743  0.22768  1.0000
  S   S264      1.0  0.63062  0.48629  0.09706  1.0000
  Fe  Fe137     1.0  0.60852  0.49718  0.12164  1.0000
  S   S265      1.0  0.61862  0.53854  0.12498  1.0000
  C   C1899     1.0  0.58618  0.48561  0.02388  1.0000
  C   C1900     1.0  0.95514  0.46002  0.06357  1.0000
  H   H1506     1.0  0.58108  0.48953  0.04104  1.0000
  C   C1901     1.0  0.76929  0.56070  0.04857  1.0000
  C   C1902     1.0  0.61542  0.56627  0.19911  1.0000
  C   C1903     1.0  0.61068  0.57731  0.17951  1.0000
  C   C1904     1.0  0.61186  0.56877  0.15679  1.0000
  C   C1905     1.0  0.61702  0.54864  0.15363  1.0000
  C   C1906     1.0  0.62139  0.53734  0.17326  1.0000
  C   C1907     1.0  0.62083  0.54633  0.19594  1.0000
  H   H1507     1.0  0.60638  0.59257  0.18176  1.0000
  H   H1508     1.0  0.60856  0.57763  0.14164  1.0000
  H   H1509     1.0  0.62584  0.52214  0.17097  1.0000
  H   H1510     1.0  0.62491  0.53809  0.21106  1.0000
  C   C1908     1.0  0.75074  0.49813  0.13747  1.0000
  C   C1909     1.0  0.70805  0.49445  0.14180  1.0000
  C   C1910     1.0  0.73512  0.50812  0.14519  1.0000
  H   H1511     1.0  0.69645  0.50228  0.14831  1.0000
  H   H1512     1.0  0.74402  0.52652  0.15413  1.0000
  C   C1911     1.0  0.94802  0.56686  0.17155  1.0000
  H   H1513     1.0  0.91303  0.47577  0.21630  1.0000
  H   H1514     1.0  0.86225  0.38613  0.12742  1.0000
  C   C1912     1.0  0.50429  0.59936  0.18416  1.0000
  H   H1515     1.0  0.72768  0.64207  0.04024  1.0000
  C   C1913     1.0  0.73820  0.48444  0.05799  1.0000
  C   C1914     1.0  0.66216  0.47897  0.04313  1.0000
  H   H1516     1.0  0.50192  0.51870  0.07913  1.0000
  C   C1915     1.0  0.52027  0.52391  0.14554  1.0000
  C   C1916     1.0  0.96210  0.55864  0.18547  1.0000
  H   H1517     1.0  0.51172  0.44360  0.23775  1.0000
  C   C1917     1.0  0.84674  0.51233  0.02672  1.0000
  H   H1518     1.0  0.91428  0.46728  0.17294  1.0000
  H   H1519     1.0  0.52715  0.54417  0.14271  1.0000
  C   C1918     1.0  0.70249  0.52438  0.06264  1.0000
  C   C1919     1.0  0.91708  0.43463  0.18435  1.0000
  C   C1920     1.0  0.90363  0.44208  0.03353  1.0000
  S   S266      1.0  0.86393  0.31422  0.23875  1.0000
  H   H1520     1.0  0.50564  0.60314  0.14640  1.0000
  C   C1921     1.0  0.56994  0.47806  0.20454  1.0000
  C   C1922     1.0  0.55139  0.48278  0.21450  1.0000
  C   C1923     1.0  0.52312  0.51595  0.22835  1.0000
  C   C1924     1.0  0.86321  0.43960  0.02321  1.0000
  C   C1925     1.0  0.48660  0.44085  0.07464  1.0000
  H   H1521     1.0  0.69149  0.34132  0.10850  1.0000
  H   H1522     1.0  0.76030  0.54054  0.10560  1.0000
  C   C1926     1.0  0.54343  0.53551  0.21545  1.0000
  C   C1927     1.0  0.59188  0.48316  0.21735  1.0000
  H   H1523     1.0  0.58070  0.51428  0.00619  1.0000
  H   H1524     1.0  0.94382  0.51750  0.14460  1.0000
  H   H1525     1.0  0.56734  0.47049  0.18681  1.0000
  H   H1526     1.0  0.53449  0.47867  0.20426  1.0000
  H   H1527     1.0  0.68632  0.60231  0.04893  1.0000
  C   C1928     1.0  0.50286  0.47199  0.15429  1.0000
  H   H1528     1.0  0.55460  0.56583  0.19007  1.0000
  C   C1929     1.0  0.79331  0.54902  0.08476  1.0000
  P   P65       1.0  0.92702  0.45747  0.07804  1.0000
  C   C1930     1.0  0.93472  0.48793  0.09121  1.0000
  C   C1931     1.0  0.91640  0.43271  0.10034  1.0000
  C   C1932     1.0  0.89017  0.41727  0.10603  1.0000
  H   H1529     1.0  0.75507  0.44944  0.00279  1.0000
  C   C1933     1.0  0.93764  0.50826  0.07689  1.0000
  C   C1934     1.0  0.59553  0.49343  0.24006  1.0000
  C   C1935     1.0  0.47608  0.56352  0.05981  1.0000
  C   C1936     1.0  0.94274  0.51498  0.12567  1.0000
  C   C1937     1.0  0.93717  0.49140  0.11570  1.0000
  C   C1938     1.0  0.84697  0.49165  0.23807  1.0000
  C   C1939     1.0  0.88437  0.43708  0.01696  1.0000
  C   C1940     1.0  0.95370  0.47540  0.17269  1.0000
  H   H1530     1.0  0.80242  0.54404  0.09866  1.0000
  H   H1531     1.0  0.68146  0.42203  0.16081  1.0000
  H   H1532     1.0  0.87893  0.45871  0.08011  1.0000
  H   H1533     1.0  0.87552  0.41983  0.09746  1.0000
  C   C1941     1.0  0.72688  0.35109  0.12694  1.0000
  C   C1942     1.0  0.68604  0.61991  0.23682  1.0000
  H   H1534     1.0  0.81853  0.49095  0.21436  1.0000
  C   C1943     1.0  0.49331  0.52637  0.20907  1.0000
  H   H1535     1.0  0.95218  0.49930  0.01398  1.0000
  H   H1536     1.0  0.94529  0.54739  0.07586  1.0000
  H   H1537     1.0  0.84834  0.43578  0.01031  1.0000
  C   C1944     1.0  0.95517  0.43754  0.05666  1.0000
  H   H1538     1.0  0.49799  0.43135  0.19306  1.0000
  C   C1945     1.0  0.70399  0.38136  0.14744  1.0000
  H   H1539     1.0  0.47222  0.43221  0.12389  1.0000
  P   P66       1.0  0.73271  0.38229  0.13644  1.0000
  C   C1946     1.0  0.75537  0.39417  0.16054  1.0000
  H   H1540     1.0  0.73647  0.35809  0.17953  1.0000
  C   C1947     1.0  0.95104  0.37257  0.17985  1.0000
  H   H1541     1.0  0.54305  0.48291  0.15467  1.0000
  S   S267      1.0  0.88790  0.37643  0.23693  1.0000
  C   C1948     1.0  0.66045  0.35788  0.16309  1.0000
  H   H1542     1.0  0.76005  0.56498  0.03432  1.0000
  C   C1949     1.0  0.77563  0.41981  0.16112  1.0000
  C   C1950     1.0  0.79302  0.42860  0.17996  1.0000
  C   C1951     1.0  0.79035  0.41192  0.19823  1.0000
  C   C1952     1.0  0.76993  0.38658  0.19803  1.0000
  C   C1953     1.0  0.75226  0.37780  0.17942  1.0000
  C   C1954     1.0  0.74504  0.40215  0.11055  1.0000
  C   C1955     1.0  0.72985  0.40954  0.09757  1.0000
  C   C1956     1.0  0.73961  0.42422  0.07711  1.0000
  C   C1957     1.0  0.76438  0.43123  0.06926  1.0000
  C   C1958     1.0  0.77931  0.42340  0.08178  1.0000
  C   C1959     1.0  0.76962  0.40877  0.10223  1.0000
  H   H1543     1.0  0.60623  0.47954  0.20945  1.0000
  H   H1544     1.0  0.72074  0.42273  0.14649  1.0000
  C   C1960     1.0  0.70384  0.40447  0.15066  1.0000
  H   H1545     1.0  0.76952  0.60530  0.06307  1.0000
  H   H1546     1.0  0.75984  0.57876  0.11788  1.0000
  C   C1961     1.0  0.67256  0.50203  0.03059  1.0000
  C   C1962     1.0  0.73293  0.48529  0.03411  1.0000
  H   H1547     1.0  0.77826  0.43300  0.14701  1.0000
  H   H1548     1.0  0.80903  0.44817  0.18006  1.0000
  H   H1549     1.0  0.80446  0.41845  0.21232  1.0000
  C   C1963     1.0  0.75123  0.60410  0.05938  1.0000
  C   C1964     1.0  0.68247  0.35811  0.15455  1.0000
  C   C1965     1.0  0.82215  0.48137  0.22880  1.0000
  H   H1550     1.0  0.82340  0.55727  0.05967  1.0000
  H   H1551     1.0  0.93524  0.50579  0.05801  1.0000
  H   H1552     1.0  0.51457  0.55430  0.01393  1.0000
  H   H1553     1.0  0.78131  0.40258  0.11160  1.0000
  C   C1966     1.0  0.69241  0.50103  0.07482  1.0000
  C   C1967     1.0  0.73980  0.56877  0.12312  1.0000
  C   C1968     1.0  0.70058  0.31106  0.10564  1.0000
  C   C1969     1.0  0.48173  0.47790  0.04859  1.0000
  H   H1554     1.0  0.56300  0.53949  0.21788  1.0000
  H   H1555     1.0  0.49559  0.59116  0.22093  1.0000
  H   H1556     1.0  0.95503  0.44110  0.10888  1.0000
  H   H1557     1.0  0.55854  0.52891  0.14679  1.0000
  C   C1970     1.0  0.51371  0.54592  0.19650  1.0000
  S   S268      1.0  0.53893  0.61772  0.18716  1.0000
  C   C1971     1.0  0.50430  0.51429  0.00989  1.0000
  H   H1558     1.0  0.93870  0.41875  0.06032  1.0000
  C   C1972     1.0  0.49793  0.51134  0.22493  1.0000
  H   H1559     1.0  0.80191  0.56704  0.02740  1.0000
  C   C1973     1.0  0.73364  0.57005  0.14666  1.0000
  C   C1974     1.0  0.70786  0.55806  0.15373  1.0000
  C   C1975     1.0  0.77677  0.49658  0.02460  1.0000
  C   C1976     1.0  0.93354  0.42491  0.18848  1.0000
  C   C1977     1.0  0.80512  0.55646  0.06276  1.0000
  C   C1978     1.0  0.96125  0.37428  0.15708  1.0000
  C   C1979     1.0  0.50624  0.48161  0.05416  1.0000
  C   C1980     1.0  0.82356  0.46800  0.01271  1.0000
  H   H1560     1.0  0.92573  0.40531  0.19459  1.0000
  H   H1561     1.0  0.48030  0.51341  0.14587  1.0000
  C   C1981     1.0  0.68820  0.54521  0.13719  1.0000
  H   H1562     1.0  0.74889  0.58029  0.15942  1.0000
  H   H1563     1.0  0.70307  0.55881  0.17196  1.0000
  C   C1982     1.0  0.49639  0.55001  0.08881  1.0000
  H   H1564     1.0  0.95352  0.53851  0.18985  1.0000
  C   C1983     1.0  0.48763  0.58863  0.20340  1.0000
  H   H1565     1.0  0.96135  0.38376  0.21598  1.0000
  H   H1566     1.0  0.64373  0.33987  0.16823  1.0000
  H   H1567     1.0  0.68261  0.34018  0.15366  1.0000
  H   H1568     1.0  0.76812  0.37363  0.21212  1.0000
  H   H1569     1.0  0.70094  0.54215  0.02996  1.0000
  C   C1984     1.0  0.49316  0.59514  0.16150  1.0000
  C   C1985     1.0  0.68289  0.59755  0.20013  1.0000
  H   H1570     1.0  0.94814  0.36476  0.14258  1.0000
  C   C1986     1.0  0.46740  0.63814  0.16439  1.0000
  H   H1571     1.0  0.77201  0.44263  0.05344  1.0000
  C   C1987     1.0  0.90078  0.39427  0.13485  1.0000
  H   H1572     1.0  0.94096  0.40672  0.13876  1.0000
  C   C1988     1.0  0.72788  0.58132  0.06369  1.0000
  C   C1989     1.0  0.53874  0.55048  0.19967  1.0000
  C   C1990     1.0  0.75112  0.62585  0.05074  1.0000
  H   H1573     1.0  0.69959  0.50041  0.09214  1.0000
  C   C1991     1.0  0.76272  0.48995  0.06515  1.0000
  C   C1992     1.0  0.78200  0.49620  0.04848  1.0000
  C   C1993     1.0  0.55460  0.49258  0.23750  1.0000
  P   P67       1.0  0.72764  0.55353  0.07600  1.0000
  H   H1574     1.0  0.64574  0.46167  0.03615  1.0000
  C   C1994     1.0  0.95993  0.44011  0.18410  1.0000
  H   H1575     1.0  0.79854  0.42877  0.07580  1.0000
  C   C1995     1.0  0.53800  0.51541  0.14805  1.0000
  H   H1576     1.0  0.93426  0.47581  0.12710  1.0000
  H   H1577     1.0  0.46868  0.57600  0.05467  1.0000
  C   C1996     1.0  0.52929  0.48950  0.15254  1.0000
  H   H1578     1.0  0.76700  0.48988  0.08366  1.0000
  H   H1579     1.0  0.80119  0.50115  0.05411  1.0000
  C   C1997     1.0  0.80199  0.45872  0.23810  1.0000
  H   H1580     1.0  0.89576  0.50295  0.20147  1.0000
  C   C1998     1.0  0.75773  0.55412  0.07090  1.0000
  C   C1999     1.0  0.58593  0.49957  0.00405  1.0000
  H   H1581     1.0  0.52361  0.49881  0.04857  1.0000
  H   H1582     1.0  0.67882  0.53400  0.10115  1.0000
  H   H1583     1.0  0.89480  0.37936  0.14812  1.0000
  H   H1584     1.0  0.71040  0.40382  0.10298  1.0000
  H   H1585     1.0  0.66413  0.46059  0.07497  1.0000
  H   H1586     1.0  0.69278  0.58785  0.23338  1.0000
  C   C2000     1.0  0.69433  0.54364  0.11374  1.0000
  C   C2001     1.0  0.48877  0.41147  0.18748  1.0000
  H   H1587     1.0  0.66428  0.50252  0.01379  1.0000
  H   H1588     1.0  0.94996  0.59986  0.15483  1.0000
  C   C2002     1.0  0.92689  0.40976  0.12955  1.0000
  H   H1589     1.0  0.52447  0.63873  0.22573  1.0000
  H   H1590     1.0  0.87022  0.44704  0.24823  1.0000
  C   C2003     1.0  0.70450  0.58099  0.06019  1.0000
  H   H1591     1.0  0.91980  0.44006  0.02813  1.0000
  H   H1592     1.0  0.79203  0.50122  0.01197  1.0000
  C   C2004     1.0  0.49453  0.53094  0.07339  1.0000
  C   C2005     1.0  0.91904  0.49424  0.22442  1.0000
  C   C2006     1.0  0.92714  0.45984  0.17636  1.0000
  C   C2007     1.0  0.67588  0.61347  0.18826  1.0000
  C   C2008     1.0  0.93471  0.42906  0.11255  1.0000
  H   H1593     1.0  0.68626  0.56398  0.06436  1.0000
  C   C2009     1.0  0.88067  0.45257  0.06256  1.0000
  C   C2010     1.0  0.90197  0.44997  0.05649  1.0000
  C   C2011     1.0  0.68794  0.60072  0.22433  1.0000
  C   C2012     1.0  0.74490  0.34321  0.13174  1.0000
  C   C2013     1.0  0.67856  0.63552  0.22482  1.0000
  H   H1594     1.0  0.67118  0.61047  0.16967  1.0000
  H   H1595     1.0  0.66814  0.53640  0.14245  1.0000
  C   C2014     1.0  0.72017  0.55475  0.10663  1.0000
  H   H1596     1.0  0.91594  0.50810  0.01794  1.0000
  H   H1597     1.0  0.48859  0.42650  0.08452  1.0000
  C   C2015     1.0  0.67243  0.47838  0.06503  1.0000
  C   C2016     1.0  0.69306  0.52456  0.04004  1.0000
  C   C2017     1.0  0.76947  0.54733  0.08870  1.0000
  H   H1598     1.0  0.72339  0.47963  0.07111  1.0000
  H   H1599     1.0  0.81310  0.44761  0.01653  1.0000
  C   C2018     1.0  0.48482  0.48014  0.15103  1.0000
  C   C2019     1.0  0.96016  0.59299  0.16556  1.0000
  C   C2020     1.0  0.86128  0.44710  0.04607  1.0000
  H   H1600     1.0  0.89653  0.42247  0.18718  1.0000
  C   C2021     1.0  0.90893  0.50932  0.21635  1.0000
  C   C2022     1.0  0.70446  0.60276  0.05157  1.0000
  C   C2023     1.0  0.72775  0.62515  0.04674  1.0000
  C   C2024     1.0  0.94604  0.53524  0.11130  1.0000
  H   H1601     1.0  0.64285  0.38070  0.17142  1.0000
  H   H1602     1.0  0.72791  0.43006  0.06729  1.0000
  C   C2025     1.0  0.70505  0.33514  0.11326  1.0000
  H   H1603     1.0  0.68345  0.58218  0.19068  1.0000
  H   H1604     1.0  0.52759  0.46596  0.07108  1.0000
  H   H1605     1.0  0.71401  0.48169  0.02922  1.0000
  C   C2026     1.0  0.51882  0.54081  0.00524  1.0000
  C   C2027     1.0  0.79294  0.56194  0.04457  1.0000
  H   H1606     1.0  0.75413  0.31298  0.12820  1.0000
  H   H1607     1.0  0.94473  0.49113  0.24869  1.0000
  H   H1608     1.0  0.90576  0.43860  0.24161  1.0000
  H   H1609     1.0  0.78273  0.45069  0.23083  1.0000
  P   P68       1.0  0.47890  0.50189  0.03166  1.0000
  C   C2028     1.0  0.91620  0.53294  0.22716  1.0000
  C   C2029     1.0  0.67369  0.63243  0.20061  1.0000
  H   H1610     1.0  0.48186  0.49641  0.23451  1.0000
  C   C2030     1.0  0.47435  0.54459  0.04427  1.0000
  H   H1611     1.0  0.86241  0.50933  0.23087  1.0000
  C   C2031     1.0  0.94345  0.53188  0.08691  1.0000
  C   C2032     1.0  0.93697  0.50304  0.24283  1.0000
  H   H1612     1.0  0.48802  0.58062  0.09426  1.0000
  H   H1613     1.0  0.90881  0.54489  0.22044  1.0000
  C   C2033     1.0  0.91944  0.50146  0.00132  1.0000
  S   S269      1.0  0.61061  0.63739  0.20148  1.0000
  S   S270      1.0  0.56858  0.60142  0.24241  1.0000
  C   C2034     1.0  0.85037  0.52061  0.00318  1.0000
  C   C2035     1.0  0.93342  0.54140  0.24613  1.0000
  C   C2036     1.0  0.74034  0.31911  0.12413  1.0000
  H   H1614     1.0  0.50042  0.47708  0.00209  1.0000
  H   H1615     1.0  0.76918  0.64340  0.04745  1.0000
  H   H1616     1.0  0.86076  0.54099  0.99938  1.0000
  H   H1617     1.0  0.88588  0.43137  0.99918  1.0000
  Fe  Fe138     1.0  0.86392  0.37688  0.45506  1.0000
  C   C2037     1.0  0.50168  0.46841  0.25751  1.0000
  C   C2038     1.0  0.76196  0.33108  0.36147  1.0000
  Fe  Fe139     1.0  0.83433  0.38713  0.41824  1.0000
  S   S271      1.0  0.80523  0.38479  0.44480  1.0000
  S   S272      1.0  0.83101  0.39289  0.37912  1.0000
  Fe  Fe140     1.0  0.83936  0.40882  0.46893  1.0000
  C   C2039     1.0  0.94452  0.52685  0.25365  1.0000
  Fe  Fe141     1.0  0.80478  0.34880  0.45773  1.0000
  S   S273      1.0  0.86807  0.41366  0.44104  1.0000
  S   S274      1.0  0.83245  0.35074  0.43007  1.0000
  Fe  Fe142     1.0  0.86517  0.34485  0.26290  1.0000
  S   S275      1.0  0.87614  0.34908  0.30181  1.0000
  C   C2040     1.0  0.76263  0.35778  0.39385  1.0000
  C   C2041     1.0  0.84165  0.37802  0.35849  1.0000
  C   C2042     1.0  0.83241  0.37418  0.33525  1.0000
  C   C2043     1.0  0.84259  0.36511  0.31779  1.0000
  C   C2044     1.0  0.86182  0.35930  0.32348  1.0000
  C   C2045     1.0  0.87040  0.36226  0.34692  1.0000
  C   C2046     1.0  0.86039  0.37158  0.36436  1.0000
  H   H1618     1.0  0.81762  0.37866  0.33062  1.0000
  H   H1619     1.0  0.83589  0.36300  0.29984  1.0000
  H   H1620     1.0  0.86764  0.37437  0.38221  1.0000
  C   C2047     1.0  0.68111  0.60548  0.34956  1.0000
  C   C2048     1.0  0.55515  0.55640  0.29901  1.0000
  H   H1621     1.0  0.47310  0.40342  0.24939  1.0000
  H   H1622     1.0  0.88606  0.48466  0.46801  1.0000
  C   C2049     1.0  0.49882  0.53375  0.47866  1.0000
  Fe  Fe143     1.0  0.61564  0.58260  0.47611  1.0000
  S   S276      1.0  0.58905  0.58224  0.44767  1.0000
  C   C2050     1.0  0.80667  0.44612  0.25647  1.0000
  H   H1623     1.0  0.93832  0.55945  0.25462  1.0000
  Fe  Fe144     1.0  0.59825  0.62091  0.46171  1.0000
  C   C2051     1.0  0.52882  0.63878  0.26320  1.0000
  Fe  Fe145     1.0  0.62436  0.60507  0.42546  1.0000
  S   S277      1.0  0.62630  0.59647  0.38658  1.0000
  H   H1624     1.0  0.69508  0.57840  0.28606  1.0000
  S   S278      1.0  0.65103  0.60334  0.45272  1.0000
  C   C2052     1.0  0.92764  0.53311  0.33932  1.0000
  C   C2053     1.0  0.87762  0.44143  0.26303  1.0000
  C   C2054     1.0  0.61320  0.60714  0.36425  1.0000
  C   C2055     1.0  0.61785  0.60415  0.34052  1.0000
  C   C2056     1.0  0.60796  0.61263  0.32230  1.0000
  C   C2057     1.0  0.59300  0.62387  0.32762  1.0000
  H   H1625     1.0  0.70885  0.63453  0.41089  1.0000
  C   C2058     1.0  0.59817  0.61830  0.36958  1.0000
  H   H1626     1.0  0.62900  0.59509  0.33622  1.0000
  H   H1627     1.0  0.93129  0.41061  0.40753  1.0000
  H   H1628     1.0  0.59429  0.62054  0.38778  1.0000
  H   H1629     1.0  0.56000  0.52779  0.47038  1.0000
  C   C2059     1.0  0.58806  0.62654  0.35134  1.0000
  H   H1630     1.0  0.87121  0.48735  0.26336  1.0000
  C   C2060     1.0  0.93529  0.42850  0.41589  1.0000
  C   C2061     1.0  0.76612  0.35475  0.36999  1.0000
  H   H1631     1.0  0.58335  0.50298  0.47127  1.0000
  H   H1632     1.0  0.66229  0.53676  0.30235  1.0000
  C   C2062     1.0  0.54162  0.51688  0.27696  1.0000
  C   C2063     1.0  0.70196  0.62689  0.39348  1.0000
  H   H1633     1.0  0.90184  0.49948  0.35933  1.0000
  P   P69       1.0  0.53021  0.49838  0.25000  1.0000
  H   H1634     1.0  0.50462  0.42260  0.47069  1.0000
  C   C2064     1.0  0.91400  0.50673  0.34389  1.0000
  H   H1635     1.0  0.50040  0.51499  0.31988  1.0000
  C   C2065     1.0  0.72457  0.63051  0.27403  1.0000
  C   C2066     1.0  0.55882  0.54522  0.31908  1.0000
  C   C2067     1.0  0.55353  0.51974  0.31828  1.0000
  C   C2068     1.0  0.49942  0.43008  0.48578  1.0000
  C   C2069     1.0  0.94614  0.52544  0.30423  1.0000
  P   P70       1.0  0.69198  0.62320  0.26816  1.0000
  H   H1636     1.0  0.75097  0.37492  0.31846  1.0000
  C   C2070     1.0  0.94337  0.54243  0.31942  1.0000
  C   C2071     1.0  0.89952  0.51872  0.49006  1.0000
  H   H1637     1.0  0.95558  0.42365  0.44454  1.0000
  H   H1638     1.0  0.56580  0.55635  0.33523  1.0000
  C   C2072     1.0  0.48307  0.46877  0.27228  1.0000
  H   H1639     1.0  0.54064  0.48577  0.29697  1.0000
  C   C2073     1.0  0.53459  0.63773  0.49256  1.0000
  P   P71       1.0  0.47030  0.53642  0.48231  1.0000
  H   H1640     1.0  0.61153  0.61009  0.30412  1.0000
  C   C2074     1.0  0.75697  0.63326  0.30154  1.0000
  S   S279      1.0  0.62292  0.62079  0.49141  1.0000
  H   H1641     1.0  0.56249  0.45607  0.47951  1.0000
  Fe  Fe146     1.0  0.65606  0.64139  0.46588  1.0000
  C   C2075     1.0  0.91561  0.48960  0.32828  1.0000
  H   H1642     1.0  0.49317  0.54895  0.38395  1.0000
  H   H1643     1.0  0.55627  0.51105  0.33390  1.0000
  H   H1644     1.0  0.90454  0.46915  0.33171  1.0000
  C   C2076     1.0  0.76671  0.35819  0.29490  1.0000
  C   C2077     1.0  0.78881  0.40317  0.30627  1.0000
  C   C2078     1.0  0.49784  0.44468  0.24914  1.0000
  C   C2079     1.0  0.83166  0.45615  0.26578  1.0000
  H   H1645     1.0  0.94567  0.42728  0.35369  1.0000
  C   C2080     1.0  0.88400  0.49209  0.48472  1.0000
  H   H1646     1.0  0.91321  0.53144  0.47717  1.0000
  C   C2081     1.0  0.65683  0.55060  0.29672  1.0000
  C   C2082     1.0  0.49632  0.58093  0.45498  1.0000
  H   H1647     1.0  0.82495  0.39065  0.26785  1.0000
  H   H1648     1.0  0.86830  0.32789  0.43296  1.0000
  C   C2083     1.0  0.94241  0.47251  0.43945  1.0000
  C   C2084     1.0  0.92868  0.46502  0.41824  1.0000
  H   H1649     1.0  0.91975  0.47556  0.41154  1.0000
  H   H1650     1.0  0.66113  0.62829  0.30666  1.0000
  C   C2085     1.0  0.85180  0.47914  0.25646  1.0000
  C   C2086     1.0  0.66853  0.59260  0.28065  1.0000
  H   H1651     1.0  0.51616  0.61529  0.43413  1.0000
  H   H1652     1.0  0.77291  0.37105  0.35829  1.0000
  C   C2087     1.0  0.48544  0.53298  0.37161  1.0000
  C   C2088     1.0  0.77543  0.64270  0.28366  1.0000
  C   C2089     1.0  0.49938  0.53443  0.35140  1.0000
  H   H1653     1.0  0.48651  0.51327  0.44534  1.0000
  H   H1654     1.0  0.78870  0.41868  0.31595  1.0000
  C   C2090     1.0  0.96207  0.46849  0.35238  1.0000
  C   C2091     1.0  0.49999  0.60410  0.44574  1.0000
  C   C2092     1.0  0.57707  0.49831  0.25007  1.0000
  H   H1655     1.0  0.75007  0.33898  0.29593  1.0000
  H   H1656     1.0  0.94578  0.46732  0.34307  1.0000
  C   C2093     1.0  0.47613  0.56684  0.47083  1.0000
  C   C2094     1.0  0.63104  0.54437  0.29799  1.0000
  C   C2095     1.0  0.95324  0.45838  0.44877  1.0000
  S   S280      1.0  0.84454  0.44127  0.49497  1.0000
  H   H1657     1.0  0.94375  0.48875  0.44909  1.0000
  C   C2096     1.0  0.96202  0.44589  0.35832  1.0000
  C   C2097     1.0  0.54283  0.52923  0.47271  1.0000
  C   C2098     1.0  0.52314  0.51868  0.45598  1.0000
  C   C2099     1.0  0.50128  0.52108  0.45881  1.0000
  H   H1658     1.0  0.55909  0.57613  0.29960  1.0000
  C   C2100     1.0  0.94190  0.46117  0.49675  1.0000
  C   C2101     1.0  0.76728  0.37842  0.30762  1.0000
  H   H1659     1.0  0.58068  0.50682  0.26740  1.0000
  H   H1660     1.0  0.52492  0.61910  0.26371  1.0000
  H   H1661     1.0  0.52510  0.50904  0.44065  1.0000
  C   C2102     1.0  0.92065  0.43622  0.49894  1.0000
  H   H1662     1.0  0.63636  0.59862  0.27431  1.0000
  H   H1663     1.0  0.50961  0.57447  0.45005  1.0000
  C   C2103     1.0  0.50417  0.45535  0.48582  1.0000
  C   C2104     1.0  0.81017  0.40778  0.29246  1.0000
  C   C2105     1.0  0.94928  0.43611  0.43695  1.0000
  P   P72       1.0  0.83756  0.43996  0.28985  1.0000
  C   C2106     1.0  0.84173  0.45705  0.31733  1.0000
  C   C2107     1.0  0.86593  0.43706  0.28524  1.0000
  C   C2108     1.0  0.87504  0.42791  0.30345  1.0000
  C   C2109     1.0  0.89538  0.42325  0.29955  1.0000
  C   C2110     1.0  0.90680  0.42759  0.27739  1.0000
  S   S281      1.0  0.90067  0.37525  0.45643  1.0000
  C   C2111     1.0  0.90878  0.36740  0.48363  1.0000
  C   C2112     1.0  0.84870  0.48316  0.31757  1.0000
  C   C2113     1.0  0.85111  0.49588  0.33893  1.0000
  C   C2114     1.0  0.84670  0.48271  0.36022  1.0000
  C   C2115     1.0  0.84002  0.45684  0.36016  1.0000
  C   C2116     1.0  0.83748  0.44408  0.33887  1.0000
  H   H1664     1.0  0.79810  0.31208  0.34180  1.0000
  C   C2117     1.0  0.75489  0.33711  0.40924  1.0000
  H   H1665     1.0  0.48554  0.48685  0.27877  1.0000
  C   C2118     1.0  0.54664  0.54233  0.27804  1.0000
  C   C2119     1.0  0.68786  0.60016  0.39063  1.0000
  S   S282      1.0  0.83654  0.37254  0.48411  1.0000
  C   C2120     1.0  0.67745  0.58945  0.36868  1.0000
  H   H1666     1.0  0.86598  0.42348  0.32052  1.0000
  H   H1667     1.0  0.90138  0.41496  0.31339  1.0000
  H   H1668     1.0  0.92170  0.42276  0.27408  1.0000
  H   H1669     1.0  0.54398  0.55141  0.26277  1.0000
  H   H1670     1.0  0.94082  0.36494  0.46944  1.0000
  H   H1671     1.0  0.85202  0.49376  0.30140  1.0000
  H   H1672     1.0  0.85622  0.51594  0.33898  1.0000
  H   H1673     1.0  0.84833  0.49245  0.37677  1.0000
  H   H1674     1.0  0.83647  0.44644  0.37662  1.0000
  H   H1675     1.0  0.83174  0.42389  0.33932  1.0000
  H   H1676     1.0  0.66559  0.56877  0.36681  1.0000
  H   H1677     1.0  0.88516  0.35768  0.35154  1.0000
  S   S283      1.0  0.57941  0.63393  0.30518  1.0000
  H   H1678     1.0  0.68404  0.58774  0.40571  1.0000
  C   C2121     1.0  0.55257  0.62940  0.49055  1.0000
  C   C2122     1.0  0.92996  0.36356  0.48511  1.0000
  H   H1679     1.0  0.61655  0.52584  0.30475  1.0000
  C   C2123     1.0  0.58019  0.49632  0.48927  1.0000
  H   H1680     1.0  0.81094  0.31418  0.30040  1.0000
  H   H1681     1.0  0.51303  0.46748  0.47067  1.0000
  C   C2124     1.0  0.62385  0.56182  0.28995  1.0000
  C   C2125     1.0  0.86923  0.31309  0.44301  1.0000
  H   H1682     1.0  0.67206  0.59712  0.33287  1.0000
  H   H1683     1.0  0.78679  0.34714  0.27043  1.0000
  C   C2126     1.0  0.54476  0.50553  0.29735  1.0000
  H   H1684     1.0  0.91331  0.43637  0.39070  1.0000
  C   C2127     1.0  0.64245  0.58570  0.28117  1.0000
  C   C2128     1.0  0.93138  0.49883  0.30837  1.0000
  C   C2129     1.0  0.80910  0.38749  0.27921  1.0000
  H   H1685     1.0  0.60380  0.55678  0.28999  1.0000
  S   S284      1.0  0.56732  0.63185  0.46321  1.0000
  C   C2130     1.0  0.78749  0.36278  0.28057  1.0000
  H   H1686     1.0  0.51784  0.55156  0.34805  1.0000
  H   H1687     1.0  0.93212  0.48523  0.29626  1.0000
  C   C2131     1.0  0.48955  0.51382  0.33553  1.0000
  C   C2132     1.0  0.67547  0.57446  0.28774  1.0000
  H   H1688     1.0  0.76645  0.37629  0.40052  1.0000
  C   C2133     1.0  0.92504  0.44295  0.40649  1.0000
  S   S285      1.0  0.82661  0.33831  0.25158  1.0000
  C   C2134     1.0  0.89793  0.43668  0.25915  1.0000
  H   H1689     1.0  0.75236  0.33943  0.42782  1.0000
  C   C2135     1.0  0.48372  0.61344  0.45241  1.0000
  H   H1690     1.0  0.76482  0.32929  0.34295  1.0000
  C   C2136     1.0  0.74336  0.64052  0.25628  1.0000
  H   H1691     1.0  0.57640  0.63508  0.35566  1.0000
  H   H1692     1.0  0.79069  0.42846  0.26313  1.0000
  H   H1693     1.0  0.71767  0.62048  0.31087  1.0000
  H   H1694     1.0  0.92591  0.54636  0.35115  1.0000
  C   C2137     1.0  0.47591  0.42172  0.25577  1.0000
  C   C2138     1.0  0.73171  0.62751  0.29682  1.0000
  C   C2139     1.0  0.69525  0.63223  0.35236  1.0000
  C   C2140     1.0  0.54100  0.54269  0.49197  1.0000
  H   H1695     1.0  0.92016  0.42026  0.48953  1.0000
  Fe  Fe147     1.0  0.59063  0.63506  0.26673  1.0000
  C   C2141     1.0  0.70600  0.64319  0.37427  1.0000
  H   H1696     1.0  0.61289  0.49800  0.24974  1.0000
  S   S286      1.0  0.62951  0.64166  0.25677  1.0000
  H   H1697     1.0  0.76218  0.63033  0.31906  1.0000
  H   H1698     1.0  0.80175  0.31398  0.38619  1.0000
  H   H1699     1.0  0.48702  0.63169  0.44567  1.0000
  C   C2142     1.0  0.51904  0.54485  0.49508  1.0000
  C   C2143     1.0  0.56831  0.46954  0.49403  1.0000
  H   H1700     1.0  0.95313  0.56288  0.31594  1.0000
  C   C2144     1.0  0.75108  0.31356  0.40090  1.0000
  S   S287      1.0  0.76525  0.31168  0.46443  1.0000
  H   H1701     1.0  0.84246  0.31124  0.46888  1.0000
  H   H1702     1.0  0.89751  0.31230  0.42027  1.0000
  H   H1703     1.0  0.47485  0.41205  0.54072  1.0000
  H   H1704     1.0  0.55530  0.35963  0.71837  1.0000
  Fe  Fe148     1.0  0.52698  0.39201  0.54860  1.0000
  S   S288      1.0  0.50445  0.39417  0.57935  1.0000
  S   S289      1.0  0.54957  0.42564  0.52199  1.0000
  Fe  Fe149     1.0  0.51173  0.36514  0.59765  1.0000
  S   S290      1.0  0.52203  0.36459  0.63624  1.0000
  C   C2145     1.0  0.89960  0.45224  0.52452  1.0000
  S   S291      1.0  0.93176  0.34974  0.55470  1.0000
  S   S292      1.0  0.53724  0.36519  0.56820  1.0000
  S   S293      1.0  0.49244  0.35755  0.53223  1.0000
  H   H1705     1.0  0.59130  0.51827  0.54549  1.0000
  H   H1706     1.0  0.60357  0.45423  0.73336  1.0000
  C   C2146     1.0  0.95670  0.35459  0.69452  1.0000
  C   C2147     1.0  0.56394  0.45995  0.51727  1.0000
  C   C2148     1.0  0.57210  0.47796  0.53571  1.0000
  C   C2149     1.0  0.92347  0.35669  0.52719  1.0000
  H   H1707     1.0  0.51825  0.55552  0.51009  1.0000
  C   C2150     1.0  0.92022  0.47727  0.52167  1.0000
  C   C2151     1.0  0.50529  0.45886  0.59169  1.0000
  C   C2152     1.0  0.58462  0.50480  0.53095  1.0000
  H   H1708     1.0  0.50183  0.48473  0.50528  1.0000
  C   C2153     1.0  0.50019  0.35905  0.65961  1.0000
  C   C2154     1.0  0.50475  0.35178  0.68179  1.0000
  C   C2155     1.0  0.48889  0.34900  0.70122  1.0000
  C   C2156     1.0  0.96107  0.48177  0.60158  1.0000
  C   C2157     1.0  0.47931  0.36313  0.65691  1.0000
  C   C2158     1.0  0.50665  0.44734  0.61262  1.0000
  H   H1709     1.0  0.52069  0.34833  0.68394  1.0000
  H   H1710     1.0  0.49264  0.34346  0.71821  1.0000
  H   H1711     1.0  0.93034  0.34618  0.66561  1.0000
  H   H1712     1.0  0.87854  0.36857  0.50296  1.0000
  Fe  Fe150     1.0  0.93391  0.59535  0.54595  1.0000
  C   C2159     1.0  0.94147  0.48179  0.50802  1.0000
  S   S294      1.0  0.91689  0.56337  0.51690  1.0000
  C   C2160     1.0  0.93091  0.62902  0.72538  1.0000
  H   H1713     1.0  0.56317  0.31716  0.53381  1.0000
  C   C2161     1.0  0.90237  0.36057  0.52567  1.0000
  S   S295      1.0  0.47601  0.33043  0.58431  1.0000
  S   S296      1.0  0.93532  0.59619  0.63621  1.0000
  H   H1714     1.0  0.87866  0.47429  0.57471  1.0000
  S   S297      1.0  0.91670  0.61036  0.57306  1.0000
  C   C2162     1.0  0.52912  0.62704  0.53401  1.0000
  H   H1715     1.0  0.96041  0.38953  0.61547  1.0000
  C   C2163     1.0  0.55310  0.39438  0.71852  1.0000
  C   C2164     1.0  0.96467  0.42785  0.66152  1.0000
  S   S298      1.0  0.51631  0.62730  0.56169  1.0000
  C   C2165     1.0  0.91946  0.49816  0.58112  1.0000
  H   H1716     1.0  0.86711  0.50280  0.59674  1.0000
  C   C2166     1.0  0.54612  0.53321  0.55053  1.0000
  C   C2167     1.0  0.88020  0.61247  0.73907  1.0000
  S   S299      1.0  0.93355  0.35078  0.71599  1.0000
  C   C2168     1.0  0.93311  0.51394  0.73204  1.0000
  C   C2169     1.0  0.49472  0.51335  0.56396  1.0000
  P   P73       1.0  0.55120  0.44013  0.72000  1.0000
  H   H1717     1.0  0.93275  0.58792  0.68622  1.0000
  H   H1718     1.0  0.56604  0.54092  0.54520  1.0000
  C   C2170     1.0  0.53823  0.54948  0.56029  1.0000
  C   C2171     1.0  0.86354  0.48561  0.52255  1.0000
  C   C2172     1.0  0.52250  0.63609  0.51412  1.0000
  H   H1719     1.0  0.55693  0.55188  0.50426  1.0000
  C   C2173     1.0  0.89362  0.49158  0.58315  1.0000
  C   C2174     1.0  0.50109  0.46620  0.70727  1.0000
  H   H1720     1.0  0.50237  0.48404  0.70164  1.0000
  C   C2175     1.0  0.87945  0.51212  0.52809  1.0000
  H   H1721     1.0  0.91915  0.49324  0.52927  1.0000
  C   C2176     1.0  0.90639  0.53022  0.60601  1.0000
  H   H1722     1.0  0.88329  0.41250  0.51451  1.0000
  C   C2177     1.0  0.88709  0.50764  0.59554  1.0000
  H   H1723     1.0  0.55252  0.61200  0.54752  1.0000
  C   C2178     1.0  0.47659  0.55714  0.52722  1.0000
  H   H1724     1.0  0.92422  0.48572  0.57116  1.0000
  H   H1725     1.0  0.50888  0.64282  0.51553  1.0000
  C   C2179     1.0  0.55870  0.61970  0.51032  1.0000
  C   C2180     1.0  0.81637  0.32973  0.53658  1.0000
  C   C2181     1.0  0.54953  0.37141  0.72820  1.0000
  H   H1726     1.0  0.49276  0.57437  0.52004  1.0000
  C   C2182     1.0  0.46846  0.35378  0.69870  1.0000
  C   C2183     1.0  0.56395  0.44584  0.69048  1.0000
  C   C2184     1.0  0.58771  0.46764  0.68499  1.0000
  C   C2185     1.0  0.59667  0.47204  0.66175  1.0000
  C   C2186     1.0  0.58185  0.45493  0.64387  1.0000
  C   C2187     1.0  0.55799  0.43350  0.64916  1.0000
  C   C2188     1.0  0.54901  0.42899  0.67234  1.0000
  C   C2189     1.0  0.89740  0.52910  0.51175  1.0000
  H   H1727     1.0  0.47547  0.36856  0.63990  1.0000
  S   S300      1.0  0.96286  0.63639  0.53477  1.0000
  H   H1728     1.0  0.59927  0.48139  0.69844  1.0000
  C   C2190     1.0  0.95286  0.59999  0.68166  1.0000
  C   C2191     1.0  0.52205  0.44180  0.71761  1.0000
  H   H1729     1.0  0.93296  0.39443  0.64528  1.0000
  C   C2192     1.0  0.89438  0.63580  0.72708  1.0000
  C   C2193     1.0  0.89976  0.43175  0.51306  1.0000
  C   C2194     1.0  0.47696  0.44432  0.71075  1.0000
  H   H1730     1.0  0.81121  0.34310  0.54419  1.0000
  H   H1731     1.0  0.88286  0.44883  0.53466  1.0000
  H   H1732     1.0  0.53093  0.31879  0.63211  1.0000
  H   H1733     1.0  0.91332  0.49844  0.73045  1.0000
  H   H1734     1.0  0.56203  0.40017  0.70139  1.0000
  C   C2195     1.0  0.91198  0.64224  0.66548  1.0000
  Fe  Fe151     1.0  0.47067  0.35925  0.56355  1.0000
  H   H1735     1.0  0.61508  0.48877  0.65754  1.0000
  H   H1736     1.0  0.58880  0.45823  0.62588  1.0000
  H   H1737     1.0  0.54649  0.42019  0.63529  1.0000
  H   H1738     1.0  0.53042  0.41224  0.67611  1.0000
  C   C2196     1.0  0.59756  0.46492  0.74455  1.0000
  C   C2197     1.0  0.54501  0.40937  0.73091  1.0000
  H   H1739     1.0  0.56935  0.47125  0.55369  1.0000
  P   P74       1.0  0.48025  0.46261  0.55148  1.0000
  C   C2198     1.0  0.49822  0.46517  0.50567  1.0000
  C   C2199     1.0  0.93900  0.52090  0.59146  1.0000
  H   H1740     1.0  0.93433  0.52728  0.69657  1.0000
  C   C2200     1.0  0.94981  0.35149  0.67059  1.0000
  H   H1741     1.0  0.50678  0.55215  0.57528  1.0000
  C   C2201     1.0  0.93225  0.53687  0.60397  1.0000
  H   H1742     1.0  0.52412  0.45635  0.62310  1.0000
  H   H1743     1.0  0.95701  0.50137  0.50575  1.0000
  H   H1744     1.0  0.95965  0.43250  0.51864  1.0000
  H   H1745     1.0  0.54214  0.48184  0.70725  1.0000
  H   H1746     1.0  0.89194  0.35985  0.54142  1.0000
  C   C2202     1.0  0.95971  0.60731  0.65810  1.0000
  H   H1747     1.0  0.84940  0.47300  0.53522  1.0000
  C   C2203     1.0  0.49408  0.64007  0.67015  1.0000
  H   H1748     1.0  0.90144  0.54294  0.61535  1.0000
  C   C2204     1.0  0.90791  0.63646  0.64146  1.0000
  H   H1749     1.0  0.94438  0.53501  0.54551  1.0000
  C   C2205     1.0  0.51263  0.53951  0.56723  1.0000
  Fe  Fe152     1.0  0.94578  0.61064  0.59858  1.0000
  C   C2206     1.0  0.48853  0.41457  0.50552  1.0000
  Fe  Fe153     1.0  0.50055  0.33102  0.55425  1.0000
  H   H1750     1.0  0.53496  0.49464  0.54024  1.0000
  H   H1751     1.0  0.52188  0.47682  0.58640  1.0000
  C   C2207     1.0  0.54726  0.61888  0.53211  1.0000
  H   H1752     1.0  0.84671  0.33849  0.56158  1.0000
  C   C2208     1.0  0.57337  0.46287  0.74124  1.0000
  H   H1753     1.0  0.87729  0.51956  0.54476  1.0000
  Fe  Fe154     1.0  0.47821  0.62635  0.56188  1.0000
  C   C2209     1.0  0.86553  0.47523  0.50081  1.0000
  C   C2210     1.0  0.50246  0.49688  0.55399  1.0000
  H   H1754     1.0  0.55199  0.56980  0.56259  1.0000
  C   C2211     1.0  0.48810  0.44993  0.52592  1.0000
  H   H1755     1.0  0.48133  0.57397  0.56157  1.0000
  C   C2212     1.0  0.52838  0.50703  0.54747  1.0000
  C   C2213     1.0  0.48298  0.42442  0.52557  1.0000
  H   H1756     1.0  0.94735  0.48255  0.61347  1.0000
  H   H1757     1.0  0.47845  0.31228  0.50068  1.0000
  C   C2214     1.0  0.94498  0.53010  0.71279  1.0000
  C   C2215     1.0  0.48567  0.42396  0.61980  1.0000
  H   H1758     1.0  0.48691  0.41484  0.63580  1.0000
  C   C2216     1.0  0.96299  0.45949  0.60092  1.0000
  C   C2217     1.0  0.83634  0.32714  0.54632  1.0000
  H   H1759     1.0  0.57249  0.61317  0.50891  1.0000
  H   H1760     1.0  0.96247  0.35310  0.63465  1.0000
  C   C2218     1.0  0.48688  0.63824  0.69393  1.0000
  C   C2219     1.0  0.46999  0.55710  0.55076  1.0000
  H   H1761     1.0  0.95085  0.44336  0.61216  1.0000
  H   H1762     1.0  0.95040  0.63492  0.72011  1.0000
  C   C2220     1.0  0.95352  0.40798  0.64492  1.0000
  H   H1763     1.0  0.89274  0.61769  0.63567  1.0000
  H   H1764     1.0  0.95339  0.35484  0.50786  1.0000
  C   C2221     1.0  0.49776  0.41992  0.72098  1.0000
  H   H1765     1.0  0.95267  0.42971  0.67474  1.0000
  C   C2222     1.0  0.52357  0.46492  0.71054  1.0000
  C   C2223     1.0  0.58860  0.51437  0.50770  1.0000
  C   C2224     1.0  0.89147  0.59754  0.74435  1.0000
  H   H1766     1.0  0.47504  0.50608  0.56950  1.0000
  H   H1767     1.0  0.94684  0.55477  0.61184  1.0000
  C   C2225     1.0  0.96476  0.54470  0.54161  1.0000
  H   H1768     1.0  0.48506  0.39507  0.50550  1.0000
  S   S301      1.0  0.96089  0.59344  0.57235  1.0000
  H   H1769     1.0  0.86052  0.60595  0.74435  1.0000
  C   C2226     1.0  0.80310  0.31515  0.51688  1.0000
  C   C2227     1.0  0.93718  0.35798  0.50685  1.0000
  C   C2228     1.0  0.91673  0.60574  0.73733  1.0000
  C   C2229     1.0  0.47533  0.42122  0.71759  1.0000
  H   H1770     1.0  0.92548  0.59418  0.74140  1.0000
  H   H1771     1.0  0.49596  0.40164  0.72566  1.0000
  C   C2230     1.0  0.48282  0.44711  0.57781  1.0000
  S   S302      1.0  0.60413  0.54883  0.50293  1.0000
  H   H1772     1.0  0.95878  0.55373  0.50633  1.0000
  H   H1773     1.0  0.89947  0.62772  0.67788  1.0000
  C   C2231     1.0  0.47567  0.63310  0.65201  1.0000
  H   H1774     1.0  0.78756  0.31713  0.50938  1.0000
  C   C2232     1.0  0.89485  0.36565  0.50391  1.0000
  H   H1775     1.0  0.48146  0.63432  0.63380  1.0000
  Fe  Fe155     1.0  0.83132  0.45124  0.87742  1.0000
  S   S303      1.0  0.85684  0.47598  0.90703  1.0000
  S   S304      1.0  0.84427  0.42969  0.85102  1.0000
  Fe  Fe156     1.0  0.79177  0.47144  0.88659  1.0000
  S   S305      1.0  0.75375  0.47005  0.87529  1.0000
  Fe  Fe157     1.0  0.82064  0.46405  0.92772  1.0000
  S   S306      1.0  0.81738  0.45287  0.96638  1.0000
  S   S307      1.0  0.82595  0.48336  0.86239  1.0000
  S   S308      1.0  0.79471  0.43702  0.89918  1.0000
  S   S309      1.0  0.57784  0.48346  0.83614  1.0000
  C   C2233     1.0  0.69267  0.63341  0.89293  1.0000
  H   H1776     1.0  0.52829  0.41304  0.76338  1.0000
  H   H1777     1.0  0.87695  0.44074  0.94374  1.0000
  S   S310      1.0  0.50901  0.36289  0.83258  1.0000
  Fe  Fe158     1.0  0.92622  0.35303  0.80630  1.0000
  S   S311      1.0  0.90615  0.36775  0.83260  1.0000
  C   C2234     1.0  0.82771  0.56837  0.86571  1.0000
  S   S312      1.0  0.47254  0.32262  0.77562  1.0000
  C   C2235     1.0  0.55642  0.45027  0.83698  1.0000
  C   C2236     1.0  0.55737  0.43534  0.85529  1.0000
  C   C2237     1.0  0.54201  0.40848  0.85423  1.0000
  C   C2238     1.0  0.52559  0.39655  0.83498  1.0000
  C   C2239     1.0  0.52353  0.41163  0.81740  1.0000
  C   C2240     1.0  0.53912  0.43848  0.81829  1.0000
  H   H1778     1.0  0.57063  0.44437  0.86979  1.0000
  H   H1779     1.0  0.54312  0.39701  0.86823  1.0000
  H   H1780     1.0  0.51053  0.40256  0.80279  1.0000
  H   H1781     1.0  0.53815  0.45008  0.80424  1.0000
  C   C2241     1.0  0.73796  0.48811  0.88204  1.0000
  C   C2242     1.0  0.70041  0.49407  0.87639  1.0000
  C   C2243     1.0  0.71394  0.48085  0.87145  1.0000
  H   H1782     1.0  0.68192  0.48791  0.86818  1.0000
  H   H1783     1.0  0.70555  0.46461  0.85948  1.0000
  C   C2244     1.0  0.86200  0.41285  0.84633  1.0000
  C   C2245     1.0  0.86729  0.40826  0.82312  1.0000
  C   C2246     1.0  0.88090  0.39494  0.81851  1.0000
  C   C2247     1.0  0.88936  0.38555  0.83703  1.0000
  C   C2248     1.0  0.88407  0.39017  0.86017  1.0000
  C   C2249     1.0  0.87071  0.40370  0.86483  1.0000
  H   H1784     1.0  0.86057  0.41483  0.80850  1.0000
  H   H1785     1.0  0.88437  0.39141  0.80061  1.0000
  H   H1786     1.0  0.89016  0.38286  0.87462  1.0000
  H   H1787     1.0  0.86675  0.40664  0.88278  1.0000
  C   C2250     1.0  0.51081  0.49753  0.99844  1.0000
  S   S313      1.0  0.81558  0.49691  0.91628  1.0000
  Fe  Fe159     1.0  0.84955  0.50674  0.89322  1.0000
  S   S314      1.0  0.88198  0.54783  0.89278  1.0000
  H   H1788     1.0  0.63065  0.31156  0.84092  1.0000
  P   P75       1.0  0.93187  0.47062  0.93074  1.0000
  C   C2251     1.0  0.55593  0.36094  0.92626  1.0000
  H   H1789     1.0  0.47453  0.54356  0.80725  1.0000
  C   C2252     1.0  0.66680  0.48242  0.96884  1.0000
  S   S315      1.0  0.49409  0.61609  0.78006  1.0000
  H   H1790     1.0  0.60273  0.44559  0.99658  1.0000
  Fe  Fe160     1.0  0.65480  0.52895  0.89164  1.0000
  S   S316      1.0  0.61819  0.49154  0.89893  1.0000
  S   S317      1.0  0.69520  0.53349  0.89798  1.0000
  Fe  Fe161     1.0  0.62345  0.55817  0.88235  1.0000
  S   S318      1.0  0.58639  0.52252  0.89037  1.0000
  S   S319      1.0  0.62213  0.59514  0.87329  1.0000
  Fe  Fe162     1.0  0.60666  0.51580  0.92049  1.0000
  S   S320      1.0  0.58865  0.51057  0.95683  1.0000
  Fe  Fe163     1.0  0.60200  0.50277  0.86811  1.0000
  S   S321      1.0  0.64331  0.55292  0.91414  1.0000
  S   S322      1.0  0.63919  0.53854  0.85929  1.0000
  C   C2253     1.0  0.59206  0.49442  0.98153  1.0000
  C   C2254     1.0  0.59884  0.47538  0.97907  1.0000
  H   H1791     1.0  0.60318  0.47096  0.96180  1.0000
  C   C2255     1.0  0.57020  0.62396  0.83868  1.0000
  C   C2256     1.0  0.56297  0.59771  0.83682  1.0000
  C   C2257     1.0  0.57813  0.58814  0.84743  1.0000
  C   C2258     1.0  0.60096  0.60480  0.85981  1.0000
  C   C2259     1.0  0.90367  0.61554  0.90041  1.0000
  H   H1792     1.0  0.96057  0.62973  0.92625  1.0000
  H   H1793     1.0  0.54584  0.58490  0.82695  1.0000
  H   H1794     1.0  0.57239  0.56805  0.84572  1.0000
  S   S323      1.0  0.90991  0.31980  0.77998  1.0000
  H   H1795     1.0  0.76529  0.55160  0.83165  1.0000
  C   C2260     1.0  0.74837  0.50919  0.89752  1.0000
  C   C2261     1.0  0.73505  0.52271  0.90213  1.0000
  C   C2262     1.0  0.71088  0.51524  0.89173  1.0000
  H   H1796     1.0  0.76676  0.51516  0.90588  1.0000
  H   H1797     1.0  0.74357  0.53911  0.91390  1.0000
  C   C2263     1.0  0.89486  0.55782  0.86458  1.0000
  C   C2264     1.0  0.87916  0.54790  0.84470  1.0000
  C   C2265     1.0  0.88959  0.55611  0.82223  1.0000
  C   C2266     1.0  0.91593  0.57344  0.81948  1.0000
  C   C2267     1.0  0.93166  0.58338  0.83937  1.0000
  C   C2268     1.0  0.92102  0.57603  0.86193  1.0000
  H   H1798     1.0  0.85882  0.53450  0.84663  1.0000
  H   H1799     1.0  0.87719  0.54911  0.80701  1.0000
  C   C2269     1.0  0.65660  0.56102  0.78547  1.0000
  H   H1800     1.0  0.93321  0.58398  0.87727  1.0000
  H   H1801     1.0  0.95967  0.44761  0.95334  1.0000
  H   H1802     1.0  0.49013  0.41025  0.86093  1.0000
  H   H1803     1.0  0.49139  0.60362  0.93706  1.0000
  C   C2270     1.0  0.92111  0.61287  0.91481  1.0000
  C   C2271     1.0  0.48457  0.45414  0.84572  1.0000
  C   C2272     1.0  0.63670  0.57814  0.81127  1.0000
  C   C2273     1.0  0.56548  0.47588  0.75671  1.0000
  C   C2274     1.0  0.81228  0.59719  0.87696  1.0000
  H   H1804     1.0  0.78914  0.59875  0.82472  1.0000
  H   H1805     1.0  0.69504  0.64102  0.85592  1.0000
  C   C2275     1.0  0.51351  0.43447  0.95353  1.0000
  Fe  Fe164     1.0  0.94036  0.34759  0.75493  1.0000
  H   H1806     1.0  0.65098  0.44717  0.98855  1.0000
  H   H1807     1.0  0.84418  0.46162  0.81495  1.0000
  H   H1808     1.0  0.90756  0.52919  0.76201  1.0000
  H   H1809     1.0  0.75950  0.54487  0.99176  1.0000
  H   H1810     1.0  0.83038  0.54460  0.94687  1.0000
  C   C2276     1.0  0.95552  0.53665  0.81208  1.0000
  C   C2277     1.0  0.53845  0.44160  0.94624  1.0000
  H   H1811     1.0  0.71834  0.52908  0.83928  1.0000
  H   H1812     1.0  0.90266  0.37859  0.91559  1.0000
  C   C2278     1.0  0.84100  0.50266  0.98449  1.0000
  P   P76       1.0  0.93029  0.49814  0.77856  1.0000
  H   H1813     1.0  0.95198  0.59665  0.83747  1.0000
  C   C2279     1.0  0.88318  0.42753  0.93807  1.0000
  C   C2280     1.0  0.50838  0.60479  0.90303  1.0000
  C   C2281     1.0  0.76856  0.58890  0.82793  1.0000
  C   C2282     1.0  0.92452  0.48519  0.90641  1.0000
  H   H1814     1.0  0.86813  0.58609  0.85811  1.0000
  C   C2283     1.0  0.89959  0.49618  0.78354  1.0000
  C   C2284     1.0  0.85789  0.47593  0.80296  1.0000
  C   C2285     1.0  0.61372  0.47998  0.76290  1.0000
  H   H1815     1.0  0.84443  0.50927  0.96646  1.0000
  C   C2286     1.0  0.93973  0.49643  0.99907  1.0000
  C   C2287     1.0  0.53171  0.50716  0.98301  1.0000
  H   H1816     1.0  0.57523  0.50028  0.78740  1.0000
  H   H1817     1.0  0.65541  0.54932  0.77045  1.0000
  C   C2288     1.0  0.89929  0.42248  0.75882  1.0000
  C   C2289     1.0  0.70913  0.59848  0.88213  1.0000
  C   C2290     1.0  0.86950  0.51140  0.77633  1.0000
  H   H1818     1.0  0.94069  0.52274  0.92292  1.0000
  C   C2291     1.0  0.96449  0.47644  0.92780  1.0000
  C   C2292     1.0  0.54641  0.53359  0.97898  1.0000
  C   C2293     1.0  0.90343  0.49778  0.98210  1.0000
  C   C2294     1.0  0.70441  0.60218  0.90550  1.0000
  C   C2295     1.0  0.47238  0.47270  0.92531  1.0000
  C   C2296     1.0  0.92063  0.41897  0.75942  1.0000
  C   C2297     1.0  0.90756  0.48241  0.86699  1.0000
  C   C2298     1.0  0.94642  0.51829  0.75346  1.0000
  C   C2299     1.0  0.53055  0.34742  0.89051  1.0000
  C   C2300     1.0  0.80753  0.57225  0.87256  1.0000
  C   C2301     1.0  0.46686  0.54098  0.96655  1.0000
  C   C2302     1.0  0.57857  0.37287  0.91292  1.0000
  C   C2303     1.0  0.57733  0.37271  0.88819  1.0000
  C   C2304     1.0  0.55314  0.35920  0.87714  1.0000
  P   P77       1.0  0.60657  0.38773  0.87086  1.0000
  C   C2305     1.0  0.60139  0.40194  0.84481  1.0000
  C   C2306     1.0  0.63263  0.41202  0.88849  1.0000
  C   C2307     1.0  0.62927  0.43056  0.90063  1.0000
  C   C2308     1.0  0.64932  0.44947  0.91419  1.0000
  C   C2309     1.0  0.67263  0.44962  0.91629  1.0000
  C   C2310     1.0  0.67603  0.43108  0.90455  1.0000
  C   C2311     1.0  0.65619  0.41239  0.89062  1.0000
  C   C2312     1.0  0.58772  0.38607  0.82566  1.0000
  C   C2313     1.0  0.58243  0.39637  0.80584  1.0000
  C   C2314     1.0  0.59085  0.42264  0.80481  1.0000
  C   C2315     1.0  0.60515  0.43875  0.82342  1.0000
  C   C2316     1.0  0.61045  0.42851  0.84334  1.0000
  C   C2317     1.0  0.61408  0.36346  0.86153  1.0000
  C   C2318     1.0  0.60317  0.33955  0.87294  1.0000
  H   H1819     1.0  0.63214  0.48109  0.76567  1.0000
  C   C2319     1.0  0.85267  0.58938  0.86347  1.0000
  C   C2320     1.0  0.94706  0.63208  0.91535  1.0000
  C   C2321     1.0  0.63115  0.36851  0.84272  1.0000
  H   H1820     1.0  0.71531  0.58472  0.87855  1.0000
  H   H1821     1.0  0.59694  0.38211  0.92198  1.0000
  H   H1822     1.0  0.55138  0.35812  0.85818  1.0000
  H   H1823     1.0  0.61124  0.43060  0.89932  1.0000
  H   H1824     1.0  0.64697  0.46431  0.92270  1.0000
  H   H1825     1.0  0.68836  0.46456  0.92642  1.0000
  C   C2322     1.0  0.67967  0.57440  0.79817  1.0000
  H   H1826     1.0  0.65949  0.39845  0.88156  1.0000
  H   H1827     1.0  0.58061  0.36555  0.82618  1.0000
  H   H1828     1.0  0.57134  0.38382  0.79149  1.0000
  H   H1829     1.0  0.58592  0.43042  0.78980  1.0000
  H   H1830     1.0  0.61135  0.45908  0.82278  1.0000
  H   H1831     1.0  0.62124  0.44148  0.85750  1.0000
  H   H1832     1.0  0.59005  0.33517  0.88755  1.0000
  C   C2323     1.0  0.46678  0.55876  0.83856  1.0000
  H   H1833     1.0  0.63994  0.38692  0.83382  1.0000
  C   C2324     1.0  0.57617  0.59030  0.91454  1.0000
  C   C2325     1.0  0.57369  0.56656  0.92025  1.0000
  C   C2326     1.0  0.54931  0.54447  0.92071  1.0000
  C   C2327     1.0  0.52739  0.54620  0.91571  1.0000
  C   C2328     1.0  0.52973  0.57008  0.91014  1.0000
  C   C2329     1.0  0.55434  0.59209  0.90928  1.0000
  C   C2330     1.0  0.49602  0.54208  0.83699  1.0000
  C   C2331     1.0  0.50201  0.54811  0.86080  1.0000
  H   H1834     1.0  0.59520  0.60724  0.91346  1.0000
  H   H1835     1.0  0.59078  0.56526  0.92386  1.0000
  C   C2332     1.0  0.65975  0.59162  0.82389  1.0000
  H   H1836     1.0  0.50862  0.52894  0.91591  1.0000
  C   C2333     1.0  0.52071  0.62027  0.88342  1.0000
  S   S324      1.0  0.95459  0.38093  0.78015  1.0000
  H   H1837     1.0  0.51644  0.54468  0.86861  1.0000
  H   H1838     1.0  0.56507  0.45409  0.91728  1.0000
  H   H1839     1.0  0.51436  0.33931  0.92535  1.0000
  C   C2334     1.0  0.92772  0.48356  0.95823  1.0000
  C   C2335     1.0  0.71550  0.56334  0.83649  1.0000
  C   C2336     1.0  0.94385  0.48747  0.97765  1.0000
  C   C2337     1.0  0.50328  0.44230  0.91410  1.0000
  C   C2338     1.0  0.73038  0.63889  0.82027  1.0000
  C   C2339     1.0  0.52822  0.44894  0.90678  1.0000
  C   C2340     1.0  0.49507  0.46209  0.86837  1.0000
  C   C2341     1.0  0.93133  0.51121  0.90746  1.0000
  C   C2342     1.0  0.91216  0.63742  0.88619  1.0000
  C   C2343     1.0  0.51939  0.49339  0.82927  1.0000
  C   C2344     1.0  0.52927  0.50193  0.85186  1.0000
  C   C2345     1.0  0.51707  0.48644  0.87138  1.0000
  H   H1840     1.0  0.53411  0.45403  0.88865  1.0000
  H   H1841     1.0  0.89485  0.48629  0.94603  1.0000
  H   H1842     1.0  0.52935  0.50514  0.81415  1.0000
  H   H1843     1.0  0.54683  0.52027  0.85417  1.0000
  H   H1844     1.0  0.52518  0.49319  0.88872  1.0000
  H   H1845     1.0  0.54756  0.52605  0.92487  1.0000
  H   H1846     1.0  0.90899  0.51677  0.85393  1.0000
  H   H1847     1.0  0.53716  0.49424  0.97481  1.0000
  C   C2346     1.0  0.60912  0.32091  0.86546  1.0000
  C   C2347     1.0  0.75517  0.56235  0.83181  1.0000
  C   C2348     1.0  0.72867  0.54961  0.83605  1.0000
  C   C2349     1.0  0.83734  0.61825  0.87495  1.0000
  C   C2350     1.0  0.81573  0.56788  0.96158  1.0000
  P   P78       1.0  0.71151  0.60758  0.83355  1.0000
  H   H1848     1.0  0.90830  0.45113  0.88428  1.0000
  H   H1849     1.0  0.47068  0.44951  0.76234  1.0000
  S   S325      1.0  0.92861  0.58250  0.79104  1.0000
  C   C2351     1.0  0.66842  0.46372  0.98209  1.0000
  H   H1850     1.0  0.89821  0.47119  0.85138  1.0000
  C   C2352     1.0  0.74205  0.46117  0.94714  1.0000
  H   H1851     1.0  0.78821  0.55590  0.87438  1.0000
  H   H1852     1.0  0.54649  0.47371  0.75535  1.0000
  H   H1853     1.0  0.74039  0.43902  0.91657  1.0000
  H   H1854     1.0  0.74999  0.40940  0.93882  1.0000
  H   H1855     1.0  0.69154  0.62172  0.92892  1.0000
  C   C2353     1.0  0.69777  0.63005  0.86959  1.0000
  C   C2354     1.0  0.74840  0.42440  0.94800  1.0000
  C   C2355     1.0  0.74309  0.44118  0.93546  1.0000
  Fe  Fe165     1.0  0.47468  0.34517  0.80814  1.0000
  C   C2356     1.0  0.54577  0.44875  0.92289  1.0000
  H   H1856     1.0  0.62007  0.57960  0.81655  1.0000
  P   P79       1.0  0.74620  0.49125  0.98596  1.0000
  C   C2357     1.0  0.68918  0.50343  0.96003  1.0000
  C   C2358     1.0  0.53809  0.36338  0.75030  1.0000
  C   C2359     1.0  0.70561  0.61220  0.86392  1.0000
  H   H1857     1.0  0.83322  0.49128  0.79470  1.0000
  C   C2360     1.0  0.50110  0.61509  0.92178  1.0000
  H   H1858     1.0  0.55698  0.36141  0.94531  1.0000
  C   C2361     1.0  0.49588  0.43457  0.93747  1.0000
  H   H1859     1.0  0.70661  0.59101  0.91932  1.0000
  C   C2362     1.0  0.90861  0.43647  0.93050  1.0000
  C   C2363     1.0  0.90759  0.48902  0.96064  1.0000
  H   H1860     1.0  0.79332  0.50358  0.95965  1.0000
  H   H1861     1.0  0.55693  0.61062  0.90429  1.0000
  H   H1862     1.0  0.52640  0.61271  0.86871  1.0000
  C   C2364     1.0  0.91316  0.47103  0.88580  1.0000
  H   H1863     1.0  0.55203  0.44140  0.95869  1.0000
  C   C2365     1.0  0.79340  0.52133  0.96333  1.0000
  C   C2366     1.0  0.85785  0.61440  0.86870  1.0000
  C   C2367     1.0  0.81463  0.54462  0.95626  1.0000
  H   H1864     1.0  0.95960  0.48363  0.97644  1.0000
  C   C2368     1.0  0.49042  0.55963  0.87372  1.0000
  C   C2369     1.0  0.91676  0.64323  0.78976  1.0000
  P   P80       1.0  0.50118  0.57173  0.90323  1.0000
  H   H1865     1.0  0.50537  0.56180  0.95307  1.0000
  C   C2370     1.0  0.71328  0.50618  0.96503  1.0000
  H   H1866     1.0  0.73015  0.52212  0.95724  1.0000
  C   C2371     1.0  0.48510  0.55312  0.94873  1.0000
  H   H1867     1.0  0.50551  0.53387  0.82698  1.0000
  H   H1868     1.0  0.49213  0.47994  0.93090  1.0000
  C   C2372     1.0  0.71521  0.48813  0.97932  1.0000
  C   C2373     1.0  0.86512  0.40121  0.93785  1.0000
  H   H1869     1.0  0.69343  0.45151  0.99706  1.0000
  S   S326      1.0  0.95430  0.34089  0.82037  1.0000
  H   H1870     1.0  0.66033  0.60334  0.83856  1.0000
  H   H1871     1.0  0.69504  0.55319  0.84039  1.0000
  H   H1872     1.0  0.64818  0.48048  0.96509  1.0000
  C   C2374     1.0  0.87223  0.38356  0.93007  1.0000
  H   H1873     1.0  0.88523  0.44858  0.76387  1.0000
  H   H1874     1.0  0.51198  0.33776  0.88166  1.0000
  H   H1875     1.0  0.68783  0.51744  0.94898  1.0000
  H   H1876     1.0  0.82412  0.54904  0.86233  1.0000
  C   C2375     1.0  0.85167  0.49262  0.79147  1.0000
  C   C2376     1.0  0.94774  0.46350  0.77127  1.0000
  C   C2377     1.0  0.89359  0.51357  0.77277  1.0000
  C   C2378     1.0  0.49688  0.46964  0.82623  1.0000
  P   P81       1.0  0.48008  0.44171  0.89353  1.0000
  C   C2379     1.0  0.53056  0.37851  0.76292  1.0000
  C   C2380     1.0  0.69251  0.46639  0.98707  1.0000
  H   H1877     1.0  0.76621  0.62326  0.82524  1.0000
  C   C2381     1.0  0.72876  0.59002  0.83253  1.0000
  H   H1878     1.0  0.69438  0.43165  0.90569  1.0000
  H   H1879     1.0  0.88630  0.46467  0.80832  1.0000
  C   C2382     1.0  0.53192  0.34839  0.91505  1.0000
  H   H1880     1.0  0.83226  0.58587  0.95611  1.0000
  C   C2383     1.0  0.89734  0.39226  0.92220  1.0000
  C   C2384     1.0  0.94792  0.51121  0.80567  1.0000
  C   C2385     1.0  0.75544  0.60273  0.82825  1.0000
  H   H1881     1.0  0.61766  0.50365  0.79307  1.0000
  C   C2386     1.0  0.92619  0.46691  0.77159  1.0000
  H   H1882     1.0  0.84546  0.39455  0.94338  1.0000
  H   H1883     1.0  0.79649  0.60012  0.88199  1.0000
  C   C2387     1.0  0.60568  0.49281  0.77824  1.0000
  H   H1884     1.0  0.53497  0.34539  0.75766  1.0000
  C   C2388     1.0  0.58169  0.49092  0.77501  1.0000
  H   H1885     1.0  0.93044  0.54239  0.88972  1.0000
  C   C2389     1.0  0.82787  0.47622  0.98919  1.0000
  H   H1886     1.0  0.73843  0.47432  0.93705  1.0000
  H   H1887     1.0  0.79681  0.58596  0.97868  1.0000
  H   H1888     1.0  0.56335  0.54109  0.96787  1.0000
  H   H1889     1.0  0.88080  0.57970  0.75404  1.0000
  C   C2390     1.0  0.53976  0.55037  0.98979  1.0000
  H   H1890     1.0  0.50784  0.42862  0.97159  1.0000
  C   C2391     1.0  0.77296  0.52113  0.97557  1.0000
  H   H1891     1.0  0.52208  0.37250  0.78025  1.0000
  C   C2392     1.0  0.62607  0.32604  0.84669  1.0000
  C   C2393     1.0  0.75242  0.42741  0.97229  1.0000
  C   C2394     1.0  0.79575  0.56790  0.97426  1.0000
  H   H1892     1.0  0.47642  0.42843  0.94323  1.0000
  H   H1893     1.0  0.92991  0.63116  0.84468  1.0000
  H   H1894     1.0  0.85814  0.36318  0.92961  1.0000
  C   C2395     1.0  0.91364  0.50807  0.86843  1.0000
  C   C2396     1.0  0.88179  0.47774  0.79914  1.0000
  C   C2397     1.0  0.74635  0.46450  0.97153  1.0000
  C   C2398     1.0  0.91532  0.41861  0.92194  1.0000
  H   H1895     1.0  0.86505  0.52488  0.76795  1.0000
  C   C2399     1.0  0.50603  0.64046  0.92076  1.0000
  H   H1896     1.0  0.96069  0.43263  0.83911  1.0000
  H   H1897     1.0  0.69621  0.57302  0.79262  1.0000
  H   H1898     1.0  0.95102  0.54844  0.80083  1.0000
  C   C2400     1.0  0.60786  0.63082  0.86162  1.0000
  H   H1899     1.0  0.93422  0.42485  0.91467  1.0000
  C   C2401     1.0  0.90021  0.64060  0.83630  1.0000
  C   C2402     1.0  0.53407  0.40143  0.75332  1.0000
  C   C2403     1.0  0.92575  0.52251  0.88858  1.0000
  H   H1900     1.0  0.88762  0.50157  0.98386  1.0000
  H   H1901     1.0  0.91452  0.59550  0.92511  1.0000
  H   H1902     1.0  0.94607  0.47591  0.81740  1.0000
  C   C2404     1.0  0.59846  0.46097  0.99879  1.0000
  C   C2405     1.0  0.68132  0.58951  0.81777  1.0000
  C   C2406     1.0  0.95295  0.49600  0.82115  1.0000
  H   H1903     1.0  0.46707  0.43586  0.84298  1.0000
  H   H1904     1.0  0.65033  0.35385  0.82086  1.0000
  C   C2407     1.0  0.63711  0.34985  0.83536  1.0000
  H   H1905     1.0  0.48918  0.46299  0.80875  1.0000
  C   C2408     1.0  0.92038  0.63592  0.83108  1.0000
  H   H1906     1.0  0.88382  0.60018  0.90030  1.0000
  H   H1907     1.0  0.61716  0.55236  0.78238  1.0000
  C   C2409     1.0  0.63508  0.56279  0.79210  1.0000
  C   C2410     1.0  0.90204  0.44637  0.76471  1.0000
  C   C2411     1.0  0.75141  0.44736  0.98407  1.0000
  C   C2412     1.0  0.72599  0.64316  0.79686  1.0000
  C   C2413     1.0  0.47273  0.56485  0.86235  1.0000
  C   C2414     1.0  0.77458  0.54462  0.98149  1.0000
  C   C2415     1.0  0.47105  0.39834  0.86825  1.0000
  H   H1908     1.0  0.55134  0.57089  0.98665  1.0000
  H   H1909     1.0  0.71119  0.62781  0.78634  1.0000
  C   C2416     1.0  0.69594  0.61945  0.91089  1.0000
  H   H1910     1.0  0.75733  0.41484  0.98183  1.0000
  H   H1911     1.0  0.91839  0.40030  0.75522  1.0000
  H   H1912     1.0  0.84049  0.63736  0.87819  1.0000
  S   S327      1.0  0.55223  0.63762  0.82555  1.0000
  C   C2417     1.0  0.59270  0.64019  0.85139  1.0000
  H   H1913     1.0  0.88051  0.40650  0.75410  1.0000
  C   C2418     1.0  0.47856  0.54755  0.82584  1.0000
  C   C2419     1.0  0.47723  0.55449  0.92569  1.0000
  C   C2420     1.0  0.94485  0.43951  0.76550  1.0000
  H   H1914     1.0  0.47304  0.53998  0.98420  1.0000
  P   P82       1.0  0.89057  0.64094  0.86630  1.0000
  C   C2421     1.0  0.92867  0.63745  0.80791  1.0000
  H   H1915     1.0  0.96127  0.43662  0.76587  1.0000
  H   H1916     1.0  0.94459  0.63436  0.80404  1.0000
  C   C2422     1.0  0.93528  0.93561  0.00001  1.0000
  Fe  Fe166     1.0  0.84122  0.86079  0.22756  1.0000
  S   S328      1.0  0.84078  0.83434  0.19923  1.0000
  S   S329      1.0  0.82680  0.88881  0.22503  1.0000
  Fe  Fe167     1.0  0.82420  0.80386  0.22752  1.0000
  S   S330      1.0  0.79027  0.76198  0.22313  1.0000
  Fe  Fe168     1.0  0.88120  0.84607  0.21225  1.0000
  S   S331      1.0  0.91454  0.85864  0.18482  1.0000
  C   C2423     1.0  0.91523  0.92331  0.17069  1.0000
  H   H1917     1.0  0.56165  0.78116  0.19715  1.0000
  S   S332      1.0  0.84982  0.94481  0.12704  1.0000
  Fe  Fe169     1.0  0.63019  0.66861  0.22907  1.0000
  S   S333      1.0  0.66600  0.70957  0.22530  1.0000
  H   H1918     1.0  0.83670  0.94547  0.02671  1.0000
  H   H1919     1.0  0.94686  0.87392  0.14333  1.0000
  Fe  Fe170     1.0  0.63059  0.95379  0.13292  1.0000
  S   S334      1.0  0.66521  0.94713  0.13876  1.0000
  Fe  Fe171     1.0  0.57157  0.93765  0.14027  1.0000
  H   H1920     1.0  0.93135  0.83819  0.22248  1.0000
  S   S335      1.0  0.53125  0.92130  0.15856  1.0000
  Fe  Fe172     1.0  0.59721  0.94995  0.09063  1.0000
  S   S336      1.0  0.59077  0.93741  0.05222  1.0000
  S   S337      1.0  0.59232  0.92146  0.11875  1.0000
  C   C2424     1.0  0.90635  0.94041  0.16618  1.0000
  H   H1921     1.0  0.47096  0.97447  0.18768  1.0000
  C   C2425     1.0  0.66828  0.95133  0.00325  1.0000
  H   H1922     1.0  0.72385  0.94616  0.04065  1.0000
  H   H1923     1.0  0.93423  0.91151  0.19564  1.0000
  C   C2426     1.0  0.71566  0.95952  0.12855  1.0000
  C   C2427     1.0  0.90806  0.73642  0.19939  1.0000
  C   C2428     1.0  0.91036  0.93214  0.99982  1.0000
  H   H1924     1.0  0.70681  0.94084  0.12013  1.0000
  H   H1925     1.0  0.49109  0.66200  0.13609  1.0000
  H   H1926     1.0  0.54004  0.96244  0.19005  1.0000
  P   P83       1.0  0.92136  0.78717  0.20955  1.0000
  H   H1927     1.0  0.91272  0.90894  0.15772  1.0000
  C   C2429     1.0  0.75577  0.74800  0.22399  1.0000
  C   C2430     1.0  0.74370  0.76237  0.22881  1.0000
  H   H1928     1.0  0.87030  0.95803  0.21729  1.0000
  C   C2431     1.0  0.70056  0.72366  0.22498  1.0000
  C   C2432     1.0  0.71268  0.70940  0.22002  1.0000
  C   C2433     1.0  0.73994  0.72139  0.21966  1.0000
  C   C2434     1.0  0.84364  0.96515  0.02139  1.0000
  H   H1929     1.0  0.89700  0.93945  0.14960  1.0000
  H   H1930     1.0  0.67584  0.64968  0.23409  1.0000
  H   H1931     1.0  0.93924  0.94317  0.22566  1.0000
  C   C2435     1.0  0.51593  0.95637  0.23806  1.0000
  H   H1932     1.0  0.78301  0.65407  0.24725  1.0000
  H   H1933     1.0  0.63240  0.87898  0.01966  1.0000
  C   C2436     1.0  0.49965  0.89768  0.16926  1.0000
  C   C2437     1.0  0.48238  0.90556  0.17744  1.0000
  H   H1934     1.0  0.76981  0.92494  0.22777  1.0000
  C   C2438     1.0  0.94348  0.75937  0.22675  1.0000
  H   H1935     1.0  0.50391  0.86463  0.16340  1.0000
  H   H1936     1.0  0.48838  0.92581  0.17726  1.0000
  C   C2439     1.0  0.48722  0.91000  0.23843  1.0000
  C   C2440     1.0  0.83165  0.90322  0.19734  1.0000
  C   C2441     1.0  0.82641  0.92324  0.19410  1.0000
  C   C2442     1.0  0.83177  0.93614  0.17248  1.0000
  C   C2443     1.0  0.84143  0.92829  0.15383  1.0000
  C   C2444     1.0  0.84504  0.90716  0.15663  1.0000
  C   C2445     1.0  0.84082  0.89509  0.17853  1.0000
  H   H1937     1.0  0.81878  0.92910  0.20854  1.0000
  H   H1938     1.0  0.82828  0.95197  0.17021  1.0000
  H   H1939     1.0  0.85216  0.90079  0.14211  1.0000
  H   H1940     1.0  0.84490  0.87968  0.18082  1.0000
  C   C2446     1.0  0.54847  0.76364  0.20635  1.0000
  C   C2447     1.0  0.68212  0.95151  0.07754  1.0000
  H   H1941     1.0  0.89357  0.73579  0.18757  1.0000
  C   C2448     1.0  0.49119  0.87126  0.16965  1.0000
  H   H1942     1.0  0.48199  0.90702  0.10898  1.0000
  C   C2449     1.0  0.53429  0.67562  0.24079  1.0000
  H   H1943     1.0  0.66460  0.93979  0.08744  1.0000
  S   S338      1.0  0.57468  0.96421  0.11081  1.0000
  C   C2450     1.0  0.86775  0.76005  0.20900  1.0000
  C   C2451     1.0  0.92777  0.82729  0.23853  1.0000
  C   C2452     1.0  0.94921  0.87700  0.18116  1.0000
  H   H1944     1.0  0.77808  0.95385  0.14490  1.0000
  H   H1945     1.0  0.88777  0.93025  0.24143  1.0000
  C   C2453     1.0  0.60096  0.95302  0.00605  1.0000
  H   H1946     1.0  0.75538  0.78282  0.23210  1.0000
  C   C2454     1.0  0.55095  0.74176  0.20412  1.0000
  H   H1947     1.0  0.95655  0.77672  0.23635  1.0000
  C   C2455     1.0  0.69971  0.96833  0.13814  1.0000
  C   C2456     1.0  0.49438  0.95968  0.23732  1.0000
  H   H1948     1.0  0.59090  0.93270  0.00183  1.0000
  H   H1949     1.0  0.75473  0.96784  0.12160  1.0000
  S   S339      1.0  0.60952  0.96733  0.15720  1.0000
  C   C2457     1.0  0.92284  0.80187  0.23770  1.0000
  C   C2458     1.0  0.72459  0.82187  0.15982  1.0000
  S   S340      1.0  0.59153  0.66362  0.24038  1.0000
  C   C2459     1.0  0.51398  0.71825  0.22960  1.0000
  H   H1950     1.0  0.78687  0.88841  0.16375  1.0000
  H   H1951     1.0  0.95904  0.88448  0.21788  1.0000
  C   C2460     1.0  0.64279  0.89926  0.01531  1.0000
  H   H1952     1.0  0.74744  0.80697  0.17510  1.0000
  H   H1953     1.0  0.79158  0.89826  0.12245  1.0000
  H   H1954     1.0  0.89901  0.69781  0.19060  1.0000
  H   H1955     1.0  0.92909  0.78725  0.15867  1.0000
  H   H1956     1.0  0.55228  0.66805  0.17425  1.0000
  C   C2461     1.0  0.71640  0.75031  0.22922  1.0000
  H   H1957     1.0  0.59475  0.67565  0.16191  1.0000
  H   H1958     1.0  0.89591  0.91881  0.01196  1.0000
  C   C2462     1.0  0.53392  0.71902  0.21602  1.0000
  C   C2463     1.0  0.48979  0.96171  0.13454  1.0000
  H   H1959     1.0  0.64692  0.95573  0.03162  1.0000
  H   H1960     1.0  0.52836  0.92805  0.23716  1.0000
  H   H1961     1.0  0.74697  0.91314  0.00744  1.0000
  H   H1962     1.0  0.52782  0.69013  0.16192  1.0000
  C   C2464     1.0  0.78431  0.95741  0.20438  1.0000
  H   H1963     1.0  0.70107  0.68922  0.21592  1.0000
  H   H1964     1.0  0.63120  0.73420  0.21485  1.0000
  H   H1965     1.0  0.86911  0.74927  0.22361  1.0000
  C   C2465     1.0  0.51070  0.67421  0.16951  1.0000
  C   C2466     1.0  0.77604  0.94719  0.16285  1.0000
  S   S341      1.0  0.86447  0.81287  0.23824  1.0000
  C   C2467     1.0  0.50952  0.66921  0.19375  1.0000
  P   P84       1.0  0.53614  0.69033  0.21265  1.0000
  C   C2468     1.0  0.92037  0.95925  0.20498  1.0000
  H   H1966     1.0  0.92654  0.95640  0.11516  1.0000
  H   H1967     1.0  0.82619  0.74103  0.21066  1.0000
  C   C2469     1.0  0.56721  0.69759  0.20128  1.0000
  C   C2470     1.0  0.56927  0.68324  0.18274  1.0000
  C   C2471     1.0  0.59344  0.68746  0.17569  1.0000
  C   C2472     1.0  0.61574  0.70605  0.18708  1.0000
  C   C2473     1.0  0.61389  0.72047  0.20553  1.0000
  C   C2474     1.0  0.58973  0.71619  0.21270  1.0000
  C   C2475     1.0  0.46636  0.85329  0.17831  1.0000
  H   H1968     1.0  0.56595  0.74260  0.19291  1.0000
  H   H1969     1.0  0.93301  0.69897  0.21636  1.0000
  C   C2476     1.0  0.93041  0.71557  0.21539  1.0000
  C   C2477     1.0  0.63804  0.91646  0.02797  1.0000
  H   H1970     1.0  0.63443  0.70878  0.18215  1.0000
  C   C2478     1.0  0.95975  0.88143  0.15827  1.0000
  C   C2479     1.0  0.48652  0.64929  0.20329  1.0000
  C   C2480     1.0  0.77145  0.93118  0.20967  1.0000
  C   C2481     1.0  0.67972  0.89914  0.15499  1.0000
  C   C2482     1.0  0.66481  0.88541  0.13558  1.0000
  C   C2483     1.0  0.67422  0.87432  0.11965  1.0000
  C   C2484     1.0  0.69871  0.87730  0.12296  1.0000
  C   C2485     1.0  0.71400  0.89144  0.14225  1.0000
  C   C2486     1.0  0.70421  0.90221  0.15835  1.0000
  P   P85       1.0  0.74654  0.89716  0.14508  1.0000
  C   C2487     1.0  0.74677  0.86813  0.15328  1.0000
  C   C2488     1.0  0.76295  0.90985  0.11738  1.0000
  C   C2489     1.0  0.78428  0.90747  0.11097  1.0000
  C   C2490     1.0  0.79708  0.91775  0.08971  1.0000
  C   C2491     1.0  0.78884  0.93061  0.07474  1.0000
  C   C2492     1.0  0.76775  0.93326  0.08101  1.0000
  C   C2493     1.0  0.75485  0.92293  0.10220  1.0000
  C   C2494     1.0  0.72428  0.84386  0.15212  1.0000
  C   C2495     1.0  0.76282  0.92080  0.16803  1.0000
  C   C2496     1.0  0.76057  0.91293  0.19161  1.0000
  C   C2497     1.0  0.78651  0.96537  0.18101  1.0000
  H   H1971     1.0  0.58858  0.72681  0.22763  1.0000
  C   C2498     1.0  0.92385  0.75862  0.21269  1.0000
  C   C2499     1.0  0.47684  0.92039  0.11664  1.0000
  H   H1972     1.0  0.67265  0.90835  0.16692  1.0000
  H   H1973     1.0  0.64621  0.88391  0.13271  1.0000
  H   H1974     1.0  0.66268  0.86381  0.10454  1.0000
  H   H1975     1.0  0.70603  0.86910  0.11021  1.0000
  H   H1976     1.0  0.71560  0.91369  0.17311  1.0000
  H   H1977     1.0  0.79921  0.93908  0.05856  1.0000
  H   H1978     1.0  0.76178  0.94382  0.06970  1.0000
  H   H1979     1.0  0.73882  0.92556  0.10682  1.0000
  H   H1980     1.0  0.70637  0.84176  0.14566  1.0000
  H   H1981     1.0  0.75021  0.89270  0.19613  1.0000
  H   H1982     1.0  0.90466  0.80942  0.17177  1.0000
  C   C2500     1.0  0.52882  0.76286  0.22021  1.0000
  C   C2501     1.0  0.74726  0.82394  0.16887  1.0000
  C   C2502     1.0  0.48984  0.65849  0.15486  1.0000
  C   C2503     1.0  0.60924  0.96030  0.24869  1.0000
  H   H1983     1.0  0.90222  0.97171  0.17917  1.0000
  H   H1984     1.0  0.78722  0.84974  0.17744  1.0000
  C   C2504     1.0  0.89014  0.77927  0.19804  1.0000
  C   C2505     1.0  0.60358  0.96089  0.02973  1.0000
  C   C2506     1.0  0.93977  0.97601  0.12063  1.0000
  S   S342      1.0  0.88195  0.87432  0.23880  1.0000
  C   C2507     1.0  0.84344  0.75532  0.20175  1.0000
  C   C2508     1.0  0.84131  0.76992  0.18372  1.0000
  C   C2509     1.0  0.86349  0.78912  0.17279  1.0000
  C   C2510     1.0  0.92992  0.94254  0.20914  1.0000
  C   C2511     1.0  0.94770  0.80821  0.19056  1.0000
  C   C2512     1.0  0.90908  0.95853  0.18315  1.0000
  H   H1985     1.0  0.70718  0.80320  0.15902  1.0000
  C   C2513     1.0  0.65090  0.94249  0.02199  1.0000
  C   C2514     1.0  0.91122  0.71490  0.20092  1.0000
  H   H1986     1.0  0.74883  0.70999  0.21564  1.0000
  C   C2515     1.0  0.69283  0.93988  0.06384  1.0000
  C   C2516     1.0  0.76967  0.84799  0.17013  1.0000
  C   C2517     1.0  0.46942  0.93833  0.23769  1.0000
  C   C2518     1.0  0.49624  0.94445  0.12443  1.0000
  H   H1987     1.0  0.82249  0.76685  0.17875  1.0000
  H   H1988     1.0  0.86195  0.80109  0.15937  1.0000
  C   C2519     1.0  0.57185  0.97467  0.24112  1.0000
  C   C2520     1.0  0.92724  0.92460  0.19210  1.0000
  C   C2521     1.0  0.88780  0.79378  0.17989  1.0000
  H   H1989     1.0  0.68348  0.91910  0.06301  1.0000
  H   H1990     1.0  0.62403  0.90970  0.04214  1.0000
  C   C2522     1.0  0.76943  0.86993  0.16233  1.0000
  C   C2523     1.0  0.94659  0.73782  0.22824  1.0000
  H   H1991     1.0  0.81398  0.91644  0.08525  1.0000
  C   C2524     1.0  0.94622  0.80326  0.16626  1.0000
  H   H1992     1.0  0.51628  0.94957  0.12272  1.0000
  H   H1993     1.0  0.66747  0.64426  0.19157  1.0000
  H   H1994     1.0  0.62124  0.97283  0.21306  1.0000
  H   H1995     1.0  0.48436  0.89067  0.23797  1.0000
  H   H1996     1.0  0.52684  0.77979  0.22179  1.0000
  C   C2525     1.0  0.71548  0.95510  0.05124  1.0000
  H   H1997     1.0  0.70748  0.76177  0.23286  1.0000
  C   C2526     1.0  0.51218  0.93131  0.23800  1.0000
  H   H1998     1.0  0.50025  0.70064  0.23839  1.0000
  C   C2527     1.0  0.60786  0.97044  0.22700  1.0000
  H   H1999     1.0  0.93955  0.92437  0.01210  1.0000
  H   H2000     1.0  0.70996  0.92015  0.00344  1.0000
  H   H2001     1.0  0.48456  0.64557  0.22199  1.0000
  C   C2528     1.0  0.52851  0.64993  0.24172  1.0000
  C   C2529     1.0  0.51155  0.74015  0.23178  1.0000
  C   C2530     1.0  0.74294  0.97465  0.12958  1.0000
  H   H2002     1.0  0.79248  0.97158  0.21835  1.0000
  H   H2003     1.0  0.96180  0.73851  0.23910  1.0000
  H   H2004     1.0  0.84044  0.97489  0.21229  1.0000
  H   H2005     1.0  0.49613  0.73947  0.24229  1.0000
  H   H2006     1.0  0.96527  0.81578  0.13271  1.0000
  H   H2007     1.0  0.73858  0.64386  0.23873  1.0000
  Fe  Fe173     1.0  0.85285  0.85655  0.45610  1.0000
  H   H2008     1.0  0.68508  0.89890  0.35442  1.0000
  H   H2009     1.0  0.76954  0.76476  0.48240  1.0000
  Fe  Fe174     1.0  0.82712  0.87161  0.41946  1.0000
  S   S343      1.0  0.79879  0.87109  0.44595  1.0000
  S   S344      1.0  0.82556  0.88001  0.38062  1.0000
  Fe  Fe175     1.0  0.83290  0.89204  0.47069  1.0000
  S   S345      1.0  0.82260  0.82999  0.25492  1.0000
  Fe  Fe176     1.0  0.79447  0.83328  0.45848  1.0000
  S   S346      1.0  0.75269  0.79887  0.46200  1.0000
  S   S347      1.0  0.86114  0.89518  0.44304  1.0000
  S   S348      1.0  0.82101  0.83319  0.43050  1.0000
  Fe  Fe177     1.0  0.86327  0.84108  0.26386  1.0000
  S   S349      1.0  0.87707  0.84492  0.30164  1.0000
  C   C2531     1.0  0.52856  0.69564  0.47859  1.0000
  C   C2532     1.0  0.74844  0.93557  0.39055  1.0000
  C   C2533     1.0  0.70270  0.90907  0.36461  1.0000
  C   C2534     1.0  0.74629  0.68582  0.40133  1.0000
  S   S350      1.0  0.88736  0.85140  0.45801  1.0000
  C   C2535     1.0  0.73727  0.76468  0.46618  1.0000
  C   C2536     1.0  0.71118  0.74897  0.45969  1.0000
  C   C2537     1.0  0.69834  0.72184  0.46230  1.0000
  C   C2538     1.0  0.71130  0.70995  0.47181  1.0000
  H   H2010     1.0  0.51878  0.86642  0.47775  1.0000
  C   C2539     1.0  0.95839  0.96021  0.41870  1.0000
  H   H2011     1.0  0.70080  0.75781  0.45248  1.0000
  H   H2012     1.0  0.67838  0.71014  0.45701  1.0000
  H   H2013     1.0  0.79508  0.69770  0.45171  1.0000
  H   H2014     1.0  0.68883  0.82753  0.42957  1.0000
  H   H2015     1.0  0.63629  0.66902  0.37948  1.0000
  C   C2540     1.0  0.84119  0.87163  0.35880  1.0000
  C   C2541     1.0  0.83551  0.87257  0.33495  1.0000
  C   C2542     1.0  0.84659  0.86480  0.31718  1.0000
  C   C2543     1.0  0.86390  0.85650  0.32314  1.0000
  C   C2544     1.0  0.87050  0.85679  0.34687  1.0000
  C   C2545     1.0  0.85897  0.86396  0.36470  1.0000
  H   H2016     1.0  0.82213  0.87888  0.33024  1.0000
  H   H2017     1.0  0.84151  0.86498  0.29896  1.0000
  H   H2018     1.0  0.88442  0.85119  0.35142  1.0000
  H   H2019     1.0  0.86384  0.86360  0.38296  1.0000
  S   S351      1.0  0.69644  0.67571  0.47535  1.0000
  H   H2020     1.0  0.89602  0.93405  0.31645  1.0000
  C   C2546     1.0  0.91649  0.78748  0.25857  1.0000
  C   C2547     1.0  0.70792  0.71068  0.39825  1.0000
  C   C2548     1.0  0.54140  0.67908  0.28310  1.0000
  C   C2549     1.0  0.91573  0.79867  0.27999  1.0000
  H   H2021     1.0  0.87552  0.72109  0.37608  1.0000
  C   C2550     1.0  0.80695  0.75836  0.45309  1.0000
  H   H2022     1.0  0.84609  0.77481  0.46539  1.0000
  C   C2551     1.0  0.69977  0.68731  0.38632  1.0000
  C   C2552     1.0  0.69023  0.65015  0.28042  1.0000
  H   H2023     1.0  0.78874  0.75577  0.39608  1.0000
  C   C2553     1.0  0.69042  0.71906  0.40305  1.0000
  H   H2024     1.0  0.72780  0.72255  0.40375  1.0000
  H   H2025     1.0  0.77810  0.69435  0.37804  1.0000
  C   C2554     1.0  0.80061  0.93131  0.44522  1.0000
  H   H2026     1.0  0.74972  0.68497  0.46116  1.0000
  H   H2027     1.0  0.80937  0.93687  0.31176  1.0000
  C   C2555     1.0  0.53528  0.65336  0.28388  1.0000
  H   H2028     1.0  0.84110  0.69005  0.34939  1.0000
  C   C2556     1.0  0.74192  0.71858  0.34592  1.0000
  C   C2557     1.0  0.81299  0.92633  0.39878  1.0000
  C   C2558     1.0  0.92700  0.83843  0.25994  1.0000
  C   C2559     1.0  0.76336  0.71991  0.30938  1.0000
  C   C2560     1.0  0.76076  0.69599  0.31457  1.0000
  C   C2561     1.0  0.57350  0.96464  0.26293  1.0000
  P   P86       1.0  0.76118  0.89687  0.38473  1.0000
  C   C2562     1.0  0.77270  0.89603  0.35550  1.0000
  C   C2563     1.0  0.78701  0.91545  0.40531  1.0000
  C   C2564     1.0  0.92095  0.82412  0.28066  1.0000
  H   H2029     1.0  0.79876  0.75261  0.47049  1.0000
  C   C2565     1.0  0.47091  0.80612  0.49183  1.0000
  C   C2566     1.0  0.70652  0.67500  0.27165  1.0000
  C   C2567     1.0  0.73863  0.68346  0.42495  1.0000
  C   C2568     1.0  0.76465  0.87258  0.34372  1.0000
  C   C2569     1.0  0.77293  0.87238  0.32073  1.0000
  C   C2570     1.0  0.78914  0.89553  0.30926  1.0000
  C   C2571     1.0  0.79683  0.91893  0.32068  1.0000
  C   C2572     1.0  0.78843  0.91920  0.34360  1.0000
  C   C2573     1.0  0.74335  0.86537  0.39793  1.0000
  C   C2574     1.0  0.71950  0.85721  0.40896  1.0000
  C   C2575     1.0  0.70699  0.83360  0.42074  1.0000
  C   C2576     1.0  0.71831  0.81816  0.42181  1.0000
  C   C2577     1.0  0.74205  0.82622  0.41099  1.0000
  C   C2578     1.0  0.75458  0.84978  0.39925  1.0000
  H   H2030     1.0  0.93181  0.83225  0.35037  1.0000
  C   C2579     1.0  0.90174  0.94346  0.29947  1.0000
  C   C2580     1.0  0.89025  0.92944  0.27898  1.0000
  H   H2031     1.0  0.71713  0.71501  0.27310  1.0000
  H   H2032     1.0  0.79499  0.64710  0.28726  1.0000
  H   H2033     1.0  0.76628  0.94642  0.40025  1.0000
  H   H2034     1.0  0.87558  0.90926  0.28009  1.0000
  H   H2035     1.0  0.91604  0.95013  0.46287  1.0000
  H   H2036     1.0  0.66682  0.65429  0.37026  1.0000
  H   H2037     1.0  0.74724  0.71694  0.48669  1.0000
  H   H2038     1.0  0.75191  0.85441  0.35207  1.0000
  H   H2039     1.0  0.76702  0.85426  0.31185  1.0000
  C   C2581     1.0  0.70515  0.69603  0.28055  1.0000
  H   H2040     1.0  0.54672  0.71043  0.26127  1.0000
  H   H2041     1.0  0.79433  0.93749  0.35214  1.0000
  H   H2042     1.0  0.71084  0.86926  0.40913  1.0000
  H   H2043     1.0  0.69683  0.73712  0.41216  1.0000
  H   H2044     1.0  0.70912  0.80028  0.43160  1.0000
  H   H2045     1.0  0.75121  0.81463  0.41249  1.0000
  H   H2046     1.0  0.77339  0.85614  0.39173  1.0000
  H   H2047     1.0  0.80922  0.70280  0.41003  1.0000
  C   C2582     1.0  0.84130  0.70748  0.35480  1.0000
  C   C2583     1.0  0.71829  0.89813  0.36796  1.0000
  C   C2584     1.0  0.76867  0.64651  0.26109  1.0000
  H   H2048     1.0  0.80875  0.80370  0.38655  1.0000
  H   H2049     1.0  0.77018  0.74373  0.43578  1.0000
  C   C2585     1.0  0.92415  0.86257  0.49143  1.0000
  H   H2050     1.0  0.54705  0.69048  0.29909  1.0000
  C   C2586     1.0  0.74106  0.91111  0.38126  1.0000
  H   H2051     1.0  0.86501  0.78677  0.42591  1.0000
  C   C2587     1.0  0.66461  0.70401  0.39638  1.0000
  C   C2588     1.0  0.68789  0.69251  0.29861  1.0000
  C   C2589     1.0  0.77184  0.69276  0.39607  1.0000
  H   H2052     1.0  0.91148  0.76749  0.25828  1.0000
  H   H2053     1.0  0.96194  0.94980  0.40497  1.0000
  H   H2054     1.0  0.78557  0.81682  0.35937  1.0000
  H   H2055     1.0  0.81561  0.79528  0.30044  1.0000
  C   C2590     1.0  0.89747  0.94140  0.25702  1.0000
  C   C2591     1.0  0.74996  0.75286  0.47629  1.0000
  H   H2056     1.0  0.83926  0.78239  0.32742  1.0000
  C   C2592     1.0  0.78946  0.69726  0.41418  1.0000
  C   C2593     1.0  0.89786  0.85250  0.48693  1.0000
  S   S352      1.0  0.82640  0.85409  0.48533  1.0000
  H   H2057     1.0  0.48816  0.67666  0.46967  1.0000
  C   C2594     1.0  0.93715  0.94704  0.43359  1.0000
  H   H2058     1.0  0.91959  0.83260  0.29710  1.0000
  H   H2059     1.0  0.56042  0.96246  0.27705  1.0000
  H   H2060     1.0  0.88719  0.79567  0.34903  1.0000
  H   H2061     1.0  0.65093  0.71021  0.40058  1.0000
  H   H2062     1.0  0.93792  0.87042  0.47720  1.0000
  C   C2595     1.0  0.86073  0.72499  0.36978  1.0000
  P   P87       1.0  0.72292  0.67781  0.37805  1.0000
  H   H2063     1.0  0.78849  0.81223  0.31620  1.0000
  H   H2064     1.0  0.92425  0.92648  0.43140  1.0000
  H   H2065     1.0  0.74737  0.66505  0.33945  1.0000
  C   C2596     1.0  0.93252  0.96036  0.45133  1.0000
  C   C2597     1.0  0.65635  0.68077  0.38450  1.0000
  C   C2598     1.0  0.67383  0.67245  0.37938  1.0000
  C   C2599     1.0  0.82203  0.71234  0.34701  1.0000
  C   C2600     1.0  0.67339  0.64692  0.29897  1.0000
  C   C2601     1.0  0.75612  0.68749  0.44301  1.0000
  C   C2602     1.0  0.86106  0.74750  0.37678  1.0000
  C   C2603     1.0  0.84212  0.75282  0.36858  1.0000
  C   C2604     1.0  0.82219  0.73476  0.35413  1.0000
  P   P88       1.0  0.84205  0.78123  0.37890  1.0000
  C   C2605     1.0  0.82835  0.77313  0.40803  1.0000
  C   C2606     1.0  0.87461  0.80810  0.37957  1.0000
  C   C2607     1.0  0.88190  0.82782  0.39631  1.0000
  C   C2608     1.0  0.90722  0.84843  0.39702  1.0000
  C   C2609     1.0  0.92529  0.84987  0.38065  1.0000
  C   C2610     1.0  0.91798  0.83074  0.36344  1.0000
  C   C2611     1.0  0.89270  0.80997  0.36281  1.0000
  C   C2612     1.0  0.80152  0.76041  0.41105  1.0000
  C   C2613     1.0  0.79091  0.75336  0.43355  1.0000
  C   C2614     1.0  0.83257  0.93959  0.41536  1.0000
  C   C2615     1.0  0.83362  0.77060  0.45020  1.0000
  C   C2616     1.0  0.84429  0.77767  0.42773  1.0000
  C   C2617     1.0  0.82430  0.79026  0.35914  1.0000
  C   C2618     1.0  0.82656  0.78859  0.33468  1.0000
  C   C2619     1.0  0.81315  0.79589  0.31930  1.0000
  C   C2620     1.0  0.79792  0.80553  0.32818  1.0000
  C   C2621     1.0  0.79619  0.80800  0.35248  1.0000
  C   C2622     1.0  0.80945  0.80057  0.36790  1.0000
  H   H2066     1.0  0.80685  0.69864  0.33559  1.0000
  H   H2067     1.0  0.87605  0.76075  0.38865  1.0000
  H   H2068     1.0  0.80667  0.73783  0.34849  1.0000
  H   H2069     1.0  0.86807  0.82750  0.40878  1.0000
  H   H2070     1.0  0.91267  0.86340  0.41020  1.0000
  C   C2623     1.0  0.73898  0.69439  0.35122  1.0000
  H   H2071     1.0  0.71889  0.67774  0.42948  1.0000
  C   C2624     1.0  0.78154  0.69443  0.43765  1.0000
  H   H2072     1.0  0.94482  0.86603  0.38110  1.0000
  H   H2073     1.0  0.69781  0.94167  0.37170  1.0000
  C   C2625     1.0  0.49545  0.82800  0.49126  1.0000
  H   H2074     1.0  0.91049  0.78747  0.29601  1.0000
  C   C2626     1.0  0.73715  0.72577  0.47893  1.0000
  H   H2075     1.0  0.73473  0.72774  0.35764  1.0000
  H   H2076     1.0  0.48315  0.86514  0.45444  1.0000
  C   C2627     1.0  0.78097  0.91790  0.42873  1.0000
  C   C2628     1.0  0.50238  0.68526  0.48357  1.0000
  H   H2077     1.0  0.68646  0.70873  0.30514  1.0000
  H   H2078     1.0  0.76781  0.68720  0.30219  1.0000
  H   H2079     1.0  0.71985  0.67808  0.25749  1.0000
  H   H2080     1.0  0.75602  0.74977  0.32104  1.0000
  H   H2081     1.0  0.79596  0.93272  0.46342  1.0000
  C   C2629     1.0  0.75408  0.73124  0.32512  1.0000
  H   H2082     1.0  0.81832  0.92391  0.38120  1.0000
  C   C2630     1.0  0.74893  0.68341  0.33554  1.0000
  H   H2083     1.0  0.71264  0.87952  0.36018  1.0000
  C   C2631     1.0  0.70989  0.93318  0.37430  1.0000
  H   H2084     1.0  0.76107  0.90905  0.43435  1.0000
  H   H2085     1.0  0.77235  0.72961  0.29304  1.0000
  H   H2086     1.0  0.53474  0.69501  0.46081  1.0000
  H   H2087     1.0  0.79585  0.89531  0.29157  1.0000
  C   C2632     1.0  0.73278  0.94644  0.38719  1.0000
  C   C2633     1.0  0.49991  0.84919  0.47764  1.0000
  C   C2634     1.0  0.67218  0.66800  0.30796  1.0000
  H   H2088     1.0  0.85253  0.94727  0.41036  1.0000
  C   C2635     1.0  0.47980  0.84849  0.46458  1.0000
  H   H2089     1.0  0.84148  0.95202  0.45149  1.0000
  C   C2636     1.0  0.54105  0.69026  0.26162  1.0000
  H   H2090     1.0  0.65860  0.66521  0.32186  1.0000
  H   H2091     1.0  0.92751  0.91531  0.48658  1.0000
  H   H2092     1.0  0.59329  0.94974  0.28354  1.0000
  C   C2637     1.0  0.92028  0.96961  0.29800  1.0000
  H   H2093     1.0  0.88401  0.96594  0.47121  1.0000
  H   H2094     1.0  0.91353  0.81146  0.48295  1.0000
  C   C2638     1.0  0.82638  0.94216  0.43853  1.0000
  C   C2639     1.0  0.59210  0.95744  0.26666  1.0000
  C   C2640     1.0  0.88143  0.97400  0.48731  1.0000
  H   H2095     1.0  0.93014  0.85785  0.26034  1.0000
  H   H2096     1.0  0.95734  0.81803  0.48973  1.0000
  S   S353      1.0  0.83970  0.92449  0.49716  1.0000
  H   H2097     1.0  0.54325  0.97304  0.48004  1.0000
  C   C2641     1.0  0.91668  0.96746  0.25534  1.0000
  H   H2098     1.0  0.53026  0.64580  0.47746  1.0000
  H   H2099     1.0  0.69717  0.64439  0.33768  1.0000
  H   H2100     1.0  0.53626  0.64490  0.30042  1.0000
  H   H2101     1.0  0.48072  0.96751  0.40948  1.0000
  C   C2642     1.0  0.91716  0.80266  0.49799  1.0000
  H   H2102     1.0  0.73846  0.96525  0.39452  1.0000
  S   S354      1.0  0.63152  0.64375  0.43727  1.0000
  H   H2103     1.0  0.56710  0.71541  0.49226  1.0000
  H   H2104     1.0  0.49653  0.95638  0.49643  1.0000
  H   H2105     1.0  0.62370  0.95479  0.25155  1.0000
  C   C2643     1.0  0.54686  0.70693  0.49657  1.0000
  Fe  Fe178     1.0  0.50216  0.84708  0.55767  1.0000
  H   H2106     1.0  0.95643  0.73038  0.63119  1.0000
  S   S355      1.0  0.50906  0.81266  0.55201  1.0000
  Fe  Fe179     1.0  0.51925  0.90542  0.54607  1.0000
  S   S356      1.0  0.49244  0.90528  0.57381  1.0000
  S   S357      1.0  0.53668  0.93958  0.51936  1.0000
  Fe  Fe180     1.0  0.50539  0.88362  0.59694  1.0000
  S   S358      1.0  0.51445  0.89378  0.63574  1.0000
  C   C2644     1.0  0.60692  0.69235  0.52310  1.0000
  C   C2645     1.0  0.95175  0.74505  0.63548  1.0000
  S   S359      1.0  0.53459  0.88601  0.57032  1.0000
  S   S360      1.0  0.48929  0.86652  0.53126  1.0000
  H   H2107     1.0  0.92367  0.70702  0.67705  1.0000
  H   H2108     1.0  0.92165  0.79948  0.57861  1.0000
  S   S361      1.0  0.93236  0.83402  0.71771  1.0000
  H   H2109     1.0  0.89403  0.72767  0.52641  1.0000
  C   C2646     1.0  0.91959  0.92062  0.52248  1.0000
  C   C2647     1.0  0.48950  0.77811  0.55225  1.0000
  H   H2110     1.0  0.55458  0.80468  0.59297  1.0000
  H   H2111     1.0  0.96242  0.85665  0.63617  1.0000
  C   C2648     1.0  0.53365  0.84293  0.61680  1.0000
  C   C2649     1.0  0.48748  0.73609  0.55382  1.0000
  C   C2650     1.0  0.50156  0.76330  0.55527  1.0000
  H   H2112     1.0  0.59523  0.76675  0.57387  1.0000
  H   H2113     1.0  0.93564  0.72864  0.58148  1.0000
  H   H2114     1.0  0.49720  0.72531  0.55613  1.0000
  H   H2115     1.0  0.52206  0.77297  0.55861  1.0000
  H   H2116     1.0  0.47423  0.67808  0.51043  1.0000
  C   C2651     1.0  0.94658  0.79525  0.52128  1.0000
  P   P89       1.0  0.87648  0.75745  0.55416  1.0000
  C   C2652     1.0  0.63633  0.73774  0.52957  1.0000
  C   C2653     1.0  0.49456  0.70057  0.71674  1.0000
  C   C2654     1.0  0.51266  0.69611  0.52476  1.0000
  C   C2655     1.0  0.87104  0.69408  0.58691  1.0000
  C   C2656     1.0  0.81458  0.76302  0.53182  1.0000
  C   C2657     1.0  0.49095  0.87771  0.65794  1.0000
  C   C2658     1.0  0.49756  0.88483  0.68163  1.0000
  H   H2117     1.0  0.50051  0.83020  0.63884  1.0000
  H   H2118     1.0  0.92094  0.64991  0.60630  1.0000
  H   H2119     1.0  0.53600  0.73787  0.57784  1.0000
  S   S362      1.0  0.92471  0.84875  0.56094  1.0000
  H   H2120     1.0  0.51701  0.89959  0.68606  1.0000
  H   H2121     1.0  0.51784  0.77188  0.61551  1.0000
  H   H2122     1.0  0.92927  0.83534  0.66738  1.0000
  C   C2659     1.0  0.48512  0.94935  0.69765  1.0000
  H   H2123     1.0  0.51400  0.64673  0.66574  1.0000
  C   C2660     1.0  0.94941  0.84670  0.67214  1.0000
  H   H2124     1.0  0.87865  0.78628  0.51075  1.0000
  H   H2125     1.0  0.53809  0.86280  0.61709  1.0000
  H   H2126     1.0  0.51084  0.82879  0.50193  1.0000
  C   C2661     1.0  0.88957  0.69686  0.54848  1.0000
  H   H2127     1.0  0.50182  0.68913  0.70862  1.0000
  H   H2128     1.0  0.93314  0.79671  0.65037  1.0000
  C   C2662     1.0  0.50737  0.79132  0.71215  1.0000
  C   C2663     1.0  0.93965  0.90504  0.63633  1.0000
  C   C2664     1.0  0.89734  0.78831  0.51395  1.0000
  C   C2665     1.0  0.54886  0.83585  0.60373  1.0000
  H   H2129     1.0  0.85147  0.78791  0.54769  1.0000
  H   H2130     1.0  0.64797  0.71078  0.51801  1.0000
  C   C2666     1.0  0.96236  0.93454  0.50726  1.0000
  C   C2667     1.0  0.55082  0.69001  0.58053  1.0000
  H   H2131     1.0  0.94644  0.89974  0.65188  1.0000
  C   C2668     1.0  0.61561  0.74112  0.53588  1.0000
  C   C2669     1.0  0.53760  0.72190  0.58457  1.0000
  H   H2132     1.0  0.46768  0.74452  0.60193  1.0000
  C   C2670     1.0  0.48506  0.78637  0.67502  1.0000
  H   H2133     1.0  0.89903  0.91116  0.51932  1.0000
  S   S363      1.0  0.94119  0.68585  0.56581  1.0000
  C   C2671     1.0  0.50625  0.79850  0.62885  1.0000
  H   H2134     1.0  0.52015  0.68318  0.63273  1.0000
  C   C2672     1.0  0.88013  0.84255  0.50538  1.0000
  C   C2673     1.0  0.87772  0.72853  0.56027  1.0000
  C   C2674     1.0  0.56579  0.79223  0.52774  1.0000
  C   C2675     1.0  0.51132  0.72271  0.72929  1.0000
  H   H2135     1.0  0.55936  0.68078  0.57066  1.0000
  C   C2676     1.0  0.92694  0.74041  0.63042  1.0000
  H   H2136     1.0  0.51787  0.72038  0.61677  1.0000
  H   H2137     1.0  0.54057  0.66331  0.60924  1.0000
  C   C2677     1.0  0.48291  0.95360  0.51026  1.0000
  H   H2138     1.0  0.95189  0.88533  0.61247  1.0000
  C   C2678     1.0  0.92993  0.92952  0.54504  1.0000
  C   C2679     1.0  0.47909  0.87327  0.69963  1.0000
  P   P90       1.0  0.90910  0.92530  0.56977  1.0000
  C   C2680     1.0  0.92167  0.91817  0.59592  1.0000
  C   C2681     1.0  0.91511  0.72793  0.70259  1.0000
  Fe  Fe181     1.0  0.94825  0.65120  0.56414  1.0000
  C   C2682     1.0  0.48205  0.81203  0.70681  1.0000
  S   S364      1.0  0.47132  0.65370  0.58354  1.0000
  C   C2683     1.0  0.86922  0.71595  0.58200  1.0000
  C   C2684     1.0  0.47588  0.97220  0.51448  1.0000
  C   C2685     1.0  0.91857  0.92627  0.61830  1.0000
  C   C2686     1.0  0.94282  0.89698  0.61415  1.0000
  H   H2139     1.0  0.55793  0.83616  0.72753  1.0000
  H   H2140     1.0  0.54784  0.75459  0.51246  1.0000
  C   C2687     1.0  0.93401  0.90362  0.59406  1.0000
  C   C2688     1.0  0.87735  0.89846  0.56351  1.0000
  C   C2689     1.0  0.85970  0.90232  0.55039  1.0000
  C   C2690     1.0  0.83529  0.88161  0.54505  1.0000
  C   C2691     1.0  0.82829  0.85686  0.55268  1.0000
  C   C2692     1.0  0.84575  0.85281  0.56566  1.0000
  C   C2693     1.0  0.87028  0.87347  0.57093  1.0000
  H   H2141     1.0  0.79134  0.70016  0.51734  1.0000
  H   H2142     1.0  0.90906  0.93741  0.62039  1.0000
  C   C2694     1.0  0.94182  0.80635  0.50176  1.0000
  C   C2695     1.0  0.50278  0.96707  0.65936  1.0000
  H   H2143     1.0  0.85979  0.83451  0.50194  1.0000
  H   H2144     1.0  0.83379  0.71013  0.53313  1.0000
  H   H2145     1.0  0.87494  0.83370  0.54235  1.0000
  C   C2696     1.0  0.57144  0.75741  0.54264  1.0000
  H   H2146     1.0  0.47767  0.91677  0.52045  1.0000
  C   C2697     1.0  0.92021  0.75904  0.63566  1.0000
  H   H2147     1.0  0.48440  0.87910  0.71776  1.0000
  H   H2148     1.0  0.93652  0.89705  0.57704  1.0000
  H   H2149     1.0  0.86489  0.92126  0.54382  1.0000
  H   H2150     1.0  0.82196  0.88475  0.53460  1.0000
  H   H2151     1.0  0.80946  0.84082  0.54822  1.0000
  H   H2152     1.0  0.84049  0.83358  0.57131  1.0000
  H   H2153     1.0  0.88372  0.86971  0.58038  1.0000
  C   C2698     1.0  0.88586  0.80034  0.62440  1.0000
  C   C2699     1.0  0.48705  0.97278  0.70448  1.0000
  H   H2154     1.0  0.54121  0.96165  0.58592  1.0000
  C   C2700     1.0  0.93269  0.86243  0.51437  1.0000
  H   H2155     1.0  0.86133  0.72299  0.59524  1.0000
  C   C2701     1.0  0.90198  0.77717  0.53372  1.0000
  H   H2156     1.0  0.92616  0.82236  0.61559  1.0000
  H   H2157     1.0  0.49131  0.92838  0.66998  1.0000
  C   C2702     1.0  0.55923  0.84931  0.74126  1.0000
  C   C2703     1.0  0.95375  0.73674  0.57217  1.0000
  C   C2704     1.0  0.59033  0.72004  0.53590  1.0000
  C   C2705     1.0  0.52726  0.71206  0.60673  1.0000
  C   C2706     1.0  0.88142  0.68469  0.57023  1.0000
  H   H2158     1.0  0.50603  0.69537  0.54258  1.0000
  H   H2159     1.0  0.93066  0.77206  0.55203  1.0000
  H   H2160     1.0  0.51063  0.77141  0.68213  1.0000
  H   H2161     1.0  0.89809  0.68977  0.53579  1.0000
  H   H2162     1.0  0.91305  0.72242  0.62219  1.0000
  C   C2707     1.0  0.93577  0.92311  0.50371  1.0000
  C   C2708     1.0  0.54305  0.81021  0.60342  1.0000
  C   C2709     1.0  0.54023  0.68006  0.60261  1.0000
  C   C2710     1.0  0.47236  0.93129  0.52387  1.0000
  H   H2163     1.0  0.92496  0.92585  0.65564  1.0000
  C   C2711     1.0  0.52192  0.79157  0.61606  1.0000
  C   C2712     1.0  0.52858  0.69113  0.61576  1.0000
  H   H2164     1.0  0.56697  0.67920  0.52909  1.0000
  C   C2713     1.0  0.92400  0.65444  0.62489  1.0000
  C   C2714     1.0  0.88752  0.71854  0.54338  1.0000
  H   H2165     1.0  0.90852  0.74686  0.73190  1.0000
  C   C2715     1.0  0.47234  0.74255  0.63962  1.0000
  C   C2716     1.0  0.88866  0.84199  0.52821  1.0000
  H   H2166     1.0  0.87117  0.93408  0.59451  1.0000
  H   H2167     1.0  0.91135  0.73872  0.68945  1.0000
  C   C2717     1.0  0.91488  0.85159  0.53266  1.0000
  H   H2168     1.0  0.84395  0.95738  0.53609  1.0000
  C   C2718     1.0  0.54962  0.71105  0.57129  1.0000
  C   C2719     1.0  0.53902  0.70723  0.51983  1.0000
  C   C2720     1.0  0.91345  0.73250  0.72648  1.0000
  H   H2169     1.0  0.77882  0.73380  0.51673  1.0000
  C   C2721     1.0  0.58625  0.69565  0.52951  1.0000
  C   C2722     1.0  0.47609  0.80239  0.68383  1.0000
  S   S365      1.0  0.51088  0.64732  0.71609  1.0000
  C   C2723     1.0  0.92220  0.70995  0.69563  1.0000
  H   H2170     1.0  0.88804  0.81065  0.64072  1.0000
  C   C2724     1.0  0.51234  0.82434  0.62920  1.0000
  H   H2171     1.0  0.58520  0.82797  0.54696  1.0000
  C   C2725     1.0  0.85875  0.76784  0.59591  1.0000
  H   H2172     1.0  0.54692  0.86999  0.71866  1.0000
  C   C2726     1.0  0.55321  0.86848  0.73619  1.0000
  C   C2727     1.0  0.92673  0.78066  0.53710  1.0000
  C   C2728     1.0  0.58165  0.80843  0.54564  1.0000
  H   H2173     1.0  0.96573  0.79811  0.52428  1.0000
  H   H2174     1.0  0.90697  0.89926  0.74211  1.0000
  H   H2175     1.0  0.51997  0.78756  0.72297  1.0000
  H   H2176     1.0  0.95709  0.69157  0.61917  1.0000
  C   C2729     1.0  0.58727  0.77382  0.56066  1.0000
  C   C2730     1.0  0.90656  0.95376  0.57445  1.0000
  H   H2177     1.0  0.95299  0.87040  0.51777  1.0000
  C   C2731     1.0  0.94864  0.68398  0.65627  1.0000
  C   C2732     1.0  0.63197  0.71338  0.52314  1.0000
  C   C2733     1.0  0.82868  0.72506  0.53288  1.0000
  C   C2734     1.0  0.92757  0.91974  0.63840  1.0000
  H   H2178     1.0  0.65578  0.75405  0.52943  1.0000
  H   H2179     1.0  0.56488  0.85019  0.59353  1.0000
  P   P91       1.0  0.56286  0.72388  0.54255  1.0000
  C   C2735     1.0  0.59249  0.79926  0.56203  1.0000
  H   H2180     1.0  0.61951  0.76024  0.54030  1.0000
  P   P92       1.0  0.93807  0.67392  0.70407  1.0000
  C   C2736     1.0  0.88586  0.95228  0.58735  1.0000
  H   H2181     1.0  0.86466  0.68450  0.60373  1.0000
  C   C2737     1.0  0.94443  0.67809  0.63226  1.0000
  H   H2182     1.0  0.93715  0.88707  0.72425  1.0000
  C   C2738     1.0  0.92750  0.69623  0.71261  1.0000
  C   C2739     1.0  0.80463  0.71935  0.52383  1.0000
  H   H2183     1.0  0.83975  0.75273  0.59063  1.0000
  C   C2740     1.0  0.49273  0.94647  0.67510  1.0000
  H   H2184     1.0  0.60465  0.81178  0.57602  1.0000
  C   C2741     1.0  0.50185  0.73700  0.74045  1.0000
  C   C2742     1.0  0.79756  0.73830  0.52340  1.0000
  C   C2743     1.0  0.83849  0.76871  0.54106  1.0000
  C   C2744     1.0  0.90468  0.79377  0.58921  1.0000
  C   C2745     1.0  0.93232  0.66617  0.67308  1.0000
  C   C2746     1.0  0.84570  0.74977  0.54169  1.0000
  C   C2747     1.0  0.88029  0.77452  0.58154  1.0000
  C   C2748     1.0  0.90736  0.80684  0.61036  1.0000
  C   C2749     1.0  0.86155  0.78072  0.61724  1.0000
  H   H2185     1.0  0.53144  0.72821  0.73111  1.0000
  C   C2750     1.0  0.92526  0.70058  0.73660  1.0000
  C   C2751     1.0  0.50169  0.78187  0.68907  1.0000
  H   H2186     1.0  0.60341  0.67345  0.51788  1.0000
  H   H2187     1.0  0.90107  0.75556  0.63156  1.0000
  C   C2752     1.0  0.85900  0.96929  0.52378  1.0000
  H   H2188     1.0  0.84485  0.77569  0.62812  1.0000
  C   C2753     1.0  0.93830  0.78227  0.64610  1.0000
  H   H2189     1.0  0.80916  0.77776  0.53133  1.0000
  C   C2754     1.0  0.56069  0.76684  0.52618  1.0000
  C   C2755     1.0  0.49450  0.68582  0.50658  1.0000
  H   H2190     1.0  0.55688  0.79920  0.51540  1.0000
  C   C2756     1.0  0.49719  0.80603  0.72115  1.0000
  H   H2191     1.0  0.51127  0.96321  0.55697  1.0000
  C   C2757     1.0  0.88390  0.97431  0.59096  1.0000
  H   H2192     1.0  0.47824  0.93340  0.70985  1.0000
  H   H2193     1.0  0.50904  0.96490  0.64203  1.0000
  C   C2758     1.0  0.96169  0.72008  0.56269  1.0000
  H   H2194     1.0  0.96463  0.70233  0.66176  1.0000
  H   H2195     1.0  0.88354  0.66817  0.57420  1.0000
  C   C2759     1.0  0.86182  0.95807  0.50296  1.0000
  C   C2760     1.0  0.95658  0.84932  0.69599  1.0000
  C   C2761     1.0  0.95677  0.94178  0.54825  1.0000
  P   P93       1.0  0.47844  0.77495  0.64487  1.0000
  S   S366      1.0  0.47445  0.84451  0.58550  1.0000
  H   H2196     1.0  0.48160  0.92131  0.62276  1.0000
  C   C2762     1.0  0.91841  0.71875  0.74346  1.0000
  H   H2197     1.0  0.88528  0.64697  0.72284  1.0000
  H   H2198     1.0  0.46778  0.79016  0.50292  1.0000
  C   C2763     1.0  0.96319  0.78707  0.65098  1.0000
  C   C2764     1.0  0.94425  0.90311  0.73651  1.0000
  C   C2765     1.0  0.55756  0.97388  0.51507  1.0000
  H   H2199     1.0  0.46871  0.74011  0.74877  1.0000
  H   H2200     1.0  0.50143  0.81324  0.73909  1.0000
  H   H2201     1.0  0.47460  0.94464  0.59038  1.0000
  C   C2766     1.0  0.47112  0.72641  0.65807  1.0000
  H   H2202     1.0  0.47488  0.82421  0.71351  1.0000
  H   H2203     1.0  0.96516  0.94902  0.56541  1.0000
  H   H2204     1.0  0.96294  0.77625  0.57789  1.0000
  C   C2767     1.0  0.92727  0.90997  0.74662  1.0000
  H   H2205     1.0  0.86780  0.97307  0.60073  1.0000
  H   H2206     1.0  0.47324  0.73252  0.67621  1.0000
  C   C2768     1.0  0.47564  0.72929  0.73900  1.0000
  C   C2769     1.0  0.46832  0.69256  0.71552  1.0000
  C   C2770     1.0  0.46743  0.73278  0.61649  1.0000
  C   C2771     1.0  0.46635  0.70151  0.65321  1.0000
  H   H2207     1.0  0.46658  0.78716  0.59817  1.0000
  C   C2772     1.0  0.92000  0.64439  0.72041  1.0000
  Fe  Fe182     1.0  0.84631  0.94137  0.88646  1.0000
  S   S367      1.0  0.87293  0.96811  0.91460  1.0000
  S   S368      1.0  0.85930  0.92231  0.85783  1.0000
  Fe  Fe183     1.0  0.80499  0.95816  0.89725  1.0000
  C   C2773     1.0  0.90679  0.69283  0.85753  1.0000
  Fe  Fe184     1.0  0.83766  0.95506  0.93709  1.0000
  S   S369      1.0  0.83744  0.94642  0.97608  1.0000
  C   C2774     1.0  0.47119  0.84663  0.89833  1.0000
  S   S370      1.0  0.81115  0.92589  0.91014  1.0000
  C   C2775     1.0  0.93820  0.65687  0.88715  1.0000
  S   S371      1.0  0.53444  0.67820  0.77933  1.0000
  Fe  Fe185     1.0  0.50282  0.68428  0.79453  1.0000
  S   S372      1.0  0.50953  0.72576  0.79836  1.0000
  S   S373      1.0  0.58209  0.93222  0.88746  1.0000
  C   C2776     1.0  0.48908  0.93164  0.85121  1.0000
  S   S374      1.0  0.91574  0.80652  0.78297  1.0000
  H   H2208     1.0  0.48643  0.94309  0.94652  1.0000
  C   C2777     1.0  0.71073  0.97349  0.88292  1.0000
  S   S375      1.0  0.52279  0.90992  0.79072  1.0000
  H   H2209     1.0  0.93357  0.70833  0.80278  1.0000
  C   C2778     1.0  0.67383  0.93439  0.99092  1.0000
  Fe  Fe186     1.0  0.93107  0.84084  0.80788  1.0000
  S   S376      1.0  0.91020  0.85103  0.83697  1.0000
  C   C2779     1.0  0.68185  0.91688  0.92423  1.0000
  H   H2210     1.0  0.95918  0.78633  0.85107  1.0000
  C   C2780     1.0  0.56538  0.92629  0.86075  1.0000
  C   C2781     1.0  0.57591  0.94355  0.84206  1.0000
  C   C2782     1.0  0.56272  0.93831  0.82059  1.0000
  C   C2783     1.0  0.53869  0.91603  0.81790  1.0000
  C   C2784     1.0  0.52808  0.89881  0.83662  1.0000
  C   C2785     1.0  0.54153  0.90377  0.85796  1.0000
  H   H2211     1.0  0.59441  0.96072  0.84393  1.0000
  H   H2212     1.0  0.57112  0.95161  0.80611  1.0000
  H   H2213     1.0  0.50976  0.88149  0.83462  1.0000
  H   H2214     1.0  0.53341  0.89020  0.87228  1.0000
  H   H2215     1.0  0.90599  0.93566  0.90164  1.0000
  H   H2216     1.0  0.78013  0.92769  0.97611  1.0000
  H   H2217     1.0  0.50233  0.94815  0.75512  1.0000
  C   C2786     1.0  0.57770  0.79344  0.81381  1.0000
  C   C2787     1.0  0.66054  0.90815  0.99676  1.0000
  C   C2788     1.0  0.49924  0.76578  0.79402  1.0000
  H   H2218     1.0  0.49967  0.88191  0.91388  1.0000
  H   H2219     1.0  0.94783  0.95344  0.83645  1.0000
  H   H2220     1.0  0.49276  0.79815  0.79159  1.0000
  H   H2221     1.0  0.51908  0.77684  0.78846  1.0000
  H   H2222     1.0  0.62978  0.86577  0.81017  1.0000
  H   H2223     1.0  0.48000  0.83597  0.90501  1.0000
  C   C2789     1.0  0.94711  0.96591  0.96789  1.0000
  H   H2224     1.0  0.67672  0.97119  0.99805  1.0000
  H   H2225     1.0  0.71236  0.93857  0.87836  1.0000
  C   C2790     1.0  0.87408  0.90288  0.85266  1.0000
  C   C2791     1.0  0.88308  0.90201  0.82988  1.0000
  C   C2792     1.0  0.89462  0.88686  0.82479  1.0000
  C   C2793     1.0  0.89691  0.87173  0.84233  1.0000
  C   C2794     1.0  0.88796  0.87264  0.86511  1.0000
  C   C2795     1.0  0.87685  0.88814  0.87029  1.0000
  H   H2226     1.0  0.88112  0.91319  0.81598  1.0000
  H   H2227     1.0  0.90128  0.88654  0.80718  1.0000
  H   H2228     1.0  0.88943  0.86104  0.87888  1.0000
  H   H2229     1.0  0.86992  0.88822  0.88784  1.0000
  H   H2230     1.0  0.77589  0.94906  0.94053  1.0000
  H   H2231     1.0  0.52192  0.67527  0.90018  1.0000
  H   H2232     1.0  0.91373  0.95935  0.85426  1.0000
  Fe  Fe187     1.0  0.48277  0.87587  0.78980  1.0000
  H   H2233     1.0  0.62688  0.93636  0.86542  1.0000
  S   S377      1.0  0.96214  0.83281  0.82078  1.0000
  P   P94       1.0  0.57846  0.86191  0.81138  1.0000
  H   H2234     1.0  0.53361  0.82696  0.88668  1.0000
  S   S378      1.0  0.49373  0.65404  0.82260  1.0000
  C   C2796     1.0  0.52629  0.96598  0.83172  1.0000
  H   H2235     1.0  0.63072  0.89685  0.88699  1.0000
  C   C2797     1.0  0.52186  0.95131  0.96307  1.0000
  S   S379      1.0  0.76422  0.95022  0.88758  1.0000
  C   C2798     1.0  0.62245  0.82700  0.81131  1.0000
  C   C2799     1.0  0.79099  0.93876  0.83155  1.0000
  H   H2236     1.0  0.51473  0.75344  0.75110  1.0000
  H   H2237     1.0  0.48578  0.82487  0.82951  1.0000
  H   H2238     1.0  0.64269  0.83272  0.81038  1.0000
  H   H2239     1.0  0.91701  0.97275  0.95536  1.0000
  C   C2800     1.0  0.60380  0.80088  0.81253  1.0000
  C   C2801     1.0  0.50730  0.82487  0.85978  1.0000
  C   C2802     1.0  0.64317  0.90609  0.90198  1.0000
  H   H2240     1.0  0.88316  0.70344  0.91782  1.0000
  C   C2803     1.0  0.61153  0.97129  0.98783  1.0000
  C   C2804     1.0  0.54475  0.95061  0.96114  1.0000
  H   H2241     1.0  0.69047  0.96450  0.87856  1.0000
  C   C2805     1.0  0.81058  0.93536  0.82203  1.0000
  S   S380      1.0  0.95631  0.86865  0.78014  1.0000
  C   C2806     1.0  0.89418  0.67203  0.87316  1.0000
  H   H2242     1.0  0.50018  0.64829  0.93513  1.0000
  C   C2807     1.0  0.62402  0.90802  0.80339  1.0000
  C   C2808     1.0  0.93632  0.93019  0.76292  1.0000
  H   H2243     1.0  0.53573  0.92369  0.90683  1.0000
  C   C2809     1.0  0.50869  0.93211  0.92409  1.0000
  C   C2810     1.0  0.60553  0.90401  0.84210  1.0000
  S   S381      1.0  0.83793  0.97148  0.87172  1.0000
  H   H2244     1.0  0.66367  0.89457  0.98675  1.0000
  C   C2811     1.0  0.64566  0.94239  0.83194  1.0000
  C   C2812     1.0  0.58882  0.83837  0.81241  1.0000
  C   C2813     1.0  0.52643  0.84336  0.82213  1.0000
  S   S382      1.0  0.94343  0.76045  0.80055  1.0000
  H   H2245     1.0  0.56491  0.89738  0.78983  1.0000
  C   C2814     1.0  0.62618  0.92826  0.84818  1.0000
  C   C2815     1.0  0.95402  0.72052  0.79985  1.0000
  C   C2816     1.0  0.52563  0.64558  0.88246  1.0000
  H   H2246     1.0  0.95178  0.91182  0.95816  1.0000
  C   C2817     1.0  0.54956  0.94048  0.94089  1.0000
  C   C2818     1.0  0.47135  0.88708  0.89450  1.0000
  H   H2247     1.0  0.62343  0.90051  0.78590  1.0000
  H   H2248     1.0  0.77111  0.70672  0.79224  1.0000
  C   C2819     1.0  0.88612  0.67617  0.89512  1.0000
  C   C2820     1.0  0.48884  0.73946  0.79936  1.0000
  H   H2249     1.0  0.77667  0.96459  0.83705  1.0000
  C   C2821     1.0  0.72144  0.93835  0.96923  1.0000
  C   C2822     1.0  0.93820  0.97436  0.90414  1.0000
  P   P95       1.0  0.69573  0.94563  0.96623  1.0000
  H   H2250     1.0  0.59871  0.66038  0.85308  1.0000
  C   C2823     1.0  0.55527  0.88572  0.75377  1.0000
  C   C2824     1.0  0.74066  0.66755  0.78682  1.0000
  H   H2251     1.0  0.54994  0.80593  0.81501  1.0000
  H   H2252     1.0  0.56314  0.77316  0.81469  1.0000
  H   H2253     1.0  0.75350  0.65644  0.85146  1.0000
  C   C2825     1.0  0.50097  0.94546  0.83079  1.0000
  C   C2826     1.0  0.76439  0.68367  0.82328  1.0000
  C   C2827     1.0  0.66564  0.90479  0.90495  1.0000
  C   C2828     1.0  0.76145  0.94275  0.95424  1.0000
  C   C2829     1.0  0.67572  0.93050  0.94068  1.0000
  C   C2830     1.0  0.65290  0.93138  0.93772  1.0000
  C   C2831     1.0  0.63678  0.91935  0.91838  1.0000
  H   H2254     1.0  0.46705  0.96043  0.78306  1.0000
  C   C2832     1.0  0.55097  0.85002  0.83083  1.0000
  H   H2255     1.0  0.77597  0.92371  0.84212  1.0000
  H   H2256     1.0  0.65951  0.94339  0.79682  1.0000
  H   H2257     1.0  0.66140  0.96128  0.83675  1.0000
  C   C2833     1.0  0.53992  0.97241  0.85290  1.0000
  C   C2834     1.0  0.48427  0.77795  0.79570  1.0000
  C   C2835     1.0  0.50387  0.94212  0.94464  1.0000
  S   S383      1.0  0.47221  0.84089  0.76777  1.0000
  C   C2836     1.0  0.76371  0.93057  0.97424  1.0000
  H   H2258     1.0  0.57188  0.84803  0.86108  1.0000
  C   C2837     1.0  0.79148  0.96212  0.82859  1.0000
  C   C2838     1.0  0.74966  0.97000  0.88814  1.0000
  C   C2839     1.0  0.75983  0.68779  0.80001  1.0000
  C   C2840     1.0  0.53163  0.83169  0.86871  1.0000
  H   H2259     1.0  0.49074  0.93989  0.81414  1.0000
  H   H2260     1.0  0.64763  0.94157  0.95030  1.0000
  C   C2841     1.0  0.92655  0.94811  0.89894  1.0000
  H   H2261     1.0  0.60953  0.96505  0.96969  1.0000
  Fe  Fe188     1.0  0.52291  0.64549  0.80527  1.0000
  H   H2262     1.0  0.60951  0.78637  0.81249  1.0000
  H   H2263     1.0  0.91457  0.69082  0.84104  1.0000
  H   H2264     1.0  0.84609  0.95280  0.80263  1.0000
  H   H2265     1.0  0.52369  0.84729  0.80412  1.0000
  C   C2842     1.0  0.96250  0.94365  0.76933  1.0000
  H   H2266     1.0  0.55883  0.95801  0.97531  1.0000
  H   H2267     1.0  0.93211  0.91774  0.88529  1.0000
  C   C2843     1.0  0.83058  0.95529  0.80941  1.0000
  C   C2844     1.0  0.72323  0.95879  0.88280  1.0000
  C   C2845     1.0  0.90135  0.72071  0.88492  1.0000
  C   C2846     1.0  0.55333  0.84391  0.85422  1.0000
  C   C2847     1.0  0.48237  0.87291  0.90332  1.0000
  C   C2848     1.0  0.61503  0.84572  0.81121  1.0000
  H   H2268     1.0  0.91732  0.72250  0.76199  1.0000
  H   H2269     1.0  0.56743  0.94015  0.93921  1.0000
  C   C2849     1.0  0.91010  0.71696  0.86330  1.0000
  C   C2850     1.0  0.92038  0.96632  0.83665  1.0000
  C   C2851     1.0  0.90391  0.94573  0.98390  1.0000
  H   H2270     1.0  0.49032  0.81465  0.87067  1.0000
  C   C2852     1.0  0.52817  0.95854  0.87327  1.0000
  H   H2271     1.0  0.68563  0.64646  0.89701  1.0000
  H   H2272     1.0  0.69907  0.91550  0.92604  1.0000
  Fe  Fe189     1.0  0.94920  0.80107  0.79374  1.0000
  C   C2853     1.0  0.88951  0.70037  0.90088  1.0000
  P   P96       1.0  0.48636  0.92147  0.89946  1.0000
  C   C2854     1.0  0.92223  0.96248  0.96784  1.0000
  C   C2855     1.0  0.56335  0.88384  0.77640  1.0000
  C   C2856     1.0  0.74498  0.92237  0.99186  1.0000
  C   C2857     1.0  0.50257  0.93806  0.87271  1.0000
  C   C2858     1.0  0.72392  0.92626  0.98942  1.0000
  H   H2273     1.0  0.92268  0.93484  0.77073  1.0000
  Fe  Fe190     1.0  0.50366  0.64887  0.75531  1.0000
  H   H2274     1.0  0.88461  0.94310  0.98384  1.0000
  C   C2859     1.0  0.56886  0.86431  0.78178  1.0000
  H   H2275     1.0  0.81079  0.91764  0.82516  1.0000
  C   C2860     1.0  0.53156  0.93114  0.92255  1.0000
  C   C2861     1.0  0.84601  0.97123  0.99730  1.0000
  C   C2862     1.0  0.50473  0.83068  0.83654  1.0000
  C   C2863     1.0  0.93976  0.96304  0.82643  1.0000
  H   H2276     1.0  0.53504  0.65724  0.86710  1.0000
  C   C2864     1.0  0.96437  0.74729  0.79751  1.0000
  C   C2865     1.0  0.57026  0.81209  0.81388  1.0000
  H   H2277     1.0  0.87740  0.66071  0.90783  1.0000
  H   H2278     1.0  0.91971  0.73282  0.85100  1.0000
  H   H2279     1.0  0.67067  0.89459  0.89220  1.0000
  H   H2280     1.0  0.48468  0.96858  0.89162  1.0000
  C   C2866     1.0  0.94834  0.97200  0.80357  1.0000
  C   C2867     1.0  0.64455  0.93230  0.80951  1.0000
  H   H2281     1.0  0.71886  0.96607  0.79560  1.0000
  H   H2282     1.0  0.77921  0.69941  0.83352  1.0000
  C   C2868     1.0  0.74065  0.94696  0.95189  1.0000
  H   H2283     1.0  0.90404  0.73948  0.88937  1.0000
  C   C2869     1.0  0.95409  0.95315  0.98450  1.0000
  H   H2284     1.0  0.62525  0.64405  0.87102  1.0000
  C   C2870     1.0  0.60436  0.89358  0.81967  1.0000
  H   H2285     1.0  0.59041  0.89397  0.85486  1.0000
  H   H2286     1.0  0.61938  0.92045  0.91605  1.0000
  H   H2287     1.0  0.95616  0.89275  0.92117  1.0000
  Fe  Fe191     1.0  0.61227  0.97381  0.89227  1.0000
  H   H2288     1.0  0.73961  0.95703  0.93650  1.0000
  C   C2871     1.0  0.94118  0.93805  0.88960  1.0000
  C   C2872     1.0  0.74975  0.65932  0.83339  1.0000
  C   C2873     1.0  0.51825  0.65568  0.90109  1.0000
  C   C2874     1.0  0.95557  0.65414  0.90161  1.0000
  C   C2875     1.0  0.56679  0.84703  0.76403  1.0000
  H   H2289     1.0  0.94520  0.67388  0.87628  1.0000
  H   H2290     1.0  0.57103  0.83184  0.76761  1.0000
  H   H2291     1.0  0.54444  0.96150  0.77348  1.0000
  H   H2292     1.0  0.53934  0.96408  0.88929  1.0000
  H   H2293     1.0  0.51819  0.95912  0.97885  1.0000
  S   S384      1.0  0.47335  0.65680  0.76885  1.0000
  C   C2876     1.0  0.53983  0.97599  0.76790  1.0000
  H   H2294     1.0  0.95792  0.81279  0.88419  1.0000
  C   C2877     1.0  0.51589  0.96850  0.75760  1.0000
  H   H2295     1.0  0.55042  0.90050  0.75001  1.0000
  H   H2296     1.0  0.96178  0.68892  0.80122  1.0000
  H   H2297     1.0  0.73707  0.67081  0.76881  1.0000
  H   H2298     1.0  0.76355  0.97463  0.79144  1.0000
  C   C2878     1.0  0.46659  0.95469  0.89949  1.0000
  Fe  Fe192     1.0  0.94344  0.83446  0.75613  1.0000
  H   H2299     1.0  0.46939  0.91602  0.85001  1.0000
  H   H2300     1.0  0.53563  0.97654  0.81595  1.0000
  H   H2301     1.0  0.92938  0.69036  0.75004  1.0000
  H   H2302     1.0  0.87176  0.64874  0.82155  1.0000
  H   H2303     1.0  0.88679  0.65144  0.78053  1.0000
  C   C2879     1.0  0.89606  0.64702  0.79466  1.0000
  C   C2880     1.0  0.88762  0.64547  0.81786  1.0000
  H   H2304     1.0  0.92385  0.64493  0.77199  1.0000
