data_image0
_chemical_formula_structural       S2FeSFeSFeS2HPHFeS2FeSCFeSFeS3CHCHSC6H4SHC4HCH2C6H5C2HCHC5PC18H13CH3CSHC2SC2FePC18H2CH4C2H10C2HCH2FeCH3SH2SCH5CH2CH3CH3CH4C6H2CHC3HCH2C2HC2H2C2HCHC2HCHC2FeCHPCH2C5HC2FeCHC2H2CHPH2CSCHC3HC4HFeS2CHCFeS2FeS2FeCFeS3C3HC5H3C3H2C4H2C6H5CH2CH2CH2CPHCHC4PC8H2CHC2H2CH2CH2SH5C2HC3H4C2SH3CHCHC6H4SHCHC5H4CHC4H4CHPCHCHC2HC9HCH2C2H3C2H2CH4SHCHCHC4PHC2HC2HC3HC3HCHCH2CHSC3HCHCSH3CH2S2FeSFeSFeS2C3FeS2FeS2FeSFeS3CHCHC7H6C4HCH2C6H2CH2C2HCH2C2H4CH2CPC2HC2HC2HFeCHC9H2C2HCH3C2FeH5C5HC2HC5HCH2PHC2HCHCH2C3HC2HC2H2CHSHC3SHC2PC16H2SCH2CSCHCH8C2HC2HCH2CH2C2H2CHC2H5PC3HC3PC9H2C2H9C2H4CHC2H2CHC2HC4FeC2HSCHC2SHC2H2CHCHCSHC4HCH3CFeS2H2CFeS2FeS2FeSFeS3H2C7H3C2H3PHC3HC6H6C2HCHC4H2CH2CH2CH3CHCH2C7H2CHC2H2CPH2CH2CH2C2H2C3HC2H2C2HC5H2C2H3C3HPCHC2HC7HC3PCHC6H3C3HCH3C2HCH2CH2C6PC13H3CSH5CH6CH3CHC2H2CHCHCH2FeHC2HC4PC6HC2H2C3HC2HC2HC2H2SH2CHC3H2CH3CHCH2C2H3SCH8FeSC5SH5C2H2CH2CHCFeC2SCH3C2HCHCHC3H2C5SC3HCSCHCSC5HCH5CH2C2HCH4C2HC4H4C2HC2HCHC2H4C2HPCHCHC2HC7HC2HCSC2H2CH2CH2C2HCHPH2CHC5H2CHSCFeS2HFeS2FeSCFeSFeSC2H2C2HCHC5PCPHSFeS2C4H4CH7C2HCHCHCH2CH4C4HC3H5C3SC2H4CHCSCHCHC3H3C3H2C8PC18H7CH8CH2C6H2CFeCHCHCH4C3H2FeH6CH2C4H2CFeC3H5C4FeSHCSH2FeSH2CH2C2H2C2HSCHCH2CHCFeH2SH2SCH2CSH2C3SCHC2HCHSFeHCHFeC2H4C6PHC2H4FeC8HCH4CHCHCH3FeSCFeSHFeSFeSC2H4C2HC6HSHSFeS2C4H2C2HC2H2FeH3CHC2H3C2H2CHC2H3CH2CH3SHC6PC5HC7HSC2H2C2HC2H2C2SCHC2HC4HCHSC2HC2H3PHCHCHC4HC2HCHCHC2H4CH2C6H2CHC2HPCHC4H3CH3CSH5SC2H3FeHCHCHFeS2CH2FeS2FeS2FeSFeS3CSFeS2FeS2Fe2S2C2H2C3H3CHC4HCH2C6H4C2H2SHPH2CH2C6H8C2H3CSHC4H4C9HFeC2H4C2HCH2CH4C5PC18H15C3PC8HC6HCH5CH7CH2PC9HPC4HC5H7C2HC3HFeC4H4C4HCH2C2SCH2SCHC2HC2HCFeSC2FeH3CHSH2C3HC2HCFeS2CHC4H2CSC3S2FeS2FeS2FeSFeS3HC5H4PSCH2CFeHCHCHC3HC2H2C6H6CHCHC3PC6HC2HC3H7CH4CHSHCHC2H2C2HCH4CHC3HCH2C3HC2H2CHC3H4SHC7HC2HC3HCHCHFeCH2CH2CH3CPC18H3CH6CH2C2H4C3H4C3HC4SHFeS3HCFeS2FeS2FeSFeS3HCFeS2FeS2Fe2S2C4HC2H5C4HCH2C6H4C2H2CH3CH2C7H4CH2C2HC3FeH2CHSC3PCSC12H2C2H2C2H9C5H2C2HPC17H2CH8FeHCHSHCHC4HC3HCHCH2CSHCHC2HCSC3PCHCHCHC2H3CPC3HCH2C3H3C2H3CH2C2HCHCHCHC3H2SHCHCHCHCHCFeC4HCHC4HCH4C3PC2H2C2H2C3HCHCHCSCH2C3H2CHCH5CH2FeS2C2HCHCHCHSHCHS2FeS2FeS2FeSFeS3HC5HCH6C3HFeC2HC6H2C6H4CH2C3H2C5HCHC3H5C4HC2H2SC2HC7HPHFePCHC2H2C2H2CH2CPC4HPCHCPC4HCH3C4H3C3HCH3CH3CHC3PC3HC10HCH2C2H7CHCH3CH2CHC4H2C7FeH4CHCH2C2HCH2CHSC3HC3H2CH4C4SC2HC2
_chemical_formula_sum              "S192 Fe96 H1152 P48 C1440"
_cell_length_a       51.9115
_cell_length_b       52.1217
_cell_length_c       38.1967
_cell_angle_alpha    90.1509
_cell_angle_beta     90.0106
_cell_angle_gamma    120.003

_space_group_name_H-M_alt    "P 1"
_space_group_IT_number       1

loop_
  _space_group_symop_operation_xyz
  'x, y, z'

loop_
  _atom_site_type_symbol
  _atom_site_label
  _atom_site_symmetry_multiplicity
  _atom_site_fract_x
  _atom_site_fract_y
  _atom_site_fract_z
  _atom_site_occupancy
  S   S1        1.0  0.24273  0.13458  0.12253  1.0000
  S   S2        1.0  0.23821  0.14047  0.20730  1.0000
  Fe  Fe1       1.0  0.24427  0.10971  0.17021  1.0000
  S   S3        1.0  0.21444  0.05880  0.17077  1.0000
  Fe  Fe2       1.0  0.24166  0.16786  0.15996  1.0000
  S   S4        1.0  0.21129  0.18804  0.15398  1.0000
  Fe  Fe3       1.0  0.15266  0.32307  0.44326  1.0000
  S   S5        1.0  0.12579  0.27341  0.44427  1.0000
  S   S6        1.0  0.17943  0.35025  0.39606  1.0000
  H   H1        1.0  0.27775  0.10730  0.06212  1.0000
  P   P1        1.0  0.27278  0.24835  0.02564  1.0000
  H   H2        1.0  0.27862  0.31607  0.44824  1.0000
  Fe  Fe4       1.0  0.21856  0.34774  0.14565  1.0000
  S   S7        1.0  0.16871  0.32299  0.14710  1.0000
  S   S8        1.0  0.24676  0.32493  0.14524  1.0000
  Fe  Fe5       1.0  0.22120  0.40871  0.14695  1.0000
  S   S9        1.0  0.17165  0.38725  0.14912  1.0000
  C   C1        1.0  0.23975  0.27162  0.05554  1.0000
  Fe  Fe6       1.0  0.17367  0.35620  0.18839  1.0000
  S   S10       1.0  0.14231  0.34117  0.23523  1.0000
  Fe  Fe7       1.0  0.17142  0.35632  0.10767  1.0000
  S   S11       1.0  0.13784  0.34443  0.06331  1.0000
  S   S12       1.0  0.22356  0.37954  0.18917  1.0000
  S   S13       1.0  0.22119  0.37938  0.10321  1.0000
  C   C2        1.0  0.14737  0.34815  0.01831  1.0000
  H   H3        1.0  0.03342  0.33096  0.05903  1.0000
  C   C3        1.0  0.21608  0.29393  0.02270  1.0000
  H   H4        1.0  0.19023  0.35196  0.02566  1.0000
  S   S14       1.0  0.18058  0.32618  0.49021  1.0000
  C   C4        1.0  0.16878  0.34556  0.35125  1.0000
  C   C5        1.0  0.19033  0.36241  0.32596  1.0000
  C   C6        1.0  0.18286  0.36021  0.29018  1.0000
  C   C7        1.0  0.15344  0.34185  0.27938  1.0000
  C   C8        1.0  0.13189  0.32477  0.30461  1.0000
  C   C9        1.0  0.13955  0.32630  0.34033  1.0000
  H   H5        1.0  0.21301  0.37731  0.33411  1.0000
  H   H6        1.0  0.19975  0.37327  0.27109  1.0000
  H   H7        1.0  0.10905  0.31055  0.29656  1.0000
  H   H8        1.0  0.12272  0.31324  0.35948  1.0000
  S   S15       1.0  0.29426  0.13501  0.17452  1.0000
  H   H9        1.0  0.18644  0.41244  0.25883  1.0000
  C   C10       1.0  0.20026  0.00003  0.16765  1.0000
  C   C11       1.0  0.22335  0.02972  0.17088  1.0000
  C   C12       1.0  0.25261  0.03529  0.17382  1.0000
  C   C13       1.0  0.25851  0.01156  0.17412  1.0000
  H   H10       1.0  0.00283  0.31820  0.47911  1.0000
  C   C14       1.0  0.15975  0.42086  0.00638  1.0000
  H   H11       1.0  0.27069  0.05788  0.17622  1.0000
  H   H12       1.0  0.18598  0.12579  0.03199  1.0000
  C   C15       1.0  0.22156  0.22629  0.15334  1.0000
  C   C16       1.0  0.19919  0.23398  0.15052  1.0000
  C   C17       1.0  0.20633  0.26393  0.14883  1.0000
  C   C18       1.0  0.23608  0.28674  0.14998  1.0000
  C   C19       1.0  0.25837  0.27903  0.15347  1.0000
  C   C20       1.0  0.25125  0.24909  0.15509  1.0000
  H   H13       1.0  0.17615  0.21660  0.14919  1.0000
  H   H14       1.0  0.18884  0.26932  0.14597  1.0000
  H   H15       1.0  0.12835  0.28344  0.23522  1.0000
  H   H16       1.0  0.26878  0.24369  0.15720  1.0000
  H   H17       1.0  0.13232  0.39229  0.09595  1.0000
  C   C21       1.0  0.27223  0.19904  0.41904  1.0000
  C   C22       1.0  0.04710  0.27596  0.00476  1.0000
  H   H18       1.0  0.07140  0.31831  0.07838  1.0000
  C   C23       1.0  0.02096  0.28884  0.47812  1.0000
  H   H19       1.0  0.02695  0.21661  0.41076  1.0000
  C   C24       1.0  0.20296  0.43941  0.05895  1.0000
  C   C25       1.0  0.10967  0.22373  0.16388  1.0000
  C   C26       1.0  0.12226  0.22215  0.19563  1.0000
  C   C27       1.0  0.12867  0.24347  0.22194  1.0000
  C   C28       1.0  0.12271  0.26644  0.21565  1.0000
  P   P2        1.0  0.14568  0.24268  0.26293  1.0000
  C   C29       1.0  0.15348  0.21259  0.26060  1.0000
  C   C30       1.0  0.18011  0.27763  0.26743  1.0000
  C   C31       1.0  0.18947  0.29185  0.30012  1.0000
  C   C32       1.0  0.21644  0.31844  0.30328  1.0000
  C   C33       1.0  0.23402  0.33146  0.27378  1.0000
  C   C34       1.0  0.22467  0.31784  0.24110  1.0000
  C   C35       1.0  0.19782  0.29113  0.23786  1.0000
  C   C36       1.0  0.13135  0.18379  0.26973  1.0000
  C   C37       1.0  0.13585  0.15976  0.26407  1.0000
  C   C38       1.0  0.16251  0.16435  0.24951  1.0000
  C   C39       1.0  0.18452  0.19288  0.24028  1.0000
  C   C40       1.0  0.18001  0.21689  0.24550  1.0000
  C   C41       1.0  0.12187  0.23749  0.30014  1.0000
  C   C42       1.0  0.09770  0.24249  0.29765  1.0000
  C   C43       1.0  0.08198  0.24197  0.32765  1.0000
  C   C44       1.0  0.09022  0.23647  0.36034  1.0000
  C   C45       1.0  0.11359  0.23060  0.36293  1.0000
  C   C46       1.0  0.12906  0.23063  0.33293  1.0000
  H   H20       1.0  0.10527  0.20756  0.14348  1.0000
  H   H21       1.0  0.12732  0.20455  0.19906  1.0000
  H   H22       1.0  0.17601  0.28308  0.32327  1.0000
  H   H23       1.0  0.22328  0.32937  0.32854  1.0000
  H   H24       1.0  0.25462  0.35238  0.27609  1.0000
  H   H25       1.0  0.23815  0.32815  0.21815  1.0000
  H   H26       1.0  0.19091  0.28111  0.21221  1.0000
  H   H27       1.0  0.11027  0.17977  0.28019  1.0000
  H   H28       1.0  0.11851  0.13747  0.27031  1.0000
  H   H29       1.0  0.16599  0.14579  0.24455  1.0000
  H   H30       1.0  0.20482  0.19625  0.22801  1.0000
  H   H31       1.0  0.19694  0.23849  0.23660  1.0000
  H   H32       1.0  0.09117  0.24750  0.27296  1.0000
  C   C47       1.0  0.28996  0.45925  0.05855  1.0000
  H   H33       1.0  0.20274  0.30462  0.02214  1.0000
  H   H34       1.0  0.12032  0.22705  0.38843  1.0000
  H   H35       1.0  0.14764  0.22684  0.33548  1.0000
  C   C48       1.0  0.03717  0.31559  0.04385  1.0000
  S   S16       1.0  0.11954  0.32895  0.47547  1.0000
  H   H36       1.0  0.26201  0.15993  0.44849  1.0000
  C   C49       1.0  0.10315  0.24638  0.15827  1.0000
  C   C50       1.0  0.29730  0.25837  0.06293  1.0000
  S   S17       1.0  0.29118  0.19569  0.16267  1.0000
  C   C51       1.0  0.26085  0.21520  0.40272  1.0000
  C   C52       1.0  0.23041  0.20575  0.40495  1.0000
  Fe  Fe8       1.0  0.09412  0.27929  0.47985  1.0000
  P   P3        1.0  0.21523  0.22459  0.38009  1.0000
  C   C53       1.0  0.17529  0.20136  0.38048  1.0000
  C   C54       1.0  0.22505  0.26020  0.39896  1.0000
  C   C55       1.0  0.20671  0.27247  0.39313  1.0000
  C   C56       1.0  0.21409  0.30004  0.40731  1.0000
  C   C57       1.0  0.24006  0.31584  0.42700  1.0000
  C   C58       1.0  0.25869  0.30405  0.43249  1.0000
  C   C59       1.0  0.25114  0.27622  0.41882  1.0000
  C   C60       1.0  0.16049  0.18027  0.35402  1.0000
  C   C61       1.0  0.12989  0.16040  0.35667  1.0000
  C   C62       1.0  0.11399  0.16139  0.38568  1.0000
  C   C63       1.0  0.12869  0.18215  0.41224  1.0000
  C   C64       1.0  0.15917  0.20209  0.40962  1.0000
  C   C65       1.0  0.22960  0.22967  0.33590  1.0000
  C   C66       1.0  0.23707  0.20942  0.32133  1.0000
  C   C67       1.0  0.25033  0.21454  0.28827  1.0000
  C   C68       1.0  0.25578  0.23960  0.26921  1.0000
  C   C69       1.0  0.24790  0.25955  0.28316  1.0000
  C   C70       1.0  0.23487  0.25464  0.31636  1.0000
  H   H37       1.0  0.04381  0.30660  0.47650  1.0000
  H   H38       1.0  0.98491  0.22684  0.01158  1.0000
  C   C71       1.0  0.23813  0.03306  0.07661  1.0000
  H   H39       1.0  0.27569  0.23458  0.38756  1.0000
  H   H40       1.0  0.22863  0.01773  0.09823  1.0000
  H   H41       1.0  0.18652  0.26069  0.37793  1.0000
  H   H42       1.0  0.19950  0.30905  0.40335  1.0000
  C   C72       1.0  0.25348  0.06346  0.08371  1.0000
  C   C73       1.0  0.19862  0.43628  0.26257  1.0000
  H   H43       1.0  0.26553  0.26730  0.42437  1.0000
  H   H44       1.0  0.17261  0.17879  0.33176  1.0000
  H   H45       1.0  0.11857  0.14383  0.33656  1.0000
  H   H46       1.0  0.09036  0.14587  0.38783  1.0000
  H   H47       1.0  0.11662  0.18286  0.43509  1.0000
  H   H48       1.0  0.17034  0.21757  0.43088  1.0000
  H   H49       1.0  0.23325  0.18992  0.33568  1.0000
  H   H50       1.0  0.26598  0.24342  0.24353  1.0000
  H   H51       1.0  0.25200  0.27890  0.26823  1.0000
  H   H52       1.0  0.22940  0.27061  0.32682  1.0000
  C   C74       1.0  0.21296  0.16576  0.06139  1.0000
  C   C75       1.0  0.23463  0.19574  0.05986  1.0000
  H   H53       1.0  0.24234  0.20826  0.08404  1.0000
  C   C76       1.0  0.24712  0.04325  0.01463  1.0000
  H   H54       1.0  0.21452  0.28982  0.07885  1.0000
  H   H55       1.0  0.08016  0.28335  0.04384  1.0000
  Fe  Fe9       1.0  0.28819  0.16719  0.20855  1.0000
  C   C77       1.0  0.29701  0.15553  0.31086  1.0000
  H   H56       1.0  0.19250  0.43372  0.31839  1.0000
  H   H57       1.0  0.00502  0.30949  0.00476  1.0000
  H   H58       1.0  0.27202  0.08962  0.00072  1.0000
  S   S18       1.0  0.25124  0.45923  0.14532  1.0000
  H   H59       1.0  0.99487  0.30006  0.35596  1.0000
  H   H60       1.0  0.21945  0.44607  0.07955  1.0000
  S   S19       1.0  0.04323  0.24977  0.47466  1.0000
  C   C78       1.0  0.20204  0.44835  0.29611  1.0000
  H   H61       1.0  0.20429  0.15548  0.08656  1.0000
  H   H62       1.0  0.17756  0.99535  0.16516  1.0000
  H   H63       1.0  0.10249  0.35699  0.14170  1.0000
  H   H64       1.0  0.10054  0.45243  0.10768  1.0000
  H   H65       1.0  0.97954  0.21388  0.48096  1.0000
  C   C79       1.0  0.05174  0.37536  0.11303  1.0000
  H   H66       1.0  0.22760  0.42830  0.02256  1.0000
  H   H67       1.0  0.05897  0.40612  0.07168  1.0000
  C   C80       1.0  0.99759  0.29535  0.47950  1.0000
  H   H68       1.0  0.28142  0.29638  0.15448  1.0000
  H   H69       1.0  0.25671  0.19921  0.27749  1.0000
  H   H70       1.0  0.06399  0.24678  0.32572  1.0000
  C   C81       1.0  0.05837  0.30832  0.05495  1.0000
  H   H71       1.0  0.28120  0.01625  0.17684  1.0000
  H   H72       1.0  0.97907  0.24727  0.34819  1.0000
  H   H73       1.0  0.05094  0.34595  0.15325  1.0000
  C   C82       1.0  0.25113  0.26676  0.02445  1.0000
  H   H74       1.0  0.24393  0.26453  0.08047  1.0000
  H   H75       1.0  0.28397  0.45500  0.08601  1.0000
  H   H76       1.0  0.02916  0.37041  0.11794  1.0000
  H   H77       1.0  0.27235  0.15896  0.04335  1.0000
  C   C83       1.0  0.20769  0.42966  0.02679  1.0000
  C   C84       1.0  0.10947  0.26759  0.18431  1.0000
  C   C85       1.0  0.23489  0.02258  0.04202  1.0000
  C   C86       1.0  0.18637  0.42102  0.00033  1.0000
  C   C87       1.0  0.11006  0.38819  0.10060  1.0000
  C   C88       1.0  0.09304  0.36790  0.12658  1.0000
  H   H78       1.0  0.18830  0.17246  0.42734  1.0000
  H   H79       1.0  0.20870  0.14408  0.45494  1.0000
  C   C89       1.0  0.22270  0.28557  0.05466  1.0000
  H   H80       1.0  0.25576  0.07133  0.11046  1.0000
  C   C90       1.0  0.01470  0.25941  0.47840  1.0000
  C   C91       1.0  0.23539  0.98187  0.17136  1.0000
  C   C92       1.0  0.00857  0.20309  0.39332  1.0000
  H   H81       1.0  0.19271  0.45497  0.14732  1.0000
  C   C93       1.0  0.26255  0.07370  0.02187  1.0000
  H   H82       1.0  0.28504  0.12545  0.35450  1.0000
  H   H83       1.0  0.09369  0.24781  0.13357  1.0000
  C   C94       1.0  0.26577  0.08377  0.05640  1.0000
  C   C95       1.0  0.15449  0.42991  0.03896  1.0000
  H   H84       1.0  0.17663  0.00384  0.06465  1.0000
  C   C96       1.0  0.28950  0.16120  0.02545  1.0000
  C   C97       1.0  0.06869  0.39556  0.08687  1.0000
  H   H85       1.0  0.08363  0.37311  0.01321  1.0000
  H   H86       1.0  0.28508  0.13814  0.29178  1.0000
  C   C98       1.0  0.29713  0.14840  0.34644  1.0000
  C   C99       1.0  0.98349  0.20643  0.39317  1.0000
  H   H87       1.0  0.24547  0.33704  0.43834  1.0000
  C   C100      1.0  0.22323  0.16402  0.44052  1.0000
  H   H88       1.0  0.13394  0.98033  0.10474  1.0000
  C   C101      1.0  0.17450  0.35159  0.00681  1.0000
  C   C102      1.0  0.17664  0.43994  0.06481  1.0000
  H   H89       1.0  0.29914  0.30020  0.07329  1.0000
  C   C103      1.0  0.06396  0.36158  0.13293  1.0000
  H   H90       1.0  0.02921  0.17960  0.37178  1.0000
  C   C104      1.0  0.21178  0.18031  0.42463  1.0000
  C   C105      1.0  0.98577  0.16453  0.34946  1.0000
  Fe  Fe10      1.0  0.15231  0.27664  0.49265  1.0000
  C   C106      1.0  0.24604  0.20930  0.02744  1.0000
  H   H91       1.0  0.20786  0.44551  0.20775  1.0000
  P   P4        1.0  0.12012  0.42955  0.04790  1.0000
  C   C107      1.0  0.09819  0.40251  0.08086  1.0000
  H   H92       1.0  0.10504  0.28558  0.17995  1.0000
  H   H93       1.0  0.17308  0.44731  0.08987  1.0000
  C   C108      1.0  0.20246  0.14913  0.03063  1.0000
  C   C109      1.0  0.13044  0.46640  0.06305  1.0000
  C   C110      1.0  0.06324  0.28845  0.03548  1.0000
  C   C111      1.0  0.00976  0.18220  0.37146  1.0000
  C   C112      1.0  0.02110  0.30332  0.01297  1.0000
  H   H94       1.0  0.07885  0.23729  0.38378  1.0000
  C   C113      1.0  0.25334  0.17313  0.43724  1.0000
  C   C114      1.0  0.21054  0.45495  0.23371  1.0000
  Fe  Fe11      1.0  0.29233  0.16106  0.12838  1.0000
  C   C115      1.0  0.16821  0.98103  0.07232  1.0000
  H   H95       1.0  0.98298  0.22269  0.41044  1.0000
  C   C116      1.0  0.98470  0.23671  0.48046  1.0000
  C   C117      1.0  0.09776  0.41966  0.00865  1.0000
  H   H96       1.0  0.98664  0.14823  0.33261  1.0000
  H   H97       1.0  0.29563  0.20623  0.41689  1.0000
  C   C118      1.0  0.11746  0.47086  0.09305  1.0000
  H   H98       1.0  0.25814  0.99534  0.09016  1.0000
  P   P5        1.0  0.21482  0.98301  0.03336  1.0000
  H   H99       1.0  0.19518  0.20600  0.48825  1.0000
  H   H100      1.0  0.10603  0.34465  0.00201  1.0000
  C   C119      1.0  0.30306  0.44478  0.04185  1.0000
  S   S20       1.0  0.17001  0.24399  0.49684  1.0000
  C   C120      1.0  0.20953  0.47808  0.14542  1.0000
  H   H101      1.0  0.24644  0.21393  0.49445  1.0000
  C   C121      1.0  0.21324  0.22763  0.49554  1.0000
  C   C122      1.0  0.28451  0.47916  0.04001  1.0000
  C   C123      1.0  0.08277  0.38997  0.99756  1.0000
  H   H102      1.0  0.30221  0.21949  0.05880  1.0000
  C   C124      1.0  0.21309  0.16268  0.99819  1.0000
  C   C125      1.0  0.97350  0.28322  0.36590  1.0000
  C   C126      1.0  0.21750  0.47914  0.30079  1.0000
  C   C127      1.0  0.97973  0.28835  0.82523  1.0000
  H   H103      1.0  0.16298  0.46845  0.96444  1.0000
  Fe  Fe12      1.0  0.14488  0.32738  0.52275  1.0000
  S   S21       1.0  0.11811  0.27782  0.52857  1.0000
  S   S22       1.0  0.15332  0.36127  0.56593  1.0000
  C   C128      1.0  0.22981  0.23340  0.62170  1.0000
  H   H104      1.0  0.23215  0.29780  0.59873  1.0000
  C   C129      1.0  0.15389  0.44377  0.71520  1.0000
  Fe  Fe13      1.0  0.14575  0.36418  0.85555  1.0000
  S   S23       1.0  0.12007  0.38832  0.85818  1.0000
  S   S24       1.0  0.17076  0.35825  0.90101  1.0000
  Fe  Fe14      1.0  0.13959  0.35777  0.77522  1.0000
  S   S25       1.0  0.11389  0.38182  0.77271  1.0000
  S   S26       1.0  0.14974  0.33591  0.72964  1.0000
  Fe  Fe15      1.0  0.14770  0.41387  0.81159  1.0000
  C   C130      1.0  0.30383  0.26723  0.67039  1.0000
  Fe  Fe16      1.0  0.08875  0.35387  0.81924  1.0000
  S   S27       1.0  0.03809  0.33386  0.82125  1.0000
  S   S28       1.0  0.17492  0.39149  0.81093  1.0000
  S   S29       1.0  0.11281  0.32811  0.81984  1.0000
  C   C131      1.0  0.29393  0.05400  0.57164  1.0000
  C   C132      1.0  0.09669  0.44122  0.98774  1.0000
  C   C133      1.0  0.22344  0.27425  0.60204  1.0000
  H   H105      1.0  0.30049  0.09804  0.57707  1.0000
  C   C134      1.0  0.25897  0.00181  0.82018  1.0000
  C   C135      1.0  0.26556  0.03127  0.81521  1.0000
  C   C136      1.0  0.24207  0.03639  0.80799  1.0000
  C   C137      1.0  0.21264  0.01237  0.80507  1.0000
  C   C138      1.0  0.24122  0.16440  0.55891  1.0000
  H   H106      1.0  0.27687  0.99752  0.82589  1.0000
  H   H107      1.0  0.24661  0.05883  0.80417  1.0000
  H   H108      1.0  0.19479  0.01669  0.79917  1.0000
  C   C139      1.0  0.00983  0.29582  0.82439  1.0000
  C   C140      1.0  0.01653  0.27300  0.82653  1.0000
  C   C141      1.0  0.99346  0.24328  0.82990  1.0000
  H   H109      1.0  0.14422  0.44449  0.62733  1.0000
  H   H110      1.0  0.03947  0.27821  0.82574  1.0000
  C   C142      1.0  0.19286  0.99738  0.70833  1.0000
  C   C143      1.0  0.18114  0.35428  0.97076  1.0000
  C   C144      1.0  0.16109  0.35427  0.94595  1.0000
  C   C145      1.0  0.13417  0.35127  0.95749  1.0000
  H   H111      1.0  0.20204  0.35662  0.96207  1.0000
  H   H112      1.0  0.11881  0.35166  0.93870  1.0000
  C   C146      1.0  0.14946  0.35225  0.61113  1.0000
  C   C147      1.0  0.14510  0.37023  0.63518  1.0000
  C   C148      1.0  0.14458  0.36530  0.67156  1.0000
  C   C149      1.0  0.14852  0.34230  0.68420  1.0000
  C   C150      1.0  0.15242  0.32409  0.66010  1.0000
  C   C151      1.0  0.15273  0.32890  0.62378  1.0000
  H   H113      1.0  0.14245  0.38824  0.62558  1.0000
  H   H114      1.0  0.14155  0.37948  0.68979  1.0000
  H   H115      1.0  0.15543  0.30623  0.66960  1.0000
  H   H116      1.0  0.15619  0.31494  0.60561  1.0000
  H   H117      1.0  0.23939  0.38505  0.79382  1.0000
  C   C152      1.0  0.01899  0.26349  0.66914  1.0000
  H   H118      1.0  0.23561  0.16294  0.53136  1.0000
  H   H119      1.0  0.99892  0.22583  0.83141  1.0000
  C   C153      1.0  0.16814  0.44067  0.55124  1.0000
  H   H120      1.0  0.08048  0.44984  0.93973  1.0000
  H   H121      1.0  0.19298  0.44883  0.74070  1.0000
  C   C154      1.0  0.20614  0.98288  0.80938  1.0000
  H   H122      1.0  0.29631  0.21528  0.98845  1.0000
  H   H123      1.0  0.21473  0.42123  0.90886  1.0000
  C   C155      1.0  0.06651  0.40355  0.94495  1.0000
  P   P6        1.0  0.23570  0.45832  0.68525  1.0000
  H   H124      1.0  0.15071  0.41771  0.54809  1.0000
  C   C156      1.0  0.29143  0.07631  0.58891  1.0000
  H   H125      1.0  0.25054  0.26921  0.96785  1.0000
  C   C157      1.0  0.22059  0.47733  0.55483  1.0000
  C   C158      1.0  0.30035  0.04426  0.71152  1.0000
  C   C159      1.0  0.97403  0.23306  0.95861  1.0000
  C   C160      1.0  0.97484  0.33109  0.91001  1.0000
  P   P7        1.0  0.00688  0.26876  0.95200  1.0000
  C   C161      1.0  0.25085  0.44746  0.75189  1.0000
  C   C162      1.0  0.03281  0.26603  0.92275  1.0000
  C   C163      1.0  0.06219  0.28970  0.92056  1.0000
  C   C164      1.0  0.08302  0.28746  0.89954  1.0000
  C   C165      1.0  0.07469  0.26159  0.88042  1.0000
  C   C166      1.0  0.04558  0.23784  0.88261  1.0000
  C   C167      1.0  0.02469  0.23996  0.90374  1.0000
  C   C168      1.0  0.28424  0.15878  0.98905  1.0000
  H   H126      1.0  0.19552  0.45346  0.62770  1.0000
  H   H127      1.0  0.26147  0.43912  0.80365  1.0000
  C   C169      1.0  0.24993  0.19382  0.74310  1.0000
  H   H128      1.0  0.01463  0.35071  0.87875  1.0000
  C   C170      1.0  0.18265  0.44790  0.71569  1.0000
  C   C171      1.0  0.24350  0.27427  0.99231  1.0000
  H   H129      1.0  0.14230  0.44146  0.73961  1.0000
  H   H130      1.0  0.19474  0.44827  0.87572  1.0000
  C   C172      1.0  0.29745  0.25732  0.98864  1.0000
  H   H131      1.0  0.26669  0.42759  0.55448  1.0000
  H   H132      1.0  0.20314  0.43035  0.54685  1.0000
  C   C173      1.0  0.18412  0.45055  0.65232  1.0000
  H   H133      1.0  0.05482  0.39736  0.92008  1.0000
  H   H134      1.0  0.29746  0.24307  0.58603  1.0000
  S   S30       1.0  0.16797  0.46434  0.80864  1.0000
  H   H135      1.0  0.06907  0.30982  0.93539  1.0000
  H   H136      1.0  0.10571  0.30577  0.89804  1.0000
  H   H137      1.0  0.09080  0.26005  0.86382  1.0000
  H   H138      1.0  0.03906  0.21784  0.86760  1.0000
  H   H139      1.0  0.00229  0.22129  0.90478  1.0000
  C   C174      1.0  0.21106  0.45948  0.89628  1.0000
  C   C175      1.0  0.08102  0.43312  0.95603  1.0000
  H   H140      1.0  0.18984  0.41312  0.97555  1.0000
  C   C176      1.0  0.00171  0.33417  0.89828  1.0000
  C   C177      1.0  0.01146  0.31519  0.91053  1.0000
  C   C178      1.0  0.22625  0.28804  0.99150  1.0000
  H   H141      1.0  0.21454  0.17968  0.78072  1.0000
  H   H142      1.0  0.99224  0.29027  0.63365  1.0000
  H   H143      1.0  0.27969  0.12293  0.75599  1.0000
  H   H144      1.0  0.03188  0.31750  0.90009  1.0000
  C   C179      1.0  0.02615  0.28358  0.99300  1.0000
  C   C180      1.0  0.99451  0.29318  0.93511  1.0000
  S   S31       1.0  0.29506  0.13293  0.82722  1.0000
  H   H145      1.0  0.26274  0.28000  0.62743  1.0000
  H   H146      1.0  0.30129  0.47584  0.58259  1.0000
  H   H147      1.0  0.23832  0.20351  0.56687  1.0000
  C   C181      1.0  0.22241  0.44430  0.91491  1.0000
  H   H148      1.0  0.98567  0.30978  0.71261  1.0000
  C   C182      1.0  0.25685  0.14698  0.60871  1.0000
  H   H149      1.0  0.97420  0.30574  0.82350  1.0000
  C   C183      1.0  0.22589  0.38664  0.74098  1.0000
  C   C184      1.0  0.22494  0.40450  0.71436  1.0000
  C   C185      1.0  0.28031  0.46086  0.59501  1.0000
  C   C186      1.0  0.22616  0.42219  0.62684  1.0000
  C   C187      1.0  0.23382  0.41441  0.59510  1.0000
  C   C188      1.0  0.26089  0.43372  0.57916  1.0000
  H   H150      1.0  0.21519  0.36285  0.73713  1.0000
  H   H151      1.0  0.21328  0.39384  0.69056  1.0000
  H   H152      1.0  0.20478  0.40714  0.63817  1.0000
  H   H153      1.0  0.21848  0.39341  0.58274  1.0000
  S   S32       1.0  0.30351  0.06047  0.81590  1.0000
  H   H154      1.0  0.13661  0.44775  0.90832  1.0000
  C   C189      1.0  0.06731  0.38198  0.96580  1.0000
  H   H155      1.0  0.26302  0.15475  0.97919  1.0000
  C   C190      1.0  0.14000  0.44240  0.68340  1.0000
  C   C191      1.0  0.01488  0.27701  0.72877  1.0000
  C   C192      1.0  0.04565  0.28991  0.73296  1.0000
  C   C193      1.0  0.06314  0.28979  0.70523  1.0000
  C   C194      1.0  0.04980  0.27644  0.67342  1.0000
  H   H156      1.0  0.00169  0.27674  0.75087  1.0000
  H   H157      1.0  0.05594  0.29993  0.75781  1.0000
  H   H158      1.0  0.08700  0.29978  0.70853  1.0000
  H   H159      1.0  0.06343  0.27608  0.65211  1.0000
  C   C195      1.0  0.14858  0.47152  0.91267  1.0000
  H   H160      1.0  0.13783  0.45730  0.55582  1.0000
  C   C196      1.0  0.20269  0.19067  0.73112  1.0000
  C   C197      1.0  0.19789  0.44787  0.55067  1.0000
  C   C198      1.0  0.25006  0.18967  0.61500  1.0000
  C   C199      1.0  0.29079  0.24938  0.64069  1.0000
  H   H161      1.0  0.26120  0.99932  0.63230  1.0000
  H   H162      1.0  0.28114  0.20847  0.70097  1.0000
  H   H163      1.0  0.19228  0.18971  0.61133  1.0000
  H   H164      1.0  0.26478  0.19127  0.76095  1.0000
  C   C200      1.0  0.20984  0.00588  0.67754  1.0000
  H   H165      1.0  0.25967  0.47069  0.75736  1.0000
  P   P8        1.0  0.24823  0.03512  0.67964  1.0000
  C   C201      1.0  0.24774  0.06751  0.69559  1.0000
  H   H166      1.0  0.24893  0.12746  0.55727  1.0000
  C   C202      1.0  0.24862  0.14437  0.57351  1.0000
  H   H167      1.0  0.19685  0.20316  0.67971  1.0000
  C   C203      1.0  0.26983  0.02446  0.70675  1.0000
  C   C204      1.0  0.24039  0.20732  0.68554  1.0000
  H   H168      1.0  0.11743  0.43847  0.68318  1.0000
  C   C205      1.0  0.26491  0.08371  0.72452  1.0000
  C   C206      1.0  0.26564  0.10988  0.73453  1.0000
  C   C207      1.0  0.24888  0.11973  0.71646  1.0000
  C   C208      1.0  0.23084  0.10315  0.68851  1.0000
  C   C209      1.0  0.23021  0.07708  0.67813  1.0000
  C   C210      1.0  0.26584  0.04277  0.63717  1.0000
  C   C211      1.0  0.27758  0.07084  0.62160  1.0000
  C   C212      1.0  0.19637  0.99199  0.64576  1.0000
  C   C213      1.0  0.26591  0.25975  0.50916  1.0000
  H   H169      1.0  0.20485  0.14982  0.97431  1.0000
  C   C214      1.0  0.26919  0.02073  0.62010  1.0000
  H   H170      1.0  0.22054  0.29395  0.96668  1.0000
  H   H171      1.0  0.24218  0.20300  0.97117  1.0000
  C   C215      1.0  0.24074  0.26397  0.61821  1.0000
  C   C216      1.0  0.20734  0.25097  0.50105  1.0000
  H   H172      1.0  0.20858  0.99864  0.62144  1.0000
  H   H173      1.0  0.22253  0.46097  0.81440  1.0000
  H   H174      1.0  0.18079  0.18570  0.73978  1.0000
  C   C217      1.0  0.25917  0.20361  0.70893  1.0000
  C   C218      1.0  0.15514  0.44588  0.65197  1.0000
  H   H175      1.0  0.26464  0.17132  0.65633  1.0000
  H   H176      1.0  0.27784  0.07650  0.73948  1.0000
  C   C219      1.0  0.23097  0.27872  0.51086  1.0000
  H   H177      1.0  0.25000  0.14026  0.72422  1.0000
  H   H178      1.0  0.21761  0.11067  0.67472  1.0000
  H   H179      1.0  0.21647  0.06466  0.65607  1.0000
  H   H180      1.0  0.27663  0.08882  0.63457  1.0000
  S   S33       1.0  0.30101  0.18816  0.50719  1.0000
  H   H181      1.0  0.05633  0.35910  0.95713  1.0000
  C   C220      1.0  0.21194  0.20060  0.69692  1.0000
  H   H182      1.0  0.97715  0.29241  0.57281  1.0000
  C   C221      1.0  0.19517  0.25416  0.58919  1.0000
  H   H183      1.0  0.18210  0.26212  0.57578  1.0000
  C   C222      1.0  0.23941  0.39913  0.77296  1.0000
  C   C223      1.0  0.27430  0.98805  0.74192  1.0000
  C   C224      1.0  0.00140  0.26451  0.69647  1.0000
  C   C225      1.0  0.23450  0.19278  0.99653  1.0000
  P   P9        1.0  0.25251  0.21979  0.64118  1.0000
  H   H184      1.0  0.00898  0.25270  0.64456  1.0000
  C   C226      1.0  0.24252  0.18730  0.57932  1.0000
  C   C227      1.0  0.23798  0.43526  0.71923  1.0000
  H   H185      1.0  0.24481  0.03617  0.98765  1.0000
  C   C228      1.0  0.19790  0.45110  0.68420  1.0000
  C   C229      1.0  0.16096  0.46297  0.55570  1.0000
  H   H186      1.0  0.26384  0.13226  0.61965  1.0000
  C   C230      1.0  0.18406  0.22375  0.59267  1.0000
  C   C231      1.0  0.25179  0.42953  0.77846  1.0000
  C   C232      1.0  0.24571  0.44914  0.64344  1.0000
  H   H187      1.0  0.25253  0.44663  0.95456  1.0000
  C   C233      1.0  0.20117  0.21337  0.60907  1.0000
  C   C234      1.0  0.22167  0.18730  0.75420  1.0000
  C   C235      1.0  0.24393  0.45890  0.94092  1.0000
  H   H188      1.0  0.29129  0.26343  0.69432  1.0000
  C   C236      1.0  0.25744  0.16941  0.62945  1.0000
  H   H189      1.0  0.16237  0.20833  0.58194  1.0000
  C   C237      1.0  0.27279  0.46858  0.62698  1.0000
  H   H190      1.0  0.23606  0.98016  0.90748  1.0000
  H   H191      1.0  0.20275  0.00802  0.73305  1.0000
  C   C238      1.0  0.25701  0.99610  0.72174  1.0000
  H   H192      1.0  0.24968  0.99043  0.97014  1.0000
  S   S34       1.0  0.30317  0.26679  0.51447  1.0000
  C   C239      1.0  0.22663  0.98122  0.96237  1.0000
  C   C240      1.0  0.12711  0.34759  0.99341  1.0000
  C   C241      1.0  0.25991  0.28293  0.51519  1.0000
  H   H193      1.0  0.27786  0.30446  0.52301  1.0000
  C   C242      1.0  0.30440  0.00828  0.74755  1.0000
  H   H194      1.0  0.28514  0.00911  0.57399  1.0000
  C   C243      1.0  0.28289  0.02624  0.58728  1.0000
  S   S35       1.0  0.29998  0.16331  0.91969  1.0000
  H   H195      1.0  0.05140  0.26075  0.98991  1.0000
  H   H196      1.0  0.22691  0.29687  0.51544  1.0000
  H   H197      1.0  0.14330  0.41301  0.98573  1.0000
  C   C244      1.0  0.24231  0.23201  0.49920  1.0000
  H   H198      1.0  0.10813  0.46427  0.99555  1.0000
  H   H199      1.0  0.23366  0.98020  0.71859  1.0000
  S   S36       1.0  0.24073  0.63353  0.09390  1.0000
  S   S37       1.0  0.23832  0.63843  0.17910  1.0000
  Fe  Fe17      1.0  0.24160  0.60738  0.14033  1.0000
  S   S38       1.0  0.21097  0.55707  0.14169  1.0000
  Fe  Fe18      1.0  0.24256  0.66725  0.13295  1.0000
  S   S39       1.0  0.21223  0.68738  0.12772  1.0000
  Fe  Fe19      1.0  0.13599  0.80955  0.45614  1.0000
  S   S40       1.0  0.11249  0.75992  0.45267  1.0000
  S   S41       1.0  0.16077  0.84180  0.41196  1.0000
  C   C245      1.0  0.22303  0.81320  0.02943  1.0000
  C   C246      1.0  0.15830  0.57545  0.01626  1.0000
  C   C247      1.0  0.98760  0.77057  0.35217  1.0000
  Fe  Fe20      1.0  0.21532  0.84322  0.15790  1.0000
  S   S42       1.0  0.16563  0.81665  0.15635  1.0000
  S   S43       1.0  0.24480  0.82173  0.15740  1.0000
  Fe  Fe21      1.0  0.21416  0.90228  0.16803  1.0000
  S   S44       1.0  0.16418  0.87822  0.16819  1.0000
  S   S45       1.0  0.24428  0.95281  0.17312  1.0000
  Fe  Fe22      1.0  0.16702  0.84440  0.20245  1.0000
  S   S46       1.0  0.13676  0.81775  0.24792  1.0000
  Fe  Fe23      1.0  0.16808  0.85308  0.12215  1.0000
  S   S47       1.0  0.13830  0.84571  0.07467  1.0000
  S   S48       1.0  0.21683  0.86989  0.20529  1.0000
  S   S49       1.0  0.21793  0.87826  0.12068  1.0000
  C   C248      1.0  0.14878  0.85024  0.02979  1.0000
  H   H200      1.0  0.17138  0.61145  0.05305  1.0000
  C   C249      1.0  0.26656  0.54991  0.31973  1.0000
  H   H201      1.0  0.19343  0.85887  0.03818  1.0000
  C   C250      1.0  0.23531  0.72944  0.49648  1.0000
  C   C251      1.0  0.15466  0.83405  0.36642  1.0000
  C   C252      1.0  0.17286  0.85604  0.34230  1.0000
  C   C253      1.0  0.16820  0.85116  0.30592  1.0000
  C   C254      1.0  0.14534  0.82411  0.29327  1.0000
  C   C255      1.0  0.12766  0.80182  0.31738  1.0000
  C   C256      1.0  0.13208  0.80677  0.35376  1.0000
  H   H202      1.0  0.19041  0.87720  0.35177  1.0000
  H   H203      1.0  0.18184  0.86859  0.28772  1.0000
  H   H204      1.0  0.10997  0.78082  0.30781  1.0000
  H   H205      1.0  0.11772  0.78970  0.37193  1.0000
  H   H206      1.0  0.00823  0.82856  0.31579  1.0000
  H   H207      1.0  0.07973  0.87157  0.46665  1.0000
  C   C257      1.0  0.20118  0.50003  0.14457  1.0000
  C   C258      1.0  0.22274  0.53030  0.14322  1.0000
  C   C259      1.0  0.25282  0.53836  0.14276  1.0000
  C   C260      1.0  0.26112  0.51637  0.14293  1.0000
  H   H208      1.0  0.30157  0.59564  0.05229  1.0000
  C   C261      1.0  0.29308  0.54471  0.23027  1.0000
  H   H209      1.0  0.26975  0.56152  0.14200  1.0000
  H   H210      1.0  0.28444  0.52289  0.14224  1.0000
  C   C262      1.0  0.22167  0.72474  0.13689  1.0000
  C   C263      1.0  0.19952  0.73273  0.13436  1.0000
  C   C264      1.0  0.20611  0.76219  0.14035  1.0000
  C   C265      1.0  0.23510  0.78419  0.14904  1.0000
  C   C266      1.0  0.25722  0.77616  0.15168  1.0000
  C   C267      1.0  0.25057  0.74667  0.14590  1.0000
  H   H211      1.0  0.17707  0.71597  0.12765  1.0000
  H   H212      1.0  0.18876  0.76785  0.13823  1.0000
  C   C268      1.0  0.27267  0.73536  0.33036  1.0000
  H   H213      1.0  0.26791  0.74101  0.14809  1.0000
  H   H214      1.0  0.20272  0.62064  0.26755  1.0000
  C   C269      1.0  0.25564  0.85197  0.06991  1.0000
  C   C270      1.0  0.14979  0.52396  0.08811  1.0000
  H   H215      1.0  0.29898  0.62189  0.48331  1.0000
  C   C271      1.0  0.24416  0.87793  0.29685  1.0000
  H   H216      1.0  0.11389  0.92807  0.12320  1.0000
  H   H217      1.0  0.25117  0.56992  0.07813  1.0000
  C   C272      1.0  0.11851  0.74356  0.10237  1.0000
  C   C273      1.0  0.12935  0.72488  0.09259  1.0000
  H   H218      1.0  0.10059  0.73623  0.12117  1.0000
  H   H219      1.0  0.27443  0.49002  0.05389  1.0000
  H   H220      1.0  0.23033  0.67039  0.29304  1.0000
  H   H221      1.0  0.21842  0.64476  0.02229  1.0000
  C   C274      1.0  0.23015  0.56348  0.46649  1.0000
  H   H222      1.0  0.10589  0.84226  0.01239  1.0000
  H   H223      1.0  0.23124  0.80859  0.31380  1.0000
  C   C275      1.0  0.12710  0.49955  0.10541  1.0000
  P   P10       1.0  0.25538  0.82363  0.38468  1.0000
  C   C276      1.0  0.26372  0.84441  0.42512  1.0000
  C   C277      1.0  0.25136  0.84519  0.35033  1.0000
  H   H224      1.0  0.26460  0.74616  0.07010  1.0000
  C   C278      1.0  0.23958  0.48609  0.14431  1.0000
  C   C279      1.0  0.13254  0.93830  0.10535  1.0000
  H   H225      1.0  0.24118  0.89057  0.27636  1.0000
  C   C280      1.0  0.23843  0.83169  0.31825  1.0000
  C   C281      1.0  0.24067  0.84309  0.44573  1.0000
  H   H226      1.0  0.21971  0.80969  0.08589  1.0000
  Fe  Fe24      1.0  0.07819  0.76091  0.48839  1.0000
  C   C282      1.0  0.24882  0.92714  0.03848  1.0000
  H   H227      1.0  0.02930  0.78694  0.48138  1.0000
  C   C283      1.0  0.22052  0.78952  0.39014  1.0000
  C   C284      1.0  0.19357  0.78891  0.38361  1.0000
  C   C285      1.0  0.16645  0.76346  0.39084  1.0000
  C   C286      1.0  0.16595  0.73853  0.40494  1.0000
  C   C287      1.0  0.19261  0.73886  0.41124  1.0000
  C   C288      1.0  0.21981  0.76417  0.40375  1.0000
  C   C289      1.0  0.21574  0.66670  0.27100  1.0000
  C   C290      1.0  0.24479  0.51525  0.02347  1.0000
  C   C291      1.0  0.29404  0.55843  0.01989  1.0000
  H   H228      1.0  0.15799  0.54612  0.09848  1.0000
  H   H229      1.0  0.02973  0.86412  0.26698  1.0000
  C   C292      1.0  0.00635  0.76930  0.48113  1.0000
  C   C293      1.0  0.28503  0.81607  0.37434  1.0000
  H   H230      1.0  0.17976  0.92245  0.06167  1.0000
  C   C294      1.0  0.03948  0.84472  0.43727  1.0000
  H   H231      1.0  0.02618  0.85110  0.45292  1.0000
  H   H232      1.0  0.21759  0.82932  0.43810  1.0000
  H   H233      1.0  0.05475  0.72165  0.29940  1.0000
  C   C295      1.0  0.15333  0.49113  0.04594  1.0000
  C   C296      1.0  0.18200  0.63302  0.22716  1.0000
  Fe  Fe25      1.0  0.28814  0.66295  0.17870  1.0000
  H   H234      1.0  0.19341  0.80837  0.37398  1.0000
  H   H235      1.0  0.14584  0.76340  0.38628  1.0000
  H   H236      1.0  0.14495  0.71923  0.41183  1.0000
  H   H237      1.0  0.19224  0.71986  0.42320  1.0000
  H   H238      1.0  0.24007  0.76402  0.40981  1.0000
  C   C297      1.0  0.25727  0.55871  0.05864  1.0000
  C   C298      1.0  0.17697  0.85612  0.01890  1.0000
  C   C299      1.0  0.26747  0.93764  0.06775  1.0000
  C   C300      1.0  0.99968  0.73975  0.48220  1.0000
  C   C301      1.0  0.28092  0.73253  0.23411  1.0000
  H   H239      1.0  0.23405  0.49983  0.21548  1.0000
  C   C302      1.0  0.17726  0.60385  0.02950  1.0000
  C   C303      1.0  0.16532  0.76306  0.05399  1.0000
  H   H240      1.0  0.24403  0.77923  0.06369  1.0000
  C   C304      1.0  0.29350  0.54467  0.36868  1.0000
  C   C305      1.0  0.14551  0.92216  0.09296  1.0000
  C   C306      1.0  0.04064  0.85222  0.27589  1.0000
  C   C307      1.0  0.29338  0.86337  0.43528  1.0000
  C   C308      1.0  0.20618  0.97631  0.16772  1.0000
  H   H241      1.0  0.20589  0.53927  0.32608  1.0000
  C   C309      1.0  0.13098  0.77191  0.08807  1.0000
  H   H242      1.0  0.16440  0.48819  0.02363  1.0000
  H   H243      1.0  0.16725  0.65268  0.18814  1.0000
  P   P11       1.0  0.19447  0.77521  0.02160  1.0000
  H   H244      1.0  0.16045  0.71954  0.06118  1.0000
  C   C310      1.0  0.12773  0.84680  0.00426  1.0000
  C   C311      1.0  0.15466  0.78186  0.06453  1.0000
  H   H245      1.0  0.16436  0.80411  0.05429  1.0000
  C   C312      1.0  0.23700  0.52962  0.04875  1.0000
  H   H246      1.0  0.98862  0.79894  0.47821  1.0000
  C   C313      1.0  0.97227  0.75758  0.38330  1.0000
  H   H247      1.0  0.98432  0.76042  0.40748  1.0000
  H   H248      1.0  0.27778  0.59904  0.25313  1.0000
  C   C314      1.0  0.23137  0.82368  0.06379  1.0000
  C   C315      1.0  0.27676  0.87857  0.48644  1.0000
  C   C316      1.0  0.02837  0.83182  0.30328  1.0000
  H   H249      1.0  0.17786  0.49349  0.14527  1.0000
  C   C317      1.0  0.29748  0.80710  0.40093  1.0000
  C   C318      1.0  0.20196  0.54528  0.30033  1.0000
  H   H250      1.0  0.26307  0.58964  0.32094  1.0000
  C   C319      1.0  0.23857  0.83198  0.00132  1.0000
  C   C320      1.0  0.23463  0.71407  0.03285  1.0000
  H   H251      1.0  0.27850  0.92607  0.07727  1.0000
  H   H252      1.0  0.22670  0.55448  0.21604  1.0000
  C   C321      1.0  0.27888  0.65468  0.28287  1.0000
  H   H253      1.0  0.27971  0.79290  0.15836  1.0000
  S   S50       1.0  0.29527  0.76900  0.48332  1.0000
  H   H254      1.0  0.11763  0.50289  0.12909  1.0000
  C   C322      1.0  0.27081  0.57649  0.33440  1.0000
  C   C323      1.0  0.08189  0.84306  0.27258  1.0000
  C   C324      1.0  0.06731  0.85769  0.26039  1.0000
  S   S51       1.0  0.02794  0.72980  0.48342  1.0000
  H   H255      1.0  0.27038  0.88633  0.37988  1.0000
  C   C325      1.0  0.04230  0.81614  0.31473  1.0000
  C   C326      1.0  0.06965  0.82267  0.29991  1.0000
  P   P12       1.0  0.02779  0.79186  0.35210  1.0000
  C   C327      1.0  0.04342  0.81616  0.38934  1.0000
  C   C328      1.0  0.28589  0.58680  0.36622  1.0000
  C   C329      1.0  0.24721  0.86002  0.47634  1.0000
  C   C330      1.0  0.25692  0.71264  0.38743  1.0000
  C   C331      1.0  0.97141  0.76498  0.32083  1.0000
  C   C332      1.0  0.02641  0.82489  0.40934  1.0000
  C   C333      1.0  0.23710  0.96661  0.04532  1.0000
  C   C334      1.0  0.06964  0.85630  0.44497  1.0000
  C   C335      1.0  0.08683  0.84828  0.42455  1.0000
  C   C336      1.0  0.07379  0.82824  0.39691  1.0000
  C   C337      1.0  0.03934  0.76450  0.35329  1.0000
  C   C338      1.0  0.04286  0.75384  0.38563  1.0000
  C   C339      1.0  0.05085  0.73193  0.38682  1.0000
  C   C340      1.0  0.05539  0.72049  0.35579  1.0000
  C   C341      1.0  0.05137  0.73059  0.32349  1.0000
  C   C342      1.0  0.04303  0.75228  0.32220  1.0000
  H   H256      1.0  0.10295  0.84779  0.26113  1.0000
  H   H257      1.0  0.07702  0.87362  0.23933  1.0000
  S   S52       1.0  0.10005  0.81037  0.48834  1.0000
  C   C343      1.0  0.16291  0.51976  0.05841  1.0000
  H   H258      1.0  0.08186  0.81243  0.30969  1.0000
  H   H259      1.0  0.22884  0.49268  0.01617  1.0000
  C   C344      1.0  0.19883  0.72501  0.00620  1.0000
  S   S53       1.0  0.28592  0.68821  0.48075  1.0000
  C   C345      1.0  0.17856  0.55097  0.29555  1.0000
  H   H260      1.0  0.28677  0.52194  0.23564  1.0000
  C   C346      1.0  0.29705  0.57082  0.38350  1.0000
  H   H261      1.0  0.11033  0.85743  0.43010  1.0000
  H   H262      1.0  0.08754  0.82239  0.38129  1.0000
  H   H263      1.0  0.03912  0.76214  0.41005  1.0000
  H   H264      1.0  0.05324  0.72368  0.41195  1.0000
  H   H265      1.0  0.06175  0.70363  0.35681  1.0000
  H   H266      1.0  0.11990  0.70299  0.10393  1.0000
  H   H267      1.0  0.28948  0.60758  0.37707  1.0000
  H   H268      1.0  0.26611  0.80367  0.48531  1.0000
  C   C347      1.0  0.21370  0.55383  0.23856  1.0000
  C   C348      1.0  0.98321  0.77607  0.47930  1.0000
  H   H269      1.0  0.21565  0.51796  0.06165  1.0000
  C   C349      1.0  0.27097  0.96249  0.08582  1.0000
  C   C350      1.0  0.25650  0.59032  0.46138  1.0000
  H   H270      1.0  0.29027  0.89201  0.04668  1.0000
  C   C351      1.0  0.26059  0.87529  0.35540  1.0000
  H   H271      1.0  0.26246  0.70824  0.41326  1.0000
  H   H272      1.0  0.12254  0.78641  0.09555  1.0000
  C   C352      1.0  0.27807  0.55786  0.24611  1.0000
  H   H273      1.0  0.25972  0.60310  0.43772  1.0000
  H   H274      1.0  0.28685  0.82566  0.31879  1.0000
  C   C353      1.0  0.21987  0.54697  0.27190  1.0000
  C   C354      1.0  0.18005  0.65633  0.21193  1.0000
  H   H275      1.0  0.25087  0.63197  0.32721  1.0000
  H   H276      1.0  0.27130  0.70876  0.23644  1.0000
  C   C355      1.0  0.27957  0.72996  0.36393  1.0000
  H   H277      1.0  0.13683  0.89933  0.10094  1.0000
  C   C356      1.0  0.17266  0.55798  0.26230  1.0000
  C   C357      1.0  0.27130  0.87025  0.04184  1.0000
  H   H278      1.0  0.22471  0.83741  0.26696  1.0000
  H   H279      1.0  0.21298  0.55530  0.44654  1.0000
  H   H280      1.0  0.26377  0.91466  0.33278  1.0000
  H   H281      1.0  0.16481  0.54966  0.31758  1.0000
  H   H282      1.0  0.21830  0.93215  0.00552  1.0000
  P   P13       1.0  0.24883  0.53785  0.27755  1.0000
  C   C358      1.0  0.28131  0.77826  0.24722  1.0000
  C   C359      1.0  0.24664  0.74056  0.05169  1.0000
  C   C360      1.0  0.22579  0.48572  0.23827  1.0000
  H   H283      1.0  0.26266  0.64059  0.26359  1.0000
  C   C361      1.0  0.22722  0.70017  0.37714  1.0000
  C   C362      1.0  0.22019  0.70524  0.34343  1.0000
  C   C363      1.0  0.24287  0.72327  0.31987  1.0000
  P   P14       1.0  0.23373  0.72687  0.27506  1.0000
  C   C364      1.0  0.21322  0.69009  0.25645  1.0000
  C   C365      1.0  0.21183  0.74508  0.27106  1.0000
  C   C366      1.0  0.21107  0.75773  0.23888  1.0000
  C   C367      1.0  0.19394  0.77136  0.23485  1.0000
  C   C368      1.0  0.17690  0.77203  0.26268  1.0000
  C   C369      1.0  0.17730  0.75943  0.29474  1.0000
  C   C370      1.0  0.19494  0.74630  0.29915  1.0000
  C   C371      1.0  0.19561  0.68477  0.22642  1.0000
  C   C372      1.0  0.26759  0.74730  0.25009  1.0000
  H   H284      1.0  0.98272  0.77339  0.29614  1.0000
  H   H285      1.0  0.03961  0.75955  0.29697  1.0000
  C   C373      1.0  0.27868  0.60090  0.48699  1.0000
  C   C374      1.0  0.23012  0.49808  0.27194  1.0000
  H   H286      1.0  0.27755  0.67038  0.01325  1.0000
  H   H287      1.0  0.20973  0.68596  0.39506  1.0000
  H   H288      1.0  0.19710  0.69426  0.33535  1.0000
  H   H289      1.0  0.22370  0.75704  0.21672  1.0000
  H   H290      1.0  0.19381  0.78138  0.21001  1.0000
  H   H291      1.0  0.16347  0.78243  0.25939  1.0000
  H   H292      1.0  0.16409  0.76021  0.31621  1.0000
  H   H293      1.0  0.19526  0.73738  0.32448  1.0000
  H   H294      1.0  0.19434  0.70253  0.21351  1.0000
  C   C375      1.0  0.23489  0.75937  0.04782  1.0000
  C   C376      1.0  0.25694  0.89154  0.32872  1.0000
  H   H295      1.0  0.17052  0.61122  0.21530  1.0000
  H   H296      1.0  0.27171  0.79022  0.25964  1.0000
  H   H297      1.0  0.15440  0.56215  0.25852  1.0000
  H   H298      1.0  0.00316  0.81658  0.40346  1.0000
  C   C377      1.0  0.26249  0.86042  0.00756  1.0000
  H   H299      1.0  0.27695  0.51469  0.32498  1.0000
  C   C378      1.0  0.19031  0.55951  0.23385  1.0000
  C   C379      1.0  0.27230  0.64982  0.31895  1.0000
  H   H300      1.0  0.18579  0.56480  0.20795  1.0000
  H   H301      1.0  0.18811  0.95372  0.16531  1.0000
  C   C380      1.0  0.23488  0.84801  0.29162  1.0000
  H   H302      1.0  0.24533  0.90735  0.02501  1.0000
  C   C381      1.0  0.15250  0.73446  0.06831  1.0000
  C   C382      1.0  0.27351  0.52945  0.00905  1.0000
  H   H303      1.0  0.26247  0.85958  0.09654  1.0000
  C   C383      1.0  0.20006  0.63828  0.25653  1.0000
  C   C384      1.0  0.17006  0.93548  0.07062  1.0000
  C   C385      1.0  0.23361  0.94147  0.02734  1.0000
  C   C386      1.0  0.14378  0.96767  0.09489  1.0000
  Fe  Fe26      1.0  0.29052  0.65779  0.09821  1.0000
  C   C387      1.0  0.29983  0.88021  0.46595  1.0000
  C   C388      1.0  0.20381  0.62265  0.01221  1.0000
  H   H304      1.0  0.28450  0.96999  0.10934  1.0000
  S   S54       1.0  0.28498  0.65948  0.38953  1.0000
  C   C389      1.0  0.18195  0.96522  0.06057  1.0000
  H   H305      1.0  0.28940  0.80450  0.42754  1.0000
  C   C390      1.0  0.27861  0.53441  0.33669  1.0000
  C   C391      1.0  0.28576  0.57311  0.04423  1.0000
  S   S55       1.0  0.29250  0.69326  0.13410  1.0000
  H   H306      1.0  0.29074  0.74818  0.31246  1.0000
  C   C392      1.0  0.29193  0.48454  0.00431  1.0000
  C   C393      1.0  0.28812  0.58799  0.24012  1.0000
  H   H307      1.0  0.18130  0.53874  0.04596  1.0000
  H   H308      1.0  0.13747  0.56108  0.02939  1.0000
  C   C394      1.0  0.21122  0.75204  0.02452  1.0000
  H   H309      1.0  0.24360  0.69944  0.03652  1.0000
  C   C395      1.0  0.21948  0.77369  0.49507  1.0000
  H   H310      1.0  0.22927  0.85892  0.49199  1.0000
  C   C396      1.0  0.25583  0.97689  0.07477  1.0000
  S   S56       1.0  0.29125  0.63005  0.14303  1.0000
  H   H311      1.0  0.21928  0.48806  0.32686  1.0000
  C   C397      1.0  0.24928  0.78086  0.48984  1.0000
  C   C398      1.0  0.25738  0.75878  0.49025  1.0000
  C   C399      1.0  0.29339  0.66767  0.34439  1.0000
  C   C400      1.0  0.21069  0.70625  0.01013  1.0000
  H   H312      1.0  0.21360  0.79087  0.49445  1.0000
  C   C401      1.0  0.29585  0.81886  0.33998  1.0000
  H   H313      1.0  0.30256  0.73853  0.37146  1.0000
  H   H314      1.0  0.30276  0.53264  0.38166  1.0000
  H   H315      1.0  0.24960  0.52678  0.93584  1.0000
  C   C402      1.0  0.16739  0.95725  0.94136  1.0000
  Fe  Fe27      1.0  0.12503  0.80850  0.53551  1.0000
  S   S57       1.0  0.10162  0.75899  0.53714  1.0000
  S   S58       1.0  0.12728  0.83767  0.58111  1.0000
  H   H316      1.0  0.04454  0.84129  0.57899  1.0000
  H   H317      1.0  0.26400  0.96656  0.75450  1.0000
  C   C403      1.0  0.25397  0.48880  0.94879  1.0000
  Fe  Fe28      1.0  0.14600  0.85710  0.86482  1.0000
  S   S59       1.0  0.12030  0.88135  0.86196  1.0000
  S   S60       1.0  0.17116  0.85407  0.91231  1.0000
  Fe  Fe29      1.0  0.13987  0.84476  0.78529  1.0000
  S   S61       1.0  0.11487  0.86903  0.77765  1.0000
  S   S62       1.0  0.14818  0.82019  0.74126  1.0000
  Fe  Fe30      1.0  0.14864  0.90363  0.81440  1.0000
  S   S63       1.0  0.16883  0.95332  0.80290  1.0000
  Fe  Fe31      1.0  0.08909  0.84415  0.82551  1.0000
  S   S64       1.0  0.03809  0.82272  0.82322  1.0000
  S   S65       1.0  0.17543  0.88083  0.81856  1.0000
  S   S66       1.0  0.11301  0.81854  0.83182  1.0000
  H   H318      1.0  0.16808  0.74107  0.58450  1.0000
  H   H319      1.0  0.14444  0.94775  0.93312  1.0000
  C   C404      1.0  0.30115  0.59497  0.92664  1.0000
  C   C405      1.0  0.18941  0.96333  0.91642  1.0000
  C   C406      1.0  0.25899  0.50625  0.81227  1.0000
  C   C407      1.0  0.26759  0.53637  0.80902  1.0000
  C   C408      1.0  0.24541  0.54405  0.80613  1.0000
  C   C409      1.0  0.21508  0.52179  0.80616  1.0000
  C   C410      1.0  0.25763  0.84751  0.57212  1.0000
  H   H320      1.0  0.27592  0.50006  0.81485  1.0000
  H   H321      1.0  0.25161  0.56710  0.80369  1.0000
  H   H322      1.0  0.19814  0.52799  0.80385  1.0000
  C   C411      1.0  0.01053  0.78430  0.82323  1.0000
  C   C412      1.0  0.01749  0.76204  0.82972  1.0000
  H   H323      1.0  0.23964  0.65502  0.84482  1.0000
  H   H324      1.0  0.99043  0.82366  0.86276  1.0000
  H   H325      1.0  0.04039  0.76793  0.83414  1.0000
  P   P15       1.0  0.28419  0.50935  0.97925  1.0000
  H   H326      1.0  0.23204  0.62795  0.96858  1.0000
  C   C413      1.0  0.16241  0.85397  0.95734  1.0000
  C   C414      1.0  0.13452  0.84882  0.96826  1.0000
  C   C415      1.0  0.20651  0.49161  0.80886  1.0000
  H   H327      1.0  0.11797  0.84579  0.94896  1.0000
  C   C416      1.0  0.12997  0.83034  0.62579  1.0000
  C   C417      1.0  0.13055  0.85015  0.65114  1.0000
  C   C418      1.0  0.13447  0.84629  0.68678  1.0000
  C   C419      1.0  0.13915  0.82328  0.69729  1.0000
  C   C420      1.0  0.13810  0.80311  0.67201  1.0000
  C   C421      1.0  0.13309  0.80633  0.63641  1.0000
  H   H328      1.0  0.12821  0.86878  0.64319  1.0000
  H   H329      1.0  0.13492  0.86177  0.70596  1.0000
  H   H330      1.0  0.14141  0.78509  0.68002  1.0000
  H   H331      1.0  0.13251  0.79082  0.61713  1.0000
  H   H332      1.0  0.21368  0.59347  0.67453  1.0000
  H   H333      1.0  0.19569  0.75989  0.69205  1.0000
  C   C422      1.0  0.16666  0.60471  0.85954  1.0000
  C   C423      1.0  0.16334  0.48322  0.94436  1.0000
  H   H334      1.0  0.27253  0.67592  0.94919  1.0000
  C   C424      1.0  0.18159  0.74089  0.60608  1.0000
  H   H335      1.0  0.22501  0.95534  0.82096  1.0000
  C   C425      1.0  0.30290  0.79144  0.56526  1.0000
  C   C426      1.0  0.98053  0.77595  0.81736  1.0000
  C   C427      1.0  0.21673  0.74062  0.66143  1.0000
  C   C428      1.0  0.21862  0.58288  0.65320  1.0000
  H   H336      1.0  0.19974  0.93388  0.63699  1.0000
  H   H337      1.0  0.04405  0.88275  0.94435  1.0000
  C   C429      1.0  0.21877  0.72970  0.62848  1.0000
  H   H338      1.0  0.20287  0.72262  0.57491  1.0000
  H   H339      1.0  0.16452  0.76004  0.64295  1.0000
  C   C430      1.0  0.21052  0.88633  0.70693  1.0000
  H   H340      1.0  0.15071  0.56918  0.89678  1.0000
  H   H341      1.0  0.20517  0.52677  0.50069  1.0000
  C   C431      1.0  0.25277  0.66931  0.70113  1.0000
  H   H342      1.0  0.16365  0.62625  0.56724  1.0000
  H   H343      1.0  0.29258  0.58136  0.87269  1.0000
  H   H344      1.0  0.30148  0.80738  0.54842  1.0000
  C   C432      1.0  0.19162  0.62889  0.84475  1.0000
  H   H345      1.0  0.99336  0.81894  0.60239  1.0000
  C   C433      1.0  0.18100  0.53315  0.92284  1.0000
  H   H346      1.0  0.20521  0.86164  0.97467  1.0000
  H   H347      1.0  0.99856  0.87220  0.97722  1.0000
  C   C434      1.0  0.20910  0.55263  0.65471  1.0000
  C   C435      1.0  0.16313  0.97476  0.70766  1.0000
  C   C436      1.0  0.24909  0.67820  0.57387  1.0000
  C   C437      1.0  0.20123  0.73024  0.60077  1.0000
  C   C438      1.0  0.27457  0.58478  0.51771  1.0000
  C   C439      1.0  0.03039  0.81743  0.57952  1.0000
  C   C440      1.0  0.21903  0.97538  0.92692  1.0000
  H   H348      1.0  0.25214  0.64697  0.53951  1.0000
  H   H349      1.0  0.23255  0.82481  0.97450  1.0000
  C   C441      1.0  0.99176  0.83429  0.88754  1.0000
  H   H350      1.0  0.97991  0.73196  0.57894  1.0000
  C   C442      1.0  0.18751  0.64074  0.56915  1.0000
  C   C443      1.0  0.18360  0.85770  0.98287  1.0000
  H   H351      1.0  0.98870  0.67687  0.67097  1.0000
  H   H352      1.0  0.27436  0.87474  0.98575  1.0000
  C   C444      1.0  0.25882  0.87404  0.58184  1.0000
  P   P16       1.0  0.24249  0.53834  0.56421  1.0000
  H   H353      1.0  0.22607  0.50942  0.69283  1.0000
  H   H354      1.0  0.27660  0.55232  0.63042  1.0000
  C   C445      1.0  0.14996  0.96072  0.67608  1.0000
  H   H355      1.0  0.28672  0.75227  0.67706  1.0000
  H   H356      1.0  0.22688  0.65971  0.65428  1.0000
  C   C446      1.0  0.24913  0.51672  0.69842  1.0000
  H   H357      1.0  0.03100  0.75482  0.55611  1.0000
  H   H358      1.0  0.21208  0.76631  0.95151  1.0000
  C   C447      1.0  0.28319  0.58367  0.89697  1.0000
  C   C448      1.0  0.20659  0.63391  0.55078  1.0000
  H   H359      1.0  0.25438  0.59954  0.57515  1.0000
  H   H360      1.0  0.21259  0.87243  0.72652  1.0000
  C   C449      1.0  0.23299  0.87384  0.59333  1.0000
  C   C450      1.0  0.20644  0.84667  0.59611  1.0000
  C   C451      1.0  0.24140  0.58597  0.59686  1.0000
  H   H361      1.0  0.27303  0.69208  0.57559  1.0000
  C   C452      1.0  0.17920  0.90077  0.52124  1.0000
  C   C453      1.0  0.23199  0.55559  0.59817  1.0000
  H   H362      1.0  0.03432  0.77856  0.75389  1.0000
  H   H363      1.0  0.97483  0.79281  0.81176  1.0000
  C   C454      1.0  0.14653  0.78123  0.93994  1.0000
  C   C455      1.0  0.29069  0.67336  0.95886  1.0000
  H   H364      1.0  0.25052  0.59291  0.98427  1.0000
  C   C456      1.0  0.16623  0.56560  0.98618  1.0000
  C   C457      1.0  0.99468  0.73205  0.83119  1.0000
  C   C458      1.0  0.15614  0.77958  0.97361  1.0000
  C   C459      1.0  0.23480  0.59953  0.62430  1.0000
  C   C460      1.0  0.19715  0.75142  0.66661  1.0000
  H   H365      1.0  0.00031  0.71513  0.83683  1.0000
  H   H366      1.0  0.18975  0.87155  0.54827  1.0000
  C   C461      1.0  0.01980  0.85395  0.90137  1.0000
  C   C462      1.0  0.19917  0.66620  0.59008  1.0000
  H   H367      1.0  0.12693  0.94309  0.67570  1.0000
  H   H368      1.0  0.03966  0.85832  0.88705  1.0000
  H   H369      1.0  0.23190  0.96167  0.58630  1.0000
  C   C463      1.0  0.99070  0.71123  0.70510  1.0000
  C   C464      1.0  0.99384  0.75581  0.57999  1.0000
  C   C465      1.0  0.19343  0.58407  0.96940  1.0000
  H   H370      1.0  0.15347  0.77976  0.88467  1.0000
  P   P17       1.0  0.20341  0.57265  0.92940  1.0000
  C   C466      1.0  0.24128  0.58009  0.92946  1.0000
  H   H371      1.0  0.22969  0.80020  0.56584  1.0000
  C   C467      1.0  0.28904  0.59802  0.95792  1.0000
  C   C468      1.0  0.17954  0.77369  0.97833  1.0000
  H   H372      1.0  0.18891  0.64240  0.82522  1.0000
  C   C469      1.0  0.22870  0.48401  0.81201  1.0000
  C   C470      1.0  0.21587  0.53904  0.62741  1.0000
  C   C471      1.0  0.25913  0.59025  0.95960  1.0000
  C   C472      1.0  0.21723  0.94449  0.56834  1.0000
  C   C473      1.0  0.25334  0.57620  0.89833  1.0000
  C   C474      1.0  0.19882  0.59396  0.89533  1.0000
  C   C475      1.0  0.17022  0.58746  0.88501  1.0000
  H   H373      1.0  0.28602  0.53093  0.52354  1.0000
  C   C476      1.0  0.22013  0.63594  0.85560  1.0000
  C   C477      1.0  0.22373  0.61870  0.88093  1.0000
  C   C478      1.0  0.19346  0.92009  0.69049  1.0000
  P   P18       1.0  0.24537  0.71742  0.62081  1.0000
  C   C479      1.0  0.21360  0.49994  0.55935  1.0000
  H   H374      1.0  0.16892  0.53543  0.86898  1.0000
  C   C480      1.0  0.29354  0.67034  0.99515  1.0000
  C   C481      1.0  0.16026  0.77725  0.91068  1.0000
  C   C482      1.0  0.04115  0.79941  0.56683  1.0000
  C   C483      1.0  0.02287  0.76866  0.56699  1.0000
  C   C484      1.0  0.26017  0.49701  0.69620  1.0000
  C   C485      1.0  0.27425  0.69127  0.72268  1.0000
  H   H375      1.0  0.23990  0.56808  0.87483  1.0000
  H   H376      1.0  0.24606  0.62521  0.88953  1.0000
  H   H377      1.0  0.08213  0.72637  0.82978  1.0000
  C   C486      1.0  0.23078  0.82069  0.57392  1.0000
  C   C487      1.0  0.23008  0.68542  0.59218  1.0000
  C   C488      1.0  0.18348  0.77127  0.91504  1.0000
  H   H378      1.0  0.19671  0.53975  0.67724  1.0000
  C   C489      1.0  0.19319  0.76962  0.94870  1.0000
  H   H379      1.0  0.29627  0.52864  0.90455  1.0000
  H   H380      1.0  0.23024  0.74097  0.68317  1.0000
  H   H381      1.0  0.27984  0.89446  0.58026  1.0000
  C   C490      1.0  0.25552  0.70709  0.66155  1.0000
  C   C491      1.0  0.00146  0.80469  0.59279  1.0000
  H   H382      1.0  0.20891  0.51574  0.62940  1.0000
  C   C492      1.0  0.16676  0.52124  0.89074  1.0000
  H   H383      1.0  0.18427  0.79961  0.58714  1.0000
  H   H384      1.0  0.06632  0.85778  0.69347  1.0000
  C   C493      1.0  0.24331  0.67712  0.67073  1.0000
  H   H385      1.0  0.06356  0.80926  0.55652  1.0000
  H   H386      1.0  0.28824  0.48965  0.63857  1.0000
  C   C494      1.0  0.04279  0.71258  0.60290  1.0000
  C   C495      1.0  0.06834  0.71028  0.60644  1.0000
  C   C496      1.0  0.08281  0.71598  0.63877  1.0000
  C   C497      1.0  0.07148  0.72352  0.66778  1.0000
  C   C498      1.0  0.04542  0.72526  0.66469  1.0000
  C   C499      1.0  0.03146  0.72021  0.63183  1.0000
  P   P19       1.0  0.03058  0.73524  0.70192  1.0000
  C   C500      1.0  0.04684  0.73162  0.74213  1.0000
  C   C501      1.0  0.04015  0.77364  0.69847  1.0000
  C   C502      1.0  0.04040  0.78932  0.72859  1.0000
  C   C503      1.0  0.04949  0.81944  0.72660  1.0000
  C   C504      1.0  0.05854  0.83426  0.69468  1.0000
  C   C505      1.0  0.05839  0.81891  0.66461  1.0000
  C   C506      1.0  0.04926  0.78877  0.66640  1.0000
  C   C507      1.0  0.07587  0.75338  0.75124  1.0000
  C   C508      1.0  0.08865  0.75126  0.78249  1.0000
  C   C509      1.0  0.07238  0.72761  0.80521  1.0000
  C   C510      1.0  0.04344  0.70579  0.79637  1.0000
  C   C511      1.0  0.03069  0.70767  0.76490  1.0000
  C   C512      1.0  0.18359  0.92942  0.51880  1.0000
  H   H387      1.0  0.19454  0.76886  0.89229  1.0000
  H   H388      1.0  0.28225  0.68521  0.74571  1.0000
  H   H389      1.0  0.24276  0.62313  0.62327  1.0000
  C   C513      1.0  0.19738  0.90315  0.71591  1.0000
  S   S67       1.0  0.30276  0.63873  0.80128  1.0000
  H   H390      1.0  0.03191  0.70862  0.57759  1.0000
  H   H391      1.0  0.07712  0.70439  0.58398  1.0000
  H   H392      1.0  0.10288  0.71463  0.64132  1.0000
  H   H393      1.0  0.08320  0.72796  0.69244  1.0000
  H   H394      1.0  0.01180  0.72220  0.62861  1.0000
  C   C514      1.0  0.28624  0.72110  0.71399  1.0000
  H   H395      1.0  0.11111  0.76827  0.78920  1.0000
  H   H396      1.0  0.19167  0.52279  0.97371  1.0000
  H   H397      1.0  0.06643  0.83061  0.64009  1.0000
  H   H398      1.0  0.05030  0.77784  0.64283  1.0000
  H   H399      1.0  0.08859  0.77211  0.73418  1.0000
  H   H400      1.0  0.27586  0.93922  0.54852  1.0000
  C   C515      1.0  0.23733  0.65250  0.55338  1.0000
  H   H401      1.0  0.03065  0.68762  0.81416  1.0000
  H   H402      1.0  0.00813  0.69065  0.75889  1.0000
  H   H403      1.0  0.19762  0.61418  0.53458  1.0000
  C   C516      1.0  0.19383  0.89394  0.54715  1.0000
  H   H404      1.0  0.25630  0.76809  0.57599  1.0000
  C   C517      1.0  0.24192  0.50367  0.93044  1.0000
  C   C518      1.0  0.22582  0.54736  0.49735  1.0000
  H   H405      1.0  0.24396  0.64623  0.70774  1.0000
  H   H406      1.0  0.12931  0.78701  0.93652  1.0000
  C   C519      1.0  0.17956  0.75153  0.63896  1.0000
  H   H407      1.0  0.18399  0.67062  0.60479  1.0000
  C   C520      1.0  0.21671  0.90410  0.64697  1.0000
  H   H408      1.0  0.05003  0.83144  0.75006  1.0000
  C   C521      1.0  0.17957  0.51392  0.94944  1.0000
  H   H409      1.0  0.18645  0.84610  0.60520  1.0000
  H   H410      1.0  0.23071  0.87390  0.66646  1.0000
  Fe  Fe32      1.0  0.13834  0.76307  0.50155  1.0000
  H   H411      1.0  0.14455  0.59953  0.85149  1.0000
  C   C522      1.0  0.02224  0.86762  0.93365  1.0000
  C   C523      1.0  0.18355  0.49247  0.55983  1.0000
  H   H412      1.0  0.18271  0.93256  0.69759  1.0000
  C   C524      1.0  0.20521  0.82029  0.58604  1.0000
  C   C525      1.0  0.29726  0.55588  0.71811  1.0000
  C   C526      1.0  0.97637  0.68387  0.68736  1.0000
  C   C527      1.0  0.27853  0.74716  0.60114  1.0000
  P   P20       1.0  0.23304  0.90776  0.60412  1.0000
  C   C528      1.0  0.20557  0.72233  0.50199  1.0000
  C   C529      1.0  0.27050  0.93900  0.60476  1.0000
  C   C530      1.0  0.22025  0.88684  0.67266  1.0000
  C   C531      1.0  0.21305  0.91576  0.57098  1.0000
  C   C532      1.0  0.16655  0.96937  0.64513  1.0000
  C   C533      1.0  0.17494  0.96331  0.97683  1.0000
  H   H413      1.0  0.21294  0.50122  0.88849  1.0000
  C   C534      1.0  0.29421  0.53648  0.55018  1.0000
  C   C535      1.0  0.27685  0.72904  0.68365  1.0000
  H   H414      1.0  0.15100  0.54373  0.97606  1.0000
  H   H415      1.0  0.17971  0.71821  0.98936  1.0000
  C   C536      1.0  0.15026  0.49053  0.88595  1.0000
  C   C537      1.0  0.29009  0.50725  0.70484  1.0000
  C   C538      1.0  0.99659  0.86161  0.95213  1.0000
  H   H416      1.0  0.20600  0.97351  0.54041  1.0000
  C   C539      1.0  0.20303  0.92059  0.65612  1.0000
  C   C540      1.0  0.20465  0.97527  0.98762  1.0000
  H   H417      1.0  0.18948  0.90242  0.74238  1.0000
  C   C541      1.0  0.24805  0.55791  0.52328  1.0000
  C   C542      1.0  0.98297  0.77375  0.59326  1.0000
  H   H418      1.0  0.24114  0.71222  0.49720  1.0000
  C   C543      1.0  0.27717  0.76887  0.58083  1.0000
  C   C544      1.0  0.27742  0.54083  0.57590  1.0000
  H   H419      1.0  0.99037  0.79456  0.66267  1.0000
  H   H420      1.0  0.20107  0.68544  0.99599  1.0000
  S   S68       1.0  0.15969  0.73419  0.50932  1.0000
  H   H421      1.0  0.27746  0.84770  0.56287  1.0000
  H   H422      1.0  0.27254  0.94585  0.66110  1.0000
  C   C545      1.0  0.20259  0.95128  0.54238  1.0000
  H   H423      1.0  0.25888  0.56091  0.71188  1.0000
  C   C546      1.0  0.28877  0.54844  0.61011  1.0000
  C   C547      1.0  0.26767  0.54603  0.70923  1.0000
  C   C548      1.0  0.28394  0.95351  0.63630  1.0000
  H   H424      1.0  0.17758  0.50950  0.56307  1.0000
  H   H425      1.0  0.18355  0.95869  0.88891  1.0000
  C   C549      1.0  0.22110  0.48926  0.90375  1.0000
  H   H426      1.0  0.24339  0.48215  0.55438  1.0000
  H   H427      1.0  0.13955  0.48143  0.86098  1.0000
  H   H428      1.0  0.29194  0.59371  0.53743  1.0000
  C   C550      1.0  0.19741  0.74434  0.50124  1.0000
  H   H429      1.0  0.98480  0.73829  0.74393  1.0000
  C   C551      1.0  0.97416  0.71824  0.72836  1.0000
  H   H430      1.0  0.15047  0.96799  0.73186  1.0000
  H   H431      1.0  0.15623  0.95853  0.62065  1.0000
  C   C552      1.0  0.28600  0.94988  0.57316  1.0000
  C   C553      1.0  0.21166  0.61296  0.98204  1.0000
  H   H432      1.0  0.18875  0.69956  0.50691  1.0000
  H   H433      1.0  0.29889  0.49229  0.70416  1.0000
  H   H434      1.0  0.16429  0.88367  0.50312  1.0000
  S   S69       1.0  0.16344  0.81275  0.50353  1.0000
  C   C554      1.0  0.22952  0.97779  0.81739  1.0000
  H   H435      1.0  0.17224  0.93459  0.49860  1.0000
  H   H436      1.0  0.98765  0.79765  0.72682  1.0000
  H   H437      1.0  0.28177  0.89190  0.50990  1.0000
  H   H438      1.0  0.14590  0.78408  0.99560  1.0000
  H   H439      1.0  0.15754  0.95842  0.99568  1.0000
  H   H440      1.0  0.30315  0.60736  0.98068  1.0000
  H   H441      1.0  0.30369  0.62275  0.62259  1.0000
  H   H442      1.0  0.30341  0.73798  0.73042  1.0000
  Fe  Fe33      1.0  0.33093  0.19254  0.46199  1.0000
  S   S70       1.0  0.35281  0.24210  0.45946  1.0000
  C   C555      1.0  0.44253  0.18664  0.39691  1.0000
  C   C556      1.0  0.61513  0.02021  0.14780  1.0000
  C   C557      1.0  0.60581  0.14552  0.07173  1.0000
  C   C558      1.0  0.61343  0.24878  0.17379  1.0000
  C   C559      1.0  0.40046  0.28987  0.37733  1.0000
  S   S71       1.0  0.32578  0.17268  0.08386  1.0000
  H   H443      1.0  0.43503  0.21783  0.47734  1.0000
  H   H444      1.0  0.60802  0.43655  0.25310  1.0000
  H   H445      1.0  0.43192  0.25448  0.41827  1.0000
  H   H446      1.0  0.33744  0.23365  0.10777  1.0000
  H   H447      1.0  0.61038  0.03529  0.16224  1.0000
  C   C560      1.0  0.63773  0.23084  0.36805  1.0000
  C   C561      1.0  0.52192  0.28402  0.32338  1.0000
  H   H448      1.0  0.35262  0.28010  0.14093  1.0000
  H   H449      1.0  0.49509  0.22153  0.06772  1.0000
  C   C562      1.0  0.59566  0.38242  0.37930  1.0000
  H   H450      1.0  0.36352  0.15363  0.43662  1.0000
  H   H451      1.0  0.53552  0.27990  0.40983  1.0000
  C   C563      1.0  0.39578  0.18624  0.40180  1.0000
  H   H452      1.0  0.62747  0.28076  0.02233  1.0000
  C   C564      1.0  0.60977  0.25559  0.11161  1.0000
  Fe  Fe34      1.0  0.58922  0.27275  0.48400  1.0000
  C   C565      1.0  0.32844  0.20732  0.32514  1.0000
  C   C566      1.0  0.32854  0.20022  0.36071  1.0000
  S   S72       1.0  0.31563  0.19518  0.25523  1.0000
  C   C567      1.0  0.62156  0.14079  0.04526  1.0000
  H   H453      1.0  0.34082  0.23019  0.31693  1.0000
  H   H454      1.0  0.34107  0.21760  0.37957  1.0000
  H   H455      1.0  0.56197  0.30364  0.35463  1.0000
  C   C568      1.0  0.37957  0.17772  0.27492  1.0000
  C   C569      1.0  0.51096  0.25041  0.48276  1.0000
  H   H456      1.0  0.37684  0.19758  0.32286  1.0000
  C   C570      1.0  0.60541  0.20235  0.41577  1.0000
  H   H457      1.0  0.61487  0.35412  0.38193  1.0000
  C   C571      1.0  0.46444  0.26380  0.48977  1.0000
  H   H458      1.0  0.35630  0.16916  0.26845  1.0000
  C   C572      1.0  0.55276  0.20812  0.00678  1.0000
  C   C573      1.0  0.42438  0.19840  0.38739  1.0000
  C   C574      1.0  0.38580  0.16316  0.42601  1.0000
  H   H459      1.0  0.53339  0.29486  0.29947  1.0000
  H   H460      1.0  0.58804  0.33539  0.16688  1.0000
  C   C575      1.0  0.61066  0.41571  0.32960  1.0000
  C   C576      1.0  0.61400  0.38143  0.18127  1.0000
  C   C577      1.0  0.59948  0.35103  0.18790  1.0000
  C   C578      1.0  0.60095  0.34086  0.22122  1.0000
  C   C579      1.0  0.31289  0.17064  0.37155  1.0000
  S   S73       1.0  0.61044  0.32223  0.48318  1.0000
  C   C580      1.0  0.61328  0.37102  0.36710  1.0000
  C   C581      1.0  0.41031  0.26060  0.33582  1.0000
  C   C582      1.0  0.48101  0.22832  0.47838  1.0000
  H   H461      1.0  0.39020  0.28676  0.32228  1.0000
  C   C583      1.0  0.31720  0.16727  0.03845  1.0000
  S   S74       1.0  0.31292  0.16040  0.41590  1.0000
  C   C584      1.0  0.51523  0.27419  0.00441  1.0000
  H   H462      1.0  0.54311  0.26018  0.09302  1.0000
  C   C585      1.0  0.47612  0.25069  0.35400  1.0000
  S   S75       1.0  0.62341  0.27216  0.44784  1.0000
  C   C586      1.0  0.43933  0.19934  0.29217  1.0000
  C   C587      1.0  0.32665  0.29293  0.10904  1.0000
  C   C588      1.0  0.62958  0.20318  0.43290  1.0000
  C   C589      1.0  0.49103  0.26509  0.32317  1.0000
  C   C590      1.0  0.59436  0.40475  0.36057  1.0000
  H   H463      1.0  0.59561  0.17642  0.09616  1.0000
  C   C591      1.0  0.42166  0.20620  0.31371  1.0000
  H   H464      1.0  0.38092  0.19419  0.39400  1.0000
  H   H465      1.0  0.59083  0.31730  0.22607  1.0000
  H   H466      1.0  0.46217  0.20657  0.29908  1.0000
  H   H467      1.0  0.60998  0.25308  0.20070  1.0000
  H   H468      1.0  0.38826  0.15924  0.22907  1.0000
  C   C592      1.0  0.60695  0.26022  0.01767  1.0000
  H   H469      1.0  0.54042  0.29652  0.49435  1.0000
  H   H470      1.0  0.55649  0.31624  0.00489  1.0000
  C   C593      1.0  0.42740  0.18265  0.26157  1.0000
  C   C594      1.0  0.53803  0.28912  0.35447  1.0000
  H   H471      1.0  0.53162  0.18803  0.00274  1.0000
  C   C595      1.0  0.62775  0.98129  0.11035  1.0000
  H   H472      1.0  0.50968  0.32730  0.00705  1.0000
  H   H473      1.0  0.47791  0.22973  0.01081  1.0000
  H   H474      1.0  0.41368  0.28902  0.43062  1.0000
  H   H475      1.0  0.36047  0.17427  0.02451  1.0000
  C   C596      1.0  0.60234  0.23355  0.03223  1.0000
  C   C597      1.0  0.49838  0.24722  0.02206  1.0000
  H   H476      1.0  0.39653  0.13450  0.45523  1.0000
  C   C598      1.0  0.62818  0.40412  0.31691  1.0000
  C   C599      1.0  0.30873  0.24003  0.07266  1.0000
  C   C600      1.0  0.45789  0.23498  0.48148  1.0000
  C   C601      1.0  0.43264  0.16389  0.42159  1.0000
  H   H477      1.0  0.58373  0.19182  0.42814  1.0000
  H   H478      1.0  0.48117  0.24750  0.40984  1.0000
  H   H479      1.0  0.44113  0.17764  0.24479  1.0000
  H   H480      1.0  0.47878  0.26186  0.29905  1.0000
  C   C602      1.0  0.39946  0.27979  0.34315  1.0000
  C   C603      1.0  0.33751  0.27430  0.11893  1.0000
  H   H481      1.0  0.60346  0.26550  0.09087  1.0000
  C   C604      1.0  0.41249  0.28092  0.40416  1.0000
  C   C605      1.0  0.62735  0.19702  0.05397  1.0000
  H   H482      1.0  0.57050  0.18675  0.03832  1.0000
  C   C606      1.0  0.60440  0.26016  0.14632  1.0000
  H   H483      1.0  0.44694  0.15527  0.42928  1.0000
  C   C607      1.0  0.33912  0.16993  0.01469  1.0000
  C   C608      1.0  0.54251  0.29578  0.01874  1.0000
  H   H484      1.0  0.59142  0.12750  0.08896  1.0000
  H   H485      1.0  0.39199  0.30466  0.38307  1.0000
  H   H486      1.0  0.40980  0.25353  0.30904  1.0000
  H   H487      1.0  0.46425  0.19491  0.38524  1.0000
  C   C609      1.0  0.49233  0.25697  0.38537  1.0000
  C   C610      1.0  0.52319  0.27574  0.38551  1.0000
  H   H488      1.0  0.58328  0.37412  0.40346  1.0000
  P   P21       1.0  0.43620  0.22650  0.35411  1.0000
  C   C611      1.0  0.42280  0.26129  0.39707  1.0000
  H   H489      1.0  0.57374  0.30738  0.06137  1.0000
  C   C612      1.0  0.62382  0.23913  0.10407  1.0000
  H   H490      1.0  0.59419  0.27345  0.15200  1.0000
  C   C613      1.0  0.60950  0.21621  0.38337  1.0000
  C   C614      1.0  0.63049  0.39165  0.24198  1.0000
  H   H491      1.0  0.59093  0.21630  0.37055  1.0000
  C   C615      1.0  0.40431  0.15221  0.43623  1.0000
  C   C616      1.0  0.39760  0.17211  0.25278  1.0000
  C   C617      1.0  0.39140  0.19424  0.30555  1.0000
  C   C618      1.0  0.42149  0.25073  0.36292  1.0000
  C   C619      1.0  0.50825  0.24234  0.05413  1.0000
  C   C620      1.0  0.53528  0.26409  0.06841  1.0000
  C   C621      1.0  0.55244  0.29076  0.05067  1.0000
  H   H492      1.0  0.30707  0.42925  0.05635  1.0000
  C   C622      1.0  0.59328  0.99811  0.12667  1.0000
  C   C623      1.0  0.61642  0.36102  0.24813  1.0000
  H   H493      1.0  0.61127  0.34343  0.01512  1.0000
  C   C624      1.0  0.32886  0.24807  0.10042  1.0000
  S   S76       1.0  0.53928  0.24102  0.47712  1.0000
  C   C625      1.0  0.60849  0.17342  0.07594  1.0000
  C   C626      1.0  0.51752  0.27926  0.49090  1.0000
  H   H494      1.0  0.61363  0.28391  0.30616  1.0000
  H   H495      1.0  0.61386  0.38931  0.15507  1.0000
  C   C627      1.0  0.31288  0.18505  0.29999  1.0000
  H   H496      1.0  0.45299  0.26212  0.00773  1.0000
  H   H497      1.0  0.60961  0.43330  0.31608  1.0000
  C   C628      1.0  0.63023  0.45565  0.25241  1.0000
  H   H498      1.0  0.61957  0.11919  0.04211  1.0000
  H   H499      1.0  0.33343  0.31333  0.12331  1.0000
  C   C629      1.0  0.31107  0.45045  0.00659  1.0000
  C   C630      1.0  0.49437  0.28585  0.49443  1.0000
  H   H500      1.0  0.58086  0.41374  0.37025  1.0000
  C   C631      1.0  0.57495  0.20751  0.02686  1.0000
  H   H501      1.0  0.47569  0.20597  0.47210  1.0000
  P   P22       1.0  0.63067  0.23310  0.05919  1.0000
  H   H502      1.0  0.62256  0.29820  0.36907  1.0000
  H   H503      1.0  0.57146  0.99597  0.12481  1.0000
  C   C632      1.0  0.62807  0.23301  0.16654  1.0000
  H   H504      1.0  0.61771  0.35247  0.27340  1.0000
  C   C633      1.0  0.62934  0.38173  0.33605  1.0000
  C   C634      1.0  0.62990  0.40166  0.20796  1.0000
  C   C635      1.0  0.63389  0.30366  0.31396  1.0000
  C   C636      1.0  0.30686  0.28520  0.08087  1.0000
  C   C637      1.0  0.63362  0.22852  0.13186  1.0000
  H   H505      1.0  0.62678  0.19359  0.45870  1.0000
  H   H506      1.0  0.63548  0.22466  0.18789  1.0000
  C   C638      1.0  0.63051  0.34299  0.00512  1.0000
  H   H507      1.0  0.62436  0.14718  0.49505  1.0000
  S   S77       1.0  0.43622  0.27350  0.49379  1.0000
  C   C639      1.0  0.58482  0.26069  0.99736  1.0000
  Fe  Fe35      1.0  0.33802  0.19285  0.54210  1.0000
  S   S78       1.0  0.36050  0.24240  0.54464  1.0000
  S   S79       1.0  0.33126  0.16192  0.58763  1.0000
  H   H508      1.0  0.32655  0.98291  0.54871  1.0000
  Fe  Fe36      1.0  0.33033  0.16823  0.79302  1.0000
  S   S80       1.0  0.35577  0.14429  0.78667  1.0000
  S   S81       1.0  0.32254  0.19161  0.74730  1.0000
  Fe  Fe37      1.0  0.32456  0.15816  0.87295  1.0000
  S   S82       1.0  0.35044  0.13414  0.87137  1.0000
  C   C640      1.0  0.52440  0.26834  0.93200  1.0000
  Fe  Fe38      1.0  0.38138  0.17033  0.83415  1.0000
  S   S83       1.0  0.43223  0.19118  0.83509  1.0000
  Fe  Fe39      1.0  0.32225  0.11046  0.82401  1.0000
  S   S84       1.0  0.35725  0.19586  0.83903  1.0000
  C   C641      1.0  0.46092  0.22873  0.82944  1.0000
  C   C642      1.0  0.45503  0.25206  0.82609  1.0000
  H   H509      1.0  0.49558  0.21755  0.83183  1.0000
  H   H510      1.0  0.43226  0.24739  0.82557  1.0000
  C   C643      1.0  0.44881  0.31523  0.56549  1.0000
  C   C644      1.0  0.60865  0.39937  0.58349  1.0000
  H   H511      1.0  0.30652  0.30249  0.98410  1.0000
  C   C645      1.0  0.52795  0.23007  0.89948  1.0000
  H   H512      1.0  0.35072  0.16919  0.96038  1.0000
  C   C646      1.0  0.33198  0.17218  0.63199  1.0000
  C   C647      1.0  0.33261  0.19843  0.64145  1.0000
  C   C648      1.0  0.33095  0.20472  0.67700  1.0000
  C   C649      1.0  0.32874  0.18495  0.70338  1.0000
  C   C650      1.0  0.47257  0.34426  0.56774  1.0000
  P   P23       1.0  0.50445  0.27945  0.96129  1.0000
  C   C651      1.0  0.49807  0.35045  0.58680  1.0000
  P   P24       1.0  0.53211  0.33516  0.62959  1.0000
  H   H513      1.0  0.55024  0.39626  0.64926  1.0000
  S   S85       1.0  0.61492  0.37029  0.77984  1.0000
  Fe  Fe40      1.0  0.58789  0.34339  0.82597  1.0000
  S   S86       1.0  0.53765  0.32609  0.82575  1.0000
  S   S87       1.0  0.60841  0.31443  0.82748  1.0000
  C   C652      1.0  0.50856  0.28833  0.82618  1.0000
  C   C653      1.0  0.51440  0.26494  0.82838  1.0000
  C   C654      1.0  0.49074  0.23540  0.82984  1.0000
  C   C655      1.0  0.47872  0.28165  0.82461  1.0000
  H   H514      1.0  0.53717  0.26962  0.82926  1.0000
  H   H515      1.0  0.47387  0.29951  0.82276  1.0000
  H   H516      1.0  0.54504  0.26503  0.55457  1.0000
  H   H517      1.0  0.51744  0.20777  0.88893  1.0000
  C   C656      1.0  0.46474  0.25927  0.95395  1.0000
  H   H518      1.0  0.34056  0.05222  0.73745  1.0000
  H   H519      1.0  0.30470  0.05843  0.54629  1.0000
  H   H520      1.0  0.57109  0.24272  0.87793  1.0000
  H   H521      1.0  0.34325  0.30415  0.69229  1.0000
  H   H522      1.0  0.47133  0.36187  0.55428  1.0000
  H   H523      1.0  0.48799  0.22343  0.92413  1.0000
  H   H524      1.0  0.58864  0.28136  0.98610  1.0000
  C   C657      1.0  0.55484  0.28775  0.92606  1.0000
  C   C658      1.0  0.59035  0.42427  0.62089  1.0000
  H   H525      1.0  0.56578  0.31004  0.93662  1.0000
  C   C659      1.0  0.55774  0.23468  0.99201  1.0000
  H   H526      1.0  0.51620  0.37307  0.58810  1.0000
  C   C660      1.0  0.63487  0.34332  0.96861  1.0000
  H   H527      1.0  0.33354  0.21347  0.62138  1.0000
  C   C661      1.0  0.53182  0.35880  0.91301  1.0000
  H   H528      1.0  0.39401  0.20154  0.58215  1.0000
  H   H529      1.0  0.54006  0.40017  0.93546  1.0000
  C   C662      1.0  0.56649  0.39686  0.63098  1.0000
  H   H530      1.0  0.50781  0.34408  0.77333  1.0000
  H   H531      1.0  0.63689  0.36517  0.70337  1.0000
  H   H532      1.0  0.61421  0.18167  0.52939  1.0000
  H   H533      1.0  0.52839  0.30084  0.56702  1.0000
  C   C663      1.0  0.51559  0.31767  0.95342  1.0000
  C   C664      1.0  0.57160  0.27845  0.90684  1.0000
  C   C665      1.0  0.52286  0.32912  0.91941  1.0000
  C   C666      1.0  0.45350  0.25027  0.91997  1.0000
  H   H534      1.0  0.38801  0.10183  0.75471  1.0000
  C   C667      1.0  0.51230  0.34229  0.74596  1.0000
  C   C668      1.0  0.53772  0.29414  0.58808  1.0000
  C   C669      1.0  0.48892  0.32863  0.72204  1.0000
  H   H535      1.0  0.48611  0.22705  0.57365  1.0000
  H   H536      1.0  0.63655  0.37760  0.64056  1.0000
  H   H537      1.0  0.53785  0.36746  0.88663  1.0000
  H   H538      1.0  0.54048  0.23514  0.97676  1.0000
  H   H539      1.0  0.59513  0.29359  0.90257  1.0000
  C   C670      1.0  0.32962  0.15944  0.69395  1.0000
  C   C671      1.0  0.55812  0.24970  0.89329  1.0000
  C   C672      1.0  0.54720  0.27386  0.58086  1.0000
  S   S88       1.0  0.61323  0.27123  0.53245  1.0000
  C   C673      1.0  0.33747  0.27172  0.93274  1.0000
  C   C674      1.0  0.33369  0.16714  0.97830  1.0000
  H   H540      1.0  0.39772  0.20300  0.64643  1.0000
  H   H541      1.0  0.32833  0.14421  0.71396  1.0000
  H   H542      1.0  0.33081  0.13280  0.65135  1.0000
  H   H543      1.0  0.37219  0.31515  0.63710  1.0000
  C   C675      1.0  0.54158  0.35344  0.73475  1.0000
  H   H544      1.0  0.41432  0.22762  0.88771  1.0000
  C   C676      1.0  0.58478  0.37195  0.59341  1.0000
  S   S89       1.0  0.62032  0.37633  0.86527  1.0000
  C   C677      1.0  0.61139  0.42552  0.59707  1.0000
  H   H545      1.0  0.57046  0.35940  0.69150  1.0000
  C   C678      1.0  0.42283  0.23520  0.91389  1.0000
  H   H546      1.0  0.46844  0.25491  0.89811  1.0000
  C   C679      1.0  0.51611  0.33595  0.98079  1.0000
  C   C680      1.0  0.53303  0.37713  0.94048  1.0000
  C   C681      1.0  0.51116  0.23922  0.91901  1.0000
  H   H547      1.0  0.58332  0.35210  0.58244  1.0000
  H   H548      1.0  0.43781  0.21323  0.54581  1.0000
  H   H549      1.0  0.43239  0.26971  0.57929  1.0000
  C   C682      1.0  0.56379  0.27762  0.64078  1.0000
  C   C683      1.0  0.56025  0.26561  0.60720  1.0000
  C   C684      1.0  0.33326  0.29059  0.66924  1.0000
  H   H550      1.0  0.57473  0.27191  0.66093  1.0000
  H   H551      1.0  0.56828  0.25049  0.60133  1.0000
  C   C685      1.0  0.30569  0.47036  0.98792  1.0000
  C   C686      1.0  0.49478  0.32599  0.68688  1.0000
  C   C687      1.0  0.40861  0.26950  0.70130  1.0000
  C   C688      1.0  0.39504  0.26227  0.73415  1.0000
  C   C689      1.0  0.39822  0.24237  0.75560  1.0000
  C   C690      1.0  0.41425  0.22901  0.74398  1.0000
  C   C691      1.0  0.42723  0.23548  0.71058  1.0000
  C   C692      1.0  0.42501  0.25649  0.68974  1.0000
  P   P25       1.0  0.44697  0.21739  0.69478  1.0000
  C   C693      1.0  0.48515  0.23660  0.70992  1.0000
  C   C694      1.0  0.42891  0.18027  0.71257  1.0000
  C   C695      1.0  0.43819  0.17509  0.74504  1.0000
  C   C696      1.0  0.42370  0.14682  0.75985  1.0000
  C   C697      1.0  0.39974  0.12345  0.74252  1.0000
  C   C698      1.0  0.39019  0.12837  0.71031  1.0000
  C   C699      1.0  0.40464  0.15664  0.69539  1.0000
  C   C700      1.0  0.50311  0.22378  0.70494  1.0000
  C   C701      1.0  0.53240  0.23799  0.71745  1.0000
  C   C702      1.0  0.54391  0.26499  0.73523  1.0000
  C   C703      1.0  0.52601  0.27759  0.74081  1.0000
  C   C704      1.0  0.49669  0.26341  0.72845  1.0000
  C   C705      1.0  0.44445  0.21567  0.64739  1.0000
  C   C706      1.0  0.46940  0.22271  0.62643  1.0000
  C   C707      1.0  0.46694  0.22169  0.58987  1.0000
  C   C708      1.0  0.43976  0.21397  0.57403  1.0000
  C   C709      1.0  0.41501  0.20731  0.59457  1.0000
  C   C710      1.0  0.41727  0.20813  0.63103  1.0000
  H   H552      1.0  0.40599  0.28478  0.68456  1.0000
  H   H553      1.0  0.38165  0.27166  0.74290  1.0000
  H   H554      1.0  0.38742  0.23659  0.78088  1.0000
  H   H555      1.0  0.41598  0.21332  0.76096  1.0000
  H   H556      1.0  0.43531  0.26235  0.66420  1.0000
  H   H557      1.0  0.45598  0.19306  0.75969  1.0000
  H   H558      1.0  0.43040  0.14338  0.78551  1.0000
  C   C711      1.0  0.33096  0.15298  0.65841  1.0000
  H   H559      1.0  0.37113  0.11046  0.69729  1.0000
  H   H560      1.0  0.39633  0.15988  0.67088  1.0000
  H   H561      1.0  0.49436  0.20267  0.69161  1.0000
  H   H562      1.0  0.54620  0.22807  0.71353  1.0000
  H   H563      1.0  0.56662  0.27607  0.74500  1.0000
  H   H564      1.0  0.53474  0.29809  0.75548  1.0000
  H   H565      1.0  0.48302  0.27312  0.73416  1.0000
  H   H566      1.0  0.49086  0.22937  0.63790  1.0000
  C   C712      1.0  0.55457  0.29810  0.64805  1.0000
  H   H567      1.0  0.52171  0.31513  0.89777  1.0000
  H   H568      1.0  0.59252  0.44456  0.63153  1.0000
  C   C713      1.0  0.45055  0.29229  0.58205  1.0000
  C   C714      1.0  0.54757  0.35068  0.69966  1.0000
  C   C715      1.0  0.52417  0.33689  0.67539  1.0000
  C   C716      1.0  0.40314  0.22980  0.94150  1.0000
  C   C717      1.0  0.31100  0.28573  0.97380  1.0000
  C   C718      1.0  0.33645  0.27961  0.60836  1.0000
  H   H569      1.0  0.61907  0.34399  0.95074  1.0000
  H   H570      1.0  0.55858  0.30781  0.67391  1.0000
  C   C719      1.0  0.63200  0.17773  0.53719  1.0000
  Fe  Fe41      1.0  0.63685  0.34266  0.78300  1.0000
  C   C720      1.0  0.54145  0.30654  0.62174  1.0000
  H   H571      1.0  0.47703  0.28036  0.61368  1.0000
  C   C721      1.0  0.47601  0.29836  0.60103  1.0000
  H   H572      1.0  0.42933  0.31030  0.55001  1.0000
  C   C722      1.0  0.56359  0.37044  0.61742  1.0000
  H   H573      1.0  0.55955  0.36395  0.75355  1.0000
  H   H574      1.0  0.46623  0.31990  0.73091  1.0000
  H   H575      1.0  0.62514  0.40012  0.56540  1.0000
  H   H576      1.0  0.47630  0.31567  0.66888  1.0000
  C   C723      1.0  0.49995  0.32750  0.60361  1.0000
  C   C724      1.0  0.34957  0.29678  0.63823  1.0000
  C   C725      1.0  0.44486  0.25432  0.98152  1.0000
  H   H577      1.0  0.52566  0.37982  0.99554  1.0000
  H   H578      1.0  0.34865  0.28489  0.58392  1.0000
  Fe  Fe42      1.0  0.32481  0.23791  0.50677  1.0000
  H   H579      1.0  0.61336  0.12680  0.67973  1.0000
  H   H580      1.0  0.31072  0.06618  0.70006  1.0000
  H   H581      1.0  0.37937  0.21829  0.93659  1.0000
  H   H582      1.0  0.32256  0.98970  0.66056  1.0000
  H   H583      1.0  0.34094  0.31465  0.93415  1.0000
  H   H584      1.0  0.34992  0.00834  0.60460  1.0000
  C   C726      1.0  0.31745  0.03631  0.73221  1.0000
  H   H585      1.0  0.33019  0.22740  0.93844  1.0000
  H   H586      1.0  0.33104  0.22487  0.68401  1.0000
  C   C727      1.0  0.30522  0.23673  0.97626  1.0000
  C   C728      1.0  0.32484  0.24375  0.94817  1.0000
  C   C729      1.0  0.63785  0.15848  0.51774  1.0000
  C   C730      1.0  0.52500  0.36567  0.97433  1.0000
  H   H587      1.0  0.35267  0.27707  0.91095  1.0000
  H   H588      1.0  0.31191  0.47444  0.96055  1.0000
  C   C731      1.0  0.33073  0.29280  0.94572  1.0000
  Fe  Fe43      1.0  0.63600  0.32086  0.53029  1.0000
  C   C732      1.0  0.41414  0.23939  0.97531  1.0000
  C   C733      1.0  0.30645  0.16232  0.96523  1.0000
  C   C734      1.0  0.32781  0.98900  0.60463  1.0000
  H   H589      1.0  0.63491  0.16105  0.63006  1.0000
  H   H590      1.0  0.31739  0.00256  0.76470  1.0000
  H   H591      1.0  0.62987  0.44672  0.58917  1.0000
  H   H592      1.0  0.32139  0.43932  0.99372  1.0000
  H   H593      1.0  0.49971  0.30823  0.50074  1.0000
  C   C735      1.0  0.63736  0.35086  0.68317  1.0000
  C   C736      1.0  0.30727  0.25590  0.60961  1.0000
  C   C737      1.0  0.63715  0.35782  0.64757  1.0000
  C   C738      1.0  0.63687  0.14312  0.67972  1.0000
  Fe  Fe44      1.0  0.38612  0.24174  0.49727  1.0000
  S   S90       1.0  0.36579  0.19250  0.49706  1.0000
  H   H594      1.0  0.39875  0.23521  0.99666  1.0000
  C   C739      1.0  0.50561  0.77341  0.47155  1.0000
  S   S91       1.0  0.34036  0.73911  0.43309  1.0000
  H   H595      1.0  0.34033  0.79125  0.19609  1.0000
  H   H596      1.0  0.63701  0.76016  0.30996  1.0000
  Fe  Fe45      1.0  0.37196  0.73447  0.47010  1.0000
  S   S92       1.0  0.31718  0.68343  0.22706  1.0000
  H   H597      1.0  0.46584  0.69991  0.48937  1.0000
  H   H598      1.0  0.48630  0.80107  0.46179  1.0000
  C   C740      1.0  0.48169  0.77893  0.46794  1.0000
  H   H599      1.0  0.61555  0.48366  0.22868  1.0000
  H   H600      1.0  0.44033  0.82805  0.49405  1.0000
  C   C741      1.0  0.47042  0.72209  0.48351  1.0000
  C   C742      1.0  0.54678  0.83546  0.04623  1.0000
  H   H601      1.0  0.53299  0.81716  0.09791  1.0000
  H   H602      1.0  0.58215  0.96152  0.09223  1.0000
  C   C743      1.0  0.32055  0.80146  0.39353  1.0000
  C   C744      1.0  0.30675  0.67740  0.27191  1.0000
  H   H603      1.0  0.61448  0.73033  0.36341  1.0000
  S   S93       1.0  0.52945  0.73643  0.48356  1.0000
  C   C745      1.0  0.32024  0.77912  0.21143  1.0000
  H   H604      1.0  0.32724  0.81538  0.30612  1.0000
  C   C746      1.0  0.62250  0.80796  0.29597  1.0000
  H   H605      1.0  0.31722  0.73684  0.20253  1.0000
  H   H606      1.0  0.61068  0.88775  0.31498  1.0000
  C   C747      1.0  0.32755  0.69554  0.29737  1.0000
  H   H607      1.0  0.31157  0.86544  0.41932  1.0000
  C   C748      1.0  0.31895  0.81318  0.33263  1.0000
  Fe  Fe46      1.0  0.63524  0.81203  0.43724  1.0000
  H   H608      1.0  0.34917  0.71312  0.28918  1.0000
  H   H609      1.0  0.33739  0.70468  0.35256  1.0000
  S   S94       1.0  0.61008  0.76221  0.43904  1.0000
  H   H610      1.0  0.54862  0.90041  0.00861  1.0000
  H   H611      1.0  0.32981  0.79438  0.41433  1.0000
  S   S95       1.0  0.32186  0.66334  0.05319  1.0000
  C   C749      1.0  0.62930  0.89402  0.29746  1.0000
  H   H612      1.0  0.56093  0.85778  0.05569  1.0000
  H   H613      1.0  0.31638  0.57001  0.00959  1.0000
  C   C750      1.0  0.54476  0.82948  0.01030  1.0000
  S   S96       1.0  0.42265  0.76436  0.46612  1.0000
  H   H614      1.0  0.60062  0.79248  0.28590  1.0000
  H   H615      1.0  0.32769  0.55061  0.19449  1.0000
  C   C751      1.0  0.45195  0.75606  0.47167  1.0000
  C   C752      1.0  0.62688  0.81210  0.33243  1.0000
  C   C753      1.0  0.63441  0.48221  0.23828  1.0000
  S   S97       1.0  0.34652  0.68464  0.46785  1.0000
  C   C754      1.0  0.31193  0.60436  0.21751  1.0000
  H   H616      1.0  0.60259  0.86317  0.25705  1.0000
  C   C755      1.0  0.62467  0.88033  0.26478  1.0000
  C   C756      1.0  0.32091  0.69082  0.33337  1.0000
  H   H617      1.0  0.34655  0.54393  0.00029  1.0000
  C   C757      1.0  0.33136  0.80457  0.35940  1.0000
  H   H618      1.0  0.50179  0.76561  0.07647  1.0000
  S   S98       1.0  0.60336  0.81663  0.47347  1.0000
  Fe  Fe47      1.0  0.31420  0.73761  0.48090  1.0000
  H   H619      1.0  0.30899  0.57908  0.40798  1.0000
  C   C758      1.0  0.53114  0.81253  0.07005  1.0000
  H   H620      1.0  0.34912  0.79996  0.35369  1.0000
  Fe  Fe48      1.0  0.31329  0.68944  0.43437  1.0000
  C   C759      1.0  0.51357  0.78349  0.05796  1.0000
  C   C760      1.0  0.32595  0.59082  0.20070  1.0000
  H   H621      1.0  0.34423  0.60354  0.18293  1.0000
  H   H622      1.0  0.49880  0.75456  0.01339  1.0000
  H   H623      1.0  0.60844  0.80005  0.35016  1.0000
  H   H624      1.0  0.31961  0.62766  0.21319  1.0000
  C   C761      1.0  0.60777  0.89731  0.16942  1.0000
  C   C762      1.0  0.60141  0.87062  0.15343  1.0000
  C   C763      1.0  0.60520  0.86962  0.11734  1.0000
  C   C764      1.0  0.61525  0.89523  0.09718  1.0000
  C   C765      1.0  0.62122  0.92205  0.11295  1.0000
  C   C766      1.0  0.61787  0.92299  0.14936  1.0000
  P   P26       1.0  0.63535  0.95546  0.08716  1.0000
  H   H625      1.0  0.32277  0.89474  0.47360  1.0000
  C   C767      1.0  0.31737  0.66771  0.00792  1.0000
  C   C768      1.0  0.30712  0.74843  0.21487  1.0000
  H   H626      1.0  0.57552  0.90980  0.06467  1.0000
  H   H627      1.0  0.42384  0.70969  0.48266  1.0000
  H   H628      1.0  0.31737  0.81780  0.22468  1.0000
  H   H629      1.0  0.52826  0.79124  0.46825  1.0000
  Fe  Fe49      1.0  0.58011  0.76707  0.47852  1.0000
  C   C769      1.0  0.51167  0.77736  0.02208  1.0000
  C   C770      1.0  0.30738  0.79404  0.22767  1.0000
  C   C771      1.0  0.50014  0.74485  0.47910  1.0000
  C   C772      1.0  0.44649  0.72758  0.47976  1.0000
  C   C773      1.0  0.61587  0.94785  0.04582  1.0000
  C   C774      1.0  0.58661  0.92405  0.04259  1.0000
  C   C775      1.0  0.57112  0.91891  0.01099  1.0000
  C   C776      1.0  0.31661  0.56105  0.20721  1.0000
  H   H630      1.0  0.62516  0.72219  0.25261  1.0000
  C   C777      1.0  0.62902  0.96690  0.01724  1.0000
  H   H631      1.0  0.60541  0.89823  0.19750  1.0000
  H   H632      1.0  0.59441  0.85089  0.16912  1.0000
  H   H633      1.0  0.60141  0.84919  0.10514  1.0000
  H   H634      1.0  0.61917  0.89421  0.06947  1.0000
  C   C778      1.0  0.59950  0.97866  0.10809  1.0000
  H   H635      1.0  0.62338  0.94355  0.16247  1.0000
  C   C779      1.0  0.52697  0.80039  0.99790  1.0000
  H   H636      1.0  0.56659  0.78203  0.99795  1.0000
  C   C780      1.0  0.32055  0.66726  0.60362  1.0000
  H   H637      1.0  0.61484  0.91201  0.94337  1.0000
  H   H638      1.0  0.35692  0.66647  0.99372  1.0000
  H   H639      1.0  0.50339  0.70141  0.74299  1.0000
  Fe  Fe50      1.0  0.34125  0.67002  0.76721  1.0000
  S   S99       1.0  0.36398  0.64306  0.77034  1.0000
  C   C781      1.0  0.33309  0.54737  0.59259  1.0000
  Fe  Fe51      1.0  0.33066  0.66602  0.84703  1.0000
  S   S100      1.0  0.35400  0.64001  0.85500  1.0000
  H   H640      1.0  0.48591  0.72469  0.62664  1.0000
  Fe  Fe52      1.0  0.38820  0.67207  0.81668  1.0000
  S   S101      1.0  0.43861  0.69114  0.82063  1.0000
  Fe  Fe53      1.0  0.32744  0.61385  0.80798  1.0000
  S   S102      1.0  0.36668  0.69995  0.81241  1.0000
  C   C782      1.0  0.46698  0.72924  0.81914  1.0000
  C   C783      1.0  0.46043  0.75222  0.81817  1.0000
  H   H641      1.0  0.50241  0.71911  0.82068  1.0000
  H   H642      1.0  0.43749  0.74701  0.81802  1.0000
  H   H643      1.0  0.39230  0.57871  0.96855  1.0000
  H   H644      1.0  0.35139  0.72865  0.65567  1.0000
  C   C784      1.0  0.33506  0.67059  0.94775  1.0000
  C   C785      1.0  0.31464  0.97465  0.57316  1.0000
  H   H645      1.0  0.35112  0.67063  0.92969  1.0000
  C   C786      1.0  0.34521  0.54802  0.97272  1.0000
  C   C787      1.0  0.43870  0.72797  0.94430  1.0000
  C   C788      1.0  0.53396  0.86897  0.88445  1.0000
  C   C789      1.0  0.33445  0.68422  0.67471  1.0000
  C   C790      1.0  0.43640  0.82544  0.52206  1.0000
  C   C791      1.0  0.43142  0.74587  0.59337  1.0000
  H   H646      1.0  0.54579  0.71932  0.55403  1.0000
  S   S103      1.0  0.60805  0.76745  0.52411  1.0000
  H   H647      1.0  0.62376  0.97663  0.96378  1.0000
  S   S104      1.0  0.61821  0.87822  0.77117  1.0000
  Fe  Fe54      1.0  0.59275  0.84818  0.81614  1.0000
  S   S105      1.0  0.54198  0.82755  0.81830  1.0000
  S   S106      1.0  0.61624  0.82209  0.81379  1.0000
  C   C792      1.0  0.51370  0.78944  0.81843  1.0000
  C   C793      1.0  0.52028  0.76646  0.81908  1.0000
  C   C794      1.0  0.49705  0.73663  0.81964  1.0000
  C   C795      1.0  0.48364  0.78206  0.81789  1.0000
  H   H648      1.0  0.54323  0.77164  0.81932  1.0000
  H   H649      1.0  0.47825  0.79959  0.81745  1.0000
  C   C796      1.0  0.30846  0.53650  0.71597  1.0000
  C   C797      1.0  0.44085  0.72901  0.72729  1.0000
  H   H650      1.0  0.60214  0.78863  0.87618  1.0000
  C   C798      1.0  0.57286  0.76045  0.72966  1.0000
  C   C799      1.0  0.52877  0.78773  0.55783  1.0000
  H   H651      1.0  0.55803  0.84673  0.74495  1.0000
  H   H652      1.0  0.48456  0.76653  0.72864  1.0000
  Fe  Fe55      1.0  0.32163  0.68822  0.51430  1.0000
  H   H653      1.0  0.50178  0.82084  0.65486  1.0000
  H   H654      1.0  0.40485  0.67898  0.63368  1.0000
  H   H655      1.0  0.44026  0.73213  0.64333  1.0000
  C   C800      1.0  0.31111  0.67300  0.93495  1.0000
  H   H656      1.0  0.40655  0.76231  0.65201  1.0000
  C   C801      1.0  0.31243  0.97848  0.63615  1.0000
  C   C802      1.0  0.61332  0.96197  0.98584  1.0000
  H   H657      1.0  0.46044  0.80223  0.52823  1.0000
  H   H658      1.0  0.42015  0.81369  0.62155  1.0000
  H   H659      1.0  0.41759  0.75110  0.54149  1.0000
  C   C803      1.0  0.56643  0.83599  0.65884  1.0000
  C   C804      1.0  0.33830  0.66827  0.98406  1.0000
  H   H660      1.0  0.48385  0.75425  0.56857  1.0000
  H   H661      1.0  0.53590  0.88646  0.86745  1.0000
  C   C805      1.0  0.37119  0.56771  0.95482  1.0000
  H   H662      1.0  0.53454  0.77236  0.54596  1.0000
  C   C806      1.0  0.54991  0.81785  0.55899  1.0000
  C   C807      1.0  0.50628  0.84367  0.88959  1.0000
  H   H663      1.0  0.61126  0.77049  0.76098  1.0000
  H   H664      1.0  0.57211  0.82561  0.54869  1.0000
  H   H665      1.0  0.58514  0.77997  0.71357  1.0000
  C   C808      1.0  0.41404  0.83201  0.57437  1.0000
  H   H666      1.0  0.38325  0.69812  0.53236  1.0000
  H   H667      1.0  0.34182  0.56323  0.87383  1.0000
  C   C809      1.0  0.43519  0.68516  0.69858  1.0000
  H   H668      1.0  0.33115  0.54398  0.72406  1.0000
  H   H669      1.0  0.39917  0.68861  0.72183  1.0000
  H   H670      1.0  0.31591  0.63772  0.68508  1.0000
  S   S107      1.0  0.34833  0.73786  0.51802  1.0000
  H   H671      1.0  0.41069  0.84742  0.52309  1.0000
  C   C810      1.0  0.46636  0.71278  0.90705  1.0000
  C   C811      1.0  0.43926  0.70786  0.92051  1.0000
  C   C812      1.0  0.41955  0.83611  0.53841  1.0000
  C   C813      1.0  0.48022  0.81013  0.66726  1.0000
  C   C814      1.0  0.49265  0.75833  0.94080  1.0000
  C   C815      1.0  0.49292  0.73803  0.91678  1.0000
  P   P27       1.0  0.52661  0.79213  0.95184  1.0000
  C   C816      1.0  0.52937  0.82229  0.92565  1.0000
  C   C817      1.0  0.39581  0.70563  0.55650  1.0000
  C   C818      1.0  0.33449  0.69713  0.61313  1.0000
  C   C819      1.0  0.54226  0.83798  0.57279  1.0000
  C   C820      1.0  0.42275  0.69985  0.71618  1.0000
  H   H672      1.0  0.55856  0.86142  0.57299  1.0000
  C   C821      1.0  0.50010  0.77755  0.57096  1.0000
  C   C822      1.0  0.55935  0.87107  0.89982  1.0000
  C   C823      1.0  0.32112  0.65432  0.66516  1.0000
  C   C824      1.0  0.33002  0.79221  0.56920  1.0000
  C   C825      1.0  0.31413  0.64590  0.62975  1.0000
  C   C826      1.0  0.55865  0.78803  0.94344  1.0000
  C   C827      1.0  0.63118  0.72913  0.62164  1.0000
  H   H673      1.0  0.35257  0.77110  0.59212  1.0000
  S   S108      1.0  0.30600  0.67591  0.88949  1.0000
  C   C828      1.0  0.59394  0.78697  0.90255  1.0000
  C   C829      1.0  0.56907  0.78999  0.90906  1.0000
  H   H674      1.0  0.46671  0.69737  0.88820  1.0000
  H   H675      1.0  0.41868  0.68869  0.91199  1.0000
  C   C830      1.0  0.32190  0.53966  0.55856  1.0000
  C   C831      1.0  0.39202  0.68517  0.58234  1.0000
  H   H676      1.0  0.51341  0.74166  0.90503  1.0000
  C   C832      1.0  0.51303  0.71947  0.58839  1.0000
  C   C833      1.0  0.55143  0.80501  0.65824  1.0000
  H   H677      1.0  0.40116  0.84046  0.58712  1.0000
  H   H678      1.0  0.45005  0.80478  0.74800  1.0000
  C   C834      1.0  0.55716  0.84781  0.92025  1.0000
  C   C835      1.0  0.46527  0.75314  0.95440  1.0000
  S   S109      1.0  0.34243  0.69620  0.71887  1.0000
  C   C836      1.0  0.60888  0.78254  0.93018  1.0000
  H   H679      1.0  0.32456  0.60180  0.92530  1.0000
  C   C837      1.0  0.33164  0.77083  0.58953  1.0000
  C   C838      1.0  0.51366  0.82791  0.58604  1.0000
  H   H680      1.0  0.55807  0.79393  0.88730  1.0000
  C   C839      1.0  0.57370  0.78331  0.97110  1.0000
  C   C840      1.0  0.54231  0.80428  0.72053  1.0000
  C   C841      1.0  0.42805  0.72505  0.61892  1.0000
  C   C842      1.0  0.36995  0.57332  0.91927  1.0000
  H   H681      1.0  0.58395  0.72680  0.79956  1.0000
  C   C843      1.0  0.40818  0.69486  0.61351  1.0000
  H   H682      1.0  0.49598  0.71136  0.56824  1.0000
  S   S110      1.0  0.62461  0.88040  0.85625  1.0000
  C   C844      1.0  0.53925  0.78885  0.68920  1.0000
  C   C845      1.0  0.34112  0.70551  0.64850  1.0000
  H   H683      1.0  0.40403  0.77083  0.71505  1.0000
  C   C846      1.0  0.41537  0.73584  0.56192  1.0000
  C   C847      1.0  0.34280  0.55900  0.90149  1.0000
  H   H684      1.0  0.43136  0.73968  0.74274  1.0000
  H   H685      1.0  0.34003  0.71376  0.59321  1.0000
  H   H686      1.0  0.58062  0.87507  0.69053  1.0000
  P   P28       1.0  0.52310  0.74901  0.69002  1.0000
  H   H687      1.0  0.52998  0.69233  0.79010  1.0000
  C   C848      1.0  0.58778  0.75516  0.75664  1.0000
  H   H688      1.0  0.48235  0.80081  0.91273  1.0000
  C   C849      1.0  0.57239  0.73058  0.77835  1.0000
  H   H689      1.0  0.57244  0.93397  0.95816  1.0000
  C   C850      1.0  0.55786  0.74198  0.63925  1.0000
  C   C851      1.0  0.44771  0.81063  0.54157  1.0000
  C   C852      1.0  0.31767  0.53406  0.95529  1.0000
  C   C853      1.0  0.47117  0.74413  0.71926  1.0000
  H   H690      1.0  0.33487  0.53654  0.53850  1.0000
  C   C854      1.0  0.31656  0.55180  0.61831  1.0000
  C   C855      1.0  0.48369  0.73009  0.69998  1.0000
  H   H691      1.0  0.57708  0.84832  0.63532  1.0000
  C   C856      1.0  0.52956  0.73749  0.64770  1.0000
  H   H692      1.0  0.37618  0.66187  0.57831  1.0000
  C   C857      1.0  0.42683  0.77723  0.66592  1.0000
  H   H693      1.0  0.39004  0.58871  0.90542  1.0000
  C   C858      1.0  0.50395  0.82040  0.91004  1.0000
  C   C859      1.0  0.54205  0.71117  0.77296  1.0000
  H   H694      1.0  0.50794  0.84387  0.59611  1.0000
  H   H695      1.0  0.57579  0.75144  0.65814  1.0000
  H   H696      1.0  0.42129  0.66210  0.69133  1.0000
  H   H697      1.0  0.34950  0.80878  0.55550  1.0000
  C   C860      1.0  0.44171  0.80575  0.57753  1.0000
  H   H698      1.0  0.57721  0.84948  0.93116  1.0000
  H   H699      1.0  0.53451  0.79256  0.74511  1.0000
  C   C861      1.0  0.45429  0.79122  0.64833  1.0000
  C   C862      1.0  0.56366  0.73552  0.60559  1.0000
  C   C863      1.0  0.50736  0.72676  0.62169  1.0000
  C   C864      1.0  0.52701  0.71640  0.74599  1.0000
  C   C865      1.0  0.46558  0.70009  0.69079  1.0000
  C   C866      1.0  0.49251  0.79752  0.58592  1.0000
  H   H700      1.0  0.41760  0.72424  0.95449  1.0000
  H   H701      1.0  0.48675  0.84162  0.87671  1.0000
  C   C867      1.0  0.55622  0.83516  0.72067  1.0000
  H   H702      1.0  0.55039  0.79406  0.63377  1.0000
  C   C868      1.0  0.56864  0.85106  0.68997  1.0000
  C   C869      1.0  0.54120  0.72400  0.58029  1.0000
  H   H703      1.0  0.49861  0.82969  0.71755  1.0000
  P   P29       1.0  0.45524  0.78508  0.60173  1.0000
  C   C870      1.0  0.42494  0.81676  0.59388  1.0000
  H   H704      1.0  0.47498  0.68818  0.67776  1.0000
  C   C871      1.0  0.54235  0.74110  0.72403  1.0000
  C   C872      1.0  0.47856  0.81519  0.70298  1.0000
  C   C873      1.0  0.45115  0.80123  0.72017  1.0000
  C   C874      1.0  0.42528  0.78220  0.70164  1.0000
  H   H705      1.0  0.58579  0.74014  0.59877  1.0000
  H   H706      1.0  0.46438  0.76883  0.97230  1.0000
  H   H707      1.0  0.32542  0.55818  0.64458  1.0000
  C   C875      1.0  0.59881  0.78077  0.96444  1.0000
  H   H708      1.0  0.35473  0.55021  0.59895  1.0000
  H   H709      1.0  0.31128  0.57826  0.72786  1.0000
  H   H710      1.0  0.58083  0.89028  0.89464  1.0000
  C   C876      1.0  0.31679  0.53935  0.91930  1.0000
  S   S111      1.0  0.30622  0.56330  0.80822  1.0000
  H   H711      1.0  0.60893  0.71010  0.62268  1.0000
  H   H712      1.0  0.55766  0.84747  0.99245  1.0000
  H   H713      1.0  0.63003  0.85781  0.93231  1.0000
  H   H714      1.0  0.61095  0.77818  0.98594  1.0000
  H   H715      1.0  0.63149  0.79751  0.60028  1.0000
  S   S112      1.0  0.31042  0.65579  0.55958  1.0000
  C   C877      1.0  0.58445  0.93789  0.98263  1.0000
  C   C878      1.0  0.63572  0.81012  0.65492  1.0000
  H   H716      1.0  0.62885  0.78141  0.92508  1.0000
  H   H717      1.0  0.63273  0.78924  0.66417  1.0000
  H   H718      1.0  0.63658  0.73287  0.67770  1.0000
  Fe  Fe56      1.0  0.63227  0.81672  0.51746  1.0000
  H   H719      1.0  0.63259  0.73069  0.56512  1.0000
  C   C879      1.0  0.30601  0.74842  0.60545  1.0000
  H   H720      1.0  0.30752  0.73172  0.62059  1.0000
  C   C880      1.0  0.63506  0.81478  0.61870  1.0000
  H   H721      1.0  0.62025  0.85882  0.99592  1.0000
  Fe  Fe57      1.0  0.83107  0.20503  0.45094  1.0000
  S   S113      1.0  0.85672  0.25453  0.44720  1.0000
  S   S114      1.0  0.80631  0.17360  0.40559  1.0000
  C   C881      1.0  0.65448  0.32143  0.28826  1.0000
  H   H722      1.0  0.68852  0.99219  0.18509  1.0000
  H   H723      1.0  0.86232  0.16593  0.38525  1.0000
  Fe  Fe58      1.0  0.79752  0.15429  0.11859  1.0000
  S   S115      1.0  0.74745  0.12915  0.11918  1.0000
  S   S116      1.0  0.82794  0.16205  0.07186  1.0000
  Fe  Fe59      1.0  0.80131  0.16397  0.19846  1.0000
  S   S117      1.0  0.75173  0.13864  0.20422  1.0000
  S   S118      1.0  0.83436  0.18990  0.24187  1.0000
  Fe  Fe60      1.0  0.75256  0.10567  0.16614  1.0000
  S   S119      1.0  0.72257  0.05549  0.17446  1.0000
  Fe  Fe61      1.0  0.75158  0.16462  0.15711  1.0000
  S   S120      1.0  0.72160  0.18539  0.15798  1.0000
  S   S121      1.0  0.80246  0.12940  0.16396  1.0000
  S   S122      1.0  0.80120  0.19126  0.15286  1.0000
  C   C882      1.0  0.95930  0.18887  0.37108  1.0000
  S   S123      1.0  0.66990  0.35102  0.40364  1.0000
  Fe  Fe62      1.0  0.72598  0.34155  0.15274  1.0000
  S   S124      1.0  0.67658  0.31243  0.15155  1.0000
  S   S125      1.0  0.75699  0.32207  0.14868  1.0000
  Fe  Fe63      1.0  0.72105  0.39811  0.16484  1.0000
  S   S126      1.0  0.67127  0.37146  0.16540  1.0000
  S   S127      1.0  0.74732  0.44866  0.17415  1.0000
  Fe  Fe64      1.0  0.67651  0.33863  0.19841  1.0000
  Fe  Fe65      1.0  0.67587  0.34775  0.11842  1.0000
  S   S128      1.0  0.72617  0.36649  0.20114  1.0000
  S   S129      1.0  0.72578  0.37578  0.11623  1.0000
  C   C883      1.0  0.74685  0.04029  0.25575  1.0000
  C   C884      1.0  0.67579  0.34182  0.01552  1.0000
  H   H724      1.0  0.89652  0.29306  0.34189  1.0000
  H   H725      1.0  0.69152  0.34099  0.03337  1.0000
  C   C885      1.0  0.66466  0.33760  0.35998  1.0000
  C   C886      1.0  0.68569  0.35477  0.33440  1.0000
  C   C887      1.0  0.68068  0.34676  0.29873  1.0000
  H   H726      1.0  0.83057  0.13730  0.43456  1.0000
  H   H727      1.0  0.70572  0.37468  0.34221  1.0000
  H   H728      1.0  0.69684  0.36042  0.27930  1.0000
  C   C888      1.0  0.85575  0.28296  0.17460  1.0000
  H   H729      1.0  0.73397  0.31451  0.07871  1.0000
  C   C889      1.0  0.71026  0.99730  0.17588  1.0000
  C   C890      1.0  0.73190  0.02700  0.16904  1.0000
  C   C891      1.0  0.76020  0.03317  0.15833  1.0000
  C   C892      1.0  0.76660  0.00998  0.15426  1.0000
  H   H730      1.0  0.68970  0.44572  0.16183  1.0000
  C   C893      1.0  0.96760  0.27266  0.48128  1.0000
  H   H731      1.0  0.77719  0.05582  0.15319  1.0000
  H   H732      1.0  0.78859  0.01509  0.14599  1.0000
  C   C894      1.0  0.73228  0.22366  0.15609  1.0000
  C   C895      1.0  0.71007  0.23158  0.15794  1.0000
  C   C896      1.0  0.71723  0.26149  0.15595  1.0000
  C   C897      1.0  0.74683  0.28400  0.15212  1.0000
  C   C898      1.0  0.76910  0.27612  0.15065  1.0000
  C   C899      1.0  0.76195  0.24619  0.15255  1.0000
  H   H733      1.0  0.68711  0.21437  0.16080  1.0000
  H   H734      1.0  0.69986  0.26714  0.15745  1.0000
  H   H735      1.0  0.79208  0.29330  0.14789  1.0000
  H   H736      1.0  0.77937  0.24058  0.15128  1.0000
  C   C900      1.0  0.81911  0.16242  0.02706  1.0000
  C   C901      1.0  0.85624  0.23596  0.03217  1.0000
  H   H737      1.0  0.67113  0.00562  0.13486  1.0000
  H   H738      1.0  0.77545  0.15601  0.03596  1.0000
  S   S130      1.0  0.86428  0.20280  0.48716  1.0000
  H   H739      1.0  0.73799  0.44065  0.34875  1.0000
  P   P30       1.0  0.64978  0.41781  0.27706  1.0000
  H   H740      1.0  0.68497  0.27480  0.09792  1.0000
  H   H741      1.0  0.66015  0.03980  0.16699  1.0000
  C   C902      1.0  0.89741  0.15117  0.46690  1.0000
  H   H742      1.0  0.81574  0.36948  0.04764  1.0000
  H   H743      1.0  0.76038  0.00439  0.07046  1.0000
  C   C903      1.0  0.81420  0.17943  0.36015  1.0000
  C   C904      1.0  0.79480  0.15766  0.33638  1.0000
  C   C905      1.0  0.80026  0.16096  0.30008  1.0000
  C   C906      1.0  0.82555  0.18589  0.28717  1.0000
  C   C907      1.0  0.84502  0.20771  0.31092  1.0000
  C   C908      1.0  0.83928  0.20466  0.34723  1.0000
  H   H744      1.0  0.77541  0.13804  0.34612  1.0000
  H   H745      1.0  0.78519  0.14395  0.28215  1.0000
  H   H746      1.0  0.86475  0.22698  0.30120  1.0000
  H   H747      1.0  0.85439  0.22159  0.36519  1.0000
  H   H748      1.0  0.68778  0.43313  0.33928  1.0000
  H   H749      1.0  0.94215  0.15362  0.33237  1.0000
  H   H750      1.0  0.93865  0.17908  0.01997  1.0000
  H   H751      1.0  0.88151  0.30637  0.39761  1.0000
  C   C909      1.0  0.83630  0.23239  0.05881  1.0000
  C   C910      1.0  0.76053  0.00540  0.27843  1.0000
  H   H752      1.0  0.69239  0.41310  0.23042  1.0000
  H   H753      1.0  0.68398  0.01551  0.07049  1.0000
  H   H754      1.0  0.74497  0.32479  0.01554  1.0000
  C   C911      1.0  0.81231  0.23673  0.05193  1.0000
  S   S131      1.0  0.64627  0.31159  0.24347  1.0000
  H   H755      1.0  0.65212  0.16027  0.00232  1.0000
  C   C912      1.0  0.96131  0.24321  0.48179  1.0000
  C   C913      1.0  0.73036  0.98425  0.28329  1.0000
  C   C914      1.0  0.93746  0.23130  0.37613  1.0000
  C   C915      1.0  0.72347  0.30694  0.02377  1.0000
  H   H756      1.0  0.79189  0.04924  0.26004  1.0000
  H   H757      1.0  0.85412  0.24272  0.19170  1.0000
  H   H758      1.0  0.67642  0.21909  0.43214  1.0000
  H   H759      1.0  0.86136  0.16884  0.00940  1.0000
  C   C916      1.0  0.66214  0.23149  0.38493  1.0000
  C   C917      1.0  0.79881  0.32486  0.06590  1.0000
  C   C918      1.0  0.78935  0.29552  0.05653  1.0000
  C   C919      1.0  0.74546  0.22421  0.03544  1.0000
  C   C920      1.0  0.73974  0.19513  0.04018  1.0000
  C   C921      1.0  0.71609  0.17542  0.06124  1.0000
  C   C922      1.0  0.69778  0.18452  0.07724  1.0000
  C   C923      1.0  0.70288  0.21319  0.07186  1.0000
  C   C924      1.0  0.72633  0.23284  0.05058  1.0000
  H   H760      1.0  0.83886  0.22514  0.08451  1.0000
  Fe  Fe66      1.0  0.64640  0.32165  0.45063  1.0000
  C   C925      1.0  0.80855  0.34678  0.04023  1.0000
  C   C926      1.0  0.73649  0.99491  0.07194  1.0000
  H   H761      1.0  0.79695  0.23352  0.07292  1.0000
  H   H762      1.0  0.74285  0.42123  0.24048  1.0000
  H   H763      1.0  0.75218  0.99706  0.35104  1.0000
  H   H764      1.0  0.69806  0.20824  0.24931  1.0000
  C   C927      1.0  0.70677  0.46876  0.16400  1.0000
  C   C928      1.0  0.76868  0.03324  0.26453  1.0000
  H   H765      1.0  0.70002  0.02494  0.25315  1.0000
  C   C929      1.0  0.73636  0.47612  0.16956  1.0000
  H   H766      1.0  0.79854  0.33060  0.09317  1.0000
  H   H767      1.0  0.78217  0.27889  0.07686  1.0000
  C   C930      1.0  0.65072  0.34188  0.02878  1.0000
  H   H768      1.0  0.71246  0.15337  0.06601  1.0000
  H   H769      1.0  0.68012  0.16958  0.09459  1.0000
  H   H770      1.0  0.68899  0.22035  0.08476  1.0000
  H   H771      1.0  0.76933  0.07204  0.99807  1.0000
  C   C931      1.0  0.84042  0.30067  0.37674  1.0000
  C   C932      1.0  0.87595  0.29364  0.34319  1.0000
  C   C933      1.0  0.85779  0.28663  0.31354  1.0000
  C   C934      1.0  0.83093  0.28700  0.31513  1.0000
  C   C935      1.0  0.82212  0.29350  0.34720  1.0000
  P   P31       1.0  0.80629  0.27621  0.27762  1.0000
  C   C936      1.0  0.79003  0.29973  0.27336  1.0000
  C   C937      1.0  0.82642  0.27970  0.23765  1.0000
  C   C938      1.0  0.83397  0.30322  0.21430  1.0000
  C   C939      1.0  0.84851  0.30474  0.18286  1.0000
  C   C940      1.0  0.66715  0.26186  0.04542  1.0000
  C   C941      1.0  0.65784  0.21776  0.41767  1.0000
  C   C942      1.0  0.83382  0.25801  0.22911  1.0000
  C   C943      1.0  0.76521  0.29122  0.25161  1.0000
  C   C944      1.0  0.75448  0.31065  0.24550  1.0000
  C   C945      1.0  0.76820  0.33860  0.26122  1.0000
  C   C946      1.0  0.79317  0.34747  0.28244  1.0000
  C   C947      1.0  0.80425  0.32828  0.28823  1.0000
  C   C948      1.0  0.77828  0.23751  0.28173  1.0000
  C   C949      1.0  0.77447  0.22234  0.31343  1.0000
  C   C950      1.0  0.75475  0.19185  0.31539  1.0000
  C   C951      1.0  0.73849  0.17622  0.28595  1.0000
  C   C952      1.0  0.74200  0.19110  0.25443  1.0000
  C   C953      1.0  0.76198  0.22152  0.25217  1.0000
  H   H772      1.0  0.86473  0.28063  0.28970  1.0000
  H   H773      1.0  0.80095  0.29272  0.34945  1.0000
  H   H774      1.0  0.82839  0.32022  0.21993  1.0000
  H   H775      1.0  0.85389  0.32269  0.16475  1.0000
  H   H776      1.0  0.82803  0.23966  0.24668  1.0000
  H   H777      1.0  0.75469  0.27009  0.23825  1.0000
  H   H778      1.0  0.73597  0.30437  0.22772  1.0000
  H   H779      1.0  0.75986  0.35360  0.25626  1.0000
  H   H780      1.0  0.80435  0.36950  0.29377  1.0000
  H   H781      1.0  0.82440  0.33619  0.30346  1.0000
  H   H782      1.0  0.78733  0.23351  0.33647  1.0000
  H   H783      1.0  0.75295  0.18014  0.33947  1.0000
  H   H784      1.0  0.72379  0.15247  0.28729  1.0000
  H   H785      1.0  0.72979  0.17891  0.23141  1.0000
  H   H786      1.0  0.76533  0.23223  0.22700  1.0000
  C   C954      1.0  0.67365  0.26776  0.00963  1.0000
  C   C955      1.0  0.68692  0.26632  0.30042  1.0000
  C   C956      1.0  0.69555  0.24840  0.31867  1.0000
  P   P32       1.0  0.69894  0.25114  0.36588  1.0000
  C   C957      1.0  0.72800  0.43466  0.32295  1.0000
  C   C958      1.0  0.72112  0.23582  0.38242  1.0000
  C   C959      1.0  0.74958  0.25426  0.39661  1.0000
  C   C960      1.0  0.76610  0.24201  0.41016  1.0000
  C   C961      1.0  0.75429  0.21136  0.41009  1.0000
  C   C962      1.0  0.72582  0.19284  0.39661  1.0000
  C   C963      1.0  0.70931  0.20498  0.38275  1.0000
  C   C964      1.0  0.71684  0.01952  0.26082  1.0000
  H   H787      1.0  0.83355  0.30563  0.40149  1.0000
  C   C965      1.0  0.71637  0.28976  0.37781  1.0000
  C   C966      1.0  0.70839  0.29848  0.40883  1.0000
  C   C967      1.0  0.72155  0.32852  0.41742  1.0000
  C   C968      1.0  0.74259  0.34999  0.39522  1.0000
  C   C969      1.0  0.75106  0.34145  0.36462  1.0000
  C   C970      1.0  0.73820  0.31142  0.35605  1.0000
  H   H788      1.0  0.73814  0.03669  0.06514  1.0000
  C   C971      1.0  0.92774  0.26980  0.39652  1.0000
  H   H789      1.0  0.75896  0.27801  0.39804  1.0000
  H   H790      1.0  0.78781  0.25622  0.42167  1.0000
  H   H791      1.0  0.76713  0.20197  0.42083  1.0000
  H   H792      1.0  0.71663  0.16905  0.39698  1.0000
  H   H793      1.0  0.68718  0.19030  0.37264  1.0000
  C   C972      1.0  0.74353  0.43115  0.29526  1.0000
  H   H794      1.0  0.65138  0.98560  0.01903  1.0000
  H   H795      1.0  0.69192  0.28227  0.42637  1.0000
  H   H796      1.0  0.71493  0.33526  0.44096  1.0000
  H   H797      1.0  0.75205  0.37323  0.40171  1.0000
  H   H798      1.0  0.76733  0.35813  0.34744  1.0000
  H   H799      1.0  0.74501  0.30511  0.33229  1.0000
  H   H800      1.0  0.85272  0.12819  0.48727  1.0000
  C   C973      1.0  0.95516  0.29150  0.38341  1.0000
  H   H801      1.0  0.68263  0.23984  0.21804  1.0000
  H   H802      1.0  0.77776  0.00030  0.28503  1.0000
  P   P33       1.0  0.92648  0.19261  0.37210  1.0000
  C   C974      1.0  0.63895  0.31163  0.34967  1.0000
  C   C975      1.0  0.90598  0.17838  0.33172  1.0000
  C   C976      1.0  0.91035  0.19745  0.30364  1.0000
  C   C977      1.0  0.89431  0.18627  0.27256  1.0000
  C   C978      1.0  0.87369  0.15608  0.26932  1.0000
  C   C979      1.0  0.86940  0.13690  0.29700  1.0000
  C   C980      1.0  0.88564  0.14793  0.32801  1.0000
  C   C981      1.0  0.91893  0.23981  0.39314  1.0000
  C   C982      1.0  0.78901  0.28776  0.02122  1.0000
  H   H803      1.0  0.93926  0.17566  0.44084  1.0000
  P   P34       1.0  0.77679  0.24981  0.00943  1.0000
  C   C983      1.0  0.72393  0.01307  0.06905  1.0000
  C   C984      1.0  0.90319  0.17218  0.40870  1.0000
  C   C985      1.0  0.91558  0.16710  0.43875  1.0000
  C   C986      1.0  0.70855  0.99159  0.27455  1.0000
  H   H804      1.0  0.92576  0.22098  0.30569  1.0000
  C   C987      1.0  0.85426  0.14516  0.43550  1.0000
  C   C988      1.0  0.87240  0.16146  0.40754  1.0000
  C   C989      1.0  0.69936  0.43006  0.31753  1.0000
  C   C990      1.0  0.70183  0.41860  0.25652  1.0000
  C   C991      1.0  0.68215  0.26310  0.26431  1.0000
  H   H805      1.0  0.75311  0.06164  0.24426  1.0000
  H   H806      1.0  0.89704  0.20112  0.25126  1.0000
  H   H807      1.0  0.86057  0.14777  0.24557  1.0000
  H   H808      1.0  0.85316  0.11357  0.29455  1.0000
  H   H809      1.0  0.88208  0.13275  0.34920  1.0000
  H   H810      1.0  0.89791  0.22347  0.40436  1.0000
  H   H811      1.0  0.91389  0.27633  0.41071  1.0000
  C   C992      1.0  0.79206  0.15969  0.01651  1.0000
  C   C993      1.0  0.84039  0.16676  0.00146  1.0000
  H   H812      1.0  0.64561  0.21686  0.12679  1.0000
  C   C994      1.0  0.84857  0.25972  0.19787  1.0000
  C   C995      1.0  0.73051  0.42329  0.26209  1.0000
  C   C996      1.0  0.69971  0.22750  0.29996  1.0000
  H   H813      1.0  0.70655  0.21352  0.31302  1.0000
  Fe  Fe67      1.0  0.88834  0.25247  0.48650  1.0000
  C   C997      1.0  0.68925  0.27870  0.07021  1.0000
  C   C998      1.0  0.71722  0.30123  0.05939  1.0000
  C   C999      1.0  0.69495  0.22441  0.26374  1.0000
  C   C1000     1.0  0.68615  0.24216  0.24601  1.0000
  H   H814      1.0  0.64302  0.37273  0.32722  1.0000
  H   H815      1.0  0.96238  0.31471  0.38748  1.0000
  H   H816      1.0  0.68346  0.28260  0.31415  1.0000
  H   H817      1.0  0.86680  0.28397  0.15016  1.0000
  C   C1001     1.0  0.77979  0.98375  0.00284  1.0000
  C   C1002     1.0  0.64937  0.00331  0.13204  1.0000
  C   C1003     1.0  0.86741  0.30093  0.37465  1.0000
  C   C1004     1.0  0.68591  0.42164  0.28434  1.0000
  H   H818      1.0  0.75389  0.18786  0.02817  1.0000
  C   C1005     1.0  0.96054  0.16770  0.34938  1.0000
  H   H819      1.0  0.76573  0.43472  0.29937  1.0000
  H   H820      1.0  0.72975  0.25483  0.04656  1.0000
  C   C1006     1.0  0.71005  0.25812  0.49612  1.0000
  C   C1007     1.0  0.74845  0.24374  0.49596  1.0000
  S   S132      1.0  0.80935  0.28431  0.49276  1.0000
  C   C1008     1.0  0.80791  0.24435  0.01808  1.0000
  H   H821      1.0  0.72652  0.30499  0.49295  1.0000
  H   H822      1.0  0.67543  0.27696  0.25050  1.0000
  S   S133      1.0  0.93909  0.28240  0.48284  1.0000
  C   C1009     1.0  0.86674  0.14005  0.46520  1.0000
  H   H823      1.0  0.75426  0.99855  0.41547  1.0000
  C   C1010     1.0  0.65474  0.45336  0.26391  1.0000
  C   C1011     1.0  0.96458  0.25324  0.36193  1.0000
  H   H824      1.0  0.87396  0.23118  0.03728  1.0000
  C   C1012     1.0  0.77087  0.27345  0.49357  1.0000
  C   C1013     1.0  0.76259  0.29536  0.49211  1.0000
  H   H825      1.0  0.93845  0.22546  0.48325  1.0000
  C   C1014     1.0  0.85262  0.24455  0.99875  1.0000
  Fe  Fe68      1.0  0.64986  0.27589  0.49625  1.0000
  S   S134      1.0  0.64222  0.33743  0.07423  1.0000
  C   C1015     1.0  0.74474  0.98026  0.16024  1.0000
  C   C1016     1.0  0.68343  0.47812  0.26102  1.0000
  Fe  Fe69      1.0  0.82928  0.25375  0.49334  1.0000
  H   H826      1.0  0.65705  0.20939  0.00937  1.0000
  H   H827      1.0  0.90719  0.14782  0.49027  1.0000
  H   H828      1.0  0.75054  0.01805  0.00053  1.0000
  C   C1017     1.0  0.73241  0.28780  0.49345  1.0000
  H   H829      1.0  0.70288  0.47696  0.26850  1.0000
  S   S135      1.0  0.80208  0.20426  0.49532  1.0000
  H   H830      1.0  0.77969  0.31842  0.49029  1.0000
  H   H831      1.0  0.80866  0.99094  0.04693  1.0000
  C   C1018     1.0  0.69319  0.00097  0.07245  1.0000
  C   C1019     1.0  0.80922  0.33942  0.00514  1.0000
  C   C1020     1.0  0.64265  0.19188  0.02701  1.0000
  H   H832      1.0  0.64194  0.42501  0.20167  1.0000
  C   C1021     1.0  0.64314  0.02275  0.15051  1.0000
  C   C1022     1.0  0.63984  0.16392  0.02280  1.0000
  H   H833      1.0  0.64033  0.24202  0.34345  1.0000
  C   C1023     1.0  0.70173  0.29012  0.99889  1.0000
  Fe  Fe70      1.0  0.83767  0.20672  0.53141  1.0000
  S   S136      1.0  0.86330  0.25652  0.53264  1.0000
  S   S137      1.0  0.82607  0.17510  0.57765  1.0000
  C   C1024     1.0  0.70875  0.98816  0.81574  1.0000
  H   H834      1.0  0.82315  0.26562  0.89281  1.0000
  C   C1025     1.0  0.80410  0.27720  0.84970  1.0000
  C   C1026     1.0  0.72150  0.47753  0.90952  1.0000
  C   C1027     1.0  0.67987  0.34163  0.97903  1.0000
  C   C1028     1.0  0.81523  0.26079  0.86603  1.0000
  H   H835      1.0  0.72100  0.20164  0.68030  1.0000
  H   H836      1.0  0.88444  0.30243  0.71651  1.0000
  C   C1029     1.0  0.78675  0.16216  0.98081  1.0000
  S   S138      1.0  0.66405  0.33861  0.90979  1.0000
  C   C1030     1.0  0.64922  0.16261  0.65154  1.0000
  C   C1031     1.0  0.67639  0.44334  0.69458  1.0000
  C   C1032     1.0  0.96755  0.29033  0.94695  1.0000
  S   S139      1.0  0.67105  0.45139  0.81657  1.0000
  S   S140      1.0  0.67352  0.37478  0.81890  1.0000
  Fe  Fe71      1.0  0.83714  0.17532  0.78605  1.0000
  S   S141      1.0  0.86173  0.15016  0.78461  1.0000
  S   S142      1.0  0.83559  0.20319  0.74113  1.0000
  Fe  Fe72      1.0  0.82653  0.16616  0.86568  1.0000
  S   S143      1.0  0.85134  0.14126  0.86919  1.0000
  S   S144      1.0  0.80201  0.17310  0.91111  1.0000
  Fe  Fe73      1.0  0.88500  0.17648  0.83298  1.0000
  S   S145      1.0  0.93564  0.19821  0.83911  1.0000
  Fe  Fe74      1.0  0.82543  0.11740  0.82061  1.0000
  S   S146      1.0  0.80577  0.06696  0.81607  1.0000
  S   S147      1.0  0.86184  0.20289  0.83311  1.0000
  S   S148      1.0  0.79921  0.14110  0.81852  1.0000
  H   H837      1.0  0.81064  0.98275  0.85266  1.0000
  C   C1033     1.0  0.92678  0.19346  0.93657  1.0000
  C   C1034     1.0  0.76236  0.00781  0.81282  1.0000
  C   C1035     1.0  0.76808  0.03717  0.81573  1.0000
  C   C1036     1.0  0.74386  0.04183  0.81894  1.0000
  C   C1037     1.0  0.71447  0.01751  0.81894  1.0000
  H   H838      1.0  0.72717  0.45057  0.80951  1.0000
  H   H839      1.0  0.78084  0.00387  0.81030  1.0000
  H   H840      1.0  0.74776  0.06418  0.82132  1.0000
  H   H841      1.0  0.69599  0.02147  0.82123  1.0000
  P   P35       1.0  0.96158  0.24797  0.69124  1.0000
  S   S149      1.0  0.67178  0.24735  0.50085  1.0000
  C   C1038     1.0  0.81597  0.23789  0.84788  1.0000
  H   H842      1.0  0.93375  0.25338  0.82995  1.0000
  H   H843      1.0  0.69497  0.44544  0.74564  1.0000
  C   C1039     1.0  0.65928  0.34197  0.95535  1.0000
  Fe  Fe75      1.0  0.64955  0.40068  0.81906  1.0000
  H   H844      1.0  0.89119  0.21680  0.59172  1.0000
  C   C1040     1.0  0.74746  0.25341  0.95005  1.0000
  H   H845      1.0  0.77633  0.06984  0.88617  1.0000
  C   C1041     1.0  0.69999  0.26035  0.59189  1.0000
  H   H846      1.0  0.72422  0.25579  0.90445  1.0000
  C   C1042     1.0  0.92167  0.23110  0.63540  1.0000
  C   C1043     1.0  0.75659  0.02922  0.97555  1.0000
  C   C1044     1.0  0.74072  0.22560  0.89653  1.0000
  H   H847      1.0  0.79544  0.00100  0.90369  1.0000
  C   C1045     1.0  0.80835  0.16724  0.95530  1.0000
  C   C1046     1.0  0.83503  0.16904  0.96575  1.0000
  H   H848      1.0  0.76579  0.16008  0.97294  1.0000
  H   H849      1.0  0.85183  0.17292  0.94644  1.0000
  C   C1047     1.0  0.83139  0.18378  0.62302  1.0000
  C   C1048     1.0  0.82319  0.16077  0.64737  1.0000
  C   C1049     1.0  0.82564  0.16649  0.68370  1.0000
  C   C1050     1.0  0.83589  0.19528  0.69600  1.0000
  C   C1051     1.0  0.84466  0.21831  0.67166  1.0000
  C   C1052     1.0  0.84268  0.21273  0.63541  1.0000
  H   H850      1.0  0.81458  0.13831  0.63808  1.0000
  H   H851      1.0  0.81872  0.14849  0.70212  1.0000
  H   H852      1.0  0.85309  0.24063  0.68090  1.0000
  H   H853      1.0  0.84979  0.23083  0.61716  1.0000
  H   H854      1.0  0.77885  0.25399  0.67886  1.0000
  H   H855      1.0  0.82657  0.25615  0.96589  1.0000
  C   C1053     1.0  0.79339  0.27048  0.81533  1.0000
  H   H856      1.0  0.69902  0.34100  0.96902  1.0000
  C   C1054     1.0  0.73492  0.47251  0.96876  1.0000
  H   H857      1.0  0.96760  0.33410  0.75318  1.0000
  C   C1055     1.0  0.96345  0.23587  0.83161  1.0000
  C   C1056     1.0  0.96430  0.29667  0.72521  1.0000
  C   C1057     1.0  0.69618  0.45764  0.72214  1.0000
  P   P36       1.0  0.69603  0.20753  0.61374  1.0000
  C   C1058     1.0  0.73328  0.21431  0.60562  1.0000
  C   C1059     1.0  0.74066  0.19244  0.61369  1.0000
  C   C1060     1.0  0.76861  0.19654  0.60499  1.0000
  C   C1061     1.0  0.78929  0.22229  0.58786  1.0000
  C   C1062     1.0  0.78224  0.24414  0.57973  1.0000
  C   C1063     1.0  0.75437  0.24022  0.58850  1.0000
  H   H858      1.0  0.95397  0.27342  0.96579  1.0000
  C   C1064     1.0  0.69671  0.24224  0.62060  1.0000
  C   C1065     1.0  0.68518  0.16536  0.70754  1.0000
  H   H859      1.0  0.86779  0.24674  0.97798  1.0000
  C   C1066     1.0  0.69636  0.29557  0.62988  1.0000
  C   C1067     1.0  0.69288  0.27765  0.65870  1.0000
  C   C1068     1.0  0.69317  0.25109  0.65418  1.0000
  H   H860      1.0  0.72457  0.17172  0.62560  1.0000
  H   H861      1.0  0.77406  0.17940  0.61053  1.0000
  H   H862      1.0  0.81052  0.22493  0.58010  1.0000
  H   H863      1.0  0.79813  0.26379  0.56565  1.0000
  H   H864      1.0  0.74929  0.25711  0.58073  1.0000
  H   H865      1.0  0.79227  0.00663  0.99460  1.0000
  H   H866      1.0  0.84494  0.27114  0.75818  1.0000
  C   C1069     1.0  0.69979  0.28684  0.59645  1.0000
  H   H867      1.0  0.69608  0.31609  0.63337  1.0000
  H   H868      1.0  0.68960  0.28433  0.68443  1.0000
  H   H869      1.0  0.69034  0.23750  0.67679  1.0000
  H   H870      1.0  0.93674  0.30652  0.94321  1.0000
  C   C1070     1.0  0.92162  0.17856  0.96842  1.0000
  H   H871      1.0  0.70016  0.43738  0.87886  1.0000
  S   S150      1.0  0.64128  0.31714  0.73692  1.0000
  H   H872      1.0  0.78499  0.28356  0.80315  1.0000
  C   C1071     1.0  0.76694  0.05971  0.97422  1.0000
  H   H873      1.0  0.75719  0.01613  0.88814  1.0000
  C   C1072     1.0  0.80573  0.23140  0.81333  1.0000
  C   C1073     1.0  0.77434  0.07441  0.94206  1.0000
  H   H874      1.0  0.74325  0.26860  0.96502  1.0000
  H   H875      1.0  0.95640  0.23190  0.90686  1.0000
  C   C1074     1.0  0.70968  0.44713  0.90409  1.0000
  C   C1075     1.0  0.91328  0.23267  0.60102  1.0000
  H   H876      1.0  0.75904  0.19641  0.89679  1.0000
  C   C1076     1.0  0.63897  0.32577  0.69254  1.0000
  H   H877      1.0  0.94382  0.19370  0.65004  1.0000
  H   H878      1.0  0.70200  0.30041  0.57389  1.0000
  H   H879      1.0  0.72370  0.42825  0.98404  1.0000
  H   H880      1.0  0.70079  0.40570  0.92683  1.0000
  C   C1077     1.0  0.72301  0.44205  0.96330  1.0000
  H   H881      1.0  0.80097  0.30487  0.96847  1.0000
  C   C1078     1.0  0.67794  0.45908  0.66433  1.0000
  C   C1079     1.0  0.94384  0.20168  0.73870  1.0000
  C   C1080     1.0  0.67918  0.16919  0.55620  1.0000
  H   H882      1.0  0.73223  0.21984  0.87004  1.0000
  C   C1081     1.0  0.76706  0.22001  0.94555  1.0000
  H   H883      1.0  0.69915  0.16591  0.72885  1.0000
  H   H884      1.0  0.69729  0.16550  0.56299  1.0000
  C   C1082     1.0  0.73639  0.24596  0.91586  1.0000
  C   C1083     1.0  0.67381  0.18904  0.57551  1.0000
  C   C1084     1.0  0.76358  0.24105  0.96483  1.0000
  H   H885      1.0  0.96710  0.34541  0.89978  1.0000
  C   C1085     1.0  0.75584  0.21247  0.91151  1.0000
  C   C1086     1.0  0.82888  0.24932  0.99187  1.0000
  H   H886      1.0  0.74860  0.18475  0.79590  1.0000
  H   H887      1.0  0.81885  0.28486  0.63735  1.0000
  C   C1087     1.0  0.64974  0.19280  0.56609  1.0000
  H   H888      1.0  0.87162  0.30936  0.65605  1.0000
  C   C1088     1.0  0.65490  0.14431  0.70756  1.0000
  C   C1089     1.0  0.69752  0.18529  0.67975  1.0000
  C   C1090     1.0  0.75420  0.01334  0.94479  1.0000
  H   H889      1.0  0.66599  0.13928  0.51221  1.0000
  H   H890      1.0  0.82434  0.22501  0.86074  1.0000
  H   H891      1.0  0.70247  0.25381  0.56585  1.0000
  H   H892      1.0  0.90557  0.21416  0.65264  1.0000
  S   S151      1.0  0.63970  0.35016  0.57661  1.0000
  H   H893      1.0  0.90133  0.15755  0.97213  1.0000
  C   C1091     1.0  0.94702  0.20970  0.70325  1.0000
  C   C1092     1.0  0.95668  0.25862  0.82883  1.0000
  C   C1093     1.0  0.71015  0.42932  0.93106  1.0000
  C   C1094     1.0  0.94038  0.18794  0.67751  1.0000
  C   C1095     1.0  0.92924  0.15836  0.68712  1.0000
  C   C1096     1.0  0.92535  0.15044  0.72245  1.0000
  C   C1097     1.0  0.76041  0.02806  0.91248  1.0000
  H   H894      1.0  0.68669  0.26684  0.75010  1.0000
  C   C1098     1.0  0.94744  0.26597  0.71941  1.0000
  C   C1099     1.0  0.95068  0.25089  0.64711  1.0000
  H   H895      1.0  0.91071  0.18392  0.91543  1.0000
  C   C1100     1.0  0.92654  0.29406  0.76462  1.0000
  C   C1101     1.0  0.90919  0.26371  0.75804  1.0000
  C   C1102     1.0  0.91942  0.24969  0.73527  1.0000
  H   H896      1.0  0.64542  0.12881  0.72906  1.0000
  C   C1103     1.0  0.95281  0.22061  0.93171  1.0000
  H   H897      1.0  0.70628  0.29504  0.97128  1.0000
  C   C1104     1.0  0.95400  0.31059  0.74801  1.0000
  H   H898      1.0  0.78257  0.09808  0.94096  1.0000
  Fe  Fe76      1.0  0.64283  0.34907  0.86348  1.0000
  C   C1105     1.0  0.96176  0.27530  0.59042  1.0000
  H   H899      1.0  0.92362  0.14158  0.66715  1.0000
  H   H900      1.0  0.91655  0.12751  0.72997  1.0000
  C   C1106     1.0  0.67975  0.18355  0.65110  1.0000
  H   H901      1.0  0.77830  0.20920  0.95670  1.0000
  H   H902      1.0  0.93030  0.16605  0.77562  1.0000
  C   C1107     1.0  0.93298  0.17214  0.74820  1.0000
  H   H903      1.0  0.91871  0.30470  0.78268  1.0000
  H   H904      1.0  0.88786  0.25087  0.77080  1.0000
  H   H905      1.0  0.90547  0.22614  0.73037  1.0000
  C   C1108     1.0  0.79357  0.24711  0.79707  1.0000
  P   P37       1.0  0.77954  0.23849  0.75264  1.0000
  C   C1109     1.0  0.76490  0.19949  0.74326  1.0000
  C   C1110     1.0  0.74962  0.24673  0.74961  1.0000
  C   C1111     1.0  0.72118  0.22649  0.76227  1.0000
  C   C1112     1.0  0.69849  0.23356  0.76199  1.0000
  C   C1113     1.0  0.70416  0.26115  0.74979  1.0000
  C   C1114     1.0  0.73249  0.28159  0.73756  1.0000
  C   C1115     1.0  0.75516  0.27450  0.73753  1.0000
  C   C1116     1.0  0.76784  0.19007  0.70971  1.0000
  C   C1117     1.0  0.75749  0.16008  0.70298  1.0000
  C   C1118     1.0  0.74424  0.13922  0.72964  1.0000
  C   C1119     1.0  0.74089  0.14826  0.76296  1.0000
  C   C1120     1.0  0.75099  0.17821  0.76973  1.0000
  C   C1121     1.0  0.80882  0.26097  0.72206  1.0000
  C   C1122     1.0  0.83880  0.27467  0.73230  1.0000
  C   C1123     1.0  0.86133  0.29242  0.70870  1.0000
  C   C1124     1.0  0.85411  0.29620  0.67456  1.0000
  C   C1125     1.0  0.82436  0.28231  0.66400  1.0000
  C   C1126     1.0  0.80177  0.26480  0.68762  1.0000
  H   H906      1.0  0.80714  0.21396  0.79953  1.0000
  H   H907      1.0  0.71656  0.20544  0.77296  1.0000
  H   H908      1.0  0.67656  0.21783  0.77174  1.0000
  C   C1127     1.0  0.93337  0.25460  0.57848  1.0000
  H   H909      1.0  0.73697  0.30314  0.72845  1.0000
  H   H910      1.0  0.77714  0.29105  0.72888  1.0000
  H   H911      1.0  0.77922  0.20574  0.68895  1.0000
  H   H912      1.0  0.76101  0.15321  0.67746  1.0000
  H   H913      1.0  0.73727  0.11615  0.72468  1.0000
  H   H914      1.0  0.73124  0.13211  0.78380  1.0000
  C   C1128     1.0  0.77086  0.05853  0.91121  1.0000
  H   H915      1.0  0.80366  0.29507  0.86373  1.0000
  H   H916      1.0  0.92688  0.25566  0.55179  1.0000
  C   C1129     1.0  0.66133  0.15410  0.52736  1.0000
  C   C1130     1.0  0.95775  0.30917  0.93436  1.0000
  H   H917      1.0  0.70124  0.21320  0.49917  1.0000
  H   H918      1.0  0.94972  0.21819  0.75908  1.0000
  H   H919      1.0  0.81720  0.35654  0.98533  1.0000
  H   H920      1.0  0.65685  0.25544  0.98997  1.0000
  C   C1131     1.0  0.63940  0.30726  0.66599  1.0000
  C   C1132     1.0  0.73232  0.47336  0.81136  1.0000
  C   C1133     1.0  0.73298  0.98347  0.81296  1.0000
  H   H921      1.0  0.64488  0.20775  0.58059  1.0000
  H   H922      1.0  0.66292  0.44771  0.64280  1.0000
  H   H923      1.0  0.65999  0.42002  0.69665  1.0000
  H   H924      1.0  0.64029  0.28763  0.67300  1.0000
  C   C1134     1.0  0.97030  0.27375  0.62478  1.0000
  C   C1135     1.0  0.94269  0.19073  0.99532  1.0000
  C   C1136     1.0  0.96891  0.21784  0.99044  1.0000
  H   H925      1.0  0.63954  0.29979  0.61020  1.0000
  C   C1137     1.0  0.63891  0.31405  0.63039  1.0000
  C   C1138     1.0  0.79973  0.31005  0.99566  1.0000
  C   C1139     1.0  0.63821  0.33962  0.62100  1.0000
  C   C1140     1.0  0.71830  0.23620  0.49715  1.0000
  S   S152      1.0  0.67436  0.32552  0.49781  1.0000
  H   H926      1.0  0.75434  0.22657  0.49709  1.0000
  Fe  Fe77      1.0  0.81525  0.69005  0.44295  1.0000
  S   S153      1.0  0.84212  0.73971  0.44366  1.0000
  S   S154      1.0  0.78760  0.66313  0.39598  1.0000
  S   S155      1.0  0.92511  0.76340  0.47278  1.0000
  H   H927      1.0  0.76258  0.59689  0.04820  1.0000
  C   C1141     1.0  0.75325  0.78217  0.49316  1.0000
  Fe  Fe78      1.0  0.78918  0.64686  0.10935  1.0000
  S   S156      1.0  0.73927  0.62377  0.10709  1.0000
  S   S157      1.0  0.82072  0.65214  0.06472  1.0000
  Fe  Fe79      1.0  0.78991  0.65729  0.18918  1.0000
  S   S158      1.0  0.74000  0.63420  0.19178  1.0000
  S   S159      1.0  0.82246  0.68096  0.23417  1.0000
  Fe  Fe80      1.0  0.74082  0.59984  0.15568  1.0000
  S   S160      1.0  0.71020  0.54918  0.16071  1.0000
  Fe  Fe81      1.0  0.74352  0.66029  0.14328  1.0000
  S   S161      1.0  0.71590  0.68344  0.13862  1.0000
  S   S162      1.0  0.79059  0.62158  0.15646  1.0000
  S   S163      1.0  0.79324  0.68468  0.14205  1.0000
  H   H928      1.0  0.67624  0.48525  0.15708  1.0000
  C   C1142     1.0  0.82711  0.54959  0.28775  1.0000
  Fe  Fe82      1.0  0.72127  0.84121  0.14329  1.0000
  S   S164      1.0  0.67144  0.81622  0.13794  1.0000
  S   S165      1.0  0.75131  0.82042  0.14652  1.0000
  Fe  Fe83      1.0  0.72292  0.90155  0.15220  1.0000
  S   S166      1.0  0.67334  0.87959  0.14945  1.0000
  S   S167      1.0  0.75404  0.95190  0.15406  1.0000
  Fe  Fe84      1.0  0.67249  0.84401  0.18375  1.0000
  Fe  Fe85      1.0  0.67698  0.85409  0.10386  1.0000
  S   S168      1.0  0.72202  0.86798  0.19028  1.0000
  S   S169      1.0  0.72694  0.87722  0.10548  1.0000
  C   C1143     1.0  0.89160  0.66340  0.30623  1.0000
  C   C1144     1.0  0.75319  0.81579  0.31248  1.0000
  C   C1145     1.0  0.66309  0.50656  0.23513  1.0000
  C   C1146     1.0  0.65679  0.85322  0.01269  1.0000
  H   H929      1.0  0.70659  0.58405  0.31464  1.0000
  C   C1147     1.0  0.67850  0.84827  0.32227  1.0000
  C   C1148     1.0  0.67416  0.84409  0.28581  1.0000
  H   H930      1.0  0.68163  0.63300  0.29339  1.0000
  H   H931      1.0  0.70026  0.86387  0.33238  1.0000
  H   H932      1.0  0.69242  0.85667  0.26807  1.0000
  H   H933      1.0  0.81739  0.81153  0.43532  1.0000
  H   H934      1.0  0.70479  0.58459  0.24953  1.0000
  C   C1149     1.0  0.69993  0.74713  0.48907  1.0000
  C   C1150     1.0  0.72105  0.52154  0.16364  1.0000
  C   C1151     1.0  0.75060  0.52885  0.16935  1.0000
  C   C1152     1.0  0.75811  0.50633  0.17241  1.0000
  H   H935      1.0  0.69947  0.95139  0.17622  1.0000
  C   C1153     1.0  0.74515  0.93656  0.28361  1.0000
  H   H936      1.0  0.76773  0.55187  0.17144  1.0000
  H   H937      1.0  0.78107  0.51243  0.17677  1.0000
  C   C1154     1.0  0.72634  0.72164  0.14230  1.0000
  C   C1155     1.0  0.70424  0.72963  0.13901  1.0000
  C   C1156     1.0  0.71139  0.75957  0.14064  1.0000
  C   C1157     1.0  0.74088  0.78210  0.14552  1.0000
  C   C1158     1.0  0.76296  0.77409  0.14949  1.0000
  C   C1159     1.0  0.75578  0.74410  0.14798  1.0000
  H   H938      1.0  0.68138  0.71253  0.13477  1.0000
  H   H939      1.0  0.69408  0.76521  0.13769  1.0000
  H   H940      1.0  0.78583  0.79125  0.15342  1.0000
  H   H941      1.0  0.77302  0.73839  0.15086  1.0000
  C   C1160     1.0  0.81284  0.65035  0.01930  1.0000
  C   C1161     1.0  0.75867  0.79288  0.38051  1.0000
  H   H942      1.0  0.71300  0.78569  0.21835  1.0000
  H   H943      1.0  0.77397  0.65468  0.02478  1.0000
  C   C1162     1.0  0.63840  0.74448  0.36162  1.0000
  H   H944      1.0  0.66360  0.69625  0.39512  1.0000
  H   H945      1.0  0.69237  0.90247  0.35494  1.0000
  H   H946      1.0  0.72782  0.67077  0.32442  1.0000
  C   C1163     1.0  0.65932  0.71124  0.26369  1.0000
  H   H947      1.0  0.71730  0.87147  0.43389  1.0000
  H   H948      1.0  0.72448  0.55746  0.08566  1.0000
  C   C1164     1.0  0.76480  0.75051  0.39256  1.0000
  C   C1165     1.0  0.79753  0.67072  0.35117  1.0000
  C   C1166     1.0  0.77555  0.65570  0.32557  1.0000
  C   C1167     1.0  0.78267  0.65927  0.28965  1.0000
  C   C1168     1.0  0.81201  0.67779  0.27894  1.0000
  C   C1169     1.0  0.83390  0.69362  0.30450  1.0000
  C   C1170     1.0  0.82673  0.69013  0.34046  1.0000
  H   H949      1.0  0.75291  0.64089  0.33366  1.0000
  H   H950      1.0  0.76557  0.64734  0.27028  1.0000
  H   H951      1.0  0.85664  0.70819  0.29649  1.0000
  H   H952      1.0  0.84384  0.70187  0.35991  1.0000
  C   C1171     1.0  0.78340  0.81055  0.40182  1.0000
  H   H953      1.0  0.79086  0.83372  0.40614  1.0000
  H   H954      1.0  0.75257  0.85356  0.24011  1.0000
  C   C1172     1.0  0.82742  0.52730  0.26750  1.0000
  C   C1173     1.0  0.78943  0.97486  0.03224  1.0000
  H   H955      1.0  0.90109  0.72326  0.35276  1.0000
  C   C1174     1.0  0.74085  0.97760  0.40208  1.0000
  C   C1175     1.0  0.85108  0.79844  0.05565  1.0000
  C   C1176     1.0  0.64868  0.88833  0.24228  1.0000
  Fe  Fe86      1.0  0.81641  0.73632  0.49279  1.0000
  H   H956      1.0  0.73768  0.69428  0.06905  1.0000
  H   H957      1.0  0.84656  0.71175  0.02264  1.0000
  C   C1177     1.0  0.70652  0.72399  0.48922  1.0000
  H   H958      1.0  0.78393  0.94111  0.20949  1.0000
  S   S170      1.0  0.66651  0.81695  0.48105  1.0000
  C   C1178     1.0  0.70722  0.92467  0.40423  1.0000
  C   C1179     1.0  0.65803  0.91525  0.30792  1.0000
  C   C1180     1.0  0.94119  0.74076  0.38346  1.0000
  P   P38       1.0  0.84629  0.76158  0.05768  1.0000
  C   C1181     1.0  0.85023  0.75404  0.10291  1.0000
  S   S171      1.0  0.66184  0.73812  0.48810  1.0000
  C   C1182     1.0  0.71830  0.96461  0.07791  1.0000
  C   C1183     1.0  0.68185  0.78021  0.32960  1.0000
  C   C1184     1.0  0.72857  0.55218  0.05951  1.0000
  C   C1185     1.0  0.71339  0.67611  0.33940  1.0000
  C   C1186     1.0  0.84080  0.76588  0.12984  1.0000
  C   C1187     1.0  0.84496  0.76117  0.16491  1.0000
  C   C1188     1.0  0.85827  0.74438  0.17338  1.0000
  C   C1189     1.0  0.86728  0.73215  0.14678  1.0000
  C   C1190     1.0  0.86321  0.73684  0.11165  1.0000
  C   C1191     1.0  0.80950  0.73565  0.04145  1.0000
  C   C1192     1.0  0.78510  0.72276  0.06431  1.0000
  C   C1193     1.0  0.64863  0.72930  0.25083  1.0000
  H   H959      1.0  0.64503  0.87754  0.21707  1.0000
  H   H960      1.0  0.69575  0.91426  0.23521  1.0000
  C   C1194     1.0  0.66103  0.63661  0.19677  1.0000
  C   C1195     1.0  0.65647  0.74676  0.38991  1.0000
  H   H961      1.0  0.78141  0.93843  0.06593  1.0000
  H   H962      1.0  0.75349  0.48524  0.25014  1.0000
  C   C1196     1.0  0.67481  0.97066  0.07970  1.0000
  C   C1197     1.0  0.67734  0.69050  0.37935  1.0000
  H   H963      1.0  0.78120  0.83135  0.21604  1.0000
  H   H964      1.0  0.78569  0.58198  0.24395  1.0000
  H   H965      1.0  0.76447  0.91773  0.42050  1.0000
  H   H966      1.0  0.82998  0.77852  0.12379  1.0000
  H   H967      1.0  0.83739  0.77014  0.18549  1.0000
  H   H968      1.0  0.86083  0.74004  0.20053  1.0000
  H   H969      1.0  0.87659  0.71823  0.15339  1.0000
  H   H970      1.0  0.86966  0.72647  0.09156  1.0000
  H   H971      1.0  0.78798  0.72703  0.09215  1.0000
  C   C1198     1.0  0.87758  0.85009  0.07410  1.0000
  C   C1199     1.0  0.75419  0.92027  0.30441  1.0000
  C   C1200     1.0  0.73347  0.87096  0.41637  1.0000
  C   C1201     1.0  0.74933  0.76272  0.37629  1.0000
  C   C1202     1.0  0.71216  0.52321  0.04682  1.0000
  H   H972      1.0  0.78084  0.89924  0.30702  1.0000
  H   H973      1.0  0.73617  0.69501  0.21379  1.0000
  C   C1203     1.0  0.77345  0.52476  0.28207  1.0000
  C   C1204     1.0  0.80014  0.54878  0.29460  1.0000
  H   H974      1.0  0.74796  0.58302  0.34451  1.0000
  P   P39       1.0  0.79949  0.57897  0.31728  1.0000
  C   C1205     1.0  0.79164  0.57153  0.36329  1.0000
  C   C1206     1.0  0.83533  0.61236  0.31290  1.0000
  C   C1207     1.0  0.85777  0.61885  0.33778  1.0000
  C   C1208     1.0  0.88570  0.64435  0.33453  1.0000
  C   C1209     1.0  0.86952  0.65704  0.28128  1.0000
  C   C1210     1.0  0.84149  0.63172  0.28461  1.0000
  C   C1211     1.0  0.79577  0.59464  0.38582  1.0000
  C   C1212     1.0  0.78937  0.58931  0.42146  1.0000
  C   C1213     1.0  0.77892  0.56089  0.43493  1.0000
  C   C1214     1.0  0.77478  0.53776  0.41266  1.0000
  C   C1215     1.0  0.78106  0.54301  0.37689  1.0000
  C   C1216     1.0  0.77046  0.58301  0.29654  1.0000
  C   C1217     1.0  0.74764  0.58316  0.31622  1.0000
  C   C1218     1.0  0.72395  0.58364  0.29935  1.0000
  C   C1219     1.0  0.72292  0.58402  0.26283  1.0000
  C   C1220     1.0  0.74548  0.58375  0.24326  1.0000
  C   C1221     1.0  0.76894  0.58300  0.25988  1.0000
  H   H975      1.0  0.74911  0.95612  0.23238  1.0000
  H   H976      1.0  0.75233  0.52351  0.28716  1.0000
  C   C1222     1.0  0.77384  0.82735  0.24310  1.0000
  H   H977      1.0  0.85373  0.60424  0.35976  1.0000
  H   H978      1.0  0.90278  0.64937  0.35401  1.0000
  H   H979      1.0  0.82482  0.62781  0.26515  1.0000
  H   H980      1.0  0.80360  0.61678  0.37573  1.0000
  H   H981      1.0  0.79235  0.60731  0.43851  1.0000
  H   H982      1.0  0.77393  0.55683  0.46259  1.0000
  H   H983      1.0  0.65644  0.58746  0.25817  1.0000
  H   H984      1.0  0.77758  0.52483  0.36001  1.0000
  Fe  Fe87      1.0  0.64042  0.76750  0.48435  1.0000
  H   H985      1.0  0.89000  0.81811  0.08918  1.0000
  C   C1223     1.0  0.74728  0.83412  0.29112  1.0000
  H   H986      1.0  0.74474  0.58375  0.21505  1.0000
  S   S172      1.0  0.64836  0.85308  0.05770  1.0000
  H   H987      1.0  0.87380  0.67194  0.25947  1.0000
  C   C1224     1.0  0.73615  0.72980  0.49157  1.0000
  H   H988      1.0  0.74063  0.71165  0.49234  1.0000
  C   C1225     1.0  0.75598  0.94391  0.24923  1.0000
  C   C1226     1.0  0.72726  0.84413  0.40086  1.0000
  C   C1227     1.0  0.72458  0.95165  0.42147  1.0000
  C   C1228     1.0  0.64595  0.82419  0.27247  1.0000
  H   H989      1.0  0.79048  0.86879  0.35266  1.0000
  C   C1229     1.0  0.69796  0.68853  0.32285  1.0000
  C   C1230     1.0  0.80087  0.50415  0.25396  1.0000
  C   C1231     1.0  0.70902  0.74739  0.24497  1.0000
  H   H990      1.0  0.91323  0.68311  0.30366  1.0000
  C   C1232     1.0  0.68719  0.76586  0.38825  1.0000
  H   H991      1.0  0.64658  0.73425  0.41360  1.0000
  C   C1233     1.0  0.75756  0.83981  0.25662  1.0000
  H   H992      1.0  0.90864  0.80482  0.03854  1.0000
  H   H993      1.0  0.69123  0.67473  0.42355  1.0000
  C   C1234     1.0  0.69819  0.76526  0.23188  1.0000
  S   S173      1.0  0.63869  0.81932  0.22680  1.0000
  H   H994      1.0  0.77517  0.78966  0.31455  1.0000
  C   C1235     1.0  0.67752  0.90905  0.25289  1.0000
  H   H995      1.0  0.70640  0.82441  0.40702  1.0000
  C   C1236     1.0  0.76991  0.80360  0.29881  1.0000
  C   C1237     1.0  0.68974  0.72042  0.26156  1.0000
  H   H996      1.0  0.75677  0.73345  0.31743  1.0000
  C   C1238     1.0  0.66809  0.75640  0.23512  1.0000
  S   S174      1.0  0.84924  0.68448  0.47368  1.0000
  C   C1239     1.0  0.87418  0.75890  0.03196  1.0000
  C   C1240     1.0  0.90291  0.78343  0.02785  1.0000
  C   C1241     1.0  0.65110  0.76122  0.33151  1.0000
  P   P40       1.0  0.73974  0.80864  0.35709  1.0000
  C   C1242     1.0  0.69921  0.49130  0.16123  1.0000
  H   H997      1.0  0.69084  0.79327  0.30620  1.0000
  C   C1243     1.0  0.77394  0.91180  0.29105  1.0000
  H   H998      1.0  0.72811  0.95063  0.08095  1.0000
  C   C1244     1.0  0.74226  0.71229  0.26677  1.0000
  H   H999      1.0  0.94701  0.79934  0.00708  1.0000
  C   C1245     1.0  0.70606  0.92363  0.36768  1.0000
  C   C1246     1.0  0.68268  0.66182  0.25181  1.0000
  H   H1000     1.0  0.78946  0.71519  0.20302  1.0000
  H   H1001     1.0  0.73221  0.75434  0.24106  1.0000
  H   H1002     1.0  0.72324  0.66182  0.38799  1.0000
  C   C1247     1.0  0.67591  0.63448  0.26661  1.0000
  P   P41       1.0  0.70304  0.69606  0.27622  1.0000
  C   C1248     1.0  0.75189  0.70778  0.23420  1.0000
  C   C1249     1.0  0.78222  0.71947  0.22777  1.0000
  C   C1250     1.0  0.85717  0.85515  0.05597  1.0000
  H   H1003     1.0  0.82651  0.74357  0.24907  1.0000
  C   C1251     1.0  0.80315  0.73570  0.25367  1.0000
  H   H1004     1.0  0.92354  0.70640  0.47910  1.0000
  H   H1005     1.0  0.81171  0.78609  0.02401  1.0000
  C   C1252     1.0  0.67507  0.66261  0.21669  1.0000
  C   C1253     1.0  0.76353  0.72942  0.29227  1.0000
  C   C1254     1.0  0.79382  0.74081  0.28588  1.0000
  H   H1006     1.0  0.84833  0.52835  0.26154  1.0000
  H   H1007     1.0  0.81001  0.75295  0.30620  1.0000
  H   H1008     1.0  0.70063  0.76793  0.41099  1.0000
  C   C1255     1.0  0.70021  0.78260  0.35793  1.0000
  C   C1256     1.0  0.75008  0.57438  0.03839  1.0000
  H   H1009     1.0  0.66829  0.70604  0.33176  1.0000
  H   H1010     1.0  0.65976  0.77031  0.22488  1.0000
  H   H1011     1.0  0.69527  0.50614  0.06321  1.0000
  C   C1257     1.0  0.71079  0.67093  0.37545  1.0000
  H   H1012     1.0  0.85926  0.87692  0.05646  1.0000
  H   H1013     1.0  0.69419  0.84677  0.02057  1.0000
  C   C1258     1.0  0.92519  0.73621  0.35245  1.0000
  C   C1259     1.0  0.67990  0.69576  0.34321  1.0000
  H   H1014     1.0  0.74605  0.91399  0.33083  1.0000
  C   C1260     1.0  0.69285  0.67824  0.39546  1.0000
  H   H1015     1.0  0.80107  0.75864  0.42647  1.0000
  C   C1261     1.0  0.74749  0.84312  0.37736  1.0000
  H   H1016     1.0  0.77130  0.80479  0.49488  1.0000
  C   C1262     1.0  0.75563  0.56757  0.00480  1.0000
  H   H1017     1.0  0.75767  0.72726  0.38947  1.0000
  C   C1263     1.0  0.77575  0.93542  0.23608  1.0000
  C   C1264     1.0  0.68037  0.84952  0.00148  1.0000
  C   C1265     1.0  0.72180  0.94966  0.34793  1.0000
  H   H1018     1.0  0.73031  0.74880  0.36007  1.0000
  H   H1019     1.0  0.80110  0.91618  0.38001  1.0000
  S   S175      1.0  0.66051  0.84173  0.39095  1.0000
  H   H1020     1.0  0.73436  0.84371  0.30098  1.0000
  C   C1266     1.0  0.78013  0.80936  0.26425  1.0000
  H   H1021     1.0  0.68076  0.68344  0.20419  1.0000
  C   C1267     1.0  0.86807  0.73130  0.01853  1.0000
  H   H1022     1.0  0.76659  0.51573  0.42315  1.0000
  C   C1268     1.0  0.79874  0.79821  0.41815  1.0000
  H   H1023     1.0  0.84798  0.56773  0.29718  1.0000
  C   C1269     1.0  0.75995  0.89695  0.40870  1.0000
  H   H1024     1.0  0.79257  0.79951  0.25364  1.0000
  C   C1270     1.0  0.78954  0.76828  0.41328  1.0000
  Fe  Fe88      1.0  0.87445  0.73410  0.47812  1.0000
  C   C1271     1.0  0.78047  0.89606  0.38577  1.0000
  C   C1272     1.0  0.75642  0.70429  0.05128  1.0000
  C   C1273     1.0  0.68252  0.92222  0.28617  1.0000
  C   C1274     1.0  0.72361  0.77637  0.49050  1.0000
  H   H1025     1.0  0.65609  0.63769  0.16940  1.0000
  C   C1275     1.0  0.77431  0.86923  0.37020  1.0000
  H   H1026     1.0  0.69429  0.90446  0.41910  1.0000
  C   C1276     1.0  0.83054  0.80372  0.03767  1.0000
  C   C1277     1.0  0.68764  0.95250  0.08189  1.0000
  C   C1278     1.0  0.71761  0.51628  0.01320  1.0000
  C   C1279     1.0  0.68751  0.50449  0.24659  1.0000
  H   H1027     1.0  0.92947  0.73136  0.40776  1.0000
  C   C1280     1.0  0.77425  0.94524  0.04281  1.0000
  H   H1028     1.0  0.89553  0.86798  0.08865  1.0000
  H   H1029     1.0  0.68849  0.70129  0.48809  1.0000
  H   H1030     1.0  0.66100  0.92573  0.33323  1.0000
  H   H1031     1.0  0.92787  0.74420  0.29695  1.0000
  C   C1281     1.0  0.83365  0.83197  0.03783  1.0000
  C   C1282     1.0  0.66163  0.60846  0.24664  1.0000
  C   C1283     1.0  0.73955  0.97665  0.36545  1.0000
  P   P42       1.0  0.71996  0.94807  0.30056  1.0000
  C   C1284     1.0  0.74988  0.92433  0.02345  1.0000
  C   C1285     1.0  0.77392  0.50285  0.26137  1.0000
  H   H1032     1.0  0.67440  0.92909  0.08743  1.0000
  H   H1033     1.0  0.79980  0.91258  0.24646  1.0000
  C   C1286     1.0  0.75178  0.69885  0.01537  1.0000
  C   C1287     1.0  0.94030  0.74812  0.32108  1.0000
  H   H1034     1.0  0.72523  0.95242  0.44984  1.0000
  H   H1035     1.0  0.70414  0.49385  0.00367  1.0000
  C   C1288     1.0  0.95317  0.75354  0.47832  1.0000
  C   C1289     1.0  0.94648  0.72402  0.47998  1.0000
  C   C1290     1.0  0.65437  0.60956  0.21167  1.0000
  H   H1036     1.0  0.70978  0.52293  0.24280  1.0000
  C   C1291     1.0  0.87447  0.82184  0.07414  1.0000
  H   H1037     1.0  0.73834  0.90125  0.03118  1.0000
  C   C1292     1.0  0.78470  0.91934  0.25693  1.0000
  H   H1038     1.0  0.80109  0.48740  0.23721  1.0000
  C   C1293     1.0  0.65481  0.83268  0.34574  1.0000
  S   S176      1.0  0.78850  0.68678  0.49107  1.0000
  C   C1294     1.0  0.78905  0.65304  0.00659  1.0000
  H   H1039     1.0  0.64379  0.68993  0.27488  1.0000
  H   H1040     1.0  0.81739  0.83574  0.02449  1.0000
  C   C1295     1.0  0.75977  0.75897  0.49418  1.0000
  C   C1296     1.0  0.80463  0.73004  0.00532  1.0000
  C   C1297     1.0  0.88987  0.72846  0.00034  1.0000
  H   H1041     1.0  0.68516  0.97576  0.27791  1.0000
  H   H1042     1.0  0.66656  0.52676  0.22277  1.0000
  C   C1298     1.0  0.92484  0.78043  0.01000  1.0000
  H   H1043     1.0  0.72952  0.68443  0.00543  1.0000
  C   C1299     1.0  0.71648  0.97405  0.17118  1.0000
  H   H1044     1.0  0.71904  0.79447  0.49026  1.0000
  H   H1045     1.0  0.64390  0.58955  0.19592  1.0000
  H   H1046     1.0  0.85034  0.64553  0.00484  1.0000
  H   H1047     1.0  0.69551  0.94479  0.00197  1.0000
  H   H1048     1.0  0.96412  0.69430  0.48270  1.0000
  C   C1300     1.0  0.96960  0.71723  0.48186  1.0000
  H   H1049     1.0  0.74690  0.87806  0.49601  1.0000
  H   H1050     1.0  0.64105  0.91593  0.99912  1.0000
  Fe  Fe89      1.0  0.82528  0.68639  0.52216  1.0000
  S   S177      1.0  0.85157  0.73582  0.52753  1.0000
  S   S178      1.0  0.81978  0.65480  0.56662  1.0000
  C   C1301     1.0  0.88733  0.71226  0.90813  1.0000
  C   C1302     1.0  0.77082  0.93989  0.85220  1.0000
  H   H1051     1.0  0.77450  0.60633  0.69198  1.0000
  C   C1303     1.0  0.75859  0.59645  0.71305  1.0000
  H   H1052     1.0  0.87304  0.58341  0.92481  1.0000
  C   C1304     1.0  0.68903  0.77806  0.61885  1.0000
  H   H1053     1.0  0.78343  0.53892  0.88621  1.0000
  C   C1305     1.0  0.74346  0.92157  0.86826  1.0000
  H   H1054     1.0  0.75222  0.60699  0.87128  1.0000
  S   S179      1.0  0.67341  0.84760  0.89524  1.0000
  H   H1055     1.0  0.69873  0.57808  0.85568  1.0000
  C   C1306     1.0  0.75070  0.57327  0.90505  1.0000
  H   H1056     1.0  0.77231  0.70750  0.96452  1.0000
  S   S180      1.0  0.67106  0.95838  0.81539  1.0000
  S   S181      1.0  0.67915  0.88501  0.80639  1.0000
  Fe  Fe90      1.0  0.83736  0.66206  0.77620  1.0000
  S   S182      1.0  0.86275  0.63767  0.77565  1.0000
  S   S183      1.0  0.83302  0.68707  0.72957  1.0000
  Fe  Fe91      1.0  0.82755  0.65407  0.85623  1.0000
  S   S184      1.0  0.85320  0.63010  0.86047  1.0000
  S   S185      1.0  0.80219  0.66017  0.90123  1.0000
  Fe  Fe92      1.0  0.88612  0.66497  0.82343  1.0000
  S   S186      1.0  0.93668  0.68572  0.82944  1.0000
  Fe  Fe93      1.0  0.82721  0.60525  0.81252  1.0000
  S   S187      1.0  0.80753  0.55496  0.80838  1.0000
  S   S188      1.0  0.86211  0.69072  0.82262  1.0000
  S   S189      1.0  0.80025  0.62794  0.80968  1.0000
  H   H1057     1.0  0.89625  0.72849  0.72499  1.0000
  C   C1307     1.0  0.93675  0.79068  0.55813  1.0000
  C   C1308     1.0  0.76217  0.49662  0.80939  1.0000
  C   C1309     1.0  0.76949  0.52650  0.81157  1.0000
  C   C1310     1.0  0.74648  0.53281  0.81615  1.0000
  C   C1311     1.0  0.71662  0.50957  0.81773  1.0000
  H   H1058     1.0  0.80047  0.88825  0.69181  1.0000
  C   C1312     1.0  0.69024  0.54078  0.88792  1.0000
  H   H1059     1.0  0.75170  0.55561  0.81825  1.0000
  H   H1060     1.0  0.69904  0.51478  0.82097  1.0000
  H   H1061     1.0  0.72910  0.96113  0.81066  1.0000
  H   H1062     1.0  0.86464  0.69425  0.90964  1.0000
  H   H1063     1.0  0.90628  0.68402  0.91421  1.0000
  H   H1064     1.0  0.93475  0.74006  0.81539  1.0000
  C   C1313     1.0  0.68551  0.84845  0.96542  1.0000
  C   C1314     1.0  0.66740  0.85138  0.94022  1.0000
  C   C1315     1.0  0.78803  0.54643  0.94224  1.0000
  H   H1065     1.0  0.70338  0.84490  0.95697  1.0000
  Fe  Fe94      1.0  0.65256  0.90814  0.81104  1.0000
  C   C1316     1.0  0.77713  0.87415  0.68559  1.0000
  C   C1317     1.0  0.91789  0.74116  0.67483  1.0000
  H   H1066     1.0  0.90590  0.65708  0.71772  1.0000
  C   C1318     1.0  0.74331  0.86443  0.51885  1.0000
  C   C1319     1.0  0.90388  0.77724  0.60814  1.0000
  C   C1320     1.0  0.73293  0.54486  0.91921  1.0000
  C   C1321     1.0  0.78542  0.65471  0.97025  1.0000
  C   C1322     1.0  0.80542  0.65373  0.94625  1.0000
  C   C1323     1.0  0.82825  0.64936  0.95889  1.0000
  H   H1067     1.0  0.76723  0.65725  0.96066  1.0000
  H   H1068     1.0  0.84340  0.64776  0.94079  1.0000
  C   C1324     1.0  0.82619  0.66537  0.61152  1.0000
  C   C1325     1.0  0.82820  0.64633  0.63607  1.0000
  C   C1326     1.0  0.83121  0.65301  0.67220  1.0000
  C   C1327     1.0  0.83177  0.67867  0.68423  1.0000
  C   C1328     1.0  0.83063  0.69812  0.65962  1.0000
  C   C1329     1.0  0.82805  0.69165  0.62347  1.0000
  H   H1069     1.0  0.82717  0.62616  0.62711  1.0000
  H   H1070     1.0  0.83236  0.63798  0.69076  1.0000
  H   H1071     1.0  0.83120  0.71809  0.66861  1.0000
  H   H1072     1.0  0.82660  0.70654  0.60496  1.0000
  C   C1330     1.0  0.71890  0.50382  0.68951  1.0000
  H   H1073     1.0  0.88820  0.81613  0.54872  1.0000
  H   H1074     1.0  0.75312  0.59784  0.55626  1.0000
  C   C1331     1.0  0.64679  0.74187  0.65261  1.0000
  C   C1332     1.0  0.82924  0.56096  0.90199  1.0000
  C   C1333     1.0  0.89954  0.80570  0.56079  1.0000
  H   H1075     1.0  0.73306  0.49832  0.74092  1.0000
  H   H1076     1.0  0.69838  0.96534  0.89194  1.0000
  C   C1334     1.0  0.77245  0.56567  0.62070  1.0000
  C   C1335     1.0  0.72159  0.55341  0.74448  1.0000
  C   C1336     1.0  0.71761  0.57198  0.76765  1.0000
  C   C1337     1.0  0.73411  0.60271  0.76357  1.0000
  C   C1338     1.0  0.75454  0.61494  0.73620  1.0000
  H   H1077     1.0  0.83727  0.56217  0.87550  1.0000
  C   C1339     1.0  0.92339  0.69700  0.61824  1.0000
  H   H1078     1.0  0.87022  0.85172  0.89405  1.0000
  C   C1340     1.0  0.80832  0.55754  0.97024  1.0000
  C   C1341     1.0  0.75576  0.87842  0.70271  1.0000
  C   C1342     1.0  0.92761  0.77684  0.59088  1.0000
  H   H1079     1.0  0.70194  0.56245  0.78901  1.0000
  H   H1080     1.0  0.73137  0.61712  0.78182  1.0000
  H   H1081     1.0  0.77756  0.93188  0.82981  1.0000
  H   H1082     1.0  0.93494  0.64354  0.67794  1.0000
  H   H1083     1.0  0.78528  0.84963  0.64615  1.0000
  C   C1343     1.0  0.92121  0.80864  0.76928  1.0000
  C   C1344     1.0  0.89003  0.79172  0.59319  1.0000
  C   C1345     1.0  0.81406  0.52180  0.68449  1.0000
  C   C1346     1.0  0.67319  0.76513  0.58784  1.0000
  H   H1084     1.0  0.80009  0.57998  0.73106  1.0000
  C   C1347     1.0  0.72574  0.86083  0.69396  1.0000
  C   C1348     1.0  0.89296  0.74102  0.90206  1.0000
  H   H1085     1.0  0.68786  0.77514  0.67544  1.0000
  H   H1086     1.0  0.76761  0.63880  0.73315  1.0000
  S   S190      1.0  0.79736  0.76742  0.50104  1.0000
  C   C1349     1.0  0.68611  0.95496  0.91568  1.0000
  C   C1350     1.0  0.78760  0.52194  0.67816  1.0000
  H   H1087     1.0  0.81783  0.50521  0.67220  1.0000
  C   C1351     1.0  0.74234  0.56554  0.71716  1.0000
  C   C1352     1.0  0.83890  0.57102  0.96393  1.0000
  C   C1353     1.0  0.73438  0.93202  0.89669  1.0000
  C   C1354     1.0  0.70110  0.95627  0.94678  1.0000
  C   C1355     1.0  0.86095  0.82246  0.93787  1.0000
  C   C1356     1.0  0.95773  0.74599  0.81903  1.0000
  C   C1357     1.0  0.91669  0.74306  0.71120  1.0000
  H   H1088     1.0  0.70988  0.58244  0.59574  1.0000
  P   P43       1.0  0.74111  0.97400  0.94663  1.0000
  H   H1089     1.0  0.95824  0.72514  0.90866  1.0000
  Fe  Fe95      1.0  0.65008  0.85647  0.85034  1.0000
  P   P44       1.0  0.94526  0.75755  0.60943  1.0000
  C   C1358     1.0  0.73316  0.49029  0.94234  1.0000
  H   H1090     1.0  0.70918  0.86455  0.70664  1.0000
  C   C1359     1.0  0.94186  0.76339  0.72980  1.0000
  C   C1360     1.0  0.68462  0.94319  0.97727  1.0000
  H   H1091     1.0  0.68820  0.50735  0.92236  1.0000
  H   H1092     1.0  0.94101  0.76455  0.75798  1.0000
  C   C1361     1.0  0.89410  0.68144  0.55374  1.0000
  C   C1362     1.0  0.94584  0.66461  0.69160  1.0000
  H   H1093     1.0  0.71310  0.91730  0.90876  1.0000
  H   H1094     1.0  0.80073  0.55590  0.99695  1.0000
  C   C1363     1.0  0.96824  0.78196  0.71211  1.0000
  H   H1095     1.0  0.84499  0.82757  0.94954  1.0000
  H   H1096     1.0  0.96874  0.77589  0.89861  1.0000
  C   C1364     1.0  0.77587  0.71187  0.99238  1.0000
  P   P45       1.0  0.74763  0.54225  0.68627  1.0000
  C   C1365     1.0  0.69907  0.48925  0.66175  1.0000
  C   C1366     1.0  0.90218  0.78230  0.78669  1.0000
  C   C1367     1.0  0.90539  0.77993  0.82267  1.0000
  C   C1368     1.0  0.64488  0.86443  0.63078  1.0000
  H   H1097     1.0  0.68324  0.77330  0.56242  1.0000
  P   P46       1.0  0.92958  0.80144  0.88871  1.0000
  C   C1369     1.0  0.90205  0.80894  0.90750  1.0000
  H   H1098     1.0  0.77404  0.58656  0.91183  1.0000
  C   C1370     1.0  0.73835  0.58507  0.88210  1.0000
  P   P47       1.0  0.74851  0.52965  0.94943  1.0000
  C   C1371     1.0  0.94374  0.69865  0.73297  1.0000
  C   C1372     1.0  0.91079  0.70654  0.91082  1.0000
  C   C1373     1.0  0.88775  0.79550  0.93895  1.0000
  C   C1374     1.0  0.86734  0.80227  0.95404  1.0000
  H   H1099     1.0  0.66684  0.52815  0.88126  1.0000
  C   C1375     1.0  0.87514  0.83603  0.90661  1.0000
  H   H1100     1.0  0.64380  0.93845  0.89029  1.0000
  H   H1101     1.0  0.70010  0.50089  0.63794  1.0000
  H   H1102     1.0  0.87888  0.63636  0.56863  1.0000
  C   C1376     1.0  0.90697  0.66721  0.60831  1.0000
  C   C1377     1.0  0.70819  0.56881  0.87340  1.0000
  C   C1378     1.0  0.89218  0.65943  0.57614  1.0000
  C   C1379     1.0  0.70247  0.52896  0.91104  1.0000
  H   H1103     1.0  0.82292  0.73963  0.98701  1.0000
  H   H1104     1.0  0.84632  0.57927  0.74197  1.0000
  H   H1105     1.0  0.72913  0.89918  0.85874  1.0000
  C   C1380     1.0  0.76236  0.85337  0.52596  1.0000
  C   C1381     1.0  0.92765  0.80393  0.84165  1.0000
  C   C1382     1.0  0.79870  0.54781  0.90815  1.0000
  H   H1106     1.0  0.88249  0.67530  0.52893  1.0000
  C   C1383     1.0  0.84937  0.57284  0.92979  1.0000
  H   H1107     1.0  0.89234  0.77979  0.95181  1.0000
  H   H1108     1.0  0.72151  0.49096  0.88799  1.0000
  H   H1109     1.0  0.77228  0.58517  0.98872  1.0000
  C   C1384     1.0  0.67576  0.76604  0.65124  1.0000
  H   H1110     1.0  0.64995  0.87731  0.68540  1.0000
  H   H1111     1.0  0.89550  0.76597  0.63274  1.0000
  H   H1112     1.0  0.79295  0.58723  0.57211  1.0000
  C   C1385     1.0  0.64426  0.85581  0.95144  1.0000
  H   H1113     1.0  0.90670  0.84043  0.86752  1.0000
  C   C1386     1.0  0.71700  0.83871  0.66846  1.0000
  C   C1387     1.0  0.73815  0.83356  0.65200  1.0000
  C   C1388     1.0  0.76841  0.85206  0.65999  1.0000
  P   P48       1.0  0.72742  0.80700  0.61673  1.0000
  C   C1389     1.0  0.94433  0.75980  0.65667  1.0000
  C   C1390     1.0  0.73336  0.82845  0.57759  1.0000
  C   C1391     1.0  0.75761  0.83565  0.55544  1.0000
  H   H1114     1.0  0.93497  0.70269  0.64310  1.0000
  C   C1392     1.0  0.65359  0.92705  0.97588  1.0000
  C   C1393     1.0  0.71958  0.85792  0.54132  1.0000
  C   C1394     1.0  0.71453  0.83991  0.57048  1.0000
  C   C1395     1.0  0.92949  0.67211  0.71417  1.0000
  C   C1396     1.0  0.74767  0.78715  0.61755  1.0000
  C   C1397     1.0  0.74725  0.77080  0.58808  1.0000
  C   C1398     1.0  0.76170  0.75424  0.58889  1.0000
  C   C1399     1.0  0.77620  0.75340  0.61929  1.0000
  C   C1400     1.0  0.77590  0.76882  0.64914  1.0000
  C   C1401     1.0  0.76144  0.78540  0.64843  1.0000
  H   H1115     1.0  0.72142  0.91649  0.97922  1.0000
  C   C1402     1.0  0.78228  0.54305  0.69447  1.0000
  H   H1116     1.0  0.77288  0.82770  0.56079  1.0000
  H   H1117     1.0  0.79075  0.56232  0.62755  1.0000
  C   C1403     1.0  0.72558  0.56313  0.63410  1.0000
  C   C1404     1.0  0.75265  0.96098  0.90929  1.0000
  H   H1118     1.0  0.69599  0.83512  0.58760  1.0000
  H   H1119     1.0  0.70848  0.52974  0.74824  1.0000
  H   H1120     1.0  0.73547  0.77055  0.56457  1.0000
  H   H1121     1.0  0.76149  0.74186  0.56594  1.0000
  H   H1122     1.0  0.78727  0.74043  0.61978  1.0000
  H   H1123     1.0  0.78653  0.76756  0.67297  1.0000
  H   H1124     1.0  0.76059  0.79631  0.67218  1.0000
  C   C1405     1.0  0.92284  0.80510  0.54326  1.0000
  H   H1125     1.0  0.89807  0.72512  0.66091  1.0000
  C   C1406     1.0  0.91006  0.71121  0.56377  1.0000
  H   H1126     1.0  0.87138  0.79144  0.60628  1.0000
  H   H1127     1.0  0.87425  0.74455  0.89881  1.0000
  H   H1128     1.0  0.89022  0.75936  0.83553  1.0000
  C   C1407     1.0  0.92234  0.76455  0.89905  1.0000
  H   H1129     1.0  0.88492  0.76358  0.77230  1.0000
  H   H1130     1.0  0.91098  0.72785  0.54606  1.0000
  C   C1408     1.0  0.92431  0.71914  0.59646  1.0000
  H   H1131     1.0  0.93519  0.75060  0.98227  1.0000
  C   C1409     1.0  0.83026  0.56375  0.72344  1.0000
  C   C1410     1.0  0.74013  0.53825  0.99237  1.0000
  C   C1411     1.0  0.78058  0.97890  0.89384  1.0000
  C   C1412     1.0  0.94006  0.72974  0.90784  1.0000
  H   H1132     1.0  0.70482  0.86660  0.53611  1.0000
  H   H1133     1.0  0.77975  0.49142  0.80605  1.0000
  C   C1413     1.0  0.64439  0.74076  0.58928  1.0000
  C   C1414     1.0  0.78944  0.96849  0.86511  1.0000
  C   C1415     1.0  0.75128  0.58580  0.58012  1.0000
  C   C1416     1.0  0.74838  0.55740  0.64356  1.0000
  C   C1417     1.0  0.80381  0.56398  0.71723  1.0000
  C   C1418     1.0  0.83536  0.54267  0.70721  1.0000
  C   C1419     1.0  0.64146  0.83272  0.67919  1.0000
  Fe  Fe96      1.0  0.64276  0.85292  0.77010  1.0000
  H   H1134     1.0  0.70712  0.55742  0.65169  1.0000
  H   H1135     1.0  0.93128  0.70372  0.75182  1.0000
  H   H1136     1.0  0.77115  0.50542  0.66076  1.0000
  H   H1137     1.0  0.69378  0.82604  0.66133  1.0000
  C   C1420     1.0  0.77379  0.57976  0.58909  1.0000
  H   H1138     1.0  0.78080  0.85848  0.50862  1.0000
  C   C1421     1.0  0.72707  0.57729  0.60249  1.0000
  H   H1139     1.0  0.85558  0.54221  0.71280  1.0000
  H   H1140     1.0  0.64888  0.88571  0.62152  1.0000
  C   C1422     1.0  0.64018  0.84221  0.60644  1.0000
  C   C1423     1.0  0.89572  0.82943  0.89154  1.0000
  H   H1141     1.0  0.94895  0.83731  0.95330  1.0000
  C   C1424     1.0  0.94588  0.75863  0.90199  1.0000
  H   H1142     1.0  0.92945  0.81485  0.51746  1.0000
  H   H1143     1.0  0.91883  0.81034  0.74132  1.0000
  C   C1425     1.0  0.96465  0.72381  0.82615  1.0000
  H   H1144     1.0  0.76241  0.89565  0.72236  1.0000
  S   S191      1.0  0.64671  0.82734  0.72383  1.0000
  C   C1426     1.0  0.94623  0.83058  0.82408  1.0000
  C   C1427     1.0  0.83206  0.64796  0.99525  1.0000
  C   C1428     1.0  0.94326  0.83274  0.78796  1.0000
  H   H1145     1.0  0.88481  0.70702  0.99004  1.0000
  C   C1429     1.0  0.65506  0.93951  0.91464  1.0000
  C   C1430     1.0  0.70926  0.47970  0.81523  1.0000
  C   C1431     1.0  0.96583  0.82805  0.90585  1.0000
  H   H1146     1.0  0.85446  0.58007  0.98555  1.0000
  H   H1147     1.0  0.85645  0.79185  0.97826  1.0000
  C   C1432     1.0  0.71756  0.48766  0.71950  1.0000
  H   H1148     1.0  0.95401  0.78959  0.54341  1.0000
  H   H1149     1.0  0.90536  0.65012  0.62569  1.0000
  H   H1150     1.0  0.96290  0.84979  0.83817  1.0000
  H   H1151     1.0  0.95794  0.85322  0.77450  1.0000
  C   C1433     1.0  0.74019  0.93313  0.99411  1.0000
  C   C1434     1.0  0.63882  0.92488  0.94447  1.0000
  C   C1435     1.0  0.64539  0.85970  0.66702  1.0000
  C   C1436     1.0  0.75431  0.96313  0.98442  1.0000
  S   S192      1.0  0.64236  0.85023  0.56112  1.0000
  C   C1437     1.0  0.96847  0.84184  0.93838  1.0000
  C   C1438     1.0  0.96960  0.78013  0.67567  1.0000
  H   H1152     1.0  0.74528  0.48211  0.99368  1.0000
  C   C1439     1.0  0.63879  0.85637  0.98751  1.0000
  C   C1440     1.0  0.91826  0.75299  0.99608  1.0000
