data_image0
_chemical_formula_structural       SCHFeHC7H2CHC2HC5HCHC2HC3H3CHCHCSH3CH5C4H5C3FeHSH3C6HFeS2C2SH2SC8H4C2FeC2H3PCH3C3HCSH4SC2H2CHCH2FeC5H2SH2SHCH3FeHC3SCFeC3H2PHSCFeH3SCHC7H6C4HCHC2HCHC2HCH2C4PC6H4C2HSCPHCHCH3C3HC4HCHC3H3C4H2CHC4HSC3HC3SHCFeC2HC3H2C2H3CSCH2CSCHC2HCHPHCH4C3H2CFeCH2FeHSHC2S2H3CH3CH2C6H5FeC7PCH2S2C9HCH3C2H4CH4CHFeCH2CHC2HCFeCFeS3FeSCSC6HC2HC3H2CHCH2CHCHCHC4PC3H2C5HC7H8CH11SCH6CHC3HCHSHC2SHCH2C3HPCSCHC3FeC6HCH3CPC3HCSC2HC3H3C2H5C3HSFeS2FeS2FeHFeS2C3H2CH2C6H4CH2C2HCSHPH2CH2C2H2C3H2C2H3SCHC8HPC7H4C5HCFeCHSHCHCH2CSC2H2C2FeS2HCFeSFeCHC3SCHC3H3CHC8HC7HCH3C8H5C2HCHCPHC4H4CH3CH5CH3CHSCHCSHC3HPHCHCHCSFeS3C6H6C2HSC2HC3PC4PC5FeC8SCH7Fe2CH5C2H2CH2CH2FeH2CHCH2C6HCH2C2H2CH2C2HSCSH2FeSHC3FeHC7H4CH6C4HCSHCH3CHCH2C2HSHCH3SCHC9H3CPC6HCHC2H2C3HC2HCH2C2H2SH2C2H
_chemical_formula_sum              "S64 C480 H384 Fe32 P16"
_cell_length_a       29.5972
_cell_length_b       29.3734
_cell_length_c       31.8021
_cell_angle_alpha    90.0141
_cell_angle_beta     90.2848
_cell_angle_gamma    90.3245

_space_group_name_H-M_alt    "P 1"
_space_group_IT_number       1

loop_
  _space_group_symop_operation_xyz
  'x, y, z'

loop_
  _atom_site_type_symbol
  _atom_site_label
  _atom_site_symmetry_multiplicity
  _atom_site_fract_x
  _atom_site_fract_y
  _atom_site_fract_z
  _atom_site_occupancy
  S   S1        1.0  0.07892  0.35277  0.24213  1.0000
  C   C1        1.0  0.04363  0.34432  0.09587  1.0000
  H   H1        1.0  0.02341  0.15822  0.24829  1.0000
  Fe  Fe1       1.0  0.05081  0.35696  0.30867  1.0000
  H   H2        1.0  0.04471  0.49697  0.10200  1.0000
  C   C2        1.0  0.36503  0.25350  0.25963  1.0000
  C   C3        1.0  0.10099  0.40021  0.21404  1.0000
  C   C4        1.0  0.11594  0.39390  0.17261  1.0000
  C   C5        1.0  0.13218  0.43082  0.14862  1.0000
  C   C6        1.0  0.13380  0.47471  0.16574  1.0000
  C   C7        1.0  0.11938  0.48083  0.20741  1.0000
  C   C8        1.0  0.10334  0.44387  0.23157  1.0000
  H   H3        1.0  0.11494  0.36025  0.15889  1.0000
  H   H4        1.0  0.14376  0.42504  0.11700  1.0000
  C   C9        1.0  0.05095  0.39105  0.03362  1.0000
  H   H5        1.0  0.09254  0.44932  0.26358  1.0000
  C   C10       1.0  0.01091  0.37394  0.11153  1.0000
  C   C11       1.0  0.24133  0.17698  0.26978  1.0000
  H   H6        1.0  0.19936  0.12976  0.23521  1.0000
  C   C12       1.0  0.06397  0.35309  0.05710  1.0000
  C   C13       1.0  0.28414  0.18536  0.28739  1.0000
  C   C14       1.0  0.23811  0.29219  0.27102  1.0000
  C   C15       1.0  0.11538  0.15196  0.27934  1.0000
  C   C16       1.0  0.01859  0.42091  0.04936  1.0000
  H   H7        1.0  0.19424  0.33608  0.23478  1.0000
  C   C17       1.0  0.99918  0.41323  0.08889  1.0000
  H   H8        1.0  0.02006  0.44073  0.17715  1.0000
  C   C18       1.0  0.20529  0.32590  0.26597  1.0000
  C   C19       1.0  0.11702  0.03639  0.26366  1.0000
  H   H9        1.0  0.35012  0.15664  0.29970  1.0000
  C   C20       1.0  0.42368  0.31034  0.27022  1.0000
  C   C21       1.0  0.25171  0.27844  0.31147  1.0000
  C   C22       1.0  0.11605  0.19742  0.26611  1.0000
  H   H10       1.0  0.01360  0.50123  0.30351  1.0000
  H   H11       1.0  0.12753  0.26722  0.28422  1.0000
  H   H12       1.0  0.45364  0.32798  0.25921  1.0000
  C   C23       1.0  0.40376  0.27626  0.24555  1.0000
  H   H13       1.0  0.00894  0.45023  0.03075  1.0000
  C   C24       1.0  0.18647  0.34674  0.30120  1.0000
  H   H14       1.0  0.08982  0.33059  0.04523  1.0000
  C   C25       1.0  0.99953  0.13754  0.26560  1.0000
  S   S2        1.0  0.14995  0.45425  0.03288  1.0000
  H   H15       1.0  0.06630  0.39790  0.00336  1.0000
  H   H16       1.0  0.25295  0.27696  0.24334  1.0000
  H   H17       1.0  0.21471  0.20176  0.27237  1.0000
  C   C26       1.0  0.31730  0.15144  0.28513  1.0000
  H   H18       1.0  0.25858  0.07049  0.23078  1.0000
  H   H19       1.0  0.05354  0.31484  0.11409  1.0000
  H   H20       1.0  0.10671  0.20622  0.23415  1.0000
  H   H21       1.0  0.10513  0.12610  0.25714  1.0000
  H   H22       1.0  0.14710  0.05485  0.25431  1.0000
  C   C27       1.0  0.12795  0.23193  0.29433  1.0000
  C   C28       1.0  0.23232  0.13587  0.24905  1.0000
  C   C29       1.0  0.26568  0.10252  0.24649  1.0000
  C   C30       1.0  0.30813  0.11029  0.26459  1.0000
  H   H23       1.0  0.33385  0.08420  0.26308  1.0000
  H   H24       1.0  0.32721  0.46588  0.01660  1.0000
  H   H25       1.0  0.16093  0.37277  0.29724  1.0000
  H   H26       1.0  0.34970  0.22786  0.23962  1.0000
  H   H27       1.0  0.41820  0.26767  0.21532  1.0000
  C   C31       1.0  0.09786  0.04388  0.30337  1.0000
  C   C32       1.0  0.34629  0.26443  0.29883  1.0000
  C   C33       1.0  0.35684  0.48326  0.00456  1.0000
  Fe  Fe2       1.0  0.21733  0.45735  0.00053  1.0000
  H   H28       1.0  0.00983  0.43544  0.25381  1.0000
  S   S3        1.0  0.26114  0.39424  0.99431  1.0000
  H   H29       1.0  0.00612  0.07911  0.22518  1.0000
  H   H30       1.0  0.40323  0.43635  0.03308  1.0000
  H   H31       1.0  0.47088  0.47427  0.00510  1.0000
  C   C34       1.0  0.40467  0.32198  0.30888  1.0000
  C   C35       1.0  0.39981  0.46664  0.01392  1.0000
  C   C36       1.0  0.43818  0.48835  0.99783  1.0000
  C   C37       1.0  0.09827  0.00402  0.23629  1.0000
  C   C38       1.0  0.26156  0.07388  0.36124  1.0000
  C   C39       1.0  0.05008  0.10312  0.38829  1.0000
  H   H32       1.0  0.42693  0.01657  0.49783  1.0000
  Fe  Fe3       1.0  0.07659  0.34626  0.40138  1.0000
  S   S4        1.0  0.05737  0.29652  0.35143  1.0000
  S   S5        1.0  0.13744  0.32944  0.44227  1.0000
  C   C40       1.0  0.34497  0.21083  0.38865  1.0000
  C   C41       1.0  0.21837  0.09108  0.35338  1.0000
  S   S6        1.0  0.07508  0.40674  0.35727  1.0000
  H   H33       1.0  0.03573  0.11653  0.35962  1.0000
  H   H34       1.0  0.04723  0.01942  0.34734  1.0000
  S   S7        1.0  0.16326  0.12909  0.51533  1.0000
  C   C42       1.0  0.45477  0.04023  0.50171  1.0000
  C   C43       1.0  0.26385  0.19996  0.39190  1.0000
  C   C44       1.0  0.15857  0.18407  0.49263  1.0000
  C   C45       1.0  0.19200  0.21748  0.49801  1.0000
  C   C46       1.0  0.18548  0.26167  0.48182  1.0000
  C   C47       1.0  0.14543  0.27296  0.46035  1.0000
  C   C48       1.0  0.11221  0.23945  0.45463  1.0000
  C   C49       1.0  0.11862  0.19544  0.47106  1.0000
  H   H35       1.0  0.22250  0.20954  0.51533  1.0000
  H   H36       1.0  0.21127  0.28742  0.48654  1.0000
  H   H37       1.0  0.08113  0.24767  0.43834  1.0000
  H   H38       1.0  0.09223  0.17021  0.46729  1.0000
  C   C50       1.0  0.48271  0.11623  0.51575  1.0000
  C   C51       1.0  0.02475  0.10418  0.42520  1.0000
  Fe  Fe4       1.0  0.22481  0.08347  0.52345  1.0000
  C   C52       1.0  0.08647  0.06866  0.46277  1.0000
  C   C53       1.0  0.04291  0.08671  0.46247  1.0000
  H   H39       1.0  0.23048  0.20296  0.37817  1.0000
  H   H40       1.0  0.10093  0.05587  0.49181  1.0000
  H   H41       1.0  0.18162  0.42996  0.64223  1.0000
  P   P1        1.0  0.12492  0.08275  0.33988  1.0000
  C   C54       1.0  0.18139  0.06140  0.34829  1.0000
  H   H42       1.0  0.47784  0.18939  0.59298  1.0000
  H   H43       1.0  0.41986  0.34872  0.32782  1.0000
  H   H44       1.0  0.14646  0.05596  0.42732  1.0000
  C   C55       1.0  0.26869  0.17844  0.43080  1.0000
  C   C56       1.0  0.31134  0.17446  0.44932  1.0000
  C   C57       1.0  0.34949  0.19048  0.42822  1.0000
  H   H45       1.0  0.47632  0.15164  0.52267  1.0000
  C   C58       1.0  0.44614  0.08585  0.51106  1.0000
  S   S8        1.0  0.27179  0.06292  0.47163  1.0000
  H   H46       1.0  0.38915  0.14860  0.60442  1.0000
  H   H47       1.0  0.18234  0.14101  0.60962  1.0000
  H   H48       1.0  0.38264  0.18597  0.44235  1.0000
  H   H49       1.0  0.14723  0.24798  0.35815  1.0000
  S   S9        1.0  0.27934  0.08876  0.57237  1.0000
  C   C59       1.0  0.11222  0.06852  0.42602  1.0000
  C   C60       1.0  0.30193  0.21632  0.37048  1.0000
  H   H50       1.0  0.23946  0.16410  0.44638  1.0000
  H   H51       1.0  0.31497  0.15822  0.47976  1.0000
  C   C61       1.0  0.13782  0.17589  0.34933  1.0000
  H   H52       1.0  0.18635  0.35078  0.36870  1.0000
  C   C62       1.0  0.18834  0.01425  0.35123  1.0000
  H   H53       1.0  0.35119  0.30908  0.35284  1.0000
  H   H54       1.0  0.37522  0.22115  0.37216  1.0000
  Fe  Fe5       1.0  0.32626  0.06406  0.52172  1.0000
  C   C63       1.0  0.23321  0.30020  0.34672  1.0000
  C   C64       1.0  0.09371  0.08473  0.38833  1.0000
  C   C65       1.0  0.36591  0.29936  0.32302  1.0000
  C   C66       1.0  0.26819  0.02691  0.36381  1.0000
  C   C67       1.0  0.13906  0.22111  0.33588  1.0000
  H   H55       1.0  0.40926  0.06728  0.59950  1.0000
  H   H56       1.0  0.21417  0.12739  0.35157  1.0000
  S   S10       1.0  0.20837  0.01118  0.54143  1.0000
  H   H57       1.0  0.14527  0.16836  0.38204  1.0000
  H   H58       1.0  0.24394  0.29163  0.37833  1.0000
  S   S11       1.0  0.39036  0.10692  0.51555  1.0000
  H   H59       1.0  0.48709  0.02398  0.62945  1.0000
  C   C68       1.0  0.48866  0.13923  0.64127  1.0000
  H   H60       1.0  0.30140  0.01349  0.37094  1.0000
  H   H61       1.0  0.28979  0.09696  0.36618  1.0000
  H   H62       1.0  0.02354  0.08757  0.49123  1.0000
  Fe  Fe6       1.0  0.26733  0.01448  0.58601  1.0000
  H   H63       1.0  0.25732  0.14732  0.64298  1.0000
  C   C69       1.0  0.20063  0.33410  0.34147  1.0000
  C   C70       1.0  0.37680  0.12495  0.62789  1.0000
  C   C71       1.0  0.47489  0.18164  0.62615  1.0000
  S   S12       1.0  0.00534  0.35587  0.42420  1.0000
  C   C72       1.0  0.06092  0.01693  0.31595  1.0000
  Fe  Fe7       1.0  0.00176  0.41144  0.37502  1.0000
  C   C73       1.0  0.38783  0.07893  0.62481  1.0000
  C   C74       1.0  0.12666  0.14080  0.32103  1.0000
  C   C75       1.0  0.18632  0.13330  0.64283  1.0000
  H   H64       1.0  0.44897  0.24766  0.64231  1.0000
  H   H65       1.0  0.00429  0.24229  0.48945  1.0000
  P   P2        1.0  0.29573  0.23645  0.31719  1.0000
  H   H66       1.0  0.34389  0.43456  0.86512  1.0000
  S   S13       1.0  0.47581  0.24633  0.81990  1.0000
  C   C76       1.0  0.33085  0.10918  0.68945  1.0000
  Fe  Fe8       1.0  0.46307  0.31611  0.84722  1.0000
  H   H67       1.0  0.20006  0.10531  0.76141  1.0000
  H   H68       1.0  0.33621  0.08952  0.87433  1.0000
  H   H69       1.0  0.32682  0.03760  0.70600  1.0000
  S   S14       1.0  0.39740  0.35644  0.84463  1.0000
  C   C77       1.0  0.46469  0.03755  0.72097  1.0000
  H   H70       1.0  0.41577  0.08508  0.83633  1.0000
  C   C78       1.0  0.30363  0.38763  0.95557  1.0000
  C   C79       1.0  0.45823  0.21428  0.65382  1.0000
  C   C80       1.0  0.36153  0.33965  0.92357  1.0000
  C   C81       1.0  0.36596  0.37034  0.89021  1.0000
  C   C82       1.0  0.34064  0.41070  0.89075  1.0000
  C   C83       1.0  0.30977  0.41945  0.92336  1.0000
  C   C84       1.0  0.31837  0.07824  0.84628  1.0000
  H   H71       1.0  0.38062  0.30835  0.92347  1.0000
  H   H72       1.0  0.29023  0.31368  0.84205  1.0000
  H   H73       1.0  0.24508  0.29702  0.90537  1.0000
  H   H74       1.0  0.23394  0.21007  0.73761  1.0000
  H   H75       1.0  0.11606  0.11703  0.65151  1.0000
  H   H76       1.0  0.44502  0.23090  0.71826  1.0000
  C   C85       1.0  0.44280  0.08387  0.85916  1.0000
  C   C86       1.0  0.45210  0.04287  0.88018  1.0000
  C   C87       1.0  0.42967  0.05302  0.74673  1.0000
  C   C88       1.0  0.18890  0.43607  0.67523  1.0000
  H   H77       1.0  0.34025  0.17592  0.66151  1.0000
  C   C89       1.0  0.27899  0.26425  0.75535  1.0000
  H   H78       1.0  0.27839  0.38497  0.80244  1.0000
  C   C90       1.0  0.30093  0.03402  0.84439  1.0000
  C   C91       1.0  0.45536  0.20456  0.69667  1.0000
  H   H79       1.0  0.18377  0.38264  0.76981  1.0000
  C   C92       1.0  0.48599  0.12912  0.68447  1.0000
  H   H80       1.0  0.33177  0.31164  0.77351  1.0000
  C   C93       1.0  0.29321  0.09210  0.77441  1.0000
  C   C94       1.0  0.32355  0.27688  0.76458  1.0000
  H   H81       1.0  0.42636  0.08872  0.75413  1.0000
  C   C95       1.0  0.30312  0.18649  0.74223  1.0000
  H   H82       1.0  0.44057  0.44659  0.83132  1.0000
  H   H83       1.0  0.12504  0.09965  0.72757  1.0000
  C   C96       1.0  0.27474  0.04789  0.77324  1.0000
  C   C97       1.0  0.36997  0.04785  0.65347  1.0000
  C   C98       1.0  0.34782  0.19956  0.75144  1.0000
  C   C99       1.0  0.20030  0.39972  0.87962  1.0000
  P   P3        1.0  0.21914  0.46277  0.81547  1.0000
  C   C100      1.0  0.26871  0.21919  0.74436  1.0000
  C   C101      1.0  0.46925  0.16229  0.71204  1.0000
  C   C102      1.0  0.14895  0.11979  0.66647  1.0000
  C   C103      1.0  0.46806  0.12362  0.86753  1.0000
  C   C104      1.0  0.31459  0.10722  0.81152  1.0000
  C   C105      1.0  0.23478  0.12511  0.70435  1.0000
  H   H84       1.0  0.25240  0.28936  0.75699  1.0000
  H   H85       1.0  0.37481  0.17482  0.75030  1.0000
  H   H86       1.0  0.16802  0.36897  0.69463  1.0000
  H   H87       1.0  0.17694  0.42401  0.89246  1.0000
  C   C106      1.0  0.26375  0.33685  0.85128  1.0000
  C   C107      1.0  0.33034  0.34819  0.95596  1.0000
  H   H88       1.0  0.18878  0.35263  0.93041  1.0000
  S   S15       1.0  0.05395  0.49122  0.95822  1.0000
  C   C108      1.0  0.35780  0.24450  0.76290  1.0000
  P   P4        1.0  0.29034  0.12813  0.72815  1.0000
  H   H89       1.0  0.32914  0.14093  0.81388  1.0000
  C   C109      1.0  0.34119  0.06278  0.68528  1.0000
  H   H90       1.0  0.37427  0.03373  0.78652  1.0000
  C   C110      1.0  0.19680  0.11280  0.72822  1.0000
  H   H91       1.0  0.28954  0.44993  0.92285  1.0000
  H   H92       1.0  0.39205  0.25449  0.77087  1.0000
  H   H93       1.0  0.30566  0.01114  0.87080  1.0000
  C   C111      1.0  0.20670  0.35886  0.90130  1.0000
  C   C112      1.0  0.23847  0.32749  0.88722  1.0000
  C   C113      1.0  0.19066  0.40945  0.74734  1.0000
  H   H94       1.0  0.46046  0.15468  0.85092  1.0000
  C   C114      1.0  0.34883  0.14018  0.66024  1.0000
  C   C115      1.0  0.25721  0.37755  0.82927  1.0000
  C   C116      1.0  0.18135  0.40165  0.70476  1.0000
  C   C117      1.0  0.22525  0.40932  0.84318  1.0000
  H   H95       1.0  0.46899  0.15649  0.74567  1.0000
  C   C118      1.0  0.22896  0.13637  0.66178  1.0000
  H   H96       1.0  0.32598  0.32347  0.98084  1.0000
  C   C119      1.0  0.12936  0.47459  0.83923  1.0000
  C   C120      1.0  0.15411  0.10989  0.70923  1.0000
  C   C121      1.0  0.39983  0.02201  0.76513  1.0000
  H   H97       1.0  0.12495  0.43867  0.83263  1.0000
  H   H98       1.0  0.30255  0.46498  0.76510  1.0000
  H   H99       1.0  0.25808  0.03543  0.74500  1.0000
  C   C122      1.0  0.46647  0.46902  0.84404  1.0000
  C   C123      1.0  0.27879  0.01897  0.80803  1.0000
  C   C124      1.0  0.48679  0.04225  0.91028  1.0000
  C   C125      1.0  0.20838  0.45160  0.76054  1.0000
  H   H100      1.0  0.37745  0.01193  0.65055  1.0000
  H   H101      1.0  0.49354  0.01134  0.92761  1.0000
  C   C126      1.0  0.27270  0.49202  0.82196  1.0000
  H   H102      1.0  0.06117  0.48214  0.86184  1.0000
  C   C127      1.0  0.17150  0.49584  0.83344  1.0000
  C   C128      1.0  0.21479  0.48637  0.73086  1.0000
  C   C129      1.0  0.45771  0.49478  0.88004  1.0000
  C   C130      1.0  0.20542  0.47847  0.68830  1.0000
  H   H103      1.0  0.42473  0.49179  0.89434  1.0000
  S   S16       1.0  0.18923  0.49933  0.94810  1.0000
  C   C131      1.0  0.30720  0.48694  0.79212  1.0000
  C   C132      1.0  0.09294  0.49918  0.85521  1.0000
  C   C133      1.0  0.10537  0.65251  0.15915  1.0000
  H   H104      1.0  0.17785  0.55408  0.26177  1.0000
  C   C134      1.0  0.23515  0.55205  0.22134  1.0000
  C   C135      1.0  0.07806  0.70953  0.20782  1.0000
  C   C136      1.0  0.05636  0.73176  0.17455  1.0000
  S   S17       1.0  0.14483  0.56638  0.01916  1.0000
  H   H105      1.0  0.04881  0.59676  0.20741  1.0000
  C   C137      1.0  0.24672  0.61735  0.17628  1.0000
  Fe  Fe9       1.0  0.17258  0.51668  0.06717  1.0000
  C   C138      1.0  0.05574  0.58236  0.23804  1.0000
  C   C139      1.0  0.10320  0.67002  0.20026  1.0000
  H   H106      1.0  0.06655  0.57597  0.08712  1.0000
  C   C140      1.0  0.06104  0.97798  0.24882  1.0000
  C   C141      1.0  0.20816  0.63775  0.19295  1.0000
  C   C142      1.0  0.03567  0.52787  0.29196  1.0000
  H   H107      1.0  0.28902  0.55791  0.17637  1.0000
  H   H108      1.0  0.04729  0.95190  0.22823  1.0000
  C   C143      1.0  0.05935  0.71465  0.13366  1.0000
  C   C144      1.0  0.19668  0.57244  0.23819  1.0000
  H   H109      1.0  0.12331  0.62116  0.15274  1.0000
  H   H110      1.0  0.07462  0.72303  0.23934  1.0000
  H   H111      1.0  0.20922  0.70054  0.25838  1.0000
  C   C145      1.0  0.08406  0.67516  0.12595  1.0000
  S   S18       1.0  0.15383  0.52251  0.13656  1.0000
  C   C146      1.0  0.18214  0.61498  0.22336  1.0000
  H   H112      1.0  0.04223  0.73186  0.10807  1.0000
  H   H113      1.0  0.12046  0.51439  0.22102  1.0000
  C   C147      1.0  0.28434  0.67919  0.98222  1.0000
  S   S19       1.0  0.24238  0.51701  0.03827  1.0000
  C   C148      1.0  0.02723  0.54797  0.25297  1.0000
  H   H114      1.0  0.19811  0.67086  0.18136  1.0000
  C   C149      1.0  0.09293  0.59704  0.26228  1.0000
  C   C150      1.0  0.14480  0.68026  0.28476  1.0000
  H   H115      1.0  0.03677  0.76210  0.18062  1.0000
  C   C151      1.0  0.25996  0.57432  0.19018  1.0000
  H   H116      1.0  0.42415  0.70394  0.98569  1.0000
  P   P5        1.0  0.13088  0.64064  0.24301  1.0000
  H   H117      1.0  0.99878  0.53661  0.23414  1.0000
  C   C152      1.0  0.18560  0.70492  0.28387  1.0000
  H   H118      1.0  0.00743  0.63476  0.07453  1.0000
  H   H119      1.0  0.01510  0.96255  0.29925  1.0000
  H   H120      1.0  0.26578  0.63443  0.15188  1.0000
  H   H121      1.0  0.08657  0.66185  0.09428  1.0000
  C   C153      1.0  0.01845  0.52201  0.09694  1.0000
  C   C154      1.0  0.03102  0.56707  0.08878  1.0000
  C   C155      1.0  0.04258  0.98427  0.28870  1.0000
  H   H122      1.0  0.26464  0.66815  0.00894  1.0000
  H   H123      1.0  0.30907  0.74027  0.01262  1.0000
  C   C156      1.0  0.30938  0.72012  0.98414  1.0000
  Fe  Fe10      1.0  0.21223  0.55974  0.98639  1.0000
  C   C157      1.0  0.10091  0.57681  0.30162  1.0000
  H   H124      1.0  0.24493  0.51833  0.23158  1.0000
  H   H125      1.0  0.11339  0.99814  0.20582  1.0000
  Fe  Fe11      1.0  0.12453  0.50329  0.98431  1.0000
  H   H126      1.0  0.43481  0.62141  0.99563  1.0000
  S   S20       1.0  0.04615  0.90621  0.37497  1.0000
  H   H127      1.0  0.32963  0.93021  0.61869  1.0000
  C   C158      1.0  0.12557  0.71817  0.35024  1.0000
  C   C159      1.0  0.16613  0.74260  0.34907  1.0000
  S   S21       1.0  0.24398  0.93105  0.44992  1.0000
  S   S22       1.0  0.02802  0.77572  0.32998  1.0000
  H   H128      1.0  0.12855  0.68837  0.44683  1.0000
  H   H129      1.0  0.16307  0.98531  0.45678  1.0000
  H   H130      1.0  0.18601  0.72164  0.60397  1.0000
  C   C160      1.0  0.23498  0.77611  0.61255  1.0000
  H   H131      1.0  0.17399  0.76701  0.37368  1.0000
  H   H132      1.0  0.11733  0.96080  0.58042  1.0000
  H   H133      1.0  0.99915  0.97369  0.42847  1.0000
  C   C161      1.0  0.21110  0.73678  0.62453  1.0000
  H   H134      1.0  0.26413  0.88528  0.52376  1.0000
  H   H135      1.0  0.11273  0.91520  0.51483  1.0000
  C   C162      1.0  0.09958  0.90925  0.40002  1.0000
  C   C163      1.0  0.13196  0.87508  0.39537  1.0000
  C   C164      1.0  0.17598  0.88153  0.41160  1.0000
  C   C165      1.0  0.18754  0.92166  0.43332  1.0000
  C   C166      1.0  0.15455  0.95471  0.43961  1.0000
  C   C167      1.0  0.11100  0.94883  0.42249  1.0000
  H   H136      1.0  0.12357  0.84459  0.37784  1.0000
  H   H137      1.0  0.20136  0.85575  0.40668  1.0000
  H   H138      1.0  0.16123  0.84850  0.50545  1.0000
  H   H139      1.0  0.08607  0.97522  0.42630  1.0000
  H   H140      1.0  0.30975  0.75082  0.55719  1.0000
  Fe  Fe12      1.0  0.00796  0.84010  0.36305  1.0000
  C   C168      1.0  0.11460  0.68749  0.31806  1.0000
  C   C169      1.0  0.19363  0.71738  0.46299  1.0000
  C   C170      1.0  0.14749  0.70935  0.46892  1.0000
  C   C171      1.0  0.12544  0.72881  0.50315  1.0000
  C   C172      1.0  0.14950  0.75614  0.53163  1.0000
  C   C173      1.0  0.19590  0.76456  0.52592  1.0000
  C   C174      1.0  0.21777  0.74499  0.49125  1.0000
  P   P6        1.0  0.22574  0.80236  0.56176  1.0000
  C   C175      1.0  0.19266  0.85362  0.56721  1.0000
  H   H141      1.0  0.05781  0.59298  0.44386  1.0000
  H   H142      1.0  0.33908  0.90285  0.49479  1.0000
  S   S23       1.0  0.31784  0.99006  0.53877  1.0000
  S   S24       1.0  0.02462  0.67969  0.41439  1.0000
  C   C176      1.0  0.13799  0.93072  0.57690  1.0000
  C   C177      1.0  0.13546  0.90511  0.53995  1.0000
  C   C178      1.0  0.16299  0.86702  0.53487  1.0000
  C   C179      1.0  0.28106  0.81643  0.54177  1.0000
  C   C180      1.0  0.29006  0.85953  0.52484  1.0000
  C   C181      1.0  0.33286  0.86982  0.50890  1.0000
  C   C182      1.0  0.36731  0.83758  0.51079  1.0000
  C   C183      1.0  0.35889  0.79481  0.52843  1.0000
  C   C184      1.0  0.31588  0.78417  0.54377  1.0000
  H   H143      1.0  0.21053  0.70258  0.43616  1.0000
  C   C185      1.0  0.19633  0.88068  0.60347  1.0000
  H   H144      1.0  0.08945  0.72311  0.50711  1.0000
  H   H145      1.0  0.13167  0.77156  0.55763  1.0000
  H   H146      1.0  0.25317  0.75152  0.48537  1.0000
  C   C186      1.0  0.16882  0.91885  0.60838  1.0000
  C   C187      1.0  0.03079  0.58627  0.42165  1.0000
  H   H147      1.0  0.40048  0.84586  0.49858  1.0000
  H   H148      1.0  0.38569  0.76989  0.53011  1.0000
  H   H149      1.0  0.16025  0.99054  0.34856  1.0000
  H   H150      1.0  0.10206  0.72362  0.37576  1.0000
  C   C188      1.0  0.01736  0.54092  0.41336  1.0000
  H   H151      1.0  0.07897  0.52640  0.34642  1.0000
  H   H152      1.0  0.23666  0.96076  0.36130  1.0000
  H   H153      1.0  0.12927  0.58757  0.32091  1.0000
  H   H154      1.0  0.08232  0.66989  0.31922  1.0000
  C   C189      1.0  0.00884  0.62295  0.40195  1.0000
  H   H155      1.0  0.03385  0.51299  0.42929  1.0000
  Fe  Fe13      1.0  0.25893  0.99103  0.49309  1.0000
  C   C190      1.0  0.19615  0.73598  0.31589  1.0000
  H   H156      1.0  0.22075  0.87301  0.62773  1.0000
  H   H157      1.0  0.17227  0.94002  0.63615  1.0000
  C   C191      1.0  0.23165  0.99717  0.35848  1.0000
  H   H158      1.0  0.28723  0.82423  0.63136  1.0000
  C   C192      1.0  0.26790  0.79421  0.63998  1.0000
  C   C193      1.0  0.07255  0.54215  0.31620  1.0000
  H   H159      1.0  0.22747  0.75521  0.31482  1.0000
  C   C194      1.0  0.32530  0.92224  0.65163  1.0000
  Fe  Fe14      1.0  0.43092  0.91852  0.86936  1.0000
  C   C195      1.0  0.32222  0.54145  0.86291  1.0000
  Fe  Fe15      1.0  0.39979  0.82335  0.89850  1.0000
  S   S25       1.0  0.43349  0.78769  0.84467  1.0000
  S   S26       1.0  0.36348  0.78820  0.95260  1.0000
  S   S27       1.0  0.24967  0.60432  0.93900  1.0000
  Fe  Fe16      1.0  0.40652  0.84499  0.80469  1.0000
  S   S28       1.0  0.38222  0.83649  0.73711  1.0000
  C   C196      1.0  0.43844  0.95976  0.73164  1.0000
  S   S29       1.0  0.36792  0.87682  0.85727  1.0000
  C   C197      1.0  0.34779  0.87876  0.71386  1.0000
  C   C198      1.0  0.44338  0.68457  0.96299  1.0000
  C   C199      1.0  0.24401  0.89584  0.90959  1.0000
  C   C200      1.0  0.31465  0.90115  0.73710  1.0000
  C   C201      1.0  0.28121  0.51826  0.85805  1.0000
  C   C202      1.0  0.15634  0.81699  0.69706  1.0000
  H   H160      1.0  0.31029  0.89319  0.77004  1.0000
  C   C203      1.0  0.20762  0.89749  0.88150  1.0000
  C   C204      1.0  0.35596  0.53718  0.83266  1.0000
  H   H161      1.0  0.25956  0.71847  0.72039  1.0000
  C   C205      1.0  0.01173  0.53310  0.96493  1.0000
  C   C206      1.0  0.33414  0.73559  0.94924  1.0000
  C   C207      1.0  0.33454  0.70924  0.91266  1.0000
  H   H162      1.0  0.11467  0.75669  0.69879  1.0000
  H   H163      1.0  0.38802  0.55467  0.83690  1.0000
  C   C208      1.0  0.35246  0.88885  0.67089  1.0000
  H   H164      1.0  0.35383  0.72049  0.88577  1.0000
  C   C209      1.0  0.30971  0.66829  0.91086  1.0000
  H   H165      1.0  0.48781  0.86588  0.65372  1.0000
  H   H166      1.0  0.31004  0.64821  0.88245  1.0000
  C   C210      1.0  0.49185  0.52220  0.89796  1.0000
  H   H167      1.0  0.25624  0.52090  0.88265  1.0000
  C   C211      1.0  0.48783  0.68217  0.89941  1.0000
  H   H168      1.0  0.18720  0.92790  0.87951  1.0000
  C   C212      1.0  0.18945  0.84266  0.71790  1.0000
  H   H169      1.0  0.37535  0.50499  0.77471  1.0000
  C   C213      1.0  0.13968  0.77704  0.71538  1.0000
  C   C214      1.0  0.15567  0.76304  0.75478  1.0000
  C   C215      1.0  0.18747  0.78974  0.77669  1.0000
  C   C216      1.0  0.20539  0.82880  0.75727  1.0000
  P   P7        1.0  0.20982  0.77134  0.82678  1.0000
  C   C217      1.0  0.22403  0.82037  0.85845  1.0000
  C   C218      1.0  0.17000  0.73957  0.85838  1.0000
  C   C219      1.0  0.12323  0.74608  0.85393  1.0000
  H   H170      1.0  0.49764  0.97692  0.69712  1.0000
  H   H171      1.0  0.26574  0.98449  0.80653  1.0000
  C   C220      1.0  0.27655  0.77353  0.67876  1.0000
  C   C221      1.0  0.18592  0.71031  0.89001  1.0000
  C   C222      1.0  0.25997  0.81869  0.88729  1.0000
  C   C223      1.0  0.26981  0.85633  0.91276  1.0000
  C   C224      1.0  0.09292  0.72159  0.87909  1.0000
  H   H172      1.0  0.29767  0.85493  0.93497  1.0000
  C   C225      1.0  0.19729  0.85971  0.85636  1.0000
  C   C226      1.0  0.25871  0.73778  0.81392  1.0000
  C   C227      1.0  0.25534  0.69012  0.81089  1.0000
  C   C228      1.0  0.29260  0.66443  0.79835  1.0000
  C   C229      1.0  0.33321  0.68616  0.78816  1.0000
  C   C230      1.0  0.33641  0.73358  0.79003  1.0000
  C   C231      1.0  0.29938  0.75939  0.80284  1.0000
  H   H173      1.0  0.07002  0.56387  0.87832  1.0000
  H   H174      1.0  0.14410  0.82769  0.66646  1.0000
  H   H175      1.0  0.16832  0.66312  0.93921  1.0000
  H   H176      1.0  0.14337  0.73136  0.76798  1.0000
  H   H177      1.0  0.23193  0.84852  0.77238  1.0000
  H   H178      1.0  0.11007  0.77036  0.83147  1.0000
  H   H179      1.0  0.20320  0.87316  0.70345  1.0000
  H   H180      1.0  0.08563  0.67234  0.92900  1.0000
  C   C232      1.0  0.39032  0.54324  0.96267  1.0000
  H   H181      1.0  0.22183  0.70642  0.89552  1.0000
  H   H182      1.0  0.28029  0.78833  0.89042  1.0000
  H   H183      1.0  0.31863  0.53423  0.97147  1.0000
  H   H184      1.0  0.22706  0.51956  0.74067  1.0000
  H   H185      1.0  0.20658  0.56108  0.83447  1.0000
  H   H186      1.0  0.16836  0.86120  0.83545  1.0000
  H   H187      1.0  0.22407  0.67264  0.81820  1.0000
  H   H188      1.0  0.29019  0.62762  0.79716  1.0000
  H   H189      1.0  0.36769  0.75044  0.78143  1.0000
  H   H190      1.0  0.30252  0.79618  0.80367  1.0000
  H   H191      1.0  0.20152  0.68572  0.67241  1.0000
  S   S30       1.0  0.45989  0.86772  0.91534  1.0000
  C   C233      1.0  0.49300  0.63507  0.90407  1.0000
  H   H192      1.0  0.05781  0.58978  0.96979  1.0000
  H   H193      1.0  0.05682  0.72638  0.87541  1.0000
  H   H194      1.0  0.36226  0.66636  0.77880  1.0000
  H   H195      1.0  0.44199  0.92352  0.72636  1.0000
  H   H196      1.0  0.32770  0.56243  0.89047  1.0000
  H   H197      1.0  0.38581  0.57230  0.94220  1.0000
  C   C234      1.0  0.28404  0.65338  0.94532  1.0000
  H   H198      1.0  0.30203  0.78775  0.69970  1.0000
  C   C235      1.0  0.25263  0.73447  0.69041  1.0000
  C   C236      1.0  0.13892  0.56746  0.85656  1.0000
  C   C237      1.0  0.43380  0.52689  0.97200  1.0000
  H   H199      1.0  0.37759  0.87122  0.65253  1.0000
  C   C238      1.0  0.09790  0.54541  0.86448  1.0000
  H   H200      1.0  0.38187  0.95170  0.77328  1.0000
  S   S31       1.0  0.46777  0.88849  0.81461  1.0000
  H   H201      1.0  0.49057  0.83637  0.72666  1.0000
  C   C239      1.0  0.15560  0.68599  0.91515  1.0000
  C   C240      1.0  0.28701  0.93388  0.71766  1.0000
  S   S32       1.0  0.25795  0.98779  0.65279  1.0000
  H   H202      1.0  0.26119  0.95069  0.73571  1.0000
  C   C241      1.0  0.29264  0.94513  0.67509  1.0000
  H   H203      1.0  0.45892  0.74327  0.92541  1.0000
  H   H204      1.0  0.14280  0.60330  0.86376  1.0000
  C   C242      1.0  0.46283  0.70679  0.92875  1.0000
  C   C243      1.0  0.17540  0.54300  0.84051  1.0000
  C   C244      1.0  0.10909  0.69129  0.90946  1.0000
  H   H205      1.0  0.21078  0.50528  0.66543  1.0000
  P   P8        1.0  0.48258  0.55224  0.94678  1.0000
  C   C245      1.0  0.40414  0.97553  0.75763  1.0000
  S   S33       1.0  0.41661  0.99496  0.87039  1.0000
  C   C246      1.0  0.02277  0.57927  0.96916  1.0000
  H   H206      1.0  0.25213  0.92495  0.92923  1.0000
  C   C247      1.0  0.44907  0.63771  0.96815  1.0000
  C   C248      1.0  0.21995  0.71609  0.66334  1.0000
  C   C249      1.0  0.46937  0.99044  0.71429  1.0000
  Fe  Fe17      1.0  0.49205  0.83419  0.85933  1.0000
  C   C250      1.0  0.47336  0.61241  0.93838  1.0000
  C   C251      1.0  0.34865  0.50949  0.79750  1.0000
  C   C252      1.0  0.35207  0.52163  0.97905  1.0000
  C   C253      1.0  0.90537  0.43493  0.07952  1.0000
  C   C254      1.0  0.82689  0.40828  0.03593  1.0000
  C   C255      1.0  0.98929  0.09329  0.25232  1.0000
  H   H207      1.0  0.79593  0.39889  0.01964  1.0000
  C   C256      1.0  0.93471  0.08569  0.30883  1.0000
  H   H208      1.0  0.84152  0.46399  0.99413  1.0000
  H   H209      1.0  0.91182  0.48608  0.03085  1.0000
  H   H210      1.0  0.87614  0.45786  0.16168  1.0000
  C   C257      1.0  0.98633  0.44287  0.19010  1.0000
  P   P9        1.0  0.95611  0.45130  0.10750  1.0000
  C   C258      1.0  0.95711  0.06733  0.27392  1.0000
  C   C259      1.0  0.90556  0.45238  0.18139  1.0000
  C   C260      1.0  0.84078  0.38411  0.07151  1.0000
  H   H211      1.0  0.82082  0.35552  0.08248  1.0000
  C   C261      1.0  0.94864  0.44768  0.16360  1.0000
  S   S34       1.0  0.73674  0.47942  0.01091  1.0000
  C   C262      1.0  0.85264  0.44504  0.02151  1.0000
  C   C263      1.0  0.93788  0.44534  0.25115  1.0000
  H   H212      1.0  0.95010  0.03300  0.26338  1.0000
  C   C264      1.0  0.97907  0.15516  0.30150  1.0000
  C   C265      1.0  0.88009  0.39713  0.09308  1.0000
  C   C266      1.0  0.90025  0.45100  0.22506  1.0000
  H   H213      1.0  0.86373  0.03702  0.24942  1.0000
  H   H214      1.0  0.89067  0.37788  0.12042  1.0000
  H   H215      1.0  0.86700  0.45459  0.23868  1.0000
  C   C267      1.0  0.89205  0.45798  0.04288  1.0000
  C   C268      1.0  0.98075  0.44062  0.23362  1.0000
  H   H216      1.0  0.93403  0.44478  0.28499  1.0000
  H   H217      1.0  0.69299  0.39253  0.00158  1.0000
  H   H218      1.0  0.99525  0.36617  0.14138  1.0000
  H   H219      1.0  0.98767  0.18915  0.31250  1.0000
  H   H220      1.0  0.60897  0.46267  0.00505  1.0000
  C   C269      1.0  0.59379  0.49603  0.00297  1.0000
  C   C270      1.0  0.86165  0.00497  0.26616  1.0000
  C   C271      1.0  0.87511  0.00232  0.30852  1.0000
  H   H221      1.0  0.72350  0.00213  0.17670  1.0000
  S   S35       1.0  0.94742  0.24186  0.38268  1.0000
  Fe  Fe18      1.0  0.72495  0.15008  0.47903  1.0000
  S   S36       1.0  0.77270  0.13116  0.53087  1.0000
  S   S37       1.0  0.74231  0.20848  0.43487  1.0000
  Fe  Fe19      1.0  0.65634  0.07651  0.50417  1.0000
  S   S38       1.0  0.70112  0.05177  0.55681  1.0000
  S   S39       1.0  0.59175  0.03592  0.49153  1.0000
  Fe  Fe20      1.0  0.71069  0.12611  0.57139  1.0000
  H   H222      1.0  0.93261  0.14296  0.35177  1.0000
  Fe  Fe21      1.0  0.75834  0.05874  0.51121  1.0000
  S   S40       1.0  0.66335  0.15066  0.52091  1.0000
  S   S41       1.0  0.71339  0.07807  0.45732  1.0000
  C   C272      1.0  0.53616  0.05599  0.50027  1.0000
  C   C273      1.0  0.73579  0.25145  0.56075  1.0000
  C   C274      1.0  0.94754  0.12897  0.32356  1.0000
  H   H223      1.0  0.55538  0.12508  0.51433  1.0000
  H   H224      1.0  0.95488  0.30487  0.51189  1.0000
  C   C275      1.0  0.75940  0.08270  0.35991  1.0000
  H   H225      1.0  0.90238  0.16684  0.42165  1.0000
  H   H226      1.0  0.62631  0.18299  0.60332  1.0000
  C   C276      1.0  0.89048  0.23465  0.39847  1.0000
  C   C277      1.0  0.85775  0.26807  0.39166  1.0000
  C   C278      1.0  0.81250  0.25992  0.40334  1.0000
  C   C279      1.0  0.79973  0.21855  0.42227  1.0000
  C   C280      1.0  0.83253  0.18529  0.42917  1.0000
  C   C281      1.0  0.87747  0.19309  0.41674  1.0000
  H   H227      1.0  0.86717  0.29986  0.37686  1.0000
  H   H228      1.0  0.78720  0.28560  0.39752  1.0000
  H   H229      1.0  0.82298  0.15309  0.44314  1.0000
  H   H230      1.0  0.88727  0.32201  0.45532  1.0000
  C   C282      1.0  0.62840  0.19415  0.63565  1.0000
  H   H231      1.0  0.80369  0.02582  0.36756  1.0000
  H   H232      1.0  0.80082  0.39535  0.35892  1.0000
  C   C283      1.0  0.91598  0.03971  0.38639  1.0000
  C   C284      1.0  0.71082  0.26914  0.52725  1.0000
  H   H233      1.0  0.87091  0.08183  0.42318  1.0000
  C   C285      1.0  0.75552  0.12849  0.34886  1.0000
  S   S42       1.0  0.97707  0.36388  0.32386  1.0000
  H   H234      1.0  0.93835  0.28792  0.59965  1.0000
  P   P10       1.0  0.89150  0.05368  0.33608  1.0000
  H   H235      1.0  0.71260  0.31002  0.47122  1.0000
  H   H236      1.0  0.89836  0.14556  0.51483  1.0000
  C   C286      1.0  0.52755  0.10133  0.51085  1.0000
  H   H237      1.0  0.65319  0.04533  0.63446  1.0000
  H   H238      1.0  0.87787  0.47378  0.52292  1.0000
  C   C287      1.0  0.83915  0.08439  0.34211  1.0000
  C   C288      1.0  0.76609  0.45887  0.34896  1.0000
  H   H239      1.0  0.79291  0.33043  0.47880  1.0000
  H   H240      1.0  0.90506  0.06119  0.49111  1.0000
  C   C289      1.0  0.78151  0.26272  0.56530  1.0000
  C   C290      1.0  0.89943  0.05891  0.42364  1.0000
  C   C291      1.0  0.94199  0.27030  0.51266  1.0000
  H   H241      1.0  0.80050  0.24808  0.59108  1.0000
  H   H242      1.0  0.89824  0.46735  0.44762  1.0000
  C   C292      1.0  0.91080  0.18033  0.51468  1.0000
  C   C293      1.0  0.83807  0.33882  0.62258  1.0000
  H   H243      1.0  0.80649  0.34944  0.60836  1.0000
  H   H244      1.0  0.73011  0.06412  0.37098  1.0000
  H   H245      1.0  0.71980  0.22825  0.58268  1.0000
  S   S43       1.0  0.96015  0.47634  0.37671  1.0000
  C   C294      1.0  0.91905  0.04764  0.46231  1.0000
  H   H246      1.0  0.90283  0.39149  0.41407  1.0000
  C   C295      1.0  0.80117  0.06100  0.35751  1.0000
  C   C296      1.0  0.91202  0.30426  0.61758  1.0000
  C   C297      1.0  0.84622  0.44834  0.33845  1.0000
  C   C298      1.0  0.95485  0.18989  0.50157  1.0000
  C   C299      1.0  0.61712  0.03932  0.63417  1.0000
  C   C300      1.0  0.73158  0.29800  0.49817  1.0000
  C   C301      1.0  0.77737  0.30914  0.50244  1.0000
  C   C302      1.0  0.80259  0.29201  0.53637  1.0000
  H   H247      1.0  0.84791  0.20748  0.53546  1.0000
  P   P11       1.0  0.86154  0.30693  0.54294  1.0000
  C   C303      1.0  0.89748  0.26107  0.52554  1.0000
  C   C304      1.0  0.87367  0.35806  0.51318  1.0000
  C   C305      1.0  0.88489  0.35490  0.47042  1.0000
  C   C306      1.0  0.89352  0.39419  0.44690  1.0000
  C   C307      1.0  0.89100  0.43698  0.46584  1.0000
  C   C308      1.0  0.87964  0.44053  0.50831  1.0000
  C   C309      1.0  0.87089  0.40127  0.53193  1.0000
  H   H248      1.0  0.67572  0.25936  0.52306  1.0000
  H   H249      1.0  0.56398  0.22816  0.63387  1.0000
  H   H250      1.0  0.86209  0.40493  0.56468  1.0000
  H   H251      1.0  0.73337  0.44519  0.35763  1.0000
  C   C310      1.0  0.88210  0.21577  0.52634  1.0000
  C   C311      1.0  0.87141  0.31754  0.59826  1.0000
  C   C312      1.0  0.97037  0.23485  0.50038  1.0000
  C   C313      1.0  0.85055  0.49400  0.32659  1.0000
  C   C314      1.0  0.83453  0.13002  0.32942  1.0000
  H   H252      1.0  0.79009  0.18781  0.32552  1.0000
  C   C315      1.0  0.55027  0.00900  0.60001  1.0000
  Fe  Fe22      1.0  0.98582  0.30829  0.37167  1.0000
  C   C316      1.0  0.80403  0.43074  0.34961  1.0000
  H   H253      1.0  0.72361  0.14593  0.35282  1.0000
  S   S44       1.0  0.71180  0.15145  0.63926  1.0000
  H   H254      1.0  0.87582  0.42677  0.33953  1.0000
  C   C317      1.0  0.95498  0.01702  0.46408  1.0000
  H   H255      1.0  0.96917  0.00727  0.49419  1.0000
  C   C318      1.0  0.95255  0.00952  0.38834  1.0000
  H   H256      1.0  0.97679  0.16260  0.49175  1.0000
  H   H257      1.0  0.99104  0.11840  0.42476  1.0000
  C   C319      1.0  0.79303  0.15208  0.33351  1.0000
  S   S45       1.0  0.81902  0.01151  0.50731  1.0000
  C   C320      1.0  0.59709  0.01460  0.60141  1.0000
  C   C321      1.0  0.52349  0.02748  0.63166  1.0000
  H   H258      1.0  0.50212  0.11519  0.61895  1.0000
  H   H259      1.0  0.86239  0.14913  0.31657  1.0000
  C   C322      1.0  0.49956  0.02554  0.49589  1.0000
  C   C323      1.0  0.70240  0.24301  0.82229  1.0000
  Fe  Fe23      1.0  0.53468  0.27738  0.78543  1.0000
  S   S46       1.0  0.58479  0.26684  0.83703  1.0000
  S   S47       1.0  0.54846  0.26499  0.71596  1.0000
  H   H260      1.0  0.57676  0.49754  0.82957  1.0000
  C   C324      1.0  0.78795  0.24293  0.69191  1.0000
  Fe  Fe24      1.0  0.56438  0.33562  0.86167  1.0000
  S   S48       1.0  0.60892  0.39904  0.86729  1.0000
  Fe  Fe25      1.0  0.52528  0.23930  0.87338  1.0000
  C   C325      1.0  0.91897  0.31183  0.66058  1.0000
  H   H261      1.0  0.77325  0.45003  0.90372  1.0000
  C   C326      1.0  0.77207  0.36655  0.82877  1.0000
  C   C327      1.0  0.70331  0.04602  0.71454  1.0000
  C   C328      1.0  0.75604  0.39866  0.85788  1.0000
  S   S49       1.0  0.53504  0.17279  0.90929  1.0000
  C   C329      1.0  0.51169  0.08231  0.91914  1.0000
  H   H262      1.0  0.66458  0.47566  0.75128  1.0000
  C   C330      1.0  0.66800  0.19756  0.70219  1.0000
  C   C331      1.0  0.63254  0.22314  0.71961  1.0000
  C   C332      1.0  0.59470  0.23419  0.69518  1.0000
  H   H263      1.0  0.80435  0.26311  0.79607  1.0000
  H   H264      1.0  0.69706  0.18912  0.72132  1.0000
  H   H265      1.0  0.63429  0.23405  0.75194  1.0000
  C   C333      1.0  0.79140  0.26796  0.76446  1.0000
  H   H266      1.0  0.72013  0.40331  0.86235  1.0000
  C   C334      1.0  0.68678  0.48459  0.93721  1.0000
  C   C335      1.0  0.65814  0.46613  0.90605  1.0000
  C   C336      1.0  0.64146  0.42137  0.90938  1.0000
  C   C337      1.0  0.65364  0.39511  0.94425  1.0000
  C   C338      1.0  0.68559  0.21014  0.85005  1.0000
  C   C339      1.0  0.73965  0.30396  0.71565  1.0000
  C   C340      1.0  0.69976  0.45806  0.97163  1.0000
  C   C341      1.0  0.67385  0.04829  0.74865  1.0000
  H   H267      1.0  0.53807  0.08168  0.94279  1.0000
  C   C342      1.0  0.56441  0.07191  0.82349  1.0000
  C   C343      1.0  0.54152  0.08961  0.75187  1.0000
  C   C344      1.0  0.67848  0.26753  0.90403  1.0000
  C   C345      1.0  0.56652  0.13021  0.75420  1.0000
  C   C346      1.0  0.58941  0.14199  0.79123  1.0000
  C   C347      1.0  0.58843  0.11283  0.82584  1.0000
  C   C348      1.0  0.61258  0.37228  0.74820  1.0000
  H   H268      1.0  0.69804  0.33505  0.88730  1.0000
  C   C349      1.0  0.75461  0.27518  0.68365  1.0000
  H   H269      1.0  0.56715  0.15327  0.72773  1.0000
  H   H270      1.0  0.60683  0.17431  0.79357  1.0000
  H   H271      1.0  0.60485  0.12268  0.85503  1.0000
  C   C350      1.0  0.50252  0.12322  0.89776  1.0000
  C   C351      1.0  0.70834  0.28847  0.83541  1.0000
  C   C352      1.0  0.68722  0.36604  0.77975  1.0000
  C   C353      1.0  0.69396  0.41292  0.77305  1.0000
  C   C354      1.0  0.65961  0.43939  0.75538  1.0000
  C   C355      1.0  0.84895  0.39068  0.84544  1.0000
  C   C356      1.0  0.59051  0.05781  0.66592  1.0000
  C   C357      1.0  0.64626  0.34600  0.76707  1.0000
  H   H272      1.0  0.71002  0.23267  0.79051  1.0000
  H   H273      1.0  0.68089  0.17534  0.83960  1.0000
  H   H274      1.0  0.72559  0.42927  0.78131  1.0000
  H   H275      1.0  0.89095  0.33858  0.71787  1.0000
  H   H276      1.0  0.58141  0.35628  0.73779  1.0000
  C   C358      1.0  0.88557  0.33284  0.68455  1.0000
  C   C359      1.0  0.67355  0.22240  0.89090  1.0000
  H   H277      1.0  0.64904  0.48662  0.87910  1.0000
  C   C360      1.0  0.78611  0.42575  0.88105  1.0000
  H   H278      1.0  0.95033  0.30133  0.67528  1.0000
  C   C361      1.0  0.61892  0.41905  0.74295  1.0000
  P   P12       1.0  0.73224  0.33076  0.80008  1.0000
  H   H279      1.0  0.64058  0.30994  0.77099  1.0000
  C   C362      1.0  0.54050  0.06057  0.78693  1.0000
  C   C363      1.0  0.66613  0.18298  0.66012  1.0000
  C   C364      1.0  0.80671  0.23967  0.73218  1.0000
  C   C365      1.0  0.69566  0.30039  0.87646  1.0000
  H   H280      1.0  0.56285  0.04986  0.85070  1.0000
  H   H281      1.0  0.59229  0.43940  0.72917  1.0000
  H   H282      1.0  0.88503  0.38792  0.84056  1.0000
  H   H283      1.0  0.73905  0.27673  0.65277  1.0000
  C   C366      1.0  0.81890  0.36335  0.82230  1.0000
  H   H284      1.0  0.79826  0.21959  0.66736  1.0000
  H   H285      1.0  0.66797  0.27735  0.93532  1.0000
  H   H286      1.0  0.64095  0.36068  0.94714  1.0000
  C   C367      1.0  0.75762  0.30038  0.75656  1.0000
  H   H287      1.0  0.71282  0.32757  0.70839  1.0000
  H   H288      1.0  0.95723  0.48445  0.95994  1.0000
  H   H289      1.0  0.83254  0.34019  0.79938  1.0000
  H   H290      1.0  0.65902  0.19730  0.91197  1.0000
  H   H291      1.0  0.66688  0.08087  0.76317  1.0000
  C   C368      1.0  0.84522  0.34648  0.66552  1.0000
  H   H292      1.0  0.52022  0.02988  0.78676  1.0000
  H   H293      1.0  0.81928  0.36271  0.68410  1.0000
  H   H294      1.0  0.60663  0.07803  0.69016  1.0000
  C   C369      1.0  0.83258  0.42165  0.87498  1.0000
  H   H295      1.0  0.83194  0.21399  0.73868  1.0000
  S   S50       1.0  0.51710  0.34736  0.80743  1.0000
  C   C370      1.0  0.50920  0.47046  0.82562  1.0000
  H   H296      1.0  0.51646  0.44932  0.79861  1.0000
  C   C371      1.0  0.54317  0.49789  0.84297  1.0000
  S   S51       1.0  0.50914  0.30768  0.90311  1.0000
  H   H297      1.0  0.85581  0.44276  0.89301  1.0000
  C   C372      1.0  0.68322  0.41321  0.97494  1.0000
  C   C373      1.0  0.59303  0.21980  0.65307  1.0000
  C   C374      1.0  0.54356  0.05136  0.66527  1.0000
  H   H298      1.0  0.71903  0.07683  0.70253  1.0000
  P   P13       1.0  0.50875  0.07661  0.70525  1.0000
  H   H299      1.0  0.63019  0.01140  0.79001  1.0000
  C   C375      1.0  0.65279  0.00874  0.76358  1.0000
  H   H300      1.0  0.53848  0.47252  0.96497  1.0000
  C   C376      1.0  0.71187  0.00415  0.69538  1.0000
  H   H301      1.0  0.73438  0.00259  0.66859  1.0000
  C   C377      1.0  0.55341  0.50172  0.98074  1.0000
  S   S52       1.0  0.95478  0.76327  0.22741  1.0000
  Fe  Fe26      1.0  0.78852  0.62541  0.08063  1.0000
  S   S53       1.0  0.79790  0.63833  0.15065  1.0000
  S   S54       1.0  0.82568  0.57185  0.04470  1.0000
  S   S55       1.0  0.72121  0.60215  0.05559  1.0000
  C   C378      1.0  0.91165  0.72762  0.20655  1.0000
  C   C379      1.0  0.91422  0.71255  0.16468  1.0000
  C   C380      1.0  0.87962  0.68525  0.14705  1.0000
  C   C381      1.0  0.84204  0.67303  0.17114  1.0000
  C   C382      1.0  0.83974  0.68795  0.21304  1.0000
  C   C383      1.0  0.87459  0.71456  0.23077  1.0000
  H   H302      1.0  0.94298  0.72216  0.14575  1.0000
  H   H303      1.0  0.88180  0.67402  0.11476  1.0000
  H   H304      1.0  0.81099  0.67894  0.23208  1.0000
  H   H305      1.0  0.87289  0.72476  0.26331  1.0000
  H   H306      1.0  0.82533  0.89599  0.25156  1.0000
  H   H307      1.0  0.93275  0.80324  0.08420  1.0000
  C   C384      1.0  0.85689  0.83788  0.15749  1.0000
  C   C385      1.0  0.86086  0.56192  0.23720  1.0000
  H   H308      1.0  0.70767  0.62963  0.20568  1.0000
  S   S56       1.0  0.79553  0.67985  0.03196  1.0000
  C   C386      1.0  0.86274  0.58825  0.27404  1.0000
  C   C387      1.0  0.95222  0.58835  0.08474  1.0000
  H   H309      1.0  0.65246  0.65868  0.25769  1.0000
  C   C388      1.0  0.81219  0.79961  0.25242  1.0000
  C   C389      1.0  0.77201  0.79390  0.22936  1.0000
  C   C390      1.0  0.73323  0.77778  0.25014  1.0000
  P   P14       1.0  0.76771  0.81352  0.17553  1.0000
  C   C391      1.0  0.75265  0.87305  0.17587  1.0000
  C   C392      1.0  0.82062  0.80866  0.14753  1.0000
  C   C393      1.0  0.92876  0.59872  0.21144  1.0000
  C   C394      1.0  0.59625  0.57671  0.01800  1.0000
  P   P15       1.0  0.81920  0.58235  0.31360  1.0000
  C   C395      1.0  0.86511  0.77697  0.09051  1.0000
  C   C396      1.0  0.82508  0.77824  0.11365  1.0000
  C   C397      1.0  0.76098  0.90010  0.14030  1.0000
  C   C398      1.0  0.75047  0.94647  0.14061  1.0000
  C   C399      1.0  0.69338  0.64034  0.31134  1.0000
  Fe  Fe27      1.0  0.96026  0.77842  0.29746  1.0000
  C   C400      1.0  0.73356  0.89311  0.21172  1.0000
  C   C401      1.0  0.72550  0.77980  0.14834  1.0000
  C   C402      1.0  0.72431  0.73248  0.15442  1.0000
  C   C403      1.0  0.69430  0.70528  0.13132  1.0000
  C   C404      1.0  0.66491  0.72515  0.10229  1.0000
  C   C405      1.0  0.66567  0.77224  0.09612  1.0000
  C   C406      1.0  0.69587  0.79960  0.11903  1.0000
  C   C407      1.0  0.93957  0.54344  0.09342  1.0000
  S   S57       1.0  0.66443  0.69263  0.99615  1.0000
  C   C408      1.0  0.73173  0.96621  0.17647  1.0000
  H   H310      1.0  0.84286  0.81137  0.23765  1.0000
  H   H311      1.0  0.70143  0.77421  0.23347  1.0000
  H   H312      1.0  0.77849  0.59579  0.22917  1.0000
  H   H313      1.0  0.86839  0.75298  0.06477  1.0000
  H   H314      1.0  0.79806  0.75513  0.10488  1.0000
  H   H315      1.0  0.77543  0.88526  0.11222  1.0000
  H   H316      1.0  0.72670  0.87323  0.23964  1.0000
  Fe  Fe28      1.0  0.73057  0.65313  0.00340  1.0000
  Fe  Fe29      1.0  0.75890  0.55369  0.01446  1.0000
  C   C409      1.0  0.68382  0.64361  0.26837  1.0000
  H   H317      1.0  0.74764  0.71644  0.17608  1.0000
  H   H318      1.0  0.69490  0.66860  0.13492  1.0000
  H   H319      1.0  0.64229  0.70391  0.08375  1.0000
  H   H320      1.0  0.64358  0.78720  0.07266  1.0000
  H   H321      1.0  0.69647  0.83581  0.11309  1.0000
  C   C410      1.0  0.75528  0.60783  0.25265  1.0000
  C   C411      1.0  0.89326  0.56782  0.20574  1.0000
  H   H322      1.0  0.90067  0.64078  0.30690  1.0000
  H   H323      1.0  0.92653  0.61387  0.07923  1.0000
  C   C412      1.0  0.61547  0.53351  0.02124  1.0000
  H   H324      1.0  0.95338  0.60387  0.18674  1.0000
  H   H325      1.0  0.85410  0.86238  0.18272  1.0000
  C   C413      1.0  0.93187  0.62385  0.24862  1.0000
  H   H326      1.0  0.92565  0.85707  0.14391  1.0000
  H   H327      1.0  0.75670  0.96707  0.11295  1.0000
  Fe  Fe30      1.0  0.83013  0.62491  0.99434  1.0000
  H   H328      1.0  0.64765  0.52909  0.03715  1.0000
  H   H329      1.0  0.90402  0.53503  0.09568  1.0000
  C   C414      1.0  0.72334  0.93954  0.21200  1.0000
  H   H330      1.0  0.83361  0.53777  0.23220  1.0000
  C   C415      1.0  0.89858  0.61931  0.27942  1.0000
  H   H331      1.0  0.70880  0.95484  0.23984  1.0000
  H   H332      1.0  0.95902  0.64843  0.25281  1.0000
  C   C416      1.0  0.89729  0.83563  0.13500  1.0000
  C   C417      1.0  0.83934  0.92555  0.26723  1.0000
  C   C418      1.0  0.71473  0.62720  0.23909  1.0000
  C   C419      1.0  0.90135  0.80531  0.10141  1.0000
  C   C420      1.0  0.97255  0.50964  0.09809  1.0000
  C   C421      1.0  0.84438  0.96654  0.24546  1.0000
  H   H333      1.0  0.89025  0.54923  0.17649  1.0000
  C   C422      1.0  0.73489  0.76715  0.29301  1.0000
  H   H334      1.0  0.83406  0.96874  0.21280  1.0000
  H   H335      1.0  0.57767  0.73456  0.99246  1.0000
  C   C423      1.0  0.81352  0.78954  0.29534  1.0000
  C   C424      1.0  0.76577  0.60533  0.29564  1.0000
  H   H336      1.0  0.70490  0.75491  0.30887  1.0000
  H   H337      1.0  0.61371  0.60604  0.03116  1.0000
  C   C425      1.0  0.99790  0.60011  0.08211  1.0000
  H   H338      1.0  0.54145  0.61637  0.99426  1.0000
  H   H339      1.0  0.84462  0.79436  0.31291  1.0000
  C   C426      1.0  0.85141  0.92295  0.30965  1.0000
  C   C427      1.0  0.55513  0.58239  0.99678  1.0000
  H   H340      1.0  0.84650  0.89145  0.32683  1.0000
  S   S58       1.0  0.92380  0.73885  0.34714  1.0000
  C   C428      1.0  0.82927  0.66045  0.36277  1.0000
  S   S59       1.0  0.97476  0.80423  0.41713  1.0000
  H   H341      1.0  0.74084  0.61881  0.35840  1.0000
  H   H342      1.0  0.87657  0.95847  0.36366  1.0000
  Fe  Fe31      1.0  0.91177  0.80732  0.37766  1.0000
  S   S60       1.0  0.84206  0.83060  0.39813  1.0000
  H   H343      1.0  0.81457  0.67872  0.33651  1.0000
  C   C429      1.0  0.98172  0.53206  0.38538  1.0000
  C   C430      1.0  0.87096  0.61536  0.42979  1.0000
  C   C431      1.0  0.96062  0.56876  0.36517  1.0000
  Fe  Fe32      1.0  0.99036  0.73956  0.38165  1.0000
  H   H344      1.0  0.93360  0.56234  0.34311  1.0000
  C   C432      1.0  0.86367  0.66226  0.43200  1.0000
  C   C433      1.0  0.83650  0.88264  0.42611  1.0000
  C   C434      1.0  0.87253  0.90073  0.44940  1.0000
  C   C435      1.0  0.86635  0.94001  0.47404  1.0000
  C   C436      1.0  0.82471  0.96277  0.47461  1.0000
  C   C437      1.0  0.78898  0.94556  0.45021  1.0000
  C   C438      1.0  0.79474  0.90534  0.42648  1.0000
  H   H345      1.0  0.90476  0.88356  0.44966  1.0000
  H   H346      1.0  0.89384  0.95237  0.49343  1.0000
  H   H347      1.0  0.54910  0.91645  0.62771  1.0000
  H   H348      1.0  0.76660  0.89158  0.40866  1.0000
  C   C439      1.0  0.84231  0.68469  0.39875  1.0000
  H   H349      1.0  0.75664  0.96253  0.45051  1.0000
  H   H350      1.0  0.87530  0.68144  0.45915  1.0000
  H   H351      1.0  0.77623  0.76631  0.34914  1.0000
  H   H352      1.0  0.95728  0.64183  0.35794  1.0000
  H   H353      1.0  0.83724  0.72124  0.40035  1.0000
  H   H354      1.0  0.88854  0.59819  0.45514  1.0000
  C   C440      1.0  0.85677  0.59076  0.39440  1.0000
  C   C441      1.0  0.83601  0.61316  0.36047  1.0000
  C   C442      1.0  0.97413  0.61389  0.37329  1.0000
  C   C443      1.0  0.81273  0.52266  0.32627  1.0000
  H   H355      1.0  0.96555  0.99396  0.36005  1.0000
  C   C444      1.0  0.86904  0.96114  0.33036  1.0000
  S   S61       1.0  0.94384  0.84658  0.32525  1.0000
  H   H356      1.0  0.86340  0.55459  0.39329  1.0000
  C   C445      1.0  0.73406  0.62113  0.32497  1.0000
  H   H357      1.0  0.74066  0.52595  0.33766  1.0000
  H   H358      1.0  0.66930  0.65276  0.33412  1.0000
  H   H359      1.0  0.53480  0.99126  0.57372  1.0000
  C   C446      1.0  0.97174  0.99799  0.42710  1.0000
  H   H360      1.0  0.50593  0.99043  0.48764  1.0000
  C   C447      1.0  0.77498  0.77339  0.31568  1.0000
  H   H361      1.0  0.88363  0.50704  0.31845  1.0000
  H   H362      1.0  0.61759  0.00090  0.57629  1.0000
  C   C448      1.0  0.77038  0.50471  0.33749  1.0000
  C   C449      1.0  0.63280  0.90941  0.85115  1.0000
  H   H363      1.0  0.67758  0.75347  0.77464  1.0000
  S   S62       1.0  0.76575  0.60299  0.96071  1.0000
  H   H364      1.0  0.78618  0.85062  0.78386  1.0000
  C   C450      1.0  0.54937  0.95275  0.85844  1.0000
  H   H365      1.0  0.69740  0.93243  0.69464  1.0000
  H   H366      1.0  0.55390  0.85706  0.77360  1.0000
  H   H367      1.0  0.69163  0.71988  0.91068  1.0000
  S   S63       1.0  0.56428  0.80815  0.85347  1.0000
  C   C451      1.0  0.93155  0.55273  0.96666  1.0000
  H   H368      1.0  0.55626  0.94133  0.92501  1.0000
  C   C452      1.0  0.65881  0.82379  0.76769  1.0000
  C   C453      1.0  0.51582  0.87508  0.67417  1.0000
  C   C454      1.0  0.73552  0.79800  0.77888  1.0000
  C   C455      1.0  0.63750  0.72394  0.95537  1.0000
  C   C456      1.0  0.53327  0.54483  0.97801  1.0000
  C   C457      1.0  0.57120  0.76691  0.93184  1.0000
  C   C458      1.0  0.59175  0.77579  0.89320  1.0000
  C   C459      1.0  0.63535  0.75870  0.88584  1.0000
  C   C460      1.0  0.65812  0.73278  0.91669  1.0000
  H   H369      1.0  0.62328  0.81543  0.76520  1.0000
  H   H370      1.0  0.53788  0.78011  0.93811  1.0000
  H   H371      1.0  0.65163  0.76556  0.85617  1.0000
  C   C461      1.0  0.55023  0.90373  0.65966  1.0000
  P   P16       1.0  0.63356  0.91518  0.76317  1.0000
  C   C462      1.0  0.58796  0.89938  0.72771  1.0000
  C   C463      1.0  0.61021  0.92448  0.81481  1.0000
  C   C464      1.0  0.56842  0.94622  0.81880  1.0000
  C   C465      1.0  0.59395  0.74114  0.96267  1.0000
  C   C466      1.0  0.57174  0.93735  0.89442  1.0000
  C   C467      1.0  0.61345  0.91569  0.89078  1.0000
  H   H372      1.0  0.99703  0.64782  0.97316  1.0000
  C   C468      1.0  0.71995  0.87866  0.77316  1.0000
  H   H373      1.0  0.51307  0.61680  0.88140  1.0000
  C   C469      1.0  0.69078  0.96455  0.71015  1.0000
  C   C470      1.0  0.55333  0.87035  0.74182  1.0000
  H   H374      1.0  0.54999  0.95702  0.79113  1.0000
  H   H375      1.0  0.63017  0.90248  0.91855  1.0000
  C   C471      1.0  0.66101  0.96652  0.74440  1.0000
  C   C472      1.0  0.98829  0.61211  0.97095  1.0000
  C   C473      1.0  0.94254  0.59901  0.96976  1.0000
  H   H376      1.0  0.75921  0.77050  0.78389  1.0000
  C   C474      1.0  0.67382  0.86924  0.76666  1.0000
  C   C475      1.0  0.68960  0.78838  0.77343  1.0000
  H   H377      1.0  0.66460  0.89162  0.84909  1.0000
  C   C476      1.0  0.75068  0.84314  0.77883  1.0000
  H   H378      1.0  0.73221  0.91341  0.77467  1.0000
  H   H379      1.0  0.51653  0.96855  0.86106  1.0000
  C   C477      1.0  0.96603  0.52003  0.96358  1.0000
  C   C478      1.0  0.58600  0.91615  0.68632  1.0000
  H   H380      1.0  0.89645  0.54233  0.96529  1.0000
  H   H381      1.0  0.69911  0.51919  0.93439  1.0000
  S   S64       1.0  0.90014  0.64138  0.96932  1.0000
  H   H382      1.0  0.50383  0.69989  0.87346  1.0000
  H   H383      1.0  0.61172  0.93886  0.67434  1.0000
  C   C479      1.0  0.51741  0.85839  0.71523  1.0000
  C   C480      1.0  0.53456  0.52382  0.87888  1.0000
  H   H384      1.0  0.56178  0.54382  0.89260  1.0000
