data_image0
_chemical_formula_structural       FeS2CSHFeSFeS2H3FeS2FeCHFeSCSHFeS2FeS2FeSFeS3C2HCH2C3H2C3H4C6HC2HC6H4SH2C4HCHSC4H4C11HC3HCH2SHC2HC2HC9HCH4CH2C3SPC2HCHCH5C6H5C4HCHCHC2HC5H3CHCHCH3CH2C3SHCHC4HC3PH2C2H2CH2C2PHC13HC4HC3H6CHCH7CHSCPC2H2C2H6C3HC2H3C4H3C3SCHCHC2H2SCHC2HCHC2H6CH3CFeS2FeS2FeSFeS3FeSFeS2H2FeSHC9H4CHC5HCH3C6H4SHC3H4C3HC3H2C7HCHCH4C2HC3HCHCHCH3C2H2C2H3CSCFeC12HCH7C7PC18H17CHCHC2H2CH3C2H2CH2CH4CHCFeC2HCHC3HCH4CHC4HC2SHC2PC3H2SC5HC2HC3H2CH2FeH3CH4FeC2H2PC6SC3H2CH3C2PC2H2SH3S2C5HC4HCH2CH3CSCH4CHC2HC2HC4PCH2PCHC2H2C6PCH4C3H2CHC2H3FeC2H2C4H2C3H2CHCH4C2SC3H4FeSFeS2FeSCHSFeSHFeS2FeSFeS3FeS2FeS2FeSFeS4FeC2FeCS2CSCH3C6H3C7H4C2H3CHC3HC5HC6H4C2HC3H4C6H3SC2FeCHCHC2HC2HC2HC2H3CH3C3H2CHC3H2CH2PHCH2CHC3H2CH3C4SH3PCHFeSHC3H3CHCHCHC5PHCH5C3H2C4FeCHC4H3C3H9CH3C4HCH5C4H5C5H3CHCH2C3H2PC2H2CPH4C2HCH5CH2C5PC18H3CH2CH3C2H2C3HCH2C2HC4H2SCH5CHC8HC4H3CFeSFeS2FeSFeS2FeSFeS2FeS2FeSFeCS3HCH2C3H2C3HPSHP2HC2HFeC6H4C6H5SC4HCPCHC2HCH3C2HC6SCH2CH2C2H4CHC3HC2HCH2C2HC4H3C3H2CHCH2CH3CHCHCH2C2HCHCH3CHCH2C4HCH2C5H3CH2C4HCH2CH2CHC2HC2HCHCHC2SHCH2C6PC9H3C3H4CH3C3HCH2C2H2C5HCHC3HPC3HC3H4CH6C2HC4HC4HC4SC4H4C4HCH5CH6C6SH2C2H2C2H3C2H2CHCHSHCHC5HC2H2C3FeS2FeSCFeSFeS3H2FeHSCH2FeSCSCFeS2FeS2FeSFeS3FeCHFeCSC2S2C4HC2HC6H2CHC6H4C4H5CFeC5H3CHC3H4C6H2CHCHC7HCH5PCH2C4H3CH2C2HCH5CH2C2PH2C2HCHCHCHCH2C4HC10HCHC8H5C5HCHCSC10H4C2HC2HSC4HC3H2CHPCH3C4H2CHC6HCHCPCPHC9HCH8CH2PH2CH4CH2CHC5H2C3HCH3CHFeCH4CH4CS2CH2C4HC4H2CH2CHCPH3SHCSC2H2C2HCH2CHCH2C2H2CH2SH5FeS2FeS2FeSFeS3FeSFeS3HFeSC2SCHC3PHCHCSH3C6HCHC6H4CHC3H4CH2CHC3H2C2H2C2FeC5H8CH2CH2CHC2PC2HCH2C13HC4H10CH3CH2CH3CH5C7PC4HC11H7CH8CHC2H2C3HC7PC14HCHCH13C4HC2H2C2HC2HSFeS2FeSFeHSFeSHFeS2FeSFeS3FeS2FeS2FeSFeS4C2H2CSCHSH5C2H3C2H2CSH2C2H4CH2CHC6HC2HSHC6H4C3H2CH2CHC6H4C3HC2HC4PCHCH2C8HCH3C3H4C3H5C2H3C3HCHCHC3HCFeH7CHC2H2C2HPC6PC18H2CH13C2HCHCH3C5SHC7H7C4FeC3HPC4H2CHCHCH4CH4CSCHCHCHC6HC2HC2HCHPHC2HC2H2C2H2CHCH2CH6CHC2HFeCFeS2FeSCS2FeSFeS2FeSHFeSFeCS3HC2HCH4C2SC2H4C2HC8H4C6H4PC7PC10HC7H5CSH4CH7C5PC8HC9H9CSH3CH3C2H4CH3CHCH2CHC4SC2HC2HCHCSH2CFeH2CH2C4SCHC6PC6HC9H6C4HCH6C2HC6H5C3H2C2HFe2CH2CH4C3HCH5C3FeHC4H2C2H2SHCH2CHC8HC3H4PH3CHCHC2H3C2HC4SCHCH4C2H2CHCHSC6H3C2HCPHCHPSCHC3HC3HCFeC2H2CHFeS2HSCFeSFeS4CFeS2FeCHFeSCSCFeS2FeS2FeSFeS3FeH2CHSCHSC8HC6H2CHC6H4CHC2HCH2C2HC4H3C5H5C6H6C2HPC8HC8HCH13SCFeCH4C8PC12HCH3CH11CHCH5C2HCHC5H3C3HCH3CH3CH2C2H2C5SH2SHCH3CH3CHCH4C2H3CH3C2H3C2H3C4H2C2FeC3PC16HSCH14C4HPC2HSC2H2C3HCH4CH2FeS2FeS2FeSFeS3FeSFeS2CHFeSC3SCHC2HCH6C7H3C6H7C2H2CHCH2C3H3C6H3CHC7PC18H11CH7C4PC2HC6HC2H6CHC2HCSHC2HCH4CHCHC3SC3HSCPC2HCH7C5H3SHC2H2C2HC3H2PH2CSH2CHC6HCHC5HC2H2C2HCH3CH3CH2C2H3CHC11HCH3C3H2C3HC2H2CH2PC2HC2H3C5H2FeH2CHC3FeSFeHSFeSH2SFeSHFeS2FeSFeS3FeS2FeHSFeCFeHS3HC4SCHC4H3CHSHC2HC2SC4H4C3H2CH2CH2CHC3HC6H4C6HCH2C6H3PC6PC10HCHSCHC4H4CH2CHCH2CHC2H3CH2C3HC2SC2HCHC3HCHC2HC2HC6PC5HC9HCHSCH5CH7C2HCH2C4HC2H4C2HCHC4H2PH3CH2CHCH5C2H2CFeC2H2C6PC3H2C2H2C6H6C2HCHCH4SH2C2HC3HCHC3H2CHC2SC3H2CHC3H3C2HCH4C3FeSFeS2FeSHS2FeSFeS2FeSHFeSFeHS3C2HSCH2SHC4HCHCHC2HCHC6H4C6H6C10H7SCHC5HC2HSH3C3H2C2PC7HC3HFeCHCHCHC2HCHCHC6PC5HCFeHC3H2C2H4C8HC3HSC4HC3H3CPFeHC2HCH7CPH6C2HCHC2H2C2H3CHCPH2C2H2CH2C2PC18H13SH3CSHC2FeC2HCH2C2HC2HC3HC2HC6H2C2HCHCHPCPCHCH3CHC3HCH3C4H2C2HCHSH3PHC2HCHCH4CHCHC2H2CHCH2FeS2CHCHC2H2CHCFeC3HSCH2C2HPHPHCH3C2HCFeCH2CSC3HC2H2C2HC5HSHFeS2HSHFeSFeS3HCFeCSCH2FeSCSHFeS2FeSHFeSFeS3HCPC2SC2SH2C3HCH2C4HCH3C7H5C3H2CHC2HC3HCH3CHC3HCH2C6H4C2HCH2CH2FeCSHCH2PC2H3C6PC16HCH15C2H3C5SC2HCH2C2HC2HC2H2C2H2CHC2HC3HCH3CFeC2H2C2H3CHCH2C7HC2HCH5CHC2PC8HC2H3C3H7CH4C3H4PCH2C2HCH2CH3CHCS2C2HCFeS2FeS2FeSFeS3FeSFeS2CHFeSC2HSCHC2HSH2SHC2HC4HCH3C6H5C4S2H2CH2C3H3CHC5HC2SHC3H2CH2C4PCH2PHCHCH2C3HPHC2HFeCH2C2SC2H3C2H3C5HCHC7SHCHC5H2C2H3CHC2H4SHC2SCHCHC3HC4HC3H4C2HSH5C7PC18H16FeH2C2HCH2CHCHC3HCHC4PH2C2HCH2C3H2CHC2HCHC5PC9HC3HCHC2FeH3CH5CH6CHC3H2C2H3C2HC2H3CHCH3CHC5HC3H2C5HC3H4CHCHC3H3CH3SHCHCFeHC2HCHC3HSFeS2FeSFeCSFeSHFeS2FeSFeS3FeS2FeS2FeSFeS4FeCSFeCSHCS2CH4C2H3CHC7H4C4HCH2C3SHCHCPC6H4C3H2CH4C6H6CH2FeCH2CHC3PCS2CHCHC3H2C10HC3H2SC3H2C2HC8HCH6SHC3H2C3HC3PSC4HCHC8HCHCHC2HCHC2H4C2PH2C3PC16HCHCH5CH9CH2FeH3CHCHC2HCHC4PHC2H4C3HC2HC2H4CH4C15H2CHCPH2CH3C3HFeC5HCHCH3CHCHCH3CHCH2CH4C2HCHCHCHC3HC3H5CHCHCHC4HC2H3FeHFeS2FeSFeS2HSFeS2FeSCFeSFeCS3CH2C2HCH2CHC2H3CHCH2CHC6H4C6H6C3H8CHC2HCHC4PC14HFeC2H14C2HCHPHC2H2CH2CHCHS2C2HPCHCPC2HPC2HCHC2H2C4HCH2CH3CHC3H2C4H3C2HCHCHC5H2C5HC3H2CH4SHCHC2HCH2CHC10HCFeH6C2H2C5HC4HSCHCPC3HC3H2C2H3C3H2C4SPCH4C2H2CHC2HCH2CH4
_chemical_formula_sum              "Fe192 S384 C2880 H2304 P96"
_cell_length_a       57.1018
_cell_length_b       57.3819
_cell_length_c       42.6124
_cell_angle_alpha    89.9
_cell_angle_beta     90.1615
_cell_angle_gamma    120.017

_space_group_name_H-M_alt    "P 1"
_space_group_IT_number       1

loop_
  _space_group_symop_operation_xyz
  'x, y, z'

loop_
  _atom_site_type_symbol
  _atom_site_label
  _atom_site_symmetry_multiplicity
  _atom_site_fract_x
  _atom_site_fract_y
  _atom_site_fract_z
  _atom_site_occupancy
  Fe  Fe1       1.0  0.36572  0.14099  0.01707  1.0000
  S   S1        1.0  0.38357  0.12956  0.05684  1.0000
  S   S2        1.0  0.35925  0.17686  0.01688  1.0000
  C   C1        1.0  0.13861  0.20099  0.34207  1.0000
  S   S3        1.0  0.38558  0.08522  0.00868  1.0000
  H   H1        1.0  0.11455  0.16296  0.40818  1.0000
  Fe  Fe2       1.0  0.35527  0.08684  0.04131  1.0000
  S   S4        1.0  0.32855  0.05026  0.07081  1.0000
  Fe  Fe3       1.0  0.41240  0.12922  0.02099  1.0000
  S   S5        1.0  0.45813  0.15797  0.02472  1.0000
  S   S6        1.0  0.33493  0.09848  0.00466  1.0000
  H   H2        1.0  0.26764  0.21742  0.18796  1.0000
  H   H3        1.0  0.27752  0.00252  0.05652  1.0000
  H   H4        1.0  0.25754  0.09094  0.16763  1.0000
  Fe  Fe4       1.0  0.09651  0.19523  0.11779  1.0000
  S   S7        1.0  0.09347  0.21279  0.16357  1.0000
  S   S8        1.0  0.06482  0.17823  0.07933  1.0000
  Fe  Fe5       1.0  0.15547  0.21134  0.12871  1.0000
  C   C2        1.0  0.36814  1.00000  0.46930  1.0000
  H   H5        1.0  0.24201  0.21219  0.10998  1.0000
  Fe  Fe6       1.0  0.11710  0.19458  0.18423  1.0000
  S   S9        1.0  0.10487  0.17284  0.23109  1.0000
  C   C3        1.0  0.12408  0.14586  0.06088  1.0000
  S   S10       1.0  0.11633  0.17368  0.13933  1.0000
  H   H6        1.0  0.30264  0.19631  0.30626  1.0000
  Fe  Fe7       1.0  0.20306  0.18371  0.42473  1.0000
  S   S11       1.0  0.22849  0.18924  0.38247  1.0000
  S   S12       1.0  0.19948  0.21705  0.44874  1.0000
  Fe  Fe8       1.0  0.18302  0.12318  0.42883  1.0000
  S   S13       1.0  0.20632  0.12443  0.38571  1.0000
  S   S14       1.0  0.16411  0.09017  0.46616  1.0000
  Fe  Fe9       1.0  0.24046  0.16206  0.40665  1.0000
  S   S15       1.0  0.28348  0.17015  0.40258  1.0000
  Fe  Fe10      1.0  0.19240  0.15164  0.36458  1.0000
  S   S16       1.0  0.18829  0.15463  0.31164  1.0000
  S   S17       1.0  0.21816  0.15966  0.45064  1.0000
  S   S18       1.0  0.16592  0.14729  0.40605  1.0000
  C   C4        1.0  0.17729  0.09086  0.10992  1.0000
  C   C5        1.0  0.48063  0.21129  0.08934  1.0000
  H   H7        1.0  0.30532  0.08008  0.09827  1.0000
  C   C6        1.0  0.22138  0.99884  0.43995  1.0000
  H   H8        1.0  0.37955  0.19865  0.18295  1.0000
  H   H9        1.0  0.09102  0.22667  0.26808  1.0000
  C   C7        1.0  0.26835  0.09866  0.43519  1.0000
  C   C8        1.0  0.24732  0.20109  0.19252  1.0000
  C   C9        1.0  0.00337  0.22567  0.10907  1.0000
  H   H10       1.0  0.23524  0.15145  0.32778  1.0000
  H   H11       1.0  0.39530  0.17180  0.15398  1.0000
  C   C10       1.0  0.13455  0.01547  0.42756  1.0000
  C   C11       1.0  0.14554  0.04347  0.43085  1.0000
  C   C12       1.0  0.15114  0.05514  0.46069  1.0000
  H   H12       1.0  0.29109  0.21640  0.99030  1.0000
  H   H13       1.0  0.26237  0.13038  0.34225  1.0000
  H   H14       1.0  0.28816  0.11446  0.42789  1.0000
  H   H15       1.0  0.14924  0.05594  0.41031  1.0000
  C   C13       1.0  0.30184  0.16995  0.43597  1.0000
  C   C14       1.0  0.32592  0.16937  0.43174  1.0000
  C   C15       1.0  0.34063  0.16829  0.45772  1.0000
  C   C16       1.0  0.12566  0.18063  0.39358  1.0000
  C   C17       1.0  0.29684  0.22497  0.24601  1.0000
  C   C18       1.0  0.11605  0.21066  0.99147  1.0000
  H   H16       1.0  0.33301  0.16928  0.40824  1.0000
  C   C19       1.0  0.00158  0.20383  0.12574  1.0000
  C   C20       1.0  0.43547  0.20604  0.05716  1.0000
  H   H17       1.0  0.13720  0.16224  0.04557  1.0000
  C   C21       1.0  0.12865  0.16949  0.25460  1.0000
  C   C22       1.0  0.11958  0.15229  0.28079  1.0000
  C   C23       1.0  0.13785  0.14848  0.29937  1.0000
  C   C24       1.0  0.16534  0.16179  0.29183  1.0000
  C   C25       1.0  0.17442  0.17908  0.26574  1.0000
  C   C26       1.0  0.15620  0.18307  0.24732  1.0000
  H   H18       1.0  0.09827  0.14159  0.28648  1.0000
  H   H19       1.0  0.13057  0.13462  0.31895  1.0000
  H   H20       1.0  0.19562  0.18927  0.25957  1.0000
  H   H21       1.0  0.16342  0.19644  0.22735  1.0000
  S   S19       1.0  0.36104  0.23291  0.14569  1.0000
  H   H22       1.0  0.21347  0.08851  0.10351  1.0000
  H   H23       1.0  0.23741  0.01580  0.42755  1.0000
  C   C27       1.0  0.36528  0.03434  0.43876  1.0000
  C   C28       1.0  0.20529  0.10154  0.10879  1.0000
  C   C29       1.0  0.42596  0.13092  0.11137  1.0000
  C   C30       1.0  0.00813  0.09728  0.19393  1.0000
  H   H24       1.0  0.35878  0.04008  0.41770  1.0000
  C   C31       1.0  0.12374  0.17831  0.36095  1.0000
  H   H25       1.0  0.11587  0.22849  0.31613  1.0000
  S   S20       1.0  0.13588  0.23148  0.10365  1.0000
  C   C32       1.0  0.01051  0.15039  0.06573  1.0000
  C   C33       1.0  0.03026  0.15900  0.08944  1.0000
  C   C34       1.0  0.02217  0.15204  0.12060  1.0000
  C   C35       1.0  0.11093  0.11091  0.20794  1.0000
  H   H26       1.0  0.35890  0.16743  0.45408  1.0000
  H   H27       1.0  0.01663  0.15563  0.04155  1.0000
  H   H28       1.0  0.03721  0.15852  0.13903  1.0000
  H   H29       1.0  0.46230  0.11478  0.05718  1.0000
  C   C36       1.0  0.24078  0.02704  0.09179  1.0000
  C   C37       1.0  0.48526  0.18664  0.18990  1.0000
  C   C38       1.0  0.27325  0.01678  0.06796  1.0000
  C   C39       1.0  0.29465  0.04246  0.07592  1.0000
  C   C40       1.0  0.28894  0.06048  0.09150  1.0000
  C   C41       1.0  0.28703  0.02401  0.17629  1.0000
  C   C42       1.0  0.29300  0.17031  0.46645  1.0000
  C   C43       1.0  0.19613  0.17672  0.00842  1.0000
  C   C44       1.0  0.15715  0.22842  0.38859  1.0000
  C   C45       1.0  0.36198  0.19321  0.05282  1.0000
  C   C46       1.0  0.36513  0.21908  0.05273  1.0000
  H   H30       1.0  0.14443  0.20736  0.43267  1.0000
  C   C47       1.0  0.36334  0.21891  0.10973  1.0000
  C   C48       1.0  0.36111  0.19342  0.10975  1.0000
  C   C49       1.0  0.36040  0.18059  0.08143  1.0000
  H   H31       1.0  0.29356  0.04270  0.18876  1.0000
  C   C50       1.0  0.12910  0.99880  0.45397  1.0000
  H   H32       1.0  0.35880  0.18302  0.13168  1.0000
  H   H33       1.0  0.35778  0.16058  0.08174  1.0000
  S   S21       1.0  0.40591  0.16101  0.47092  1.0000
  H   H34       1.0  0.27466  0.17105  0.47003  1.0000
  C   C51       1.0  0.15510  0.22634  0.35572  1.0000
  C   C52       1.0  0.32634  0.21239  0.21940  1.0000
  H   H35       1.0  0.19218  0.19018  0.02229  1.0000
  C   C53       1.0  0.24291  0.17764  0.20814  1.0000
  C   C54       1.0  0.21716  0.05737  0.45312  1.0000
  H   H36       1.0  0.41217  0.18172  0.09592  1.0000
  C   C55       1.0  0.28123  0.14522  0.26569  1.0000
  C   C56       1.0  0.48175  0.13306  0.05820  1.0000
  C   C57       1.0  0.19445  0.15903  0.20198  1.0000
  C   C58       1.0  0.19899  0.18267  0.18716  1.0000
  C   C59       1.0  0.21630  0.15642  0.21232  1.0000
  C   C60       1.0  0.26730  0.11271  0.16638  1.0000
  C   C61       1.0  0.28350  0.12634  0.14060  1.0000
  C   C62       1.0  0.29540  0.15428  0.13851  1.0000
  C   C63       1.0  0.29163  0.16875  0.16245  1.0000
  H   H37       1.0  0.17393  0.14290  0.20582  1.0000
  C   C64       1.0  0.45624  0.22332  0.17826  1.0000
  H   H38       1.0  0.21239  0.13795  0.22378  1.0000
  H   H39       1.0  0.28651  0.11524  0.12197  1.0000
  H   H40       1.0  0.30733  0.16468  0.11812  1.0000
  H   H41       1.0  0.30084  0.19041  0.16028  1.0000
  C   C65       1.0  0.27627  0.15532  0.18901  1.0000
  H   H42       1.0  0.27696  0.22038  0.25389  1.0000
  H   H43       1.0  0.29682  0.20049  0.10371  1.0000
  C   C66       1.0  0.22119  0.23472  0.10676  1.0000
  C   C67       1.0  0.18421  0.13480  0.12400  1.0000
  C   C68       1.0  0.16653  0.10756  0.11706  1.0000
  S   S22       1.0  0.38563  0.08705  0.45622  1.0000
  P   P1        1.0  0.13058  0.09376  0.12174  1.0000
  C   C69       1.0  0.11780  0.11168  0.09902  1.0000
  C   C70       1.0  0.11254  0.05970  0.10707  1.0000
  H   H44       1.0  0.08853  0.14837  0.04956  1.0000
  C   C71       1.0  0.14239  0.20566  0.40737  1.0000
  H   H45       1.0  0.37703  0.22574  0.46782  1.0000
  C   C72       1.0  0.09594  0.03794  0.12669  1.0000
  H   H46       1.0  0.20173  0.07626  0.42214  1.0000
  H   H47       1.0  0.24428  0.13700  0.11423  1.0000
  H   H48       1.0  0.36644  0.22902  0.03067  1.0000
  H   H49       1.0  0.11527  0.20175  0.04070  1.0000
  H   H50       1.0  0.34701  0.21077  0.33109  1.0000
  C   C73       1.0  0.12570  0.09513  0.16343  1.0000
  C   C74       1.0  0.13583  0.08331  0.18433  1.0000
  C   C75       1.0  0.13344  0.08526  0.21678  1.0000
  C   C76       1.0  0.09015  0.10346  0.10044  1.0000
  C   C77       1.0  0.46123  0.22128  0.04418  1.0000
  C   C78       1.0  0.11347  0.10920  0.17552  1.0000
  H   H51       1.0  0.31899  0.04187  0.14199  1.0000
  H   H52       1.0  0.13738  0.19874  0.31681  1.0000
  H   H53       1.0  0.28929  0.22330  0.42565  1.0000
  H   H54       1.0  0.05851  0.11087  0.08449  1.0000
  H   H55       1.0  0.16425  0.06952  0.10581  1.0000
  C   C79       1.0  0.23269  0.23620  0.31277  1.0000
  C   C80       1.0  0.26603  0.07929  0.45672  1.0000
  C   C81       1.0  0.10090  0.02876  0.06318  1.0000
  C   C82       1.0  0.30145  0.02354  0.15011  1.0000
  H   H56       1.0  0.14135  0.07620  0.23284  1.0000
  C   C83       1.0  0.30515  0.00861  0.98712  1.0000
  H   H57       1.0  0.23550  0.19177  0.02802  1.0000
  C   C84       1.0  0.01995  0.20815  0.14984  1.0000
  H   H58       1.0  0.14569  0.07269  0.17552  1.0000
  C   C85       1.0  0.24633  0.00924  0.07539  1.0000
  C   C86       1.0  0.22269  0.12882  0.11499  1.0000
  H   H59       1.0  0.34166  0.02626  0.01467  1.0000
  C   C87       1.0  0.26218  0.05262  0.09982  1.0000
  C   C88       1.0  0.26355  0.12711  0.19043  1.0000
  C   C89       1.0  0.39052  0.10355  0.16071  1.0000
  C   C90       1.0  0.39002  0.08960  0.13361  1.0000
  C   C91       1.0  0.40801  0.10321  0.10918  1.0000
  H   H60       1.0  0.37696  0.09284  0.17993  1.0000
  H   H61       1.0  0.37582  0.06820  0.13152  1.0000
  H   H62       1.0  0.40783  0.09235  0.08829  1.0000
  C   C92       1.0  0.42595  0.14524  0.13802  1.0000
  H   H63       1.0  0.17635  0.14784  0.13057  1.0000
  C   C93       1.0  0.21965  0.07706  0.43187  1.0000
  H   H64       1.0  0.01850  0.11778  0.23841  1.0000
  C   C94       1.0  0.29303  0.99947  0.13395  1.0000
  H   H65       1.0  0.24727  0.11280  0.40627  1.0000
  H   H66       1.0  0.22881  0.22202  0.17110  1.0000
  H   H67       1.0  0.15418  0.03298  0.99188  1.0000
  C   C95       1.0  0.00235  0.10604  0.22190  1.0000
  H   H68       1.0  0.02871  0.10227  0.18879  1.0000
  H   H69       1.0  0.12990  0.00660  0.40438  1.0000
  C   C96       1.0  0.30018  0.20631  0.22806  1.0000
  C   C97       1.0  0.13463  0.13274  0.07866  1.0000
  C   C98       1.0  0.45479  0.19578  0.10245  1.0000
  S   S23       1.0  0.15763  0.23084  0.17510  1.0000
  H   H70       1.0  0.18202  0.18466  0.17911  1.0000
  C   C99       1.0  0.27972  0.13524  0.29607  1.0000
  H   H71       1.0  0.29196  0.12642  0.30261  1.0000
  C   C100      1.0  0.24035  0.05858  0.46618  1.0000
  C   C101      1.0  0.11471  0.05495  0.07516  1.0000
  C   C102      1.0  0.27141  0.23596  0.46103  1.0000
  C   C103      1.0  0.43771  0.19857  0.16461  1.0000
  H   H72       1.0  0.10614  0.11920  0.16025  1.0000
  C   C104      1.0  0.36614  0.23203  0.08113  1.0000
  C   C105      1.0  0.40996  0.18996  0.16593  1.0000
  C   C106      1.0  0.33106  0.01359  0.99474  1.0000
  P   P2        1.0  0.44992  0.18075  0.14092  1.0000
  H   H73       1.0  0.23754  0.16903  0.27456  1.0000
  H   H74       1.0  0.31459  0.17919  0.99043  1.0000
  C   C107      1.0  0.26567  0.15703  0.25731  1.0000
  C   C108      1.0  0.28221  0.02632  0.48217  1.0000
  H   H75       1.0  0.10134  0.12167  0.21709  1.0000
  H   H76       1.0  0.28449  0.08072  0.46548  1.0000
  C   C109      1.0  0.08217  0.01177  0.11458  1.0000
  H   H77       1.0  0.34134  0.22815  0.43755  1.0000
  H   H78       1.0  0.22563  0.16645  0.12818  1.0000
  C   C110      1.0  0.21218  0.14542  0.12272  1.0000
  C   C111      1.0  0.47958  0.18182  0.15766  1.0000
  P   P3        1.0  0.25715  0.15872  0.00096  1.0000
  H   H79       1.0  0.23744  0.24033  0.39660  1.0000
  C   C112      1.0  0.24988  0.12674  0.01765  1.0000
  C   C113      1.0  0.22323  0.10690  0.02515  1.0000
  C   C114      1.0  0.21760  0.08141  0.03519  1.0000
  C   C115      1.0  0.23851  0.07572  0.03871  1.0000
  C   C116      1.0  0.26521  0.09564  0.03281  1.0000
  C   C117      1.0  0.27092  0.12105  0.02223  1.0000
  C   C118      1.0  0.35951  0.00756  0.44240  1.0000
  C   C119      1.0  0.40094  0.20521  0.18208  1.0000
  C   C120      1.0  0.30780  0.23430  0.03495  1.0000
  C   C121      1.0  0.22602  0.15942  0.99478  1.0000
  C   C122      1.0  0.22089  0.17748  0.01164  1.0000
  C   C123      1.0  0.27843  0.18622  0.02683  1.0000
  C   C124      1.0  0.29233  0.21261  0.01497  1.0000
  H   H80       1.0  0.25311  0.00100  0.20663  1.0000
  C   C125      1.0  0.15440  0.21453  0.02025  1.0000
  C   C126      1.0  0.29544  0.20366  0.07890  1.0000
  C   C127      1.0  0.28009  0.18185  0.05895  1.0000
  C   C128      1.0  0.22539  0.20371  0.18258  1.0000
  H   H81       1.0  0.36292  0.24316  0.37469  1.0000
  C   C129      1.0  0.26302  0.13737  0.31840  1.0000
  C   C130      1.0  0.37940  0.05377  0.46207  1.0000
  C   C131      1.0  0.08467  0.00719  0.08290  1.0000
  H   H82       1.0  0.20658  0.11069  0.02301  1.0000
  H   H83       1.0  0.19694  0.06586  0.04002  1.0000
  H   H84       1.0  0.23391  0.05572  0.04564  1.0000
  H   H85       1.0  0.28138  0.09109  0.03574  1.0000
  H   H86       1.0  0.29172  0.13601  0.01728  1.0000
  H   H87       1.0  0.23400  0.21800  0.31237  1.0000
  C   C132      1.0  0.07973  0.11680  0.08278  1.0000
  H   H88       1.0  0.27342  0.21361  0.32598  1.0000
  C   C133      1.0  0.12101  0.09909  0.22858  1.0000
  H   H89       1.0  0.09341  0.04094  0.15121  1.0000
  H   H90       1.0  0.10280  0.02508  0.03863  1.0000
  H   H91       1.0  0.47222  0.19009  0.20520  1.0000
  H   H92       1.0  0.25399  0.21612  0.46394  1.0000
  H   H93       1.0  0.26947  0.16173  0.06857  1.0000
  H   H94       1.0  0.41790  0.20372  0.04461  1.0000
  H   H95       1.0  0.07666  0.08684  0.11540  1.0000
  C   C134      1.0  0.24768  0.14926  0.31027  1.0000
  H   H96       1.0  0.11938  0.10087  0.25372  1.0000
  S   S24       1.0  0.18893  0.20578  0.10856  1.0000
  C   C135      1.0  0.43227  0.19340  0.08619  1.0000
  P   P4        1.0  0.27116  0.17378  0.21997  1.0000
  C   C136      1.0  0.24523  0.09766  0.42292  1.0000
  C   C137      1.0  0.40867  0.13124  0.16311  1.0000
  H   H97       1.0  0.11093  0.15884  0.35027  1.0000
  H   H98       1.0  0.16326  0.21307  0.04224  1.0000
  C   C138      1.0  0.04012  0.23432  0.15729  1.0000
  C   C139      1.0  0.30936  0.21040  0.32555  1.0000
  H   H99       1.0  0.12717  0.07150  0.05957  1.0000
  H   H100      1.0  0.43970  0.14114  0.09211  1.0000
  H   H101      1.0  0.29511  0.14442  0.24906  1.0000
  H   H102      1.0  0.25065  0.11619  0.21004  1.0000
  H   H103      1.0  0.01883  0.19117  0.16238  1.0000
  H   H104      1.0  0.40929  0.14161  0.18457  1.0000
  C   C140      1.0  0.21675  0.00091  0.47193  1.0000
  C   C141      1.0  0.34323  0.23676  0.36455  1.0000
  C   C142      1.0  0.24898  0.15911  0.27991  1.0000
  H   H105      1.0  0.32974  0.19809  0.20661  1.0000
  C   C143      1.0  0.33443  0.21860  0.33953  1.0000
  C   C144      1.0  0.29300  0.22032  0.33657  1.0000
  H   H106      1.0  0.06959  0.99483  0.12972  1.0000
  H   H107      1.0  0.09509  0.20584  0.99109  1.0000
  H   H108      1.0  0.25796  0.06639  0.11247  1.0000
  C   C145      1.0  0.20802  0.23447  0.32010  1.0000
  C   C146      1.0  0.09670  0.13801  0.06304  1.0000
  C   C147      1.0  0.29129  0.24026  0.43901  1.0000
  C   C148      1.0  0.17002  0.22301  0.99290  1.0000
  H   H109      1.0  0.15584  0.13914  0.07624  1.0000
  H   H110      1.0  0.46373  0.23082  0.02155  1.0000
  H   H111      1.0  0.30421  0.99931  0.11349  1.0000
  C   C149      1.0  0.12742  0.20830  0.01950  1.0000
  C   C150      1.0  0.12716  0.23937  0.29559  1.0000
  C   C151      1.0  0.48378  0.22393  0.06027  1.0000
  S   S25       1.0  0.48503  0.21811  0.47974  1.0000
  C   C152      1.0  0.48495  0.15667  0.04453  1.0000
  H   H112      1.0  0.19088  0.21489  0.32533  1.0000
  C   C153      1.0  0.30930  0.22980  0.06689  1.0000
  H   H113      1.0  0.47773  0.23105  0.17615  1.0000
  C   C154      1.0  0.30178  0.23860  0.36154  1.0000
  C   C155      1.0  0.11289  0.23868  0.26855  1.0000
  H   H114      1.0  0.19714  0.04107  0.45904  1.0000
  H   H115      1.0  0.29599  0.01747  0.00149  1.0000
  S   S26       1.0  0.20756  0.01834  0.10292  1.0000
  C   C156      1.0  0.24421  0.23194  0.10775  1.0000
  H   H116      1.0  0.15716  0.15760  0.98561  1.0000
  C   C157      1.0  0.17636  0.15821  0.98808  1.0000
  C   C158      1.0  0.34866  0.23728  0.22727  1.0000
  H   H117      1.0  0.42624  0.24104  0.12149  1.0000
  C   C159      1.0  0.26407  0.00040  0.18622  1.0000
  H   H118      1.0  0.36869  0.24229  0.21959  1.0000
  C   C160      1.0  0.44718  0.23853  0.19436  1.0000
  C   C161      1.0  0.41952  0.22945  0.19630  1.0000
  H   H119      1.0  0.19092  0.22803  0.99419  1.0000
  H   H120      1.0  0.27068  0.01180  0.46420  1.0000
  H   H121      1.0  0.49070  0.16947  0.11482  1.0000
  H   H122      1.0  0.41251  0.24151  0.20817  1.0000
  H   H123      1.0  0.31845  0.02496  0.47180  1.0000
  H   H124      1.0  0.05468  0.23762  0.17561  1.0000
  C   C162      1.0  0.99452  0.13660  0.12795  1.0000
  H   H125      1.0  0.03750  0.24148  0.05841  1.0000
  H   H126      1.0  0.40850  0.20078  0.98290  1.0000
  H   H127      1.0  0.31393  0.04728  0.87701  1.0000
  C   C163      1.0  0.26382  0.21405  0.79535  1.0000
  Fe  Fe11      1.0  0.21511  0.08521  0.79474  1.0000
  S   S27       1.0  0.23717  0.09888  0.84047  1.0000
  S   S28       1.0  0.20640  0.04546  0.77363  1.0000
  Fe  Fe12      1.0  0.20555  0.13326  0.79101  1.0000
  S   S29       1.0  0.22641  0.14973  0.83729  1.0000
  S   S30       1.0  0.19703  0.15897  0.75711  1.0000
  Fe  Fe13      1.0  0.25754  0.14021  0.81942  1.0000
  S   S31       1.0  0.30215  0.16935  0.82692  1.0000
  Fe  Fe14      1.0  0.20413  0.10681  0.85449  1.0000
  S   S32       1.0  0.18855  0.09816  0.90472  1.0000
  S   S33       1.0  0.23819  0.12584  0.77237  1.0000
  S   S34       1.0  0.18035  0.09090  0.80955  1.0000
  Fe  Fe15      1.0  0.42360  0.14798  0.55463  1.0000
  S   S35       1.0  0.43315  0.13979  0.60374  1.0000
  Fe  Fe16      1.0  0.07558  0.22792  0.67319  1.0000
  S   S36       1.0  0.05052  0.19806  0.71033  1.0000
  S   S37       1.0  0.06764  0.22292  0.62060  1.0000
  H   H128      1.0  0.28120  0.04008  0.59403  1.0000
  H   H129      1.0  0.19940  0.08543  0.72176  1.0000
  Fe  Fe17      1.0  0.09010  0.20784  0.73309  1.0000
  S   S38       1.0  0.09433  0.17498  0.75790  1.0000
  H   H130      1.0  0.18025  0.17093  0.62343  1.0000
  C   C164      1.0  0.13159  0.21915  0.96408  1.0000
  C   C165      1.0  0.13901  0.22953  0.61199  1.0000
  C   C166      1.0  0.47041  0.17895  0.75286  1.0000
  C   C167      1.0  0.22158  0.03178  0.52949  1.0000
  C   C168      1.0  0.44850  0.09584  0.79320  1.0000
  C   C169      1.0  0.02840  0.19900  0.57502  1.0000
  C   C170      1.0  0.03400  0.20186  0.60734  1.0000
  C   C171      1.0  0.42208  0.21749  0.96814  1.0000
  C   C172      1.0  0.12005  0.17934  0.87142  1.0000
  H   H131      1.0  0.28891  0.11705  0.55375  1.0000
  H   H132      1.0  0.04469  0.20941  0.55856  1.0000
  H   H133      1.0  0.39881  0.06091  0.50715  1.0000
  H   H134      1.0  0.45831  0.14752  0.66477  1.0000
  C   C173      1.0  0.30940  0.03388  0.48623  1.0000
  H   H135      1.0  0.04753  0.13023  0.55299  1.0000
  C   C174      1.0  0.20554  0.04379  0.53300  1.0000
  C   C175      1.0  0.31786  0.19416  0.79777  1.0000
  C   C176      1.0  0.30419  0.19335  0.77020  1.0000
  C   C177      1.0  0.31656  0.21397  0.74792  1.0000
  C   C178      1.0  0.20473  0.22678  0.93068  1.0000
  H   H136      1.0  0.24799  0.07058  0.65774  1.0000
  C   C179      1.0  0.34427  0.21542  0.80255  1.0000
  H   H137      1.0  0.28393  0.17708  0.76614  1.0000
  H   H138      1.0  0.30568  0.21322  0.72680  1.0000
  H   H139      1.0  0.35516  0.21577  0.82341  1.0000
  C   C180      1.0  0.16894  0.16413  0.75874  1.0000
  C   C181      1.0  0.16794  0.18286  0.73821  1.0000
  C   C182      1.0  0.14534  0.18660  0.73774  1.0000
  C   C183      1.0  0.12355  0.17163  0.75789  1.0000
  C   C184      1.0  0.12463  0.15300  0.77845  1.0000
  C   C185      1.0  0.14724  0.14933  0.77901  1.0000
  H   H140      1.0  0.18454  0.19424  0.72226  1.0000
  H   H141      1.0  0.14467  0.20084  0.72161  1.0000
  H   H142      1.0  0.10779  0.14120  0.79397  1.0000
  H   H143      1.0  0.14768  0.13475  0.79476  1.0000
  S   S39       1.0  0.34998  0.08243  0.92404  1.0000
  H   H144      1.0  0.48135  0.17930  0.57153  1.0000
  C   C186      1.0  0.17005  0.06175  0.95366  1.0000
  C   C187      1.0  0.17801  0.06620  0.92196  1.0000
  C   C188      1.0  0.17694  0.04504  0.90453  1.0000
  H   H145      1.0  0.25237  0.03532  0.83476  1.0000
  H   H146      1.0  0.22250  0.11071  0.49966  1.0000
  H   H147      1.0  0.20915  0.99707  0.77767  1.0000
  H   H148      1.0  0.18306  0.04815  0.88017  1.0000
  C   C189      1.0  0.23274  0.03893  0.76478  1.0000
  C   C190      1.0  0.08517  0.15071  0.57866  1.0000
  C   C191      1.0  0.30453  0.17339  0.96787  1.0000
  H   H149      1.0  0.39742  0.01423  0.58193  1.0000
  C   C192      1.0  0.27642  0.05215  0.74138  1.0000
  C   C193      1.0  0.25715  0.05881  0.75189  1.0000
  C   C194      1.0  0.32315  0.19449  0.65666  1.0000
  H   H150      1.0  0.29485  0.06740  0.73043  1.0000
  H   H151      1.0  0.26067  0.07903  0.74886  1.0000
  C   C195      1.0  0.34783  0.05377  0.90570  1.0000
  C   C196      1.0  0.36647  0.04528  0.91190  1.0000
  C   C197      1.0  0.36558  0.02396  0.89449  1.0000
  C   C198      1.0  0.22814  0.01261  0.76807  1.0000
  C   C199      1.0  0.32707  0.01909  0.86520  1.0000
  C   C200      1.0  0.32817  0.04059  0.88229  1.0000
  C   C201      1.0  0.10162  0.23841  0.52518  1.0000
  H   H152      1.0  0.36745  0.20044  0.74840  1.0000
  C   C202      1.0  0.13722  0.19211  0.89693  1.0000
  H   H153      1.0  0.45894  0.09322  0.87171  1.0000
  C   C203      1.0  0.00177  0.18267  0.56384  1.0000
  H   H154      1.0  0.31063  0.16151  0.57447  1.0000
  H   H155      1.0  0.32138  0.12691  0.65129  1.0000
  H   H156      1.0  0.01680  0.18925  0.65335  1.0000
  H   H157      1.0  0.42387  0.11482  0.86782  1.0000
  C   C204      1.0  0.26421  0.15560  0.93571  1.0000
  C   C205      1.0  0.44256  0.24222  0.72286  1.0000
  H   H158      1.0  0.13498  0.03251  0.83809  1.0000
  C   C206      1.0  0.24050  0.08361  0.66533  1.0000
  C   C207      1.0  0.25696  0.11348  0.52406  1.0000
  C   C208      1.0  0.46225  0.23951  0.93607  1.0000
  H   H159      1.0  0.10538  0.15802  0.87243  1.0000
  C   C209      1.0  0.24449  0.21176  0.93645  1.0000
  H   H160      1.0  0.36343  0.00633  0.98252  1.0000
  C   C210      1.0  0.04245  0.14457  0.59762  1.0000
  H   H161      1.0  0.28069  0.00809  0.66586  1.0000
  C   C211      1.0  0.23072  0.11388  0.57916  1.0000
  H   H162      1.0  0.38185  0.05544  0.92967  1.0000
  H   H163      1.0  0.46601  0.21510  0.64329  1.0000
  H   H164      1.0  0.03008  0.18148  0.78230  1.0000
  C   C212      1.0  0.01349  0.16112  0.77875  1.0000
  C   C213      1.0  0.05518  0.15831  0.62513  1.0000
  H   H165      1.0  0.44236  0.19228  0.74121  1.0000
  H   H166      1.0  0.31193  0.00932  0.84717  1.0000
  C   C214      1.0  0.15188  0.13200  0.68780  1.0000
  C   C215      1.0  0.45256  0.15089  0.93388  1.0000
  H   H167      1.0  0.16565  0.12513  0.95619  1.0000
  H   H168      1.0  0.15655  0.12192  0.70628  1.0000
  H   H169      1.0  0.32191  0.05467  0.62748  1.0000
  C   C216      1.0  0.20560  0.14031  0.97526  1.0000
  S   S40       1.0  0.39522  0.14246  0.98167  1.0000
  C   C217      1.0  0.31388  0.06559  0.52639  1.0000
  Fe  Fe18      1.0  0.05490  0.23413  0.73618  1.0000
  C   C218      1.0  0.21243  0.01682  0.58384  1.0000
  C   C219      1.0  0.41121  0.20352  0.64199  1.0000
  C   C220      1.0  0.39497  0.19844  0.61521  1.0000
  C   C221      1.0  0.37972  0.17226  0.60360  1.0000
  C   C222      1.0  0.38062  0.15105  0.61844  1.0000
  C   C223      1.0  0.39616  0.15582  0.64556  1.0000
  C   C224      1.0  0.41153  0.18196  0.65721  1.0000
  C   C225      1.0  0.42201  0.23210  0.70002  1.0000
  C   C226      1.0  0.39491  0.21672  0.70947  1.0000
  C   C227      1.0  0.38842  0.21200  0.74126  1.0000
  C   C228      1.0  0.40889  0.22271  0.76384  1.0000
  C   C229      1.0  0.30346  0.16736  0.65310  1.0000
  H   H170      1.0  0.15501  0.13290  0.52733  1.0000
  C   C230      1.0  0.16769  0.22340  0.64922  1.0000
  H   H171      1.0  0.39409  0.21448  0.60295  1.0000
  H   H172      1.0  0.36780  0.16853  0.58250  1.0000
  H   H173      1.0  0.37011  0.13112  0.60821  1.0000
  H   H174      1.0  0.39756  0.13946  0.65641  1.0000
  H   H175      1.0  0.42409  0.18541  0.67773  1.0000
  H   H176      1.0  0.37878  0.20863  0.69222  1.0000
  H   H177      1.0  0.02106  0.13730  0.59413  1.0000
  C   C231      1.0  0.22865  0.03592  0.97163  1.0000
  C   C232      1.0  0.38930  0.19442  0.85064  1.0000
  C   C233      1.0  0.39664  0.19110  0.88088  1.0000
  C   C234      1.0  0.38725  0.16527  0.89273  1.0000
  C   C235      1.0  0.37089  0.14282  0.87418  1.0000
  C   C236      1.0  0.36424  0.14576  0.84328  1.0000
  C   C237      1.0  0.37310  0.17190  0.83189  1.0000
  P   P5        1.0  0.34211  0.11625  0.81994  1.0000
  C   C238      1.0  0.33712  0.12712  0.78198  1.0000
  C   C239      1.0  0.35532  0.09381  0.81270  1.0000
  C   C240      1.0  0.37231  0.09103  0.83441  1.0000
  C   C241      1.0  0.37998  0.07163  0.82987  1.0000
  C   C242      1.0  0.37067  0.05471  0.80378  1.0000
  C   C243      1.0  0.35430  0.05766  0.78169  1.0000
  C   C244      1.0  0.34657  0.07698  0.78611  1.0000
  C   C245      1.0  0.31340  0.12772  0.77502  1.0000
  C   C246      1.0  0.31027  0.13683  0.74568  1.0000
  C   C247      1.0  0.33072  0.14530  0.72320  1.0000
  C   C248      1.0  0.35430  0.14459  0.72991  1.0000
  C   C249      1.0  0.35759  0.13571  0.75926  1.0000
  C   C250      1.0  0.31006  0.09638  0.83969  1.0000
  C   C251      1.0  0.30375  0.10598  0.86682  1.0000
  C   C252      1.0  0.27974  0.08968  0.88307  1.0000
  C   C253      1.0  0.26155  0.06387  0.87208  1.0000
  C   C254      1.0  0.26706  0.05468  0.84429  1.0000
  C   C255      1.0  0.29129  0.07071  0.82830  1.0000
  H   H178      1.0  0.39591  0.21453  0.84204  1.0000
  H   H179      1.0  0.39220  0.16251  0.91650  1.0000
  H   H180      1.0  0.36249  0.12311  0.88440  1.0000
  H   H181      1.0  0.36702  0.17500  0.80891  1.0000
  H   H182      1.0  0.37872  0.10272  0.85559  1.0000
  H   H183      1.0  0.39196  0.06868  0.84746  1.0000
  H   H184      1.0  0.37540  0.03874  0.80119  1.0000
  H   H185      1.0  0.34685  0.04431  0.76161  1.0000
  H   H186      1.0  0.33291  0.07797  0.76921  1.0000
  H   H187      1.0  0.29746  0.12146  0.79228  1.0000
  H   H188      1.0  0.29202  0.13751  0.74059  1.0000
  H   H189      1.0  0.32849  0.15269  0.70072  1.0000
  H   H190      1.0  0.37017  0.15121  0.71249  1.0000
  H   H191      1.0  0.37606  0.13543  0.76425  1.0000
  H   H192      1.0  0.31713  0.12602  0.87551  1.0000
  H   H193      1.0  0.27485  0.09737  0.90370  1.0000
  H   H194      1.0  0.24269  0.05148  0.88440  1.0000
  C   C256      1.0  0.26910  0.11528  0.55318  1.0000
  H   H195      1.0  0.29520  0.06298  0.80705  1.0000
  C   C257      1.0  0.27487  0.06247  0.95387  1.0000
  H   H196      1.0  0.08168  0.19665  0.53872  1.0000
  C   C258      1.0  0.47889  0.16736  0.92298  1.0000
  C   C259      1.0  0.43860  0.05893  0.84147  1.0000
  H   H197      1.0  0.25735  0.00939  0.89310  1.0000
  H   H198      1.0  0.34389  0.22341  0.87853  1.0000
  C   C260      1.0  0.35648  0.23649  0.78063  1.0000
  H   H199      1.0  0.41949  0.02835  0.80597  1.0000
  H   H200      1.0  0.30137  0.17067  0.51591  1.0000
  H   H201      1.0  0.38934  0.01381  0.51327  1.0000
  C   C261      1.0  0.21861  0.11197  0.54990  1.0000
  C   C262      1.0  0.46663  0.16127  0.61680  1.0000
  H   H202      1.0  0.32629  0.08130  0.54292  1.0000
  H   H203      1.0  0.15848  0.22697  0.49273  1.0000
  C   C263      1.0  0.30742  0.16772  0.91205  1.0000
  H   H204      1.0  0.31731  0.02502  0.56575  1.0000
  H   H205      1.0  0.00020  0.09638  0.77781  1.0000
  C   C264      1.0  0.14060  0.22148  0.84302  1.0000
  H   H206      1.0  0.38023  0.01768  0.89919  1.0000
  H   H207      1.0  0.47893  0.24124  0.56400  1.0000
  H   H208      1.0  0.19003  0.14667  0.66443  1.0000
  H   H209      1.0  0.34461  0.20892  0.58098  1.0000
  C   C265      1.0  0.25997  0.22885  0.77199  1.0000
  H   H210      1.0  0.13129  0.99798  0.50434  1.0000
  C   C266      1.0  0.27066  0.03833  0.50033  1.0000
  Fe  Fe19      1.0  0.44520  0.18360  0.49752  1.0000
  C   C267      1.0  0.01805  0.13941  0.78075  1.0000
  C   C268      1.0  0.33298  0.19741  0.60116  1.0000
  H   H211      1.0  0.21372  0.12945  0.69647  1.0000
  C   C269      1.0  0.15651  0.21970  0.89557  1.0000
  H   H212      1.0  0.45468  0.24431  0.49924  1.0000
  C   C270      1.0  0.27965  0.15784  0.90923  1.0000
  C   C271      1.0  0.46436  0.15756  0.80388  1.0000
  C   C272      1.0  0.46581  0.14588  0.87178  1.0000
  H   H213      1.0  0.24726  0.21827  0.75203  1.0000
  C   C273      1.0  0.34260  0.23572  0.75322  1.0000
  H   H214      1.0  0.41226  0.11927  0.92227  1.0000
  H   H215      1.0  0.26997  0.15148  0.88646  1.0000
  H   H216      1.0  0.34129  0.18257  0.94389  1.0000
  H   H217      1.0  0.18303  0.19009  0.90321  1.0000
  C   C274      1.0  0.13522  0.01053  0.48384  1.0000
  H   H218      1.0  0.40384  0.21982  0.78842  1.0000
  C   C275      1.0  0.15867  0.22514  0.96448  1.0000
  C   C276      1.0  0.44838  0.18256  0.75867  1.0000
  C   C277      1.0  0.18084  0.20056  0.53227  1.0000
  C   C278      1.0  0.44480  0.21805  0.95525  1.0000
  H   H219      1.0  0.29235  0.08177  0.94825  1.0000
  C   C279      1.0  0.15871  0.15208  0.53659  1.0000
  C   C280      1.0  0.16729  0.01954  0.91842  1.0000
  S   S41       1.0  0.11497  0.23472  0.69372  1.0000
  H   H220      1.0  0.10834  0.18414  0.82477  1.0000
  C   C281      1.0  0.14788  0.21293  0.62553  1.0000
  C   C282      1.0  0.22854  0.24284  0.94785  1.0000
  P   P6        1.0  0.13416  0.17873  0.61189  1.0000
  C   C283      1.0  0.09817  0.16479  0.60619  1.0000
  C   C284      1.0  0.15051  0.17786  0.57595  1.0000
  C   C285      1.0  0.14615  0.15309  0.56430  1.0000
  H   H221      1.0  0.45221  0.10972  0.77411  1.0000
  H   H222      1.0  0.41741  0.17683  0.79157  1.0000
  S   S42       1.0  0.38214  0.12259  0.53370  1.0000
  C   C286      1.0  0.22265  0.07536  0.69073  1.0000
  C   C287      1.0  0.08296  0.16883  0.62916  1.0000
  C   C288      1.0  0.14043  0.15964  0.64125  1.0000
  C   C289      1.0  0.12162  0.14563  0.66515  1.0000
  C   C290      1.0  0.12735  0.13185  0.68825  1.0000
  H   H223      1.0  0.43095  0.15454  0.83122  1.0000
  C   C291      1.0  0.17078  0.14602  0.66429  1.0000
  C   C292      1.0  0.16512  0.15978  0.64111  1.0000
  H   H224      1.0  0.25430  0.19243  0.79293  1.0000
  C   C293      1.0  0.16810  0.20166  0.55980  1.0000
  C   C294      1.0  0.15798  0.23432  0.86836  1.0000
  C   C295      1.0  0.45216  0.08653  0.84795  1.0000
  H   H225      1.0  0.17473  0.21107  0.66037  1.0000
  H   H226      1.0  0.13284  0.13451  0.57653  1.0000
  C   C296      1.0  0.17600  0.17581  0.52057  1.0000
  H   H227      1.0  0.29257  0.15608  0.67364  1.0000
  H   H228      1.0  0.22019  0.11410  0.60008  1.0000
  Fe  Fe20      1.0  0.38622  0.16144  0.51623  1.0000
  H   H229      1.0  0.09257  0.18033  0.65018  1.0000
  H   H230      1.0  0.10271  0.14554  0.66657  1.0000
  H   H231      1.0  0.18058  0.05151  0.56415  1.0000
  C   C297      1.0  0.23179  0.11193  0.52236  1.0000
  H   H232      1.0  0.28364  0.21539  0.83884  1.0000
  H   H233      1.0  0.37935  0.23583  0.91864  1.0000
  H   H234      1.0  0.31922  0.16910  0.89152  1.0000
  H   H235      1.0  0.21007  0.03465  0.97970  1.0000
  Fe  Fe21      1.0  0.36618  0.09873  0.97262  1.0000
  C   C298      1.0  0.21288  0.09178  0.70169  1.0000
  C   C299      1.0  0.31343  0.17030  0.59754  1.0000
  H   H236      1.0  0.26025  0.06867  0.58955  1.0000
  H   H237      1.0  0.11820  0.18932  0.51804  1.0000
  P   P7        1.0  0.17860  0.23589  0.92888  1.0000
  C   C300      1.0  0.14598  0.03853  0.48715  1.0000
  C   C301      1.0  0.12173  0.19403  0.84451  1.0000
  C   C302      1.0  0.31985  0.17547  0.94140  1.0000
  C   C303      1.0  0.28671  0.05800  0.52249  1.0000
  C   C304      1.0  0.48554  0.16496  0.89203  1.0000
  C   C305      1.0  0.25431  0.01390  0.95863  1.0000
  S   S43       1.0  0.01927  0.23029  0.76341  1.0000
  C   C306      1.0  0.36050  0.04520  0.57125  1.0000
  C   C307      1.0  0.38306  0.04221  0.57596  1.0000
  C   C308      1.0  0.47833  0.16642  0.77528  1.0000
  H   H238      1.0  0.42864  0.06109  0.76305  1.0000
  H   H239      1.0  0.19903  0.11067  0.54839  1.0000
  C   C309      1.0  0.99664  0.11320  0.77616  1.0000
  H   H240      1.0  0.11309  0.12171  0.70712  1.0000
  H   H241      1.0  0.20811  0.12491  0.96379  1.0000
  H   H242      1.0  0.40917  0.20852  0.89531  1.0000
  C   C310      1.0  0.43431  0.17377  0.78699  1.0000
  C   C311      1.0  0.43013  0.04978  0.81091  1.0000
  P   P8        1.0  0.23705  0.03230  0.49232  1.0000
  C   C312      1.0  0.43268  0.13223  0.91376  1.0000
  C   C313      1.0  0.14159  0.00906  0.80346  1.0000
  H   H243      1.0  0.29503  0.04071  0.94203  1.0000
  H   H244      1.0  0.19433  0.21889  0.51967  1.0000
  S   S44       1.0  0.44510  0.14564  0.51180  1.0000
  H   H245      1.0  0.03823  0.14296  0.78570  1.0000
  H   H246      1.0  0.36322  0.06520  0.56858  1.0000
  H   H247      1.0  0.40312  0.05986  0.57690  1.0000
  S   S45       1.0  0.34977  0.16739  0.52155  1.0000
  S   S46       1.0  0.42577  0.18696  0.54169  1.0000
  C   C314      1.0  0.24829  0.23531  0.95076  1.0000
  C   C315      1.0  0.43591  0.23758  0.75470  1.0000
  C   C316      1.0  0.44218  0.16123  0.80952  1.0000
  C   C317      1.0  0.45693  0.10522  0.82392  1.0000
  C   C318      1.0  0.24781  0.00618  0.75864  1.0000
  H   H248      1.0  0.24449  0.14398  0.65062  1.0000
  C   C319      1.0  0.43929  0.12976  0.88286  1.0000
  C   C320      1.0  0.33113  0.99659  0.57317  1.0000
  C   C321      1.0  0.41680  0.23839  0.96209  1.0000
  C   C322      1.0  0.25086  0.06089  0.96395  1.0000
  H   H249      1.0  0.20224  0.05401  0.51366  1.0000
  C   C323      1.0  0.29815  0.15506  0.62337  1.0000
  H   H250      1.0  0.04370  0.16165  0.64297  1.0000
  H   H251      1.0  0.34664  0.06028  0.51011  1.0000
  C   C324      1.0  0.36084  0.24385  0.87955  1.0000
  H   H252      1.0  0.21482  0.00611  0.60342  1.0000
  H   H253      1.0  0.17200  0.22106  0.56820  1.0000
  H   H254      1.0  0.43456  0.04456  0.86016  1.0000
  C   C325      1.0  0.27653  0.16344  0.96541  1.0000
  S   S47       1.0  0.29564  0.01761  0.72985  1.0000
  C   C326      1.0  0.18110  0.13998  0.97154  1.0000
  H   H255      1.0  0.25972  0.20585  0.93869  1.0000
  H   H256      1.0  0.44883  0.20181  0.96015  1.0000
  H   H257      1.0  0.21784  0.17725  0.90840  1.0000
  H   H258      1.0  0.27859  0.06847  0.53558  1.0000
  C   C327      1.0  0.24869  0.10846  0.65055  1.0000
  H   H259      1.0  0.34144  0.09772  0.65640  1.0000
  C   C328      1.0  0.05744  0.14076  0.57440  1.0000
  C   C329      1.0  0.33772  0.20954  0.63064  1.0000
  H   H260      1.0  0.14165  0.23281  0.82215  1.0000
  C   C330      1.0  0.27184  0.02582  0.74478  1.0000
  C   C331      1.0  0.19318  0.04242  0.56177  1.0000
  H   H261      1.0  0.32719  0.20396  0.67959  1.0000
  C   C332      1.0  0.23847  0.12473  0.66154  1.0000
  C   C333      1.0  0.22088  0.11651  0.68725  1.0000
  C   C334      1.0  0.43519  0.06823  0.78677  1.0000
  C   C335      1.0  0.09949  0.21312  0.52795  1.0000
  P   P9        1.0  0.47445  0.14090  0.83248  1.0000
  C   C336      1.0  0.01286  0.18740  0.62842  1.0000
  H   H262      1.0  0.39888  0.23729  0.97222  1.0000
  H   H263      1.0  0.14984  0.02515  0.78629  1.0000
  P   P10       1.0  0.42979  0.23680  0.65870  1.0000
  C   C337      1.0  0.22091  0.19566  0.91934  1.0000
  H   H264      1.0  0.30924  0.00535  0.62495  1.0000
  C   C338      1.0  0.33465  0.02247  0.56959  1.0000
  C   C339      1.0  0.15884  0.01493  0.94991  1.0000
  H   H265      1.0  0.21670  0.05637  0.70241  1.0000
  H   H266      1.0  0.47978  0.23984  0.92583  1.0000
  C   C340      1.0  0.32397  0.09166  0.64139  1.0000
  C   C341      1.0  0.31288  0.06730  0.62513  1.0000
  C   C342      1.0  0.29003  0.05917  0.60625  1.0000
  C   C343      1.0  0.27837  0.07551  0.60352  1.0000
  C   C344      1.0  0.28977  0.10033  0.61921  1.0000
  C   C345      1.0  0.31254  0.10818  0.63841  1.0000
  P   P11       1.0  0.27287  0.11984  0.61862  1.0000
  C   C346      1.0  0.25621  0.11575  0.58106  1.0000
  H   H267      1.0  0.09625  0.14760  0.56023  1.0000
  H   H268      1.0  0.23663  0.00824  0.55267  1.0000
  H   H269      1.0  0.17065  0.07786  0.96736  1.0000
  H   H270      1.0  0.13554  0.18040  0.91764  1.0000
  C   C347      1.0  0.22483  0.01817  0.55510  1.0000
  C   C348      1.0  0.28032  0.22707  0.82118  1.0000
  C   C349      1.0  0.12004  0.20902  0.51643  1.0000
  H   H271      1.0  0.16612  0.00320  0.90458  1.0000
  H   H272      1.0  0.12243  0.22104  0.94263  1.0000
  C   C350      1.0  0.34588  0.01074  0.87108  1.0000
  H   H273      1.0  0.12347  0.22182  0.59401  1.0000
  C   C351      1.0  0.27644  0.03907  0.95067  1.0000
  C   C352      1.0  0.30816  0.17002  0.49244  1.0000
  H   H274      1.0  0.18683  0.02782  0.60936  1.0000
  H   H275      1.0  0.28041  0.23424  0.62712  1.0000
  H   H276      1.0  0.24282  0.14755  0.93246  1.0000
  Fe  Fe22      1.0  0.40376  0.12308  0.48959  1.0000
  C   C353      1.0  0.47799  0.23668  0.64640  1.0000
  C   C354      1.0  0.38234  0.01942  0.49258  1.0000
  H   H277      1.0  0.18560  0.17503  0.49896  1.0000
  H   H278      1.0  0.21629  0.23540  0.77331  1.0000
  C   C355      1.0  0.14280  0.23027  0.50235  1.0000
  C   C356      1.0  0.16066  0.03629  0.96765  1.0000
  C   C357      1.0  0.47365  0.16077  0.64838  1.0000
  C   C358      1.0  0.34321  0.00220  0.97680  1.0000
  H   H279      1.0  0.44775  0.15234  0.95809  1.0000
  H   H280      1.0  0.35276  0.23057  0.63329  1.0000
  C   C359      1.0  0.38779  0.04613  0.48914  1.0000
  C   C360      1.0  0.32531  0.05374  0.50800  1.0000
  C   C361      1.0  0.20106  0.20305  0.91652  1.0000
  H   H281      1.0  0.17194  0.23226  0.77712  1.0000
  H   H282      1.0  0.15018  0.04736  0.51033  1.0000
  C   C362      1.0  0.13319  0.01324  0.83264  1.0000
  H   H283      1.0  0.26743  0.11404  0.50268  1.0000
  C   C363      1.0  0.48653  0.17849  0.59580  1.0000
  H   H284      1.0  0.48155  0.18605  0.73105  1.0000
  H   H285      1.0  0.31076  0.24048  0.67220  1.0000
  H   H286      1.0  0.24942  0.07896  0.96591  1.0000
  H   H287      1.0  0.99764  0.18101  0.53889  1.0000
  C   C364      1.0  0.37981  0.01649  0.57888  1.0000
  C   C365      1.0  0.23030  0.01249  0.96901  1.0000
  S   S48       1.0  0.09236  0.24156  0.76218  1.0000
  C   C366      1.0  0.27768  0.24182  0.64928  1.0000
  C   C367      1.0  0.19666  0.02903  0.58720  1.0000
  C   C368      1.0  0.33181  0.16861  0.48821  1.0000
  H   H288      1.0  0.11677  0.99606  0.87782  1.0000
  H   H289      1.0  0.08505  0.24091  0.53317  1.0000
  H   H290      1.0  0.04007  0.24360  0.53470  1.0000
  H   H291      1.0  0.01272  0.24304  0.57966  1.0000
  Fe  Fe23      1.0  0.15267  0.45030  0.07708  1.0000
  S   S49       1.0  0.17599  0.44063  0.04264  1.0000
  Fe  Fe24      1.0  0.09781  0.41109  0.04795  1.0000
  S   S50       1.0  0.11842  0.40037  0.01038  1.0000
  S   S51       1.0  0.05216  0.38309  0.04232  1.0000
  Fe  Fe25      1.0  0.14323  0.39775  0.04933  1.0000
  S   S52       1.0  0.14757  0.36081  0.04540  1.0000
  C   C369      1.0  0.16290  0.29572  0.35043  1.0000
  H   H292      1.0  0.29021  0.29412  0.23432  1.0000
  S   S53       1.0  0.12185  0.40678  0.08726  1.0000
  Fe  Fe26      1.0  0.36294  0.27344  0.14713  1.0000
  S   S54       1.0  0.37151  0.30047  0.10539  1.0000
  H   H293      1.0  0.40996  0.28989  0.04849  1.0000
  Fe  Fe27      1.0  0.35858  0.31323  0.19214  1.0000
  S   S55       1.0  0.36728  0.34305  0.15370  1.0000
  S   S56       1.0  0.34925  0.31848  0.24264  1.0000
  Fe  Fe28      1.0  0.33865  0.30700  0.12514  1.0000
  S   S57       1.0  0.30562  0.30868  0.09770  1.0000
  Fe  Fe29      1.0  0.39938  0.33367  0.13798  1.0000
  S   S58       1.0  0.44201  0.36787  0.12827  1.0000
  S   S59       1.0  0.32797  0.27748  0.16451  1.0000
  S   S60       1.0  0.39274  0.30624  0.17888  1.0000
  Fe  Fe30      1.0  0.30041  0.40200  0.33355  1.0000
  S   S61       1.0  0.32429  0.40419  0.37627  1.0000
  S   S62       1.0  0.31550  0.40413  0.28394  1.0000
  Fe  Fe31      1.0  0.25371  0.39857  0.37216  1.0000
  S   S63       1.0  0.27363  0.39963  0.41812  1.0000
  S   S64       1.0  0.21399  0.39811  0.36439  1.0000
  Fe  Fe32      1.0  0.31163  0.43256  0.39573  1.0000
  S   S65       1.0  0.33998  0.46813  0.42615  1.0000
  Fe  Fe33      1.0  0.28466  0.37121  0.39492  1.0000
  S   S66       1.0  0.28721  0.33683  0.41731  1.0000
  S   S67       1.0  0.29101  0.43338  0.35123  1.0000
  S   S68       1.0  0.26158  0.36716  0.35072  1.0000
  S   S69       1.0  0.14276  0.28987  0.16156  1.0000
  Fe  Fe34      1.0  0.03811  0.36798  0.45943  1.0000
  C   C370      1.0  0.04799  0.28347  0.05953  1.0000
  C   C371      1.0  0.00615  0.41861  0.39486  1.0000
  Fe  Fe35      1.0  0.07699  0.42816  0.44922  1.0000
  C   C372      1.0  0.27153  0.29264  0.22610  1.0000
  S   S70       1.0  0.08472  0.46152  0.41466  1.0000
  S   S71       1.0  0.13457  0.38561  0.47627  1.0000
  C   C373      1.0  0.23990  0.32736  0.02529  1.0000
  S   S72       1.0  0.07521  0.39082  0.42941  1.0000
  C   C374      1.0  0.18725  0.47356  0.19819  1.0000
  H   H294      1.0  0.26272  0.43311  0.02168  1.0000
  H   H295      1.0  0.20850  0.26733  0.47328  1.0000
  H   H296      1.0  0.20563  0.38937  0.02664  1.0000
  C   C375      1.0  0.01399  0.29801  0.43188  1.0000
  C   C376      1.0  0.01224  0.43835  0.41763  1.0000
  C   C377      1.0  0.22421  0.26035  0.10378  1.0000
  C   C378      1.0  0.01108  0.27227  0.43016  1.0000
  C   C379      1.0  0.22365  0.26587  0.21530  1.0000
  C   C380      1.0  0.49104  0.38975  0.09841  1.0000
  H   H297      1.0  0.00736  0.31537  0.11771  1.0000
  H   H298      1.0  0.30274  0.42360  0.99748  1.0000
  H   H299      1.0  0.15291  0.37191  0.11259  1.0000
  C   C381      1.0  0.40578  0.29392  0.02487  1.0000
  C   C382      1.0  0.19264  0.39576  0.39588  1.0000
  C   C383      1.0  0.16782  0.39431  0.38929  1.0000
  C   C384      1.0  0.15008  0.39181  0.41370  1.0000
  C   C385      1.0  0.15693  0.39050  0.44493  1.0000
  C   C386      1.0  0.18170  0.39183  0.45149  1.0000
  C   C387      1.0  0.19961  0.39472  0.42715  1.0000
  H   H300      1.0  0.16219  0.39497  0.36518  1.0000
  H   H301      1.0  0.13090  0.39045  0.40833  1.0000
  H   H302      1.0  0.41690  0.27570  0.14275  1.0000
  H   H303      1.0  0.21862  0.39580  0.43262  1.0000
  C   C388      1.0  0.25896  0.30433  0.42130  1.0000
  C   C389      1.0  0.25723  0.28318  0.40312  1.0000
  H   H304      1.0  0.47237  0.25371  0.10434  1.0000
  H   H305      1.0  0.29279  0.35038  0.15976  1.0000
  H   H306      1.0  0.21608  0.34800  0.45605  1.0000
  C   C390      1.0  0.24084  0.29852  0.44613  1.0000
  H   H307      1.0  0.19389  0.33943  0.07939  1.0000
  C   C391      1.0  0.08156  0.31188  0.02097  1.0000
  C   C392      1.0  0.27325  0.28029  0.10261  1.0000
  C   C393      1.0  0.06950  0.36195  0.14398  1.0000
  H   H308      1.0  0.08300  0.31522  0.11366  1.0000
  C   C394      1.0  0.04939  0.26124  0.04806  1.0000
  C   C395      1.0  0.07110  0.32424  0.12085  1.0000
  C   C396      1.0  0.25022  0.28306  0.10107  1.0000
  C   C397      1.0  0.27015  0.25473  0.10662  1.0000
  C   C398      1.0  0.47690  0.40149  0.99826  1.0000
  H   H309      1.0  0.25259  0.30284  0.09797  1.0000
  C   C399      1.0  0.34014  0.34260  0.25361  1.0000
  C   C400      1.0  0.32799  0.34020  0.28296  1.0000
  C   C401      1.0  0.32040  0.35896  0.29256  1.0000
  C   C402      1.0  0.32506  0.38038  0.27288  1.0000
  C   C403      1.0  0.33741  0.38292  0.24368  1.0000
  C   C404      1.0  0.34481  0.36405  0.23395  1.0000
  H   H310      1.0  0.32433  0.32367  0.29830  1.0000
  H   H311      1.0  0.31092  0.35681  0.31516  1.0000
  H   H312      1.0  0.34139  0.39961  0.22858  1.0000
  H   H313      1.0  0.35429  0.36622  0.21138  1.0000
  C   C405      1.0  0.02573  0.37637  0.06905  1.0000
  C   C406      1.0  0.02726  0.39593  0.08977  1.0000
  H   H314      1.0  0.02674  0.44110  0.43557  1.0000
  C   C407      1.0  0.46440  0.36799  0.09953  1.0000
  C   C408      1.0  0.45618  0.34722  0.07762  1.0000
  C   C409      1.0  0.02360  0.25211  0.11640  1.0000
  H   H315      1.0  0.04570  0.41520  0.09130  1.0000
  H   H316      1.0  0.29793  0.47969  0.41503  1.0000
  H   H317      1.0  0.43579  0.33039  0.07850  1.0000
  H   H318      1.0  0.31294  0.45352  0.27576  1.0000
  C   C410      1.0  0.14250  0.34052  0.07857  1.0000
  C   C411      1.0  0.13557  0.31364  0.07406  1.0000
  C   C412      1.0  0.13447  0.29764  0.09958  1.0000
  C   C413      1.0  0.14066  0.30853  0.12981  1.0000
  C   C414      1.0  0.14650  0.33513  0.13456  1.0000
  C   C415      1.0  0.14736  0.35112  0.10897  1.0000
  H   H319      1.0  0.13143  0.30529  0.05066  1.0000
  H   H320      1.0  0.12938  0.27708  0.09571  1.0000
  H   H321      1.0  0.15127  0.34366  0.15790  1.0000
  S   S73       1.0  0.12676  0.45574  0.04076  1.0000
  C   C416      1.0  0.20670  0.31939  0.39198  1.0000
  C   C417      1.0  0.22009  0.47366  0.11358  1.0000
  Fe  Fe36      1.0  0.14917  0.44417  0.00669  1.0000
  C   C418      1.0  0.39049  0.29429  0.43410  1.0000
  H   H322      1.0  0.21563  0.28909  0.37696  1.0000
  C   C419      1.0  0.24776  0.26767  0.22548  1.0000
  H   H323      1.0  0.07388  0.29154  0.39306  1.0000
  C   C420      1.0  0.43861  0.47279  0.27055  1.0000
  C   C421      1.0  0.15560  0.25391  0.29591  1.0000
  H   H324      1.0  0.22392  0.32876  0.40771  1.0000
  C   C422      1.0  0.22434  0.30007  0.03283  1.0000
  C   C423      1.0  0.10558  0.31575  0.42588  1.0000
  H   H325      1.0  0.39684  0.47750  0.34154  1.0000
  C   C424      1.0  0.18933  0.32980  0.38910  1.0000
  C   C425      1.0  0.26686  0.38744  0.06925  1.0000
  H   H326      1.0  0.19123  0.28111  0.26915  1.0000
  C   C426      1.0  0.26076  0.39766  0.04238  1.0000
  C   C427      1.0  0.44248  0.26175  0.12335  1.0000
  H   H327      1.0  0.02636  0.26957  0.41863  1.0000
  H   H328      1.0  0.05812  0.27617  0.14658  1.0000
  H   H329      1.0  0.24250  0.31466  0.46078  1.0000
  C   C428      1.0  0.07605  0.26763  0.43077  1.0000
  H   H330      1.0  0.03163  0.31514  0.42195  1.0000
  H   H331      1.0  0.18203  0.46702  0.17405  1.0000
  H   H332      1.0  0.34872  0.43519  0.16685  1.0000
  C   C429      1.0  0.27771  0.40357  0.09595  1.0000
  C   C430      1.0  0.08916  0.26774  0.45859  1.0000
  C   C431      1.0  0.25758  0.47043  0.31924  1.0000
  H   H333      1.0  0.37647  0.44675  0.29609  1.0000
  H   H334      1.0  0.35646  0.45902  0.25239  1.0000
  C   C432      1.0  0.48406  0.31535  0.12749  1.0000
  H   H335      1.0  0.28220  0.39549  0.11663  1.0000
  C   C433      1.0  0.19616  0.28750  0.03265  1.0000
  C   C434      1.0  0.00028  0.45457  0.41648  1.0000
  C   C435      1.0  0.04182  0.34945  0.13754  1.0000
  H   H336      1.0  0.16822  0.31172  0.45739  1.0000
  H   H337      1.0  0.28778  0.25250  0.10823  1.0000
  C   C436      1.0  0.31605  0.28743  0.45337  1.0000
  H   H338      1.0  0.27121  0.28742  0.38401  1.0000
  H   H339      1.0  0.20649  0.26254  0.10292  1.0000
  P   P12       1.0  0.02701  0.28000  0.09295  1.0000
  H   H340      1.0  0.19292  0.34710  0.40281  1.0000
  C   C437      1.0  0.11065  0.29194  0.47029  1.0000
  H   H341      1.0  0.11580  0.25296  0.22109  1.0000
  H   H342      1.0  0.23418  0.28880  0.03946  1.0000
  C   C438      1.0  0.30032  0.40707  0.98294  1.0000
  H   H343      1.0  0.31629  0.44046  0.20058  1.0000
  C   C439      1.0  0.19896  0.32933  0.01657  1.0000
  C   C440      1.0  0.17346  0.47466  0.25164  1.0000
  C   C441      1.0  0.26715  0.46817  0.22174  1.0000
  H   H344      1.0  0.25057  0.44648  0.40240  1.0000
  H   H345      1.0  0.20515  0.24655  0.21545  1.0000
  C   C442      1.0  0.23634  0.47399  0.30883  1.0000
  H   H346      1.0  0.18415  0.26670  0.03982  1.0000
  H   H347      1.0  0.45375  0.32319  0.14662  1.0000
  H   H348      1.0  0.00736  0.29254  0.03495  1.0000
  C   C443      1.0  0.08431  0.29161  0.41437  1.0000
  C   C444      1.0  0.16685  0.46602  0.22053  1.0000
  C   C445      1.0  0.25328  0.28443  0.30659  1.0000
  C   C446      1.0  0.22856  0.28274  0.31364  1.0000
  S   S74       1.0  0.99665  0.33341  0.44693  1.0000
  H   H349      1.0  0.13474  0.33494  0.46257  1.0000
  H   H350      1.0  0.14574  0.28674  0.33465  1.0000
  H   H351      1.0  0.43005  0.31071  0.45530  1.0000
  P   P13       1.0  0.24792  0.37757  0.00713  1.0000
  C   C447      1.0  0.38082  0.24486  0.45828  1.0000
  H   H352      1.0  0.27224  0.40130  0.21362  1.0000
  Fe  Fe37      1.0  0.09858  0.39241  0.47274  1.0000
  S   S75       1.0  0.17756  0.48382  0.11146  1.0000
  H   H353      1.0  0.44191  0.37185  0.02327  1.0000
  C   C448      1.0  0.25648  0.46745  0.40575  1.0000
  C   C449      1.0  0.18348  0.30206  0.02441  1.0000
  C   C450      1.0  0.18140  0.46627  0.34873  1.0000
  H   H354      1.0  0.16545  0.28037  0.22207  1.0000
  H   H355      1.0  0.27080  0.30382  0.30141  1.0000
  H   H356      1.0  0.22736  0.30100  0.31378  1.0000
  C   C451      1.0  0.32677  0.24656  0.37608  1.0000
  H   H357      1.0  0.47710  0.28752  0.99586  1.0000
  C   C452      1.0  0.38836  0.30410  0.02011  1.0000
  H   H358      1.0  0.36242  0.27524  0.25070  1.0000
  C   C453      1.0  0.27719  0.44051  0.06921  1.0000
  H   H359      1.0  0.24796  0.24979  0.23327  1.0000
  C   C454      1.0  0.18034  0.28516  0.35318  1.0000
  C   C455      1.0  0.44921  0.38370  0.00195  1.0000
  C   C456      1.0  0.38848  0.48322  0.32209  1.0000
  C   C457      1.0  0.47192  0.47288  0.30580  1.0000
  C   C458      1.0  0.00148  0.35155  0.06715  1.0000
  P   P14       1.0  0.33923  0.27215  0.40607  1.0000
  H   H360      1.0  0.05618  0.47833  0.46681  1.0000
  C   C459      1.0  0.19404  0.40267  0.98537  1.0000
  H   H361      1.0  0.22321  0.30286  0.14446  1.0000
  H   H362      1.0  0.28907  0.24644  0.36959  1.0000
  H   H363      1.0  0.06345  0.32636  0.05384  1.0000
  H   H364      1.0  0.26452  0.42156  0.27323  1.0000
  H   H365      1.0  0.36830  0.25180  0.08080  1.0000
  C   C460      1.0  0.15498  0.26871  0.24256  1.0000
  C   C461      1.0  0.40587  0.26802  0.46312  1.0000
  C   C462      1.0  0.36562  0.47294  0.27179  1.0000
  H   H366      1.0  0.34850  0.49084  0.12671  1.0000
  H   H367      1.0  0.23283  0.38099  0.16395  1.0000
  C   C463      1.0  0.35122  0.30324  0.38458  1.0000
  C   C464      1.0  0.33657  0.31693  0.38441  1.0000
  C   C465      1.0  0.34520  0.34008  0.36620  1.0000
  C   C466      1.0  0.36809  0.34934  0.34726  1.0000
  Fe  Fe38      1.0  0.13411  0.24765  0.15098  1.0000
  C   C467      1.0  0.37396  0.31245  0.36510  1.0000
  H   H368      1.0  0.26176  0.33690  0.02609  1.0000
  C   C468      1.0  0.13865  0.47685  0.34816  1.0000
  C   C469      1.0  0.25615  0.44465  0.23967  1.0000
  C   C470      1.0  0.41802  0.28912  0.99924  1.0000
  C   C471      1.0  0.16039  0.45376  0.37045  1.0000
  H   H369      1.0  0.26110  0.36695  0.25836  1.0000
  H   H370      1.0  0.21052  0.37927  0.11358  1.0000
  H   H371      1.0  0.39973  0.34227  0.33129  1.0000
  C   C472      1.0  0.11868  0.31593  0.45371  1.0000
  C   C473      1.0  0.48965  0.29588  0.11534  1.0000
  C   C474      1.0  0.31925  0.24962  0.25429  1.0000
  H   H372      1.0  0.06505  0.35147  0.00028  1.0000
  H   H373      1.0  0.36953  0.31729  0.98620  1.0000
  H   H374      1.0  0.46778  0.33255  0.03733  1.0000
  H   H375      1.0  0.03063  0.35959  0.14310  1.0000
  H   H376      1.0  0.31823  0.30973  0.39786  1.0000
  H   H377      1.0  0.33382  0.35057  0.36651  1.0000
  H   H378      1.0  0.09693  0.29236  0.99124  1.0000
  H   H379      1.0  0.10563  0.35916  0.14033  1.0000
  H   H380      1.0  0.38493  0.30160  0.36388  1.0000
  C   C475      1.0  0.31587  0.49172  0.99893  1.0000
  H   H381      1.0  0.00006  0.33645  0.05099  1.0000
  H   H382      1.0  0.17040  0.24740  0.39996  1.0000
  H   H383      1.0  0.25432  0.47197  0.20631  1.0000
  C   C476      1.0  0.24709  0.48082  0.11987  1.0000
  C   C477      1.0  0.31203  0.48147  0.24192  1.0000
  C   C478      1.0  0.46865  0.26897  0.11376  1.0000
  C   C479      1.0  0.22172  0.27168  0.45333  1.0000
  H   H384      1.0  0.37438  0.36696  0.33264  1.0000
  C   C480      1.0  0.45796  0.30798  0.13758  1.0000
  H   H385      1.0  0.08204  0.24898  0.47106  1.0000
  H   H386      1.0  0.19961  0.30099  0.09538  1.0000
  H   H387      1.0  0.17921  0.40570  0.99756  1.0000
  H   H388      1.0  0.37920  0.30825  0.03992  1.0000
  H   H389      1.0  0.16072  0.44017  0.38783  1.0000
  C   C481      1.0  0.43716  0.28126  0.13532  1.0000
  C   C482      1.0  0.20219  0.29712  0.37417  1.0000
  C   C483      1.0  0.00431  0.39116  0.10718  1.0000
  C   C484      1.0  0.23734  0.47565  0.40296  1.0000
  H   H390      1.0  0.33339  0.30747  0.45100  1.0000
  H   H391      1.0  0.29114  0.44255  0.11666  1.0000
  H   H392      1.0  0.26322  0.36707  0.06985  1.0000
  H   H393      1.0  0.28155  0.46121  0.06907  1.0000
  H   H394      1.0  0.25308  0.46570  0.11850  1.0000
  C   C485      1.0  0.22085  0.25048  0.43605  1.0000
  C   C486      1.0  0.24652  0.48060  0.02411  1.0000
  C   C487      1.0  0.18147  0.48461  0.32680  1.0000
  C   C488      1.0  0.23809  0.25637  0.41032  1.0000
  C   C489      1.0  0.41065  0.29274  0.45121  1.0000
  H   H395      1.0  0.23494  0.37389  0.29995  1.0000
  H   H396      1.0  0.33687  0.38989  0.14689  1.0000
  H   H397      1.0  0.15419  0.32637  0.36610  1.0000
  C   C490      1.0  0.28274  0.43004  0.09600  1.0000
  H   H398      1.0  0.18940  0.33035  0.20018  1.0000
  C   C491      1.0  0.16748  0.31804  0.36833  1.0000
  H   H399      1.0  0.44266  0.43807  0.27998  1.0000
  H   H400      1.0  0.18855  0.34016  0.01071  1.0000
  C   C492      1.0  0.06400  0.30879  0.04547  1.0000
  C   C493      1.0  0.37711  0.46597  0.29647  1.0000
  C   C494      1.0  0.26639  0.42447  0.04246  1.0000
  H   H401      1.0  0.16362  0.33597  0.24260  1.0000
  H   H402      1.0  0.14587  0.45366  0.21357  1.0000
  P   P15       1.0  0.17409  0.25572  0.33125  1.0000
  C   C495      1.0  0.27292  0.43968  0.25910  1.0000
  C   C496      1.0  0.38294  0.30928  0.98975  1.0000
  H   H403      1.0  0.42177  0.46210  0.25449  1.0000
  H   H404      1.0  0.01590  0.40653  0.39587  1.0000
  C   C497      1.0  0.13898  0.45892  0.37008  1.0000
  P   P16       1.0  0.00863  0.48071  0.44544  1.0000
  H   H405      1.0  0.39445  0.31368  0.42553  1.0000
  H   H406      1.0  0.21653  0.46080  0.39785  1.0000
  H   H407      1.0  0.43186  0.28176  0.00353  1.0000
  H   H408      1.0  0.01632  0.33360  0.99539  1.0000
  C   C498      1.0  0.17728  0.32378  0.47820  1.0000
  C   C499      1.0  0.20578  0.25775  0.32083  1.0000
  H   H409      1.0  0.29766  0.47721  0.01068  1.0000
  C   C500      1.0  0.22737  0.34228  0.01711  1.0000
  H   H410      1.0  0.11166  0.33446  0.41359  1.0000
  H   H411      1.0  0.20545  0.45313  0.10745  1.0000
  H   H412      1.0  0.21821  0.45685  0.29957  1.0000
  H   H413      1.0  0.25550  0.45061  0.31841  1.0000
  H   H414      1.0  0.12270  0.44911  0.38694  1.0000
  C   C501      1.0  0.47434  0.34850  0.05445  1.0000
  H   H415      1.0  0.18641  0.35798  0.29276  1.0000
  H   H416      1.0  0.09472  0.33168  0.01120  1.0000
  C   C502      1.0  0.02868  0.32425  0.12297  1.0000
  C   C503      1.0  0.04322  0.31140  0.11447  1.0000
  C   C504      1.0  0.27120  0.31582  0.21657  1.0000
  C   C505      1.0  0.24727  0.31409  0.20522  1.0000
  C   C506      1.0  0.22339  0.28896  0.20517  1.0000
  P   P17       1.0  0.24617  0.34413  0.19488  1.0000
  C   C507      1.0  0.22749  0.34908  0.22572  1.0000
  C   C508      1.0  0.27956  0.37268  0.18869  1.0000
  C   C509      1.0  0.28628  0.39838  0.19955  1.0000
  C   C510      1.0  0.31117  0.42079  0.19177  1.0000
  C   C511      1.0  0.32940  0.41781  0.17275  1.0000
  C   C512      1.0  0.32276  0.39233  0.16156  1.0000
  C   C513      1.0  0.29786  0.36989  0.16926  1.0000
  C   C514      1.0  0.19979  0.34007  0.22174  1.0000
  C   C515      1.0  0.18501  0.34317  0.24584  1.0000
  C   C516      1.0  0.19775  0.35540  0.27403  1.0000
  C   C517      1.0  0.22519  0.36421  0.27820  1.0000
  C   C518      1.0  0.23997  0.36062  0.25442  1.0000
  C   C519      1.0  0.22950  0.34194  0.15812  1.0000
  C   C520      1.0  0.22048  0.31960  0.13826  1.0000
  C   C521      1.0  0.20754  0.31868  0.11001  1.0000
  C   C522      1.0  0.20422  0.34027  0.10103  1.0000
  C   C523      1.0  0.21347  0.36271  0.12047  1.0000
  C   C524      1.0  0.22599  0.36354  0.14896  1.0000
  H   H417      1.0  0.28963  0.33502  0.21839  1.0000
  H   H418      1.0  0.20457  0.28727  0.19733  1.0000
  H   H419      1.0  0.31668  0.26409  0.26797  1.0000
  C   C525      1.0  0.04200  0.25623  0.14066  1.0000
  H   H420      1.0  0.31860  0.25464  0.02583  1.0000
  H   H421      1.0  0.19750  0.46165  0.34957  1.0000
  C   C526      1.0  0.45034  0.45922  0.28494  1.0000
  H   H422      1.0  0.15725  0.46861  0.26839  1.0000
  H   H423      1.0  0.32717  0.49114  0.17622  1.0000
  H   H424      1.0  0.23466  0.43028  0.23854  1.0000
  C   C527      1.0  0.38237  0.33544  0.34657  1.0000
  C   C528      1.0  0.16941  0.26898  0.26929  1.0000
  H   H425      1.0  0.27462  0.26262  0.30098  1.0000
  H   H426      1.0  0.07976  0.38171  0.15472  1.0000
  C   C529      1.0  0.30068  0.45800  0.26033  1.0000
  C   C530      1.0  0.08296  0.28973  0.00988  1.0000
  C   C531      1.0  0.28328  0.48627  0.41285  1.0000
  H   H427      1.0  0.16161  0.29234  0.02466  1.0000
  C   C532      1.0  0.20892  0.39320  0.00167  1.0000
  H   H428      1.0  0.23753  0.46315  0.03934  1.0000
  H   H429      1.0  0.00537  0.40684  0.12221  1.0000
  C   C533      1.0  0.08408  0.34928  0.13580  1.0000
  C   C534      1.0  0.36552  0.27094  0.42842  1.0000
  H   H430      1.0  0.47766  0.28551  0.05342  1.0000
  C   C535      1.0  0.31342  0.26623  0.43444  1.0000
  C   C536      1.0  0.06679  0.26439  0.02333  1.0000
  C   C537      1.0  0.34513  0.25587  0.24472  1.0000
  C   C538      1.0  0.25540  0.26120  0.30629  1.0000
  H   H431      1.0  0.46160  0.25767  0.20475  1.0000
  H   H432      1.0  0.05907  0.24897  0.42225  1.0000
  S   S76       1.0  0.03779  0.40504  0.47541  1.0000
  C   C539      1.0  0.12681  0.25335  0.24205  1.0000
  H   H433      1.0  0.06808  0.24722  0.01508  1.0000
  H   H434      1.0  0.12199  0.48081  0.34811  1.0000
  H   H435      1.0  0.10703  0.49061  0.47332  1.0000
  H   H436      1.0  0.48092  0.46227  0.31708  1.0000
  H   H437      1.0  0.18707  0.39061  0.47557  1.0000
  C   C540      1.0  0.29487  0.48670  0.22318  1.0000
  H   H438      1.0  0.29739  0.48930  0.33991  1.0000
  C   C541      1.0  0.36067  0.24631  0.44111  1.0000
  C   C542      1.0  0.29591  0.28311  0.47500  1.0000
  C   C543      1.0  0.21185  0.49279  0.11653  1.0000
  C   C544      1.0  0.22788  0.38878  0.98582  1.0000
  C   C545      1.0  0.20437  0.34427  0.47729  1.0000
  C   C546      1.0  0.27354  0.25739  0.47875  1.0000
  C   C547      1.0  0.23480  0.47974  0.99498  1.0000
  C   C548      1.0  0.01727  0.47168  0.48268  1.0000
  H   H439      1.0  0.49097  0.40351  0.01659  1.0000
  C   C549      1.0  0.20064  0.49083  0.26063  1.0000
  C   C550      1.0  0.15990  0.48985  0.32677  1.0000
  C   C551      1.0  0.28109  0.49217  0.33147  1.0000
  C   C552      1.0  0.21431  0.48971  0.20688  1.0000
  H   H440      1.0  0.32137  0.24658  0.08241  1.0000
  H   H441      1.0  0.21674  0.46164  0.98749  1.0000
  H   H442      1.0  0.42157  0.26682  0.47617  1.0000
  C   C553      1.0  0.27606  0.38229  0.98309  1.0000
  Fe  Fe39      1.0  0.29212  0.44590  0.89702  1.0000
  S   S77       1.0  0.29466  0.45802  0.94840  1.0000
  Fe  Fe40      1.0  0.24981  0.40247  0.85244  1.0000
  S   S78       1.0  0.27936  0.41440  0.81293  1.0000
  S   S79       1.0  0.20725  0.36639  0.85246  1.0000
  Fe  Fe41      1.0  0.30962  0.41709  0.84891  1.0000
  S   S80       1.0  0.32953  0.39098  0.85047  1.0000
  Fe  Fe42      1.0  0.29150  0.45681  0.82782  1.0000
  S   S81       1.0  0.27898  0.40263  0.88761  1.0000
  S   S82       1.0  0.25990  0.44452  0.86506  1.0000
  Fe  Fe43      1.0  0.06292  0.40458  0.51556  1.0000
  S   S83       1.0  0.05402  0.41103  0.56561  1.0000
  Fe  Fe44      1.0  0.42573  0.35733  0.75159  1.0000
  S   S84       1.0  0.40950  0.33405  0.70692  1.0000
  S   S85       1.0  0.41950  0.39297  0.76037  1.0000
  Fe  Fe45      1.0  0.45174  0.32418  0.77053  1.0000
  S   S86       1.0  0.43696  0.29805  0.72799  1.0000
  S   S87       1.0  0.47567  0.31837  0.80893  1.0000
  Fe  Fe46      1.0  0.44981  0.33661  0.70210  1.0000
  S   S88       1.0  0.46625  0.33860  0.65360  1.0000
  Fe  Fe47      1.0  0.39794  0.29741  0.73617  1.0000
  C   C554      1.0  0.29133  0.25513  0.70315  1.0000
  S   S89       1.0  0.46758  0.36321  0.74427  1.0000
  S   S90       1.0  0.41129  0.32040  0.78152  1.0000
  S   S91       1.0  0.15274  0.30881  0.72357  1.0000
  H   H443      1.0  0.30485  0.25787  0.72248  1.0000
  C   C555      1.0  0.04912  0.40328  0.92972  1.0000
  H   H444      1.0  0.19876  0.49355  0.90629  1.0000
  H   H445      1.0  0.46470  0.33551  0.97222  1.0000
  C   C556      1.0  0.01435  0.27017  0.73244  1.0000
  C   C557      1.0  0.00441  0.28814  0.72978  1.0000
  C   C558      1.0  0.99909  0.32726  0.66277  1.0000
  H   H446      1.0  0.02885  0.27091  0.71563  1.0000
  H   H447      1.0  0.01200  0.30314  0.71144  1.0000
  C   C559      1.0  0.02090  0.38966  0.57992  1.0000
  C   C560      1.0  0.01385  0.39416  0.60996  1.0000
  C   C561      1.0  0.10490  0.43094  0.91994  1.0000
  H   H448      1.0  0.39073  0.30883  0.94077  1.0000
  P   P18       1.0  0.10180  0.41102  0.85959  1.0000
  S   S92       1.0  0.16895  0.46224  0.95973  1.0000
  H   H449      1.0  0.02863  0.41080  0.62389  1.0000
  P   P19       1.0  0.12697  0.29258  0.50697  1.0000
  P   P20       1.0  0.42753  0.28731  0.93504  1.0000
  H   H450      1.0  0.35545  0.35698  0.71776  1.0000
  C   C562      1.0  0.03355  0.37894  0.78557  1.0000
  C   C563      1.0  0.48653  0.41693  0.97103  1.0000
  H   H451      1.0  0.22423  0.27483  0.89097  1.0000
  Fe  Fe48      1.0  0.11468  0.26796  0.72133  1.0000
  C   C564      1.0  0.35484  0.39216  0.82543  1.0000
  C   C565      1.0  0.37113  0.41463  0.80687  1.0000
  C   C566      1.0  0.39115  0.41471  0.78749  1.0000
  C   C567      1.0  0.39472  0.39220  0.78604  1.0000
  C   C568      1.0  0.37873  0.36990  0.80503  1.0000
  C   C569      1.0  0.35906  0.37001  0.82483  1.0000
  H   H452      1.0  0.36832  0.43193  0.80742  1.0000
  H   H453      1.0  0.40360  0.43214  0.77309  1.0000
  H   H454      1.0  0.38143  0.35256  0.80431  1.0000
  H   H455      1.0  0.34668  0.35265  0.83931  1.0000
  C   C570      1.0  0.19316  0.34982  0.81653  1.0000
  C   C571      1.0  0.20461  0.36179  0.78776  1.0000
  C   C572      1.0  0.19214  0.34885  0.75950  1.0000
  C   C573      1.0  0.16840  0.32363  0.75972  1.0000
  C   C574      1.0  0.15731  0.31131  0.78850  1.0000
  C   C575      1.0  0.16952  0.32448  0.81679  1.0000
  H   H456      1.0  0.22273  0.38133  0.78721  1.0000
  H   H457      1.0  0.20082  0.35861  0.73738  1.0000
  H   H458      1.0  0.13918  0.29179  0.78902  1.0000
  H   H459      1.0  0.16065  0.31498  0.83894  1.0000
  H   H460      1.0  0.10566  0.32969  0.51103  1.0000
  S   S93       1.0  0.32483  0.46085  0.86051  1.0000
  C   C576      1.0  0.39866  0.46385  0.92515  1.0000
  C   C577      1.0  0.12603  0.35563  0.84443  1.0000
  C   C578      1.0  0.13907  0.35632  0.87245  1.0000
  C   C579      1.0  0.29469  0.24520  0.67461  1.0000
  H   H461      1.0  0.11284  0.27370  0.57281  1.0000
  C   C580      1.0  0.21687  0.40366  0.93734  1.0000
  P   P21       1.0  0.26786  0.27577  0.74336  1.0000
  C   C581      1.0  0.12311  0.41918  0.73139  1.0000
  H   H462      1.0  0.21075  0.36810  0.55166  1.0000
  C   C582      1.0  0.11535  0.38872  0.86515  1.0000
  C   C583      1.0  0.42075  0.28601  0.59641  1.0000
  H   H463      1.0  0.32211  0.30863  0.71499  1.0000
  C   C584      1.0  0.43452  0.26037  0.94331  1.0000
  H   H464      1.0  0.05854  0.42001  0.97649  1.0000
  H   H465      1.0  0.03571  0.45034  0.56158  1.0000
  H   H466      1.0  0.48750  0.28694  0.57779  1.0000
  C   C585      1.0  0.17311  0.47108  0.82341  1.0000
  C   C586      1.0  0.21823  0.43336  0.77562  1.0000
  H   H467      1.0  0.23735  0.37624  0.50283  1.0000
  C   C587      1.0  0.29326  0.31100  0.74606  1.0000
  C   C588      1.0  0.31759  0.32146  0.72921  1.0000
  C   C589      1.0  0.33136  0.36615  0.74857  1.0000
  C   C590      1.0  0.30771  0.35580  0.76629  1.0000
  C   C591      1.0  0.28879  0.32830  0.76526  1.0000
  C   C592      1.0  0.48224  0.28019  0.65658  1.0000
  S   S94       1.0  0.07738  0.26346  0.69762  1.0000
  C   C593      1.0  0.21641  0.36023  0.50373  1.0000
  H   H468      1.0  0.19730  0.40996  0.81628  1.0000
  H   H469      1.0  0.07364  0.31640  0.60433  1.0000
  C   C594      1.0  0.47525  0.25969  0.49417  1.0000
  H   H470      1.0  0.19070  0.47273  0.81168  1.0000
  H   H471      1.0  0.29878  0.29169  0.80283  1.0000
  C   C595      1.0  0.03260  0.25754  0.53541  1.0000
  C   C596      1.0  0.40331  0.26685  0.65722  1.0000
  H   H472      1.0  0.24575  0.30845  0.71890  1.0000
  H   H473      1.0  0.34591  0.38748  0.74918  1.0000
  H   H474      1.0  0.30418  0.36914  0.78105  1.0000
  H   H475      1.0  0.27063  0.32067  0.77929  1.0000
  C   C597      1.0  0.10727  0.45830  0.73367  1.0000
  H   H476      1.0  0.03280  0.30727  0.49201  1.0000
  C   C598      1.0  0.47257  0.33766  0.94865  1.0000
  C   C599      1.0  0.46845  0.41480  0.94751  1.0000
  C   C600      1.0  0.34134  0.33954  0.94864  1.0000
  H   H477      1.0  0.47628  0.42714  0.92665  1.0000
  C   C601      1.0  0.46711  0.45111  0.66808  1.0000
  C   C602      1.0  0.03809  0.27539  0.51052  1.0000
  H   H478      1.0  0.16709  0.27654  0.95589  1.0000
  C   C603      1.0  0.23467  0.27240  0.74605  1.0000
  H   H479      1.0  0.23169  0.26104  0.95931  1.0000
  H   H480      1.0  0.34671  0.25751  0.84055  1.0000
  C   C604      1.0  0.22699  0.31316  0.89793  1.0000
  C   C605      1.0  0.21619  0.28564  0.90362  1.0000
  H   H481      1.0  0.18759  0.41678  0.94110  1.0000
  C   C606      1.0  0.07605  0.39826  0.82937  1.0000
  C   C607      1.0  0.05375  0.40600  0.78518  1.0000
  C   C608      1.0  0.40449  0.29650  0.88178  1.0000
  C   C609      1.0  0.39060  0.42168  0.90289  1.0000
  H   H482      1.0  0.31288  0.30167  0.92747  1.0000
  H   H483      1.0  0.05281  0.41955  0.76815  1.0000
  H   H484      1.0  0.44060  0.26265  0.59748  1.0000
  C   C610      1.0  0.33305  0.31904  0.92637  1.0000
  C   C611      1.0  0.45884  0.31776  0.92570  1.0000
  C   C612      1.0  0.18818  0.24894  0.76458  1.0000
  H   H485      1.0  0.44123  0.44510  0.95741  1.0000
  H   H486      1.0  0.24328  0.32356  0.88117  1.0000
  C   C613      1.0  0.03071  0.45664  0.53976  1.0000
  H   H487      1.0  0.16314  0.33184  0.55384  1.0000
  C   C614      1.0  0.17816  0.24994  0.65943  1.0000
  H   H488      1.0  0.49384  0.34378  0.59646  1.0000
  H   H489      1.0  0.46367  0.36310  0.84799  1.0000
  C   C615      1.0  0.05955  0.40105  0.90095  1.0000
  H   H490      1.0  0.00470  0.36833  0.97693  1.0000
  H   H491      1.0  0.11038  0.46577  0.86526  1.0000
  H   H492      1.0  0.02258  0.32770  0.89494  1.0000
  C   C616      1.0  0.36719  0.36221  0.94687  1.0000
  H   H493      1.0  0.04426  0.32696  0.77004  1.0000
  C   C617      1.0  0.16724  0.40872  0.74635  1.0000
  H   H494      1.0  0.45165  0.42646  0.81256  1.0000
  C   C618      1.0  0.14962  0.25609  0.62222  1.0000
  H   H495      1.0  0.10491  0.37146  0.81846  1.0000
  H   H496      1.0  0.44305  0.36435  0.89857  1.0000
  C   C619      1.0  0.07487  0.41570  0.80705  1.0000
  C   C620      1.0  0.43699  0.41293  0.85934  1.0000
  H   H497      1.0  0.16400  0.26681  0.75215  1.0000
  C   C621      1.0  0.37645  0.34392  0.90037  1.0000
  H   H498      1.0  0.38391  0.29077  0.65609  1.0000
  C   C622      1.0  0.12860  0.38931  0.89325  1.0000
  H   H499      1.0  0.25760  0.25410  0.49496  1.0000
  H   H500      1.0  0.37311  0.37823  0.96390  1.0000
  H   H501      1.0  0.20109  0.30488  0.72334  1.0000
  C   C623      1.0  0.48319  0.28714  0.49728  1.0000
  H   H502      1.0  0.12569  0.34300  0.82535  1.0000
  C   C624      1.0  0.02794  0.33612  0.97435  1.0000
  H   H503      1.0  0.14503  0.41756  0.61513  1.0000
  H   H504      1.0  0.15412  0.42836  0.82862  1.0000
  C   C625      1.0  0.10103  0.41611  0.71347  1.0000
  C   C626      1.0  0.35059  0.32125  0.90225  1.0000
  C   C627      1.0  0.05573  0.37102  0.82945  1.0000
  C   C628      1.0  0.00633  0.25212  0.75763  1.0000
  H   H505      1.0  0.46864  0.29280  0.50477  1.0000
  C   C629      1.0  0.09314  0.43558  0.71466  1.0000
  H   H506      1.0  0.47333  0.29255  0.66191  1.0000
  H   H507      1.0  0.05832  0.29347  0.78200  1.0000
  C   C630      1.0  0.45892  0.39472  0.82715  1.0000
  C   C631      1.0  0.02354  0.32657  0.60629  1.0000
  C   C632      1.0  0.03523  0.34964  0.62508  1.0000
  C   C633      1.0  0.02301  0.34999  0.65329  1.0000
  C   C634      1.0  0.01704  0.25734  0.56085  1.0000
  H   H508      1.0  0.03326  0.32712  0.58440  1.0000
  H   H509      1.0  0.05330  0.36760  0.61719  1.0000
  H   H510      1.0  0.03166  0.36811  0.66738  1.0000
  C   C635      1.0  0.99977  0.46448  0.50850  1.0000
  H   H511      1.0  0.13057  0.40265  0.91225  1.0000
  H   H512      1.0  0.39981  0.30819  0.60235  1.0000
  C   C636      1.0  0.12934  0.44360  0.84812  1.0000
  C   C637      1.0  0.33657  0.34895  0.73056  1.0000
  C   C638      1.0  0.44971  0.41291  0.83142  1.0000
  C   C639      1.0  0.14015  0.37296  0.89692  1.0000
  H   H513      1.0  0.04553  0.38881  0.88285  1.0000
  C   C640      1.0  0.21623  0.32727  0.91304  1.0000
  H   H514      1.0  0.10808  0.44520  0.96731  1.0000
  H   H515      1.0  0.15459  0.44541  0.76397  1.0000
  C   C641      1.0  0.09445  0.43280  0.94885  1.0000
  H   H516      1.0  0.34396  0.30568  0.88453  1.0000
  H   H517      1.0  0.17673  0.28662  0.65457  1.0000
  C   C642      1.0  0.38414  0.28933  0.85931  1.0000
  H   H518      1.0  0.36859  0.44164  0.88971  1.0000
  C   C643      1.0  0.42542  0.44407  0.94240  1.0000
  C   C644      1.0  0.49234  0.29973  0.80288  1.0000
  H   H519      1.0  0.00687  0.36430  0.53898  1.0000
  C   C645      1.0  0.45853  0.44691  0.69929  1.0000
  C   C646      1.0  0.39499  0.30436  0.96405  1.0000
  H   H520      1.0  0.49360  0.30169  0.75231  1.0000
  C   C647      1.0  0.27106  0.26197  0.70658  1.0000
  H   H521      1.0  0.23364  0.45429  0.73198  1.0000
  C   C648      1.0  0.19839  0.40842  0.95337  1.0000
  H   H522      1.0  0.30551  0.26521  0.84381  1.0000
  C   C649      1.0  0.36233  0.26305  0.85820  1.0000
  C   C650      1.0  0.14867  0.49207  0.84390  1.0000
  S   S95       1.0  0.35741  0.26111  0.72472  1.0000
  H   H523      1.0  0.23795  0.44273  0.78684  1.0000
  C   C651      1.0  0.22987  0.29172  0.73177  1.0000
  H   H524      1.0  0.12654  0.44224  0.91627  1.0000
  H   H525      1.0  0.43959  0.42920  0.70569  1.0000
  C   C652      1.0  0.21352  0.25085  0.76233  1.0000
  C   C653      1.0  0.03148  0.33282  0.91809  1.0000
  C   C654      1.0  0.09937  0.31925  0.76692  1.0000
  C   C655      1.0  0.11806  0.34436  0.75458  1.0000
  C   C656      1.0  0.11033  0.36348  0.74750  1.0000
  C   C657      1.0  0.08357  0.35710  0.75347  1.0000
  P   P22       1.0  0.13415  0.39467  0.72835  1.0000
  C   C658      1.0  0.19039  0.42741  0.72991  1.0000
  C   C659      1.0  0.13634  0.38809  0.68716  1.0000
  C   C660      1.0  0.14114  0.40781  0.66445  1.0000
  C   C661      1.0  0.14169  0.40239  0.63253  1.0000
  C   C662      1.0  0.13790  0.37745  0.62299  1.0000
  C   C663      1.0  0.13379  0.35798  0.64541  1.0000
  C   C664      1.0  0.13306  0.36324  0.67732  1.0000
  C   C665      1.0  0.00662  0.27493  0.56120  1.0000
  C   C666      1.0  0.08905  0.32517  0.55708  1.0000
  H   H526      1.0  0.47093  0.27678  0.91494  1.0000
  H   H527      1.0  0.08264  0.33979  0.55289  1.0000
  H   H528      1.0  0.45480  0.43661  0.65029  1.0000
  C   C667      1.0  0.02840  0.29336  0.51120  1.0000
  C   C668      1.0  0.15224  0.44589  0.83305  1.0000
  C   C669      1.0  0.47445  0.46541  0.72234  1.0000
  H   H529      1.0  0.10532  0.30435  0.77134  1.0000
  H   H530      1.0  0.13845  0.34868  0.74982  1.0000
  H   H531      1.0  0.07671  0.37113  0.74824  1.0000
  H   H532      1.0  0.05604  0.35726  0.84663  1.0000
  C   C670      1.0  0.12925  0.46154  0.75154  1.0000
  H   H533      1.0  0.13829  0.37328  0.59824  1.0000
  H   H534      1.0  0.13120  0.33873  0.63813  1.0000
  H   H535      1.0  0.12999  0.34777  0.69401  1.0000
  C   C671      1.0  0.01566  0.33002  0.94460  1.0000
  C   C672      1.0  0.99952  0.30353  0.61569  1.0000
  C   C673      1.0  0.06656  0.41874  0.95390  1.0000
  H   H536      1.0  0.22425  0.34846  0.90801  1.0000
  C   C674      1.0  0.39594  0.28429  0.64313  1.0000
  H   H537      1.0  0.06744  0.46439  0.51685  1.0000
  H   H538      1.0  0.08999  0.43685  0.80656  1.0000
  C   C675      1.0  0.11422  0.37176  0.84071  1.0000
  C   C676      1.0  0.12774  0.46692  0.85355  1.0000
  H   H539      1.0  0.46765  0.39413  0.80483  1.0000
  H   H540      1.0  0.39663  0.26010  0.68087  1.0000
  C   C677      1.0  0.46588  0.25216  0.65331  1.0000
  C   C678      1.0  0.27320  0.36180  0.96266  1.0000
  C   C679      1.0  0.29427  0.36607  0.94247  1.0000
  C   C680      1.0  0.31829  0.39083  0.94241  1.0000
  C   C681      1.0  0.32133  0.41130  0.96266  1.0000
  H   H541      1.0  0.32762  0.33814  0.96705  1.0000
  C   C682      1.0  0.23157  0.39392  0.95350  1.0000
  H   H542      1.0  0.24438  0.24618  0.63274  1.0000
  C   C683      1.0  0.47029  0.32135  0.89566  1.0000
  C   C684      1.0  0.45644  0.37717  0.85137  1.0000
  C   C685      1.0  0.07139  0.34926  0.95083  1.0000
  H   H543      1.0  0.23866  0.26418  0.68278  1.0000
  P   P23       1.0  0.41776  0.39472  0.92009  1.0000
  C   C686      1.0  0.44445  0.37770  0.87975  1.0000
  C   C687      1.0  0.41238  0.29391  0.96855  1.0000
  C   C688      1.0  0.19530  0.41497  0.79222  1.0000
  H   H544      1.0  0.15247  0.38892  0.79114  1.0000
  C   C689      1.0  0.16204  0.31899  0.50577  1.0000
  C   C690      1.0  0.40477  0.29398  0.61282  1.0000
  C   C691      1.0  0.21578  0.43968  0.74456  1.0000
  H   H545      1.0  0.25445  0.34281  0.96169  1.0000
  H   H546      1.0  0.29168  0.35063  0.92595  1.0000
  H   H547      1.0  0.33413  0.39443  0.92586  1.0000
  H   H548      1.0  0.33954  0.43087  0.96185  1.0000
  C   C692      1.0  0.41116  0.42238  0.92174  1.0000
  H   H549      1.0  0.24628  0.39113  0.94084  1.0000
  H   H550      1.0  0.22015  0.40792  0.91246  1.0000
  H   H551      1.0  0.15045  0.37356  0.91853  1.0000
  H   H552      1.0  0.39376  0.47983  0.92648  1.0000
  H   H553      1.0  0.09013  0.39880  0.69826  1.0000
  H   H554      1.0  0.43011  0.48142  0.96007  1.0000
  C   C693      1.0  0.07288  0.31311  0.77281  1.0000
  C   C694      1.0  0.40326  0.27734  0.90332  1.0000
  H   H555      1.0  0.38523  0.30419  0.84275  1.0000
  C   C695      1.0  0.18397  0.28647  0.93991  1.0000
  C   C696      1.0  0.25420  0.25877  0.68094  1.0000
  C   C697      1.0  0.08764  0.41454  0.89602  1.0000
  C   C698      1.0  0.16991  0.40280  0.77772  1.0000
  H   H556      1.0  0.42946  0.42679  0.86152  1.0000
  C   C699      1.0  0.38507  0.36448  0.92289  1.0000
  C   C700      1.0  0.44055  0.39706  0.95102  1.0000
  C   C701      1.0  0.09268  0.29352  0.59142  1.0000
  C   C702      1.0  0.08408  0.31210  0.58604  1.0000
  H   H557      1.0  0.18887  0.43285  0.70597  1.0000
  C   C703      1.0  0.10200  0.31919  0.53322  1.0000
  C   C704      1.0  0.10993  0.29987  0.53803  1.0000
  C   C705      1.0  0.10599  0.28779  0.56776  1.0000
  C   C706      1.0  0.13715  0.44209  0.75044  1.0000
  S   S96       1.0  0.06115  0.36624  0.50124  1.0000
  C   C707      1.0  0.19495  0.31404  0.93425  1.0000
  C   C708      1.0  0.45712  0.26052  0.92999  1.0000
  C   C709      1.0  0.43405  0.39515  0.88365  1.0000
  C   C710      1.0  0.03451  0.36149  0.80775  1.0000
  H   H558      1.0  0.04968  0.27523  0.49056  1.0000
  H   H559      1.0  0.09297  0.35714  0.95330  1.0000
  H   H560      1.0  0.38923  0.34557  0.88083  1.0000
  H   H561      1.0  0.14884  0.34436  0.87498  1.0000
  C   C711      1.0  0.38447  0.44237  0.90449  1.0000
  C   C712      1.0  0.01245  0.29296  0.53616  1.0000
  C   C713      1.0  0.17436  0.33503  0.53232  1.0000
  C   C714      1.0  0.06501  0.33204  0.76614  1.0000
  H   H562      1.0  0.14440  0.42739  0.67127  1.0000
  C   C715      1.0  0.04860  0.46457  0.51451  1.0000
  H   H563      1.0  0.00545  0.26598  0.65194  1.0000
  H   H564      1.0  0.42088  0.31710  0.88251  1.0000
  H   H565      1.0  0.01872  0.34051  0.80796  1.0000
  H   H566      1.0  0.08883  0.28332  0.61388  1.0000
  H   H567      1.0  0.46031  0.30626  0.87756  1.0000
  C   C716      1.0  0.20454  0.28974  0.73414  1.0000
  H   H568      1.0  0.18666  0.32514  0.94578  1.0000
  H   H569      1.0  0.00429  0.30645  0.53566  1.0000
  H   H570      1.0  0.42807  0.29397  0.57315  1.0000
  H   H571      1.0  0.10142  0.47360  0.73428  1.0000
  H   H572      1.0  0.07628  0.43323  0.70051  1.0000
  H   H573      1.0  0.37928  0.40509  0.88688  1.0000
  C   C717      1.0  0.16918  0.26631  0.64594  1.0000
  C   C718      1.0  0.20142  0.35561  0.53122  1.0000
  C   C719      1.0  0.14525  0.25573  0.50018  1.0000
  C   C720      1.0  0.27238  0.25695  0.77440  1.0000
  C   C721      1.0  0.28878  0.27001  0.80054  1.0000
  C   C722      1.0  0.32005  0.48731  0.96756  1.0000
  S   S97       1.0  0.29676  0.48745  0.79072  1.0000
  H   H574      1.0  0.02750  0.39303  0.93318  1.0000
  H   H575      1.0  0.14205  0.26848  0.61244  1.0000
  C   C723      1.0  0.41914  0.46471  0.94406  1.0000
  C   C724      1.0  0.29270  0.25506  0.82385  1.0000
  H   H576      1.0  0.01706  0.37149  0.76875  1.0000
  H   H577      1.0  0.19272  0.25762  0.67840  1.0000
  C   C725      1.0  0.38120  0.25093  0.90204  1.0000
  C   C726      1.0  0.42803  0.26848  0.61038  1.0000
  H   H578      1.0  0.14053  0.47941  0.76588  1.0000
  H   H579      1.0  0.46367  0.25392  0.71637  1.0000
  H   H580      1.0  0.07132  0.34447  0.90079  1.0000
  C   C727      1.0  0.19435  0.27200  0.92439  1.0000
  C   C728      1.0  0.05921  0.34233  0.92126  1.0000
  H   H581      1.0  0.16301  0.27171  0.48899  1.0000
  H   H582      1.0  0.26646  0.24765  0.96431  1.0000
  C   C729      1.0  0.12472  0.26010  0.51174  1.0000
  H   H583      1.0  0.37676  0.25306  0.78463  1.0000
  C   C730      1.0  0.18367  0.26834  0.75047  1.0000
  H   H584      1.0  0.46767  0.46192  0.74653  1.0000
  S   S98       1.0  0.10251  0.43109  0.49088  1.0000
  H   H585      1.0  0.45171  0.24564  0.77235  1.0000
  C   C731      1.0  0.41947  0.25887  0.64096  1.0000
  H   H586      1.0  0.29744  0.29984  0.48841  1.0000
  C   C732      1.0  0.43104  0.38146  0.97843  1.0000
  C   C733      1.0  0.00166  0.36807  0.56208  1.0000
  C   C734      1.0  0.17240  0.49226  0.94325  1.0000
  C   C735      1.0  0.04203  0.47224  0.48616  1.0000
  C   C736      1.0  0.05570  0.34602  0.97731  1.0000
  H   H587      1.0  0.17227  0.25561  0.86645  1.0000
  C   C737      1.0  0.49170  0.47375  0.65990  1.0000
  C   C738      1.0  0.00642  0.45678  0.53685  1.0000
  H   H588      1.0  0.40976  0.36775  0.98195  1.0000
  H   H589      1.0  0.25842  0.49380  0.83188  1.0000
  C   C739      1.0  0.25742  0.24857  0.65246  1.0000
  C   C740      1.0  0.49398  0.25227  0.48428  1.0000
  C   C741      1.0  0.17128  0.49414  0.82873  1.0000
  Fe  Fe49      1.0  0.35771  0.61351  0.10086  1.0000
  S   S99       1.0  0.35576  0.59489  0.14781  1.0000
  S   S100      1.0  0.35153  0.64920  0.09246  1.0000
  Fe  Fe50      1.0  0.37284  0.57573  0.06687  1.0000
  S   S101      1.0  0.37353  0.55569  0.11193  1.0000
  C   C742      1.0  0.39030  0.50976  0.20383  1.0000
  Fe  Fe51      1.0  0.33466  0.55530  0.12214  1.0000
  S   S102      1.0  0.29950  0.51522  0.13809  1.0000
  Fe  Fe52      1.0  0.39484  0.59729  0.13300  1.0000
  S   S103      1.0  0.42813  0.61438  0.17027  1.0000
  S   S104      1.0  0.33318  0.57364  0.07619  1.0000
  S   S105      1.0  0.39754  0.61761  0.08704  1.0000
  H   H590      1.0  0.44598  0.59204  0.37672  1.0000
  H   H591      1.0  0.02049  0.72317  0.08903  1.0000
  Fe  Fe53      1.0  0.09509  0.71694  0.13367  1.0000
  H   H592      1.0  0.28950  0.72459  0.27238  1.0000
  S   S106      1.0  0.06106  0.69978  0.09763  1.0000
  C   C743      1.0  0.42480  0.68610  0.12482  1.0000
  H   H593      1.0  0.42164  0.70993  0.08787  1.0000
  H   H594      1.0  0.08006  0.70384  0.42947  1.0000
  Fe  Fe54      1.0  0.12283  0.72360  0.19742  1.0000
  S   S107      1.0  0.11924  0.71100  0.24852  1.0000
  C   C744      1.0  0.04086  0.74406  0.24286  1.0000
  S   S108      1.0  0.11838  0.69852  0.15478  1.0000
  C   C745      1.0  0.23863  0.58915  0.06095  1.0000
  Fe  Fe55      1.0  0.21055  0.68141  0.40900  1.0000
  S   S109      1.0  0.23178  0.68286  0.36416  1.0000
  S   S110      1.0  0.20972  0.71702  0.43037  1.0000
  Fe  Fe56      1.0  0.17999  0.61999  0.41173  1.0000
  S   S111      1.0  0.19810  0.61659  0.36659  1.0000
  S   S112      1.0  0.15414  0.58648  0.44588  1.0000
  Fe  Fe57      1.0  0.23715  0.65001  0.38580  1.0000
  S   S113      1.0  0.27358  0.64548  0.37568  1.0000
  Fe  Fe58      1.0  0.19126  0.64963  0.34838  1.0000
  S   S114      1.0  0.18026  0.65047  0.29734  1.0000
  S   S115      1.0  0.21967  0.65164  0.43234  1.0000
  S   S116      1.0  0.16938  0.64992  0.39191  1.0000
  Fe  Fe59      1.0  0.45834  0.68371  0.43382  1.0000
  C   C746      1.0  0.21093  0.74291  0.28451  1.0000
  H   H595      1.0  0.46042  0.59542  0.20080  1.0000
  Fe  Fe60      1.0  0.41318  0.62546  0.42766  1.0000
  C   C747      1.0  0.36006  0.49562  0.14835  1.0000
  S   S117      1.0  0.39486  0.59201  0.39126  1.0000
  C   C748      1.0  0.27540  0.73238  0.12035  1.0000
  C   C749      1.0  0.22741  0.53590  0.05357  1.0000
  S   S118      1.0  0.41728  0.66471  0.41123  1.0000
  S   S119      1.0  0.45571  0.64444  0.44653  1.0000
  C   C750      1.0  0.35828  0.53421  0.00005  1.0000
  C   C751      1.0  0.11427  0.51510  0.39910  1.0000
  C   C752      1.0  0.13026  0.54282  0.40540  1.0000
  C   C753      1.0  0.13685  0.55180  0.43636  1.0000
  H   H596      1.0  0.00320  0.52939  0.44655  1.0000
  C   C754      1.0  0.47023  0.51401  0.29776  1.0000
  C   C755      1.0  0.20689  0.56390  0.45006  1.0000
  H   H597      1.0  0.13646  0.55727  0.38645  1.0000
  C   C756      1.0  0.30013  0.65468  0.40288  1.0000
  C   C757      1.0  0.32440  0.65678  0.39252  1.0000
  C   C758      1.0  0.34578  0.66325  0.41356  1.0000
  C   C759      1.0  0.34319  0.66811  0.44513  1.0000
  C   C760      1.0  0.31884  0.66581  0.45560  1.0000
  C   C761      1.0  0.29728  0.65897  0.43458  1.0000
  H   H598      1.0  0.32677  0.65368  0.36799  1.0000
  H   H599      1.0  0.36444  0.66500  0.40519  1.0000
  C   C762      1.0  0.31774  0.74109  0.09605  1.0000
  H   H600      1.0  0.27855  0.65714  0.44280  1.0000
  C   C763      1.0  0.13734  0.69529  0.26200  1.0000
  C   C764      1.0  0.13897  0.69147  0.29435  1.0000
  C   C765      1.0  0.15242  0.67813  0.30555  1.0000
  C   C766      1.0  0.16408  0.66826  0.28445  1.0000
  C   C767      1.0  0.16269  0.67235  0.25215  1.0000
  C   C768      1.0  0.14961  0.68603  0.24097  1.0000
  H   H601      1.0  0.12966  0.69873  0.31075  1.0000
  H   H602      1.0  0.15336  0.67500  0.33040  1.0000
  H   H603      1.0  0.17179  0.66485  0.23578  1.0000
  H   H604      1.0  0.14855  0.68902  0.21608  1.0000
  C   C769      1.0  0.36623  0.52196  0.43965  1.0000
  C   C770      1.0  0.37798  0.54951  0.43261  1.0000
  C   C771      1.0  0.37745  0.55768  0.40185  1.0000
  C   C772      1.0  0.36398  0.53813  0.37851  1.0000
  H   H605      1.0  0.30534  0.64739  0.07063  1.0000
  H   H606      1.0  0.24726  0.64562  0.00434  1.0000
  H   H607      1.0  0.38821  0.56441  0.45078  1.0000
  H   H608      1.0  0.36335  0.54438  0.35472  1.0000
  H   H609      1.0  0.16579  0.61180  0.00979  1.0000
  C   C773      1.0  0.46290  0.63431  0.16047  1.0000
  Fe  Fe61      1.0  0.40197  0.66659  0.45912  1.0000
  C   C774      1.0  0.01572  0.66179  0.13025  1.0000
  C   C775      1.0  0.02655  0.67524  0.10197  1.0000
  C   C776      1.0  0.00941  0.66956  0.07596  1.0000
  C   C777      1.0  0.47296  0.63089  0.13207  1.0000
  C   C778      1.0  0.24493  0.50270  0.40745  1.0000
  H   H610      1.0  0.02883  0.66583  0.15033  1.0000
  H   H611      1.0  0.01771  0.67977  0.05395  1.0000
  H   H612      1.0  0.45919  0.61693  0.11477  1.0000
  C   C779      1.0  0.26198  0.52104  0.32329  1.0000
  H   H613      1.0  0.18939  0.56565  0.45574  1.0000
  C   C780      1.0  0.25825  0.52669  0.13010  1.0000
  C   C781      1.0  0.26631  0.50738  0.12793  1.0000
  C   C782      1.0  0.31622  0.59463  0.46780  1.0000
  H   H614      1.0  0.22671  0.65478  0.10072  1.0000
  H   H615      1.0  0.34218  0.67605  0.03458  1.0000
  H   H616      1.0  0.27284  0.54716  0.13657  1.0000
  H   H617      1.0  0.41048  0.73832  0.23883  1.0000
  C   C783      1.0  0.35488  0.67150  0.12305  1.0000
  C   C784      1.0  0.35538  0.66489  0.15454  1.0000
  C   C785      1.0  0.35798  0.68299  0.17835  1.0000
  C   C786      1.0  0.36053  0.70800  0.17092  1.0000
  C   C787      1.0  0.36015  0.71472  0.13944  1.0000
  C   C788      1.0  0.35707  0.69639  0.11560  1.0000
  H   H618      1.0  0.35359  0.64577  0.16057  1.0000
  H   H619      1.0  0.35816  0.67761  0.20266  1.0000
  C   C789      1.0  0.45130  0.62529  0.29160  1.0000
  H   H620      1.0  0.35672  0.70169  0.09130  1.0000
  C   C790      1.0  0.00349  0.71466  0.20865  1.0000
  H   H621      1.0  0.30152  0.53433  0.34310  1.0000
  C   C791      1.0  0.27740  0.65756  0.11675  1.0000
  C   C792      1.0  0.35275  0.53793  0.24704  1.0000
  C   C793      1.0  0.33954  0.54258  0.27194  1.0000
  C   C794      1.0  0.34322  0.56828  0.27697  1.0000
  C   C795      1.0  0.35984  0.58944  0.25689  1.0000
  C   C796      1.0  0.37273  0.58487  0.23179  1.0000
  C   C797      1.0  0.36920  0.55922  0.22676  1.0000
  H   H622      1.0  0.37689  0.53335  0.30000  1.0000
  C   C798      1.0  0.31650  0.59857  0.99845  1.0000
  H   H623      1.0  0.42731  0.55482  0.41518  1.0000
  H   H624      1.0  0.33315  0.57176  0.29639  1.0000
  H   H625      1.0  0.36261  0.60935  0.26056  1.0000
  H   H626      1.0  0.38534  0.60120  0.21595  1.0000
  H   H627      1.0  0.37922  0.55622  0.20690  1.0000
  P   P24       1.0  0.24651  0.62345  0.06752  1.0000
  C   C799      1.0  0.29098  0.51326  0.41780  1.0000
  H   H628      1.0  0.47356  0.65526  0.20480  1.0000
  H   H629      1.0  0.27919  0.50470  0.05597  1.0000
  C   C800      1.0  0.47626  0.56535  0.27428  1.0000
  C   C801      1.0  0.45014  0.56135  0.26943  1.0000
  C   C802      1.0  0.44449  0.57222  0.24304  1.0000
  C   C803      1.0  0.38857  0.50759  0.32290  1.0000
  H   H630      1.0  0.01754  0.72018  0.14636  1.0000
  H   H631      1.0  0.44130  0.63965  0.36598  1.0000
  H   H632      1.0  0.47019  0.58987  0.32978  1.0000
  C   C804      1.0  0.10580  0.49608  0.42350  1.0000
  H   H633      1.0  0.34191  0.49557  0.36753  1.0000
  H   H634      1.0  0.45992  0.73517  0.41546  1.0000
  C   C805      1.0  0.43750  0.62587  0.31833  1.0000
  C   C806      1.0  0.28399  0.72855  0.24945  1.0000
  H   H635      1.0  0.34577  0.72724  0.46587  1.0000
  C   C807      1.0  0.26326  0.73444  0.24643  1.0000
  H   H636      1.0  0.42428  0.56887  0.23907  1.0000
  H   H637      1.0  0.32661  0.52632  0.28762  1.0000
  H   H638      1.0  0.38424  0.63377  0.01262  1.0000
  H   H639      1.0  0.10810  0.50843  0.37526  1.0000
  H   H640      1.0  0.30159  0.68360  0.15440  1.0000
  C   C808      1.0  0.47954  0.63757  0.29196  1.0000
  H   H641      1.0  0.25246  0.73465  0.26711  1.0000
  H   H642      1.0  0.18551  0.52494  0.05364  1.0000
  C   C809      1.0  0.29004  0.73205  0.19310  1.0000
  C   C810      1.0  0.21757  0.74225  0.31595  1.0000
  P   P25       1.0  0.48264  0.54908  0.30697  1.0000
  H   H643      1.0  0.00877  0.61882  0.01280  1.0000
  H   H644      1.0  0.31418  0.71938  0.05350  1.0000
  C   C811      1.0  0.33475  0.51503  0.01508  1.0000
  C   C812      1.0  0.43485  0.70859  0.10520  1.0000
  H   H645      1.0  0.36730  0.51577  0.46337  1.0000
  C   C813      1.0  0.35186  0.51053  0.38568  1.0000
  H   H646      1.0  0.19490  0.57133  0.06154  1.0000
  C   C814      1.0  0.14294  0.71282  0.41625  1.0000
  H   H647      1.0  0.31256  0.72142  0.22502  1.0000
  C   C815      1.0  0.27519  0.71007  0.07144  1.0000
  H   H648      1.0  0.31634  0.60931  0.45164  1.0000
  C   C816      1.0  0.25971  0.58326  0.06051  1.0000
  H   H649      1.0  0.41561  0.61620  0.31825  1.0000
  H   H650      1.0  0.43374  0.66653  0.16215  1.0000
  C   C817      1.0  0.00140  0.71746  0.10033  1.0000
  C   C818      1.0  0.34515  0.73863  0.41779  1.0000
  C   C819      1.0  0.32924  0.73936  0.39295  1.0000
  C   C820      1.0  0.03782  0.51134  0.43195  1.0000
  H   H651      1.0  0.22687  0.60137  0.42471  1.0000
  C   C821      1.0  0.36298  0.50289  0.20479  1.0000
  C   C822      1.0  0.09620  0.70192  0.41905  1.0000
  C   C823      1.0  0.26777  0.65216  0.01150  1.0000
  C   C824      1.0  0.27345  0.64458  0.04067  1.0000
  C   C825      1.0  0.47884  0.72728  0.13042  1.0000
  C   C826      1.0  0.21173  0.56787  0.05906  1.0000
  C   C827      1.0  0.46856  0.70451  0.14990  1.0000
  C   C828      1.0  0.17905  0.62100  0.02979  1.0000
  C   C829      1.0  0.25575  0.73901  0.21676  1.0000
  C   C830      1.0  0.30591  0.71837  0.45174  1.0000
  H   H652      1.0  0.20399  0.60394  0.01884  1.0000
  C   C831      1.0  0.08312  0.55916  0.41143  1.0000
  H   H653      1.0  0.44011  0.61556  0.27044  1.0000
  C   C832      1.0  0.25482  0.61725  0.16234  1.0000
  C   C833      1.0  0.27477  0.64329  0.17073  1.0000
  C   C834      1.0  0.30033  0.57673  0.39290  1.0000
  C   C835      1.0  0.28698  0.58078  0.36768  1.0000
  C   C836      1.0  0.30157  0.59733  0.34254  1.0000
  C   C837      1.0  0.32975  0.60967  0.34219  1.0000
  C   C838      1.0  0.34323  0.60533  0.36691  1.0000
  C   C839      1.0  0.32862  0.58874  0.39209  1.0000
  H   H654      1.0  0.26525  0.57141  0.36772  1.0000
  H   H655      1.0  0.29104  0.60106  0.32375  1.0000
  H   H656      1.0  0.34118  0.62299  0.32311  1.0000
  H   H657      1.0  0.36510  0.61517  0.36685  1.0000
  H   H658      1.0  0.40249  0.51568  0.22495  1.0000
  C   C840      1.0  0.28598  0.66344  0.14795  1.0000
  C   C841      1.0  0.13666  0.69523  0.39099  1.0000
  C   C842      1.0  0.27160  0.52150  0.41634  1.0000
  C   C843      1.0  0.25407  0.55677  0.05708  1.0000
  C   C844      1.0  0.20065  0.61648  0.03509  1.0000
  H   H659      1.0  0.26741  0.59835  0.41336  1.0000
  C   C845      1.0  0.23121  0.53948  0.45352  1.0000
  H   H660      1.0  0.45586  0.51185  0.36000  1.0000
  C   C846      1.0  0.44840  0.57470  0.37285  1.0000
  S   S120      1.0  0.38255  0.56372  0.01986  1.0000
  C   C847      1.0  0.21845  0.53800  0.30311  1.0000
  C   C848      1.0  0.22542  0.55452  0.27639  1.0000
  C   C849      1.0  0.23227  0.58152  0.27926  1.0000
  C   C850      1.0  0.23226  0.59220  0.30872  1.0000
  C   C851      1.0  0.22531  0.57587  0.33534  1.0000
  C   C852      1.0  0.21835  0.54889  0.33260  1.0000
  C   C853      1.0  0.19181  0.64951  0.07578  1.0000
  C   C854      1.0  0.20624  0.54141  0.05489  1.0000
  C   C855      1.0  0.26993  0.73940  0.18933  1.0000
  C   C856      1.0  0.04348  0.51613  0.39976  1.0000
  H   H661      1.0  0.22537  0.54670  0.25332  1.0000
  H   H662      1.0  0.23732  0.59415  0.25859  1.0000
  H   H663      1.0  0.23742  0.61308  0.31102  1.0000
  H   H664      1.0  0.22540  0.58423  0.35818  1.0000
  C   C857      1.0  0.29699  0.72685  0.22276  1.0000
  C   C858      1.0  0.46191  0.57327  0.34624  1.0000
  H   H665      1.0  0.33185  0.68932  0.98311  1.0000
  C   C859      1.0  0.30423  0.68242  0.30658  1.0000
  C   C860      1.0  0.32254  0.68598  0.28285  1.0000
  H   H666      1.0  0.09144  0.56914  0.46031  1.0000
  S   S121      1.0  0.36314  0.72963  0.20188  1.0000
  C   C861      1.0  0.32140  0.66947  0.02803  1.0000
  C   C862      1.0  0.31067  0.70277  0.32866  1.0000
  C   C863      1.0  0.00621  0.60707  0.06116  1.0000
  C   C864      1.0  0.43774  0.55365  0.39456  1.0000
  H   H667      1.0  0.15957  0.50415  0.31038  1.0000
  C   C865      1.0  0.12283  0.71640  0.43061  1.0000
  C   C866      1.0  0.34114  0.61780  0.01152  1.0000
  C   C867      1.0  0.30124  0.56702  0.46103  1.0000
  H   H668      1.0  0.31189  0.52750  0.42358  1.0000
  H   H669      1.0  0.10539  0.66730  0.35996  1.0000
  C   C868      1.0  0.21339  0.64498  0.08111  1.0000
  H   H670      1.0  0.07068  0.54342  0.36480  1.0000
  P   P26       1.0  0.28124  0.55592  0.42567  1.0000
  C   C869      1.0  0.48116  0.65240  0.18278  1.0000
  H   H671      1.0  0.49064  0.66108  0.36724  1.0000
  H   H672      1.0  0.22305  0.51529  0.05109  1.0000
  H   H673      1.0  0.48947  0.63659  0.27091  1.0000
  C   C870      1.0  0.34800  0.49591  0.17672  1.0000
  C   C871      1.0  0.30340  0.72300  0.07199  1.0000
  C   C872      1.0  0.28988  0.71853  0.42703  1.0000
  C   C873      1.0  0.44040  0.53104  0.38966  1.0000
  H   H674      1.0  0.28506  0.66379  0.30819  1.0000
  H   H675      1.0  0.31762  0.67024  0.26574  1.0000
  C   C874      1.0  0.20855  0.54174  0.46071  1.0000
  H   H676      1.0  0.42353  0.51530  0.17466  1.0000
  C   C875      1.0  0.28336  0.51753  0.33333  1.0000
  C   C876      1.0  0.01663  0.73773  0.22760  1.0000
  C   C877      1.0  0.01467  0.69783  0.20572  1.0000
  C   C878      1.0  0.45196  0.63903  0.34529  1.0000
  C   C879      1.0  0.33553  0.72692  0.32715  1.0000
  C   C880      1.0  0.46471  0.55060  0.34110  1.0000
  H   H677      1.0  0.23232  0.52235  0.46236  1.0000
  C   C881      1.0  0.48013  0.65135  0.34577  1.0000
  H   H678      1.0  0.26832  0.71012  0.43018  1.0000
  C   C882      1.0  0.46490  0.58739  0.22150  1.0000
  P   P27       1.0  0.13206  0.74012  0.46275  1.0000
  C   C883      1.0  0.22802  0.58400  0.43259  1.0000
  P   P28       1.0  0.25648  0.74089  0.14974  1.0000
  H   H679      1.0  0.29803  0.59739  0.00669  1.0000
  C   C884      1.0  0.12842  0.53279  0.46076  1.0000
  C   C885      1.0  0.40234  0.50956  0.17536  1.0000
  C   C886      1.0  0.21296  0.65804  0.16259  1.0000
  C   C887      1.0  0.18654  0.65186  0.16841  1.0000
  C   C888      1.0  0.18040  0.67242  0.16952  1.0000
  C   C889      1.0  0.20057  0.69918  0.16473  1.0000
  C   C890      1.0  0.22715  0.70597  0.15577  1.0000
  C   C891      1.0  0.23293  0.68462  0.15655  1.0000
  C   C892      1.0  0.22105  0.49817  0.23802  1.0000
  H   H680      1.0  0.22476  0.53411  0.12761  1.0000
  C   C893      1.0  0.36522  0.61938  0.00182  1.0000
  H   H681      1.0  0.21809  0.64225  0.16294  1.0000
  H   H682      1.0  0.17095  0.63127  0.17302  1.0000
  H   H683      1.0  0.15997  0.66774  0.17497  1.0000
  H   H684      1.0  0.19426  0.71360  0.16856  1.0000
  H   H685      1.0  0.26413  0.54076  0.32472  1.0000
  H   H686      1.0  0.29617  0.69933  0.34684  1.0000
  H   H687      1.0  0.43402  0.54941  0.28574  1.0000
  H   H688      1.0  0.25328  0.68844  0.15317  1.0000
  C   C894      1.0  0.25212  0.55913  0.43500  1.0000
  H   H689      1.0  0.25884  0.73459  0.46709  1.0000
  H   H690      1.0  0.02785  0.61894  0.06512  1.0000
  P   P29       1.0  0.34817  0.50471  0.24158  1.0000
  H   H691      1.0  0.33112  0.51815  0.03919  1.0000
  H   H692      1.0  0.16363  0.72360  0.42456  1.0000
  C   C895      1.0  0.06607  0.53997  0.38960  1.0000
  H   H693      1.0  0.15793  0.64108  0.04600  1.0000
  H   H694      1.0  0.24612  0.60157  0.17998  1.0000
  H   H695      1.0  0.40405  0.67003  0.12251  1.0000
  H   H696      1.0  0.38560  0.73887  0.36531  1.0000
  C   C896      1.0  0.21789  0.62829  0.06099  1.0000
  H   H697      1.0  0.18849  0.66250  0.09143  1.0000
  H   H698      1.0  0.10105  0.57732  0.40366  1.0000
  C   C897      1.0  0.30150  0.72923  0.39795  1.0000
  H   H699      1.0  0.21299  0.53658  0.35359  1.0000
  C   C898      1.0  0.05503  0.53082  0.45373  1.0000
  C   C899      1.0  0.30044  0.65322  0.04854  1.0000
  C   C900      1.0  0.44842  0.50004  0.27696  1.0000
  C   C901      1.0  0.25783  0.63132  0.10790  1.0000
  C   C902      1.0  0.11339  0.50503  0.45434  1.0000
  H   H700      1.0  0.33952  0.58559  0.41096  1.0000
  H   H701      1.0  0.20339  0.72497  0.27021  1.0000
  C   C903      1.0  0.28171  0.52640  0.01363  1.0000
  C   C904      1.0  0.24626  0.61128  0.13109  1.0000
  C   C905      1.0  0.26131  0.71481  0.09530  1.0000
  H   H702      1.0  0.23953  0.70558  0.09366  1.0000
  C   C906      1.0  0.25083  0.58196  0.42572  1.0000
  H   H703      1.0  0.28650  0.67343  0.09957  1.0000
  H   H704      1.0  0.34156  0.63111  0.02970  1.0000
  H   H705      1.0  0.23084  0.59096  0.12505  1.0000
  C   C907      1.0  0.35341  0.50239  0.41621  1.0000
  H   H706      1.0  0.26405  0.69666  0.05228  1.0000
  Fe  Fe62      1.0  0.15552  0.73589  0.13810  1.0000
  C   C908      1.0  0.17461  0.63749  0.05015  1.0000
  H   H707      1.0  0.28169  0.64791  0.19483  1.0000
  H   H708      1.0  0.07062  0.73202  0.25152  1.0000
  H   H709      1.0  0.04736  0.69109  0.21876  1.0000
  H   H710      1.0  0.48147  0.70236  0.16694  1.0000
  C   C909      1.0  0.44160  0.68410  0.14718  1.0000
  H   H711      1.0  0.28052  0.59894  0.06377  1.0000
  H   H712      1.0  0.06942  0.67315  0.38486  1.0000
  H   H713      1.0  0.99736  0.59322  0.10893  1.0000
  H   H714      1.0  0.43183  0.51464  0.40648  1.0000
  C   C910      1.0  0.45394  0.52952  0.36312  1.0000
  S   S122      1.0  0.09620  0.73883  0.17778  1.0000
  S   S123      1.0  0.18805  0.73241  0.11182  1.0000
  C   C911      1.0  0.35345  0.73065  0.30259  1.0000
  H   H715      1.0  0.00470  0.67977  0.19152  1.0000
  H   H716      1.0  0.15247  0.69272  0.38036  1.0000
  C   C912      1.0  0.03872  0.70408  0.22123  1.0000
  C   C913      1.0  0.23099  0.51924  0.12516  1.0000
  C   C914      1.0  0.37669  0.51446  0.29851  1.0000
  C   C915      1.0  0.08997  0.68428  0.39367  1.0000
  H   H717      1.0  0.24216  0.51074  0.24434  1.0000
  C   C916      1.0  0.31558  0.67694  0.99914  1.0000
  C   C917      1.0  0.26992  0.50398  0.03349  1.0000
  C   C918      1.0  0.11020  0.68095  0.37963  1.0000
  C   C919      1.0  0.99540  0.60713  0.03174  1.0000
  H   H718      1.0  0.03071  0.50146  0.38245  1.0000
  H   H719      1.0  0.43873  0.50990  0.26572  1.0000
  C   C920      1.0  0.34719  0.71002  0.28103  1.0000
  H   H720      1.0  0.30027  0.54397  0.02095  1.0000
  H   H721      1.0  0.23812  0.74128  0.21543  1.0000
  C   C921      1.0  0.36467  0.49693  0.27295  1.0000
  H   H722      1.0  0.22979  0.50860  0.40457  1.0000
  C   C922      1.0  0.08228  0.73656  0.47433  1.0000
  P   P30       1.0  0.20967  0.50310  0.30038  1.0000
  H   H723      1.0  0.27038  0.55238  0.05817  1.0000
  H   H724      1.0  0.30297  0.50487  0.20911  1.0000
  H   H725      1.0  0.29676  0.70974  0.47415  1.0000
  S   S124      1.0  0.37029  0.67789  0.47172  1.0000
  H   H726      1.0  0.21511  0.72376  0.32596  1.0000
  C   C923      1.0  0.38723  0.50252  0.14762  1.0000
  S   S125      1.0  0.39530  0.62623  0.47420  1.0000
  C   C924      1.0  0.07766  0.55453  0.44346  1.0000
  C   C925      1.0  0.33353  0.72837  0.44709  1.0000
  H   H727      1.0  0.36139  0.71280  0.26267  1.0000
  H   H728      1.0  0.36209  0.73393  0.13350  1.0000
  C   C926      1.0  0.46186  0.72911  0.10782  1.0000
  C   C927      1.0  0.23808  0.49918  0.31162  1.0000
  H   H729      1.0  0.29990  0.72880  0.17368  1.0000
  C   C928      1.0  0.05186  0.72722  0.23972  1.0000
  H   H730      1.0  0.05121  0.52764  0.47868  1.0000
  H   H731      1.0  0.28873  0.72949  0.37926  1.0000
  C   C929      1.0  0.99951  0.71531  0.13300  1.0000
  H   H732      1.0  0.19217  0.52631  0.47449  1.0000
  C   C930      1.0  0.49107  0.59210  0.22650  1.0000
  H   H733      1.0  0.39668  0.50291  0.12543  1.0000
  H   H734      1.0  0.28861  0.52699  0.47889  1.0000
  C   C931      1.0  0.28877  0.66827  0.99086  1.0000
  C   C932      1.0  0.48182  0.50014  0.31224  1.0000
  H   H735      1.0  0.39726  0.52090  0.34288  1.0000
  H   H736      1.0  0.31671  0.66943  0.48001  1.0000
  C   C933      1.0  0.26957  0.52595  0.98480  1.0000
  H   H737      1.0  0.20181  0.56039  0.98505  1.0000
  H   H738      1.0  0.22914  0.53843  0.98491  1.0000
  S   S126      1.0  0.44360  0.68942  0.48025  1.0000
  H   H739      1.0  0.23001  0.49584  0.18928  1.0000
  H   H740      1.0  0.08384  0.74438  0.45079  1.0000
  H   H741      1.0  0.04314  0.73269  0.48212  1.0000
  H   H742      1.0  0.38097  0.54445  0.95692  1.0000
  H   H743      1.0  0.00901  0.65571  0.67557  1.0000
  Fe  Fe63      1.0  0.21916  0.57206  0.79138  1.0000
  S   S127      1.0  0.24149  0.59205  0.83565  1.0000
  S   S128      1.0  0.22325  0.54009  0.76449  1.0000
  Fe  Fe64      1.0  0.19032  0.60588  0.78856  1.0000
  S   S129      1.0  0.21005  0.62713  0.83342  1.0000
  S   S130      1.0  0.16562  0.61688  0.75556  1.0000
  Fe  Fe65      1.0  0.24802  0.63060  0.81308  1.0000
  S   S131      1.0  0.28771  0.67059  0.81461  1.0000
  Fe  Fe66      1.0  0.20125  0.58627  0.85116  1.0000
  S   S132      1.0  0.18213  0.57003  0.89898  1.0000
  S   S133      1.0  0.22874  0.61090  0.76758  1.0000
  S   S134      1.0  0.17852  0.56465  0.80756  1.0000
  Fe  Fe67      1.0  0.43828  0.64902  0.49181  1.0000
  S   S135      1.0  0.44814  0.64293  0.54153  1.0000
  Fe  Fe68      1.0  0.06951  0.71130  0.68596  1.0000
  S   S136      1.0  0.05398  0.69259  0.73326  1.0000
  S   S137      1.0  0.05389  0.69529  0.63736  1.0000
  S   S138      1.0  0.02654  0.73558  0.77418  1.0000
  H   H744      1.0  0.00281  0.69677  0.83631  1.0000
  Fe  Fe69      1.0  0.09811  0.71125  0.74663  1.0000
  S   S139      1.0  0.11510  0.69267  0.78088  1.0000
  C   C934      1.0  0.05929  0.73020  0.49206  1.0000
  C   C935      1.0  0.41123  0.72676  0.76137  1.0000
  S   S140      1.0  0.11331  0.72695  0.69815  1.0000
  C   C936      1.0  0.48726  0.66443  0.58719  1.0000
  H   H745      1.0  0.18746  0.51368  0.82125  1.0000
  C   C937      1.0  0.25942  0.62484  0.50337  1.0000
  C   C938      1.0  0.00813  0.67901  0.60246  1.0000
  C   C939      1.0  0.01863  0.67623  0.63106  1.0000
  P   P31       1.0  0.24305  0.73672  0.73776  1.0000
  H   H746      1.0  0.29409  0.68761  0.70053  1.0000
  C   C940      1.0  0.27224  0.61085  0.51354  1.0000
  H   H747      1.0  0.02155  0.69299  0.58509  1.0000
  C   C941      1.0  0.19842  0.72925  0.51050  1.0000
  S   S141      1.0  0.34578  0.73445  0.68987  1.0000
  H   H748      1.0  0.20632  0.64104  0.70907  1.0000
  H   H749      1.0  0.38329  0.60249  0.97198  1.0000
  H   H750      1.0  0.34360  0.59200  0.53774  1.0000
  C   C942      1.0  0.30269  0.68907  0.77986  1.0000
  C   C943      1.0  0.32816  0.71253  0.78165  1.0000
  C   C944      1.0  0.34163  0.72663  0.75430  1.0000
  C   C945      1.0  0.32959  0.71748  0.72488  1.0000
  C   C946      1.0  0.30381  0.69450  0.72312  1.0000
  C   C947      1.0  0.29036  0.68042  0.75046  1.0000
  H   H751      1.0  0.33774  0.71949  0.80428  1.0000
  C   C948      1.0  0.15734  0.73674  0.48470  1.0000
  H   H752      1.0  0.27055  0.66281  0.74866  1.0000
  C   C949      1.0  0.15295  0.63909  0.76297  1.0000
  C   C950      1.0  0.14421  0.64858  0.73756  1.0000
  C   C951      1.0  0.13295  0.66529  0.74246  1.0000
  C   C952      1.0  0.12996  0.67242  0.77296  1.0000
  C   C953      1.0  0.13888  0.66310  0.79831  1.0000
  C   C954      1.0  0.15051  0.64673  0.79339  1.0000
  H   H753      1.0  0.14591  0.64272  0.71394  1.0000
  H   H754      1.0  0.12615  0.67225  0.72272  1.0000
  H   H755      1.0  0.13647  0.66831  0.82199  1.0000
  H   H756      1.0  0.15695  0.63945  0.81317  1.0000
  C   C955      1.0  0.25929  0.50280  0.80929  1.0000
  H   H757      1.0  0.18767  0.69652  0.83289  1.0000
  C   C956      1.0  0.16178  0.52839  0.94162  1.0000
  C   C957      1.0  0.17812  0.53961  0.91494  1.0000
  C   C958      1.0  0.19151  0.52694  0.90241  1.0000
  H   H758      1.0  0.26677  0.59151  0.50323  1.0000
  H   H759      1.0  0.23656  0.50141  0.95311  1.0000
  H   H760      1.0  0.15139  0.53806  0.95152  1.0000
  H   H761      1.0  0.20433  0.53545  0.88207  1.0000
  C   C959      1.0  0.24469  0.52707  0.77443  1.0000
  H   H762      1.0  0.26466  0.73586  0.67567  1.0000
  H   H763      1.0  0.26022  0.53279  0.72739  1.0000
  C   C960      1.0  0.00366  0.67891  0.83007  1.0000
  H   H764      1.0  0.44621  0.74366  0.65369  1.0000
  C   C961      1.0  0.24453  0.51627  0.80411  1.0000
  C   C962      1.0  0.43516  0.74310  0.51059  1.0000
  C   C963      1.0  0.16135  0.73116  0.58325  1.0000
  H   H765      1.0  0.21453  0.72618  0.51914  1.0000
  H   H766      1.0  0.47055  0.65705  0.60349  1.0000
  C   C964      1.0  0.02800  0.68204  0.81865  1.0000
  C   C965      1.0  0.46007  0.73978  0.64048  1.0000
  H   H767      1.0  0.13184  0.69372  0.49097  1.0000
  H   H768      1.0  0.14759  0.51010  0.84859  1.0000
  C   C966      1.0  0.36276  0.52973  0.96872  1.0000
  C   C967      1.0  0.15175  0.71109  0.49456  1.0000
  Fe  Fe70      1.0  0.05841  0.73280  0.74550  1.0000
  C   C968      1.0  0.02985  0.65951  0.81021  1.0000
  C   C969      1.0  0.10284  0.73252  0.48668  1.0000
  C   C970      1.0  0.48205  0.66072  0.55483  1.0000
  C   C971      1.0  0.00103  0.65816  0.65354  1.0000
  C   C972      1.0  0.26028  0.52499  0.75051  1.0000
  H   H769      1.0  0.07549  0.70941  0.55929  1.0000
  H   H770      1.0  0.13340  0.53958  0.48480  1.0000
  H   H771      1.0  0.41553  0.72498  0.50900  1.0000
  H   H772      1.0  0.33706  0.70424  0.62844  1.0000
  H   H773      1.0  0.48955  0.55976  0.62235  1.0000
  H   H774      1.0  0.42207  0.73071  0.73940  1.0000
  H   H775      1.0  0.31618  0.54310  0.52691  1.0000
  H   H776      1.0  0.37627  0.71450  0.84247  1.0000
  C   C973      1.0  0.34370  0.50641  0.95247  1.0000
  H   H777      1.0  0.34725  0.50332  0.92832  1.0000
  H   H778      1.0  0.16798  0.68737  0.51381  1.0000
  C   C974      1.0  0.21217  0.71511  0.79206  1.0000
  H   H779      1.0  0.22308  0.69142  0.86061  1.0000
  H   H780      1.0  0.16908  0.71877  0.57398  1.0000
  C   C975      1.0  0.48755  0.71878  0.63664  1.0000
  H   H781      1.0  0.20650  0.72573  0.68359  1.0000
  C   C976      1.0  0.07748  0.71698  0.53548  1.0000
  C   C977      1.0  0.24616  0.50234  0.97544  1.0000
  P   P32       1.0  0.28367  0.55524  0.95968  1.0000
  C   C978      1.0  0.26218  0.57001  0.95825  1.0000
  C   C979      1.0  0.31578  0.58071  0.97544  1.0000
  H   H782      1.0  0.27621  0.72621  0.78240  1.0000
  C   C980      1.0  0.25216  0.70952  0.82340  1.0000
  H   H783      1.0  0.23252  0.51761  0.82281  1.0000
  H   H784      1.0  0.26727  0.70638  0.83504  1.0000
  C   C981      1.0  0.34008  0.58237  0.96585  1.0000
  C   C982      1.0  0.27158  0.59519  0.94387  1.0000
  C   C983      1.0  0.25548  0.60721  0.94332  1.0000
  C   C984      1.0  0.23035  0.59468  0.95819  1.0000
  C   C985      1.0  0.22138  0.57022  0.97371  1.0000
  C   C986      1.0  0.23698  0.55770  0.97339  1.0000
  C   C987      1.0  0.28944  0.54529  0.92154  1.0000
  C   C988      1.0  0.29755  0.52592  0.91970  1.0000
  C   C989      1.0  0.30512  0.52000  0.89100  1.0000
  C   C990      1.0  0.30452  0.53327  0.86381  1.0000
  C   C991      1.0  0.29530  0.55169  0.86510  1.0000
  C   C992      1.0  0.28770  0.55767  0.89384  1.0000
  C   C993      1.0  0.23737  0.72412  0.77759  1.0000
  H   H785      1.0  0.04879  0.66206  0.80125  1.0000
  C   C994      1.0  0.38597  0.71795  0.81978  1.0000
  C   C995      1.0  0.36185  0.74063  0.60330  1.0000
  C   C996      1.0  0.36879  0.73618  0.54821  1.0000
  C   C997      1.0  0.33146  0.58502  0.51665  1.0000
  H   H786      1.0  0.36147  0.74432  0.75600  1.0000
  H   H787      1.0  0.46403  0.64398  0.79406  1.0000
  H   H788      1.0  0.28422  0.67390  0.96834  1.0000
  H   H789      1.0  0.34022  0.56841  0.94895  1.0000
  H   H790      1.0  0.29130  0.60547  0.93287  1.0000
  H   H791      1.0  0.26228  0.62600  0.93094  1.0000
  H   H792      1.0  0.21745  0.60350  0.95687  1.0000
  H   H793      1.0  0.44894  0.72766  0.54785  1.0000
  H   H794      1.0  0.21114  0.67745  0.74351  1.0000
  H   H795      1.0  0.29861  0.51579  0.94062  1.0000
  C   C998      1.0  0.25188  0.71528  0.68326  1.0000
  H   H796      1.0  0.31066  0.52881  0.84161  1.0000
  H   H797      1.0  0.29394  0.56123  0.84373  1.0000
  H   H798      1.0  0.28065  0.57194  0.89414  1.0000
  C   C999      1.0  0.12857  0.73556  0.61459  1.0000
  H   H799      1.0  0.23016  0.65143  0.65811  1.0000
  H   H800      1.0  0.36839  0.67587  0.80981  1.0000
  C   C1000     1.0  0.05683  0.72033  0.52255  1.0000
  H   H801      1.0  0.28852  0.51219  0.73756  1.0000
  H   H802      1.0  0.34304  0.62492  0.50043  1.0000
  H   H803      1.0  0.03876  0.71520  0.53598  1.0000
  C   C1001     1.0  0.22195  0.68261  0.72141  1.0000
  H   H804      1.0  0.25970  0.69891  0.64172  1.0000
  H   H805      1.0  0.17563  0.74249  0.66945  1.0000
  H   H806      1.0  0.00874  0.61637  0.80634  1.0000
  H   H807      1.0  0.02101  0.72494  0.65745  1.0000
  H   H808      1.0  0.12857  0.69839  0.60835  1.0000
  C   C1002     1.0  0.25719  0.72091  0.79341  1.0000
  C   C1003     1.0  0.32152  0.59596  0.74912  1.0000
  C   C1004     1.0  0.30068  0.60064  0.75795  1.0000
  C   C1005     1.0  0.30614  0.62691  0.76306  1.0000
  C   C1006     1.0  0.33245  0.64854  0.75957  1.0000
  C   C1007     1.0  0.35369  0.64399  0.75187  1.0000
  C   C1008     1.0  0.34792  0.61757  0.74578  1.0000
  P   P33       1.0  0.38771  0.67191  0.74741  1.0000
  C   C1009     1.0  0.39196  0.67978  0.70604  1.0000
  C   C1010     1.0  0.39344  0.70030  0.77132  1.0000
  C   C1011     1.0  0.00725  0.63379  0.81307  1.0000
  C   C1012     1.0  0.23259  0.66766  0.67315  1.0000
  H   H809      1.0  0.31156  0.50518  0.88994  1.0000
  C   C1013     1.0  0.38567  0.69865  0.69359  1.0000
  C   C1014     1.0  0.38909  0.70482  0.66160  1.0000
  C   C1015     1.0  0.39759  0.69129  0.64149  1.0000
  C   C1016     1.0  0.40308  0.67185  0.65353  1.0000
  C   C1017     1.0  0.40022  0.66604  0.68568  1.0000
  C   C1018     1.0  0.41177  0.66276  0.76181  1.0000
  C   C1019     1.0  0.40483  0.64440  0.78673  1.0000
  C   C1020     1.0  0.42356  0.63751  0.79818  1.0000
  C   C1021     1.0  0.44944  0.64921  0.78518  1.0000
  C   C1022     1.0  0.45670  0.66800  0.76097  1.0000
  C   C1023     1.0  0.43806  0.67500  0.74948  1.0000
  H   H810      1.0  0.31717  0.57551  0.74509  1.0000
  H   H811      1.0  0.28025  0.58394  0.76076  1.0000
  H   H812      1.0  0.28996  0.63052  0.76988  1.0000
  H   H813      1.0  0.33614  0.66877  0.76296  1.0000
  H   H814      1.0  0.36382  0.61361  0.73877  1.0000
  H   H815      1.0  0.04541  0.70204  0.81590  1.0000
  H   H816      1.0  0.29479  0.73820  0.73311  1.0000
  C   C1024     1.0  0.27614  0.51306  0.75619  1.0000
  H   H817      1.0  0.37816  0.70872  0.70855  1.0000
  H   H818      1.0  0.24403  0.61642  0.48529  1.0000
  H   H819      1.0  0.40020  0.69607  0.61667  1.0000
  H   H820      1.0  0.40997  0.66158  0.63799  1.0000
  H   H821      1.0  0.40453  0.65089  0.69460  1.0000
  H   H822      1.0  0.38504  0.63548  0.79749  1.0000
  H   H823      1.0  0.41806  0.62320  0.81725  1.0000
  H   H824      1.0  0.00680  0.70798  0.71168  1.0000
  C   C1025     1.0  0.36469  0.60182  0.97882  1.0000
  H   H825      1.0  0.44437  0.69013  0.73124  1.0000
  C   C1026     1.0  0.24904  0.69439  0.66386  1.0000
  C   C1027     1.0  0.38140  0.69607  0.80105  1.0000
  H   H826      1.0  0.46205  0.71404  0.67601  1.0000
  H   H827      1.0  0.38491  0.71999  0.65248  1.0000
  C   C1028     1.0  0.40285  0.74421  0.80915  1.0000
  C   C1029     1.0  0.22723  0.70101  0.83777  1.0000
  C   C1030     1.0  0.31611  0.55747  0.51043  1.0000
  H   H828      1.0  0.40431  0.65894  0.54455  1.0000
  C   C1031     1.0  0.20729  0.70386  0.82213  1.0000
  C   C1032     1.0  0.21910  0.66180  0.70186  1.0000
  C   C1033     1.0  0.23854  0.70957  0.71234  1.0000
  C   C1034     1.0  0.26629  0.64969  0.51667  1.0000
  C   C1035     1.0  0.29186  0.62163  0.53723  1.0000
  C   C1036     1.0  0.29917  0.64678  0.55038  1.0000
  C   C1037     1.0  0.28602  0.66061  0.54019  1.0000
  P   P34       1.0  0.32254  0.65971  0.58291  1.0000
  C   C1038     1.0  0.30383  0.64873  0.61942  1.0000
  C   C1039     1.0  0.34607  0.64715  0.58097  1.0000
  C   C1040     1.0  0.34229  0.62551  0.60008  1.0000
  C   C1041     1.0  0.36106  0.61659  0.59976  1.0000
  C   C1042     1.0  0.38353  0.62885  0.57999  1.0000
  C   C1043     1.0  0.38705  0.64977  0.56024  1.0000
  C   C1044     1.0  0.36842  0.65883  0.56058  1.0000
  C   C1045     1.0  0.31779  0.65352  0.64799  1.0000
  C   C1046     1.0  0.30373  0.64448  0.67625  1.0000
  C   C1047     1.0  0.27550  0.63008  0.67629  1.0000
  C   C1048     1.0  0.26134  0.62474  0.64796  1.0000
  C   C1049     1.0  0.27538  0.63416  0.61962  1.0000
  C   C1050     1.0  0.34149  0.69611  0.57966  1.0000
  C   C1051     1.0  0.35243  0.70824  0.55055  1.0000
  H   H829      1.0  0.19582  0.71575  0.77985  1.0000
  C   C1052     1.0  0.27564  0.50168  0.78543  1.0000
  H   H830      1.0  0.14660  0.49670  0.97650  1.0000
  C   C1053     1.0  0.34577  0.71264  0.60585  1.0000
  H   H831      1.0  0.25614  0.66035  0.50881  1.0000
  H   H832      1.0  0.30105  0.61021  0.54547  1.0000
  H   H833      1.0  0.29074  0.67965  0.55070  1.0000
  H   H834      1.0  0.32492  0.61543  0.61537  1.0000
  H   H835      1.0  0.35819  0.60013  0.61482  1.0000
  H   H836      1.0  0.39812  0.62197  0.57964  1.0000
  H   H837      1.0  0.37173  0.67483  0.54471  1.0000
  H   H838      1.0  0.33960  0.66405  0.64839  1.0000
  H   H839      1.0  0.31475  0.64868  0.69815  1.0000
  H   H840      1.0  0.26463  0.62295  0.69829  1.0000
  H   H841      1.0  0.23943  0.61310  0.64801  1.0000
  H   H842      1.0  0.26388  0.62962  0.59805  1.0000
  H   H843      1.0  0.34876  0.69609  0.52967  1.0000
  C   C1054     1.0  0.15909  0.50497  0.95588  1.0000
  C   C1055     1.0  0.46900  0.72312  0.65311  1.0000
  C   C1056     1.0  0.17220  0.70739  0.50745  1.0000
  C   C1057     1.0  0.18847  0.50327  0.91635  1.0000
  H   H844      1.0  0.11077  0.72658  0.62934  1.0000
  C   C1058     1.0  0.20471  0.73958  0.69924  1.0000
  C   C1059     1.0  0.99995  0.71587  0.66412  1.0000
  H   H845      1.0  0.11606  0.72020  0.52824  1.0000
  H   H846      1.0  0.47692  0.67734  0.75127  1.0000
  C   C1060     1.0  0.13859  0.71965  0.60262  1.0000
  C   C1061     1.0  0.33124  0.60355  0.49553  1.0000
  H   H847      1.0  0.48652  0.73206  0.76763  1.0000
  C   C1062     1.0  0.10041  0.72298  0.51764  1.0000
  C   C1063     1.0  0.30076  0.54844  0.48290  1.0000
  H   H848      1.0  0.25774  0.95629  0.44682  1.0000
  S   S142      1.0  0.17307  0.96322  0.03555  1.0000
  Fe  Fe71      1.0  0.10858  0.95244  0.08010  1.0000
  S   S143      1.0  0.10642  0.93052  0.03550  1.0000
  S   S144      1.0  0.07472  0.94533  0.11450  1.0000
  Fe  Fe72      1.0  0.13951  0.92540  0.05706  1.0000
  S   S145      1.0  0.13697  0.88493  0.05144  1.0000
  Fe  Fe73      1.0  0.14021  0.97031  0.01738  1.0000
  H   H849      1.0  0.33590  0.76937  0.29188  1.0000
  S   S146      1.0  0.14040  0.94545  0.10234  1.0000
  Fe  Fe74      1.0  0.37326  0.77304  0.19577  1.0000
  S   S147      1.0  0.37486  0.79357  0.15050  1.0000
  H   H850      1.0  0.17807  0.84566  0.41087  1.0000
  Fe  Fe75      1.0  0.38884  0.82394  0.23489  1.0000
  S   S148      1.0  0.39246  0.84845  0.19205  1.0000
  S   S149      1.0  0.39474  0.83853  0.28553  1.0000
  Fe  Fe76      1.0  0.35379  0.81151  0.17706  1.0000
  S   S150      1.0  0.31955  0.81737  0.16035  1.0000
  Fe  Fe77      1.0  0.41353  0.82840  0.16955  1.0000
  S   S151      1.0  0.44855  0.84411  0.13492  1.0000
  S   S152      1.0  0.34921  0.78845  0.22113  1.0000
  S   S153      1.0  0.41288  0.80654  0.21361  1.0000
  Fe  Fe78      1.0  0.31964  0.89872  0.38347  1.0000
  S   S154      1.0  0.34446  0.90105  0.42544  1.0000
  S   S155      1.0  0.33000  0.89569  0.33273  1.0000
  Fe  Fe79      1.0  0.27456  0.89710  0.42455  1.0000
  S   S156      1.0  0.29587  0.89858  0.46924  1.0000
  S   S157      1.0  0.23353  0.89402  0.42135  1.0000
  Fe  Fe80      1.0  0.33309  0.93068  0.44485  1.0000
  S   S158      1.0  0.16134  0.75991  0.18196  1.0000
  Fe  Fe81      1.0  0.30497  0.86900  0.44553  1.0000
  S   S159      1.0  0.30291  0.83301  0.47027  1.0000
  S   S160      1.0  0.31112  0.93091  0.40115  1.0000
  S   S161      1.0  0.28078  0.86509  0.40244  1.0000
  S   S162      1.0  0.14068  0.81525  0.16502  1.0000
  C   C1064     1.0  0.06756  0.86077  0.02707  1.0000
  C   C1065     1.0  0.46835  0.79551  0.21869  1.0000
  H   H851      1.0  0.20854  0.97346  0.39892  1.0000
  H   H852      1.0  0.37222  0.74951  0.29989  1.0000
  C   C1066     1.0  0.47579  0.80804  0.24822  1.0000
  S   S163      1.0  0.11408  0.96354  0.44821  1.0000
  C   C1067     1.0  0.36816  0.81076  0.43015  1.0000
  H   H853      1.0  0.30350  0.81201  0.36841  1.0000
  S   S164      1.0  0.10664  0.89492  0.47039  1.0000
  H   H854      1.0  0.46375  0.80528  0.29688  1.0000
  H   H855      1.0  0.20240  0.94577  0.24547  1.0000
  H   H856      1.0  0.33967  0.75187  0.09597  1.0000
  H   H857      1.0  0.12696  0.78754  0.47893  1.0000
  H   H858      1.0  0.17084  0.93468  0.42627  1.0000
  C   C1068     1.0  0.14651  0.77364  0.44634  1.0000
  C   C1069     1.0  0.23792  0.74893  0.43786  1.0000
  H   H859      1.0  0.23648  0.91933  0.04081  1.0000
  H   H860      1.0  0.34369  0.82968  0.42883  1.0000
  H   H861      1.0  0.04031  0.79240  0.06440  1.0000
  C   C1070     1.0  0.43704  0.80378  0.36228  1.0000
  C   C1071     1.0  0.24731  0.93345  0.28363  1.0000
  H   H862      1.0  0.13280  0.83328  0.05381  1.0000
  H   H863      1.0  0.16209  0.84811  0.23192  1.0000
  C   C1072     1.0  0.21393  0.89402  0.45323  1.0000
  S   S165      1.0  0.13956  0.99300  0.06013  1.0000
  H   H864      1.0  0.12173  0.80261  0.23413  1.0000
  H   H865      1.0  0.17461  0.99366  0.16243  1.0000
  C   C1073     1.0  0.17273  0.89263  0.47084  1.0000
  C   C1074     1.0  0.18928  0.89272  0.44658  1.0000
  H   H866      1.0  0.43689  0.84382  0.43021  1.0000
  H   H867      1.0  0.07644  0.78347  0.16696  1.0000
  H   H868      1.0  0.01111  0.83820  0.40249  1.0000
  H   H869      1.0  0.18291  0.89188  0.42247  1.0000
  C   C1075     1.0  0.27832  0.80086  0.45666  1.0000
  H   H870      1.0  0.45217  0.94275  0.38701  1.0000
  H   H871      1.0  0.41121  0.97700  0.43634  1.0000
  C   C1076     1.0  0.23696  0.77175  0.42803  1.0000
  H   H872      1.0  0.15379  0.89149  0.46525  1.0000
  C   C1077     1.0  0.25508  0.97626  0.16962  1.0000
  C   C1078     1.0  0.19695  0.97324  0.17141  1.0000
  C   C1079     1.0  0.26995  0.97587  0.14361  1.0000
  C   C1080     1.0  0.28677  0.79119  0.15042  1.0000
  C   C1081     1.0  0.26119  0.78249  0.17614  1.0000
  C   C1082     1.0  0.48152  0.89454  0.39191  1.0000
  H   H873      1.0  0.43221  0.83810  0.35315  1.0000
  C   C1083     1.0  0.32828  0.77791  0.30888  1.0000
  C   C1084     1.0  0.27964  0.78007  0.11252  1.0000
  H   H874      1.0  0.26560  0.79092  0.19946  1.0000
  S   S166      1.0  0.03052  0.83381  0.46752  1.0000
  H   H875      1.0  0.29586  0.78718  0.09554  1.0000
  C   C1085     1.0  0.37616  0.85381  0.29874  1.0000
  C   C1086     1.0  0.37569  0.85912  0.33089  1.0000
  C   C1087     1.0  0.36125  0.87148  0.34183  1.0000
  C   C1088     1.0  0.34751  0.87904  0.32057  1.0000
  C   C1089     1.0  0.34800  0.87373  0.28848  1.0000
  C   C1090     1.0  0.36205  0.86099  0.27762  1.0000
  H   H876      1.0  0.38652  0.85372  0.34745  1.0000
  H   H877      1.0  0.36109  0.87552  0.36658  1.0000
  H   H878      1.0  0.33759  0.87969  0.27188  1.0000
  H   H879      1.0  0.36230  0.85710  0.25283  1.0000
  C   C1091     1.0  0.03960  0.92044  0.11462  1.0000
  C   C1092     1.0  0.02576  0.90715  0.08728  1.0000
  C   C1093     1.0  0.01434  0.94059  0.47361  1.0000
  H   H880      1.0  0.12847  0.91345  0.19931  1.0000
  H   H881      1.0  0.46696  0.78149  0.41705  1.0000
  C   C1094     1.0  0.02484  0.91511  0.14275  1.0000
  H   H882      1.0  0.03669  0.91105  0.06543  1.0000
  H   H883      1.0  0.47641  0.88844  0.18025  1.0000
  C   C1095     1.0  0.01826  0.84537  0.05653  1.0000
  H   H884      1.0  0.03526  0.92527  0.16405  1.0000
  C   C1096     1.0  0.13536  0.86477  0.08365  1.0000
  C   C1097     1.0  0.13657  0.87323  0.11468  1.0000
  C   C1098     1.0  0.13733  0.85742  0.13953  1.0000
  C   C1099     1.0  0.13668  0.83302  0.13353  1.0000
  C   C1100     1.0  0.13453  0.82417  0.10257  1.0000
  C   C1101     1.0  0.13391  0.84002  0.07775  1.0000
  H   H885      1.0  0.13768  0.89225  0.11951  1.0000
  H   H886      1.0  0.13907  0.86442  0.16342  1.0000
  H   H887      1.0  0.13399  0.80543  0.09767  1.0000
  H   H888      1.0  0.25286  0.93105  0.30724  1.0000
  C   C1102     1.0  0.17614  0.80728  0.40852  1.0000
  C   C1103     1.0  0.36406  0.83280  0.42934  1.0000
  C   C1104     1.0  0.31007  0.80215  0.35182  1.0000
  H   H889      1.0  0.23001  0.98943  0.06920  1.0000
  C   C1105     1.0  0.29153  0.96402  0.47638  1.0000
  C   C1106     1.0  0.26199  0.93242  0.25802  1.0000
  H   H890      1.0  0.43544  0.76587  0.36971  1.0000
  C   C1107     1.0  0.22573  0.93803  0.27885  1.0000
  C   C1108     1.0  0.21880  0.94165  0.24845  1.0000
  C   C1109     1.0  0.23329  0.94039  0.22253  1.0000
  C   C1110     1.0  0.25516  0.93609  0.22759  1.0000
  P   P35       1.0  0.22552  0.94603  0.18311  1.0000
  C   C1111     1.0  0.21712  0.91759  0.15808  1.0000
  H   H891      1.0  0.47303  0.80380  0.47474  1.0000
  C   C1112     1.0  0.17090  0.92796  0.19212  1.0000
  H   H892      1.0  0.45891  0.81561  0.36432  1.0000
  H   H893      1.0  0.18722  0.89384  0.02930  1.0000
  C   C1113     1.0  0.18382  0.95308  0.43897  1.0000
  C   C1114     1.0  0.07085  0.77262  0.11813  1.0000
  C   C1115     1.0  0.21058  0.91859  0.12653  1.0000
  C   C1116     1.0  0.20290  0.89643  0.10698  1.0000
  C   C1117     1.0  0.20134  0.87299  0.11879  1.0000
  C   C1118     1.0  0.20722  0.87158  0.15035  1.0000
  C   C1119     1.0  0.21499  0.89375  0.17003  1.0000
  C   C1120     1.0  0.41748  0.92287  0.45609  1.0000
  H   H894      1.0  0.42271  0.76075  0.29092  1.0000
  C   C1121     1.0  0.25895  0.75210  0.45761  1.0000
  H   H895      1.0  0.43890  0.76092  0.19258  1.0000
  H   H896      1.0  0.19039  0.81318  0.38931  1.0000
  H   H897      1.0  0.39853  0.94301  0.47831  1.0000
  C   C1122     1.0  0.20044  0.91180  0.01608  1.0000
  C   C1123     1.0  0.41005  0.94262  0.45833  1.0000
  C   C1124     1.0  0.43996  0.94204  0.40672  1.0000
  H   H898      1.0  0.08086  0.76083  0.11976  1.0000
  H   H899      1.0  0.26698  0.93567  0.20796  1.0000
  H   H900      1.0  0.16940  0.90920  0.19958  1.0000
  H   H901      1.0  0.21244  0.75701  0.18133  1.0000
  C   C1125     1.0  0.41725  0.96186  0.43465  1.0000
  C   C1126     1.0  0.24522  0.94882  0.00462  1.0000
  C   C1127     1.0  0.14112  0.80576  0.24216  1.0000
  H   H902      1.0  0.21084  0.93633  0.11719  1.0000
  H   H903      1.0  0.19681  0.89695  0.08309  1.0000
  H   H904      1.0  0.19419  0.85545  0.10386  1.0000
  H   H905      1.0  0.20452  0.85286  0.15986  1.0000
  H   H906      1.0  0.21844  0.89176  0.19457  1.0000
  C   C1128     1.0  0.46440  0.90353  0.46082  1.0000
  C   C1129     1.0  0.04848  0.86558  0.01240  1.0000
  H   H907      1.0  0.35096  0.79057  0.43074  1.0000
  H   H908      1.0  0.12578  0.76408  0.25368  1.0000
  H   H909      1.0  0.05238  0.96998  0.45299  1.0000
  C   C1130     1.0  0.45695  0.89399  0.33484  1.0000
  C   C1131     1.0  0.43571  0.77025  0.27089  1.0000
  C   C1132     1.0  0.45899  0.79546  0.27418  1.0000
  H   H910      1.0  0.00323  0.93848  0.45225  1.0000
  C   C1133     1.0  0.22816  0.92608  0.02239  1.0000
  H   H911      1.0  0.27887  0.92906  0.26180  1.0000
  C   C1134     1.0  0.49291  0.89275  0.36366  1.0000
  H   H912      1.0  0.38265  0.81161  0.34940  1.0000
  C   C1135     1.0  0.99661  0.89711  0.14352  1.0000
  C   C1136     1.0  0.42883  0.75759  0.24161  1.0000
  C   C1137     1.0  0.16478  0.78138  0.42117  1.0000
  H   H913      1.0  0.17053  0.76761  0.41137  1.0000
  C   C1138     1.0  0.48999  0.89149  0.16104  1.0000
  Fe  Fe82      1.0  0.17101  0.98394  0.07899  1.0000
  H   H914      1.0  0.48017  0.80536  0.19801  1.0000
  H   H915      1.0  0.43813  0.97681  0.39081  1.0000
  H   H916      1.0  0.21452  0.93903  0.29880  1.0000
  H   H917      1.0  0.05452  0.81106  0.16321  1.0000
  H   H918      1.0  0.31655  0.79686  0.27327  1.0000
  H   H919      1.0  0.44322  0.87687  0.25296  1.0000
  H   H920      1.0  0.45435  0.84088  0.25820  1.0000
  C   C1139     1.0  0.17371  0.97555  0.17150  1.0000
  H   H921      1.0  0.49179  0.86424  0.09114  1.0000
  C   C1140     1.0  0.16927  0.82562  0.42074  1.0000
  C   C1141     1.0  0.43231  0.96166  0.40896  1.0000
  H   H922      1.0  0.05299  0.87567  0.98986  1.0000
  H   H923      1.0  0.30393  0.96413  0.45712  1.0000
  C   C1142     1.0  0.39559  0.76059  0.36302  1.0000
  C   C1143     1.0  0.46413  0.88167  0.25147  1.0000
  H   H924      1.0  0.00922  0.86206  0.01609  1.0000
  P   P36       1.0  0.34384  0.75363  0.35510  1.0000
  C   C1144     1.0  0.22730  0.76540  0.33440  1.0000
  C   C1145     1.0  0.18960  0.92067  0.99269  1.0000
  C   C1146     1.0  0.39383  0.80137  0.35420  1.0000
  C   C1147     1.0  0.21387  0.76658  0.27149  1.0000
  C   C1148     1.0  0.22254  0.78959  0.29019  1.0000
  C   C1149     1.0  0.22974  0.78904  0.32165  1.0000
  P   P37       1.0  0.22461  0.81943  0.27324  1.0000
  C   C1150     1.0  0.23533  0.84589  0.30203  1.0000
  C   C1151     1.0  0.24914  0.83059  0.24193  1.0000
  C   C1152     1.0  0.27397  0.83164  0.24698  1.0000
  C   C1153     1.0  0.29402  0.84201  0.22391  1.0000
  C   C1154     1.0  0.28937  0.85129  0.19558  1.0000
  C   C1155     1.0  0.26462  0.85003  0.19023  1.0000
  C   C1156     1.0  0.24441  0.83942  0.21310  1.0000
  C   C1157     1.0  0.26118  0.86891  0.30091  1.0000
  C   C1158     1.0  0.26817  0.89002  0.32198  1.0000
  C   C1159     1.0  0.24962  0.88832  0.34435  1.0000
  C   C1160     1.0  0.22395  0.86545  0.34580  1.0000
  C   C1161     1.0  0.21682  0.84425  0.32479  1.0000
  C   C1162     1.0  0.19186  0.81344  0.26017  1.0000
  C   C1163     1.0  0.18916  0.83533  0.25010  1.0000
  C   C1164     1.0  0.16395  0.83142  0.24085  1.0000
  C   C1165     1.0  0.14347  0.78402  0.25286  1.0000
  C   C1166     1.0  0.49008  0.92676  0.46040  1.0000
  C   C1167     1.0  0.16866  0.78777  0.26198  1.0000
  H   H925      1.0  0.23276  0.76489  0.35867  1.0000
  H   H926      1.0  0.26396  0.95754  0.13069  1.0000
  C   C1168     1.0  0.48020  0.75230  0.41679  1.0000
  H   H927      1.0  0.24255  0.75372  0.07646  1.0000
  H   H928      1.0  0.23722  0.80669  0.33640  1.0000
  H   H929      1.0  0.27800  0.82481  0.26893  1.0000
  H   H930      1.0  0.31305  0.84247  0.22764  1.0000
  H   H931      1.0  0.30480  0.85889  0.17752  1.0000
  H   H932      1.0  0.26105  0.85707  0.16821  1.0000
  H   H933      1.0  0.22528  0.83815  0.20800  1.0000
  H   H934      1.0  0.27613  0.87092  0.28397  1.0000
  H   H935      1.0  0.28817  0.90770  0.32115  1.0000
  H   H936      1.0  0.25525  0.90478  0.36060  1.0000
  H   H937      1.0  0.20964  0.86426  0.36323  1.0000
  H   H938      1.0  0.19674  0.82674  0.32600  1.0000
  H   H939      1.0  0.20661  0.85541  0.24922  1.0000
  C   C1169     1.0  0.06815  0.78525  0.14475  1.0000
  C   C1170     1.0  0.26563  0.95983  0.47059  1.0000
  H   H940      1.0  0.05102  0.76190  0.25738  1.0000
  C   C1171     1.0  0.99460  0.80543  0.11626  1.0000
  H   H941      1.0  0.06347  0.76590  0.06862  1.0000
  C   C1172     1.0  0.25157  0.79639  0.12907  1.0000
  H   H942      1.0  0.07779  0.88015  0.10969  1.0000
  H   H943      1.0  0.48958  0.89119  0.31332  1.0000
  H   H944      1.0  0.29494  0.78033  0.48276  1.0000
  C   C1173     1.0  0.27338  0.82227  0.11606  1.0000
  C   C1174     1.0  0.27040  0.84364  0.10514  1.0000
  C   C1175     1.0  0.24575  0.84243  0.10612  1.0000
  C   C1176     1.0  0.22410  0.82016  0.11909  1.0000
  C   C1177     1.0  0.22677  0.79874  0.13040  1.0000
  S   S167      1.0  0.36184  0.96665  0.47476  1.0000
  H   H945      1.0  0.44702  0.89315  0.31279  1.0000
  C   C1178     1.0  0.06842  0.87603  0.13260  1.0000
  C   C1179     1.0  0.48419  0.77849  0.41763  1.0000
  C   C1180     1.0  0.99743  0.88969  0.08790  1.0000
  C   C1181     1.0  0.27912  0.77802  0.46693  1.0000
  C   C1182     1.0  0.02386  0.85791  0.02716  1.0000
  C   C1183     1.0  0.14767  0.93031  0.19203  1.0000
  C   C1184     1.0  0.19585  0.94963  0.18249  1.0000
  H   H946      1.0  0.29406  0.82705  0.11285  1.0000
  H   H947      1.0  0.28772  0.86136  0.09549  1.0000
  H   H948      1.0  0.24353  0.85890  0.09718  1.0000
  H   H949      1.0  0.20455  0.81896  0.12022  1.0000
  H   H950      1.0  0.20758  0.78330  0.13938  1.0000
  H   H951      1.0  0.32213  0.78420  0.38754  1.0000
  H   H952      1.0  0.20915  0.84072  0.46780  1.0000
  C   C1185     1.0  0.30826  0.80564  0.31967  1.0000
  C   C1186     1.0  0.31729  0.79350  0.29820  1.0000
  C   C1187     1.0  0.42204  0.81649  0.35631  1.0000
  C   C1188     1.0  0.05579  0.80096  0.14245  1.0000
  Fe  Fe83      1.0  0.13448  0.77323  0.15876  1.0000
  C   C1189     1.0  0.47054  0.86120  0.25407  1.0000
  C   C1190     1.0  0.14033  0.79252  0.45904  1.0000
  C   C1191     1.0  0.43201  0.92208  0.42993  1.0000
  H   H953      1.0  0.20864  0.76670  0.24702  1.0000
  P   P38       1.0  0.44175  0.89662  0.42812  1.0000
  C   C1192     1.0  0.48456  0.90829  0.24682  1.0000
  C   C1193     1.0  0.41269  0.86321  0.42997  1.0000
  C   C1194     1.0  0.41661  0.84094  0.43032  1.0000
  C   C1195     1.0  0.39442  0.81483  0.43027  1.0000
  H   H954      1.0  0.22008  0.76939  0.41402  1.0000
  H   H955      1.0  0.49136  0.75952  0.24464  1.0000
  C   C1196     1.0  0.38622  0.85896  0.42886  1.0000
  H   H956      1.0  0.46939  0.74618  0.09208  1.0000
  C   C1197     1.0  0.48072  0.89261  0.33513  1.0000
  H   H957      1.0  0.49099  0.89382  0.41366  1.0000
  C   C1198     1.0  0.17905  0.95507  0.47070  1.0000
  H   H958      1.0  0.25575  0.81475  0.42975  1.0000
  H   H959      1.0  0.30065  0.81847  0.31150  1.0000
  H   H960      1.0  0.42694  0.89653  0.36244  1.0000
  H   H961      1.0  0.08688  0.86715  0.01592  1.0000
  C   C1199     1.0  0.32087  0.78647  0.36256  1.0000
  H   H962      1.0  0.49148  0.82592  0.12614  1.0000
  H   H963      1.0  0.01661  0.82761  0.17555  1.0000
  H   H964      1.0  0.13108  0.95597  0.18142  1.0000
  H   H965      1.0  0.38247  0.87561  0.42718  1.0000
  C   C1200     1.0  0.44503  0.77028  0.21550  1.0000
  S   S168      1.0  0.13220  0.75254  0.11352  1.0000
  C   C1201     1.0  0.20504  0.97493  0.42361  1.0000
  H   H966      1.0  0.09629  0.91578  0.14931  1.0000
  C   C1202     1.0  0.04581  0.80396  0.11344  1.0000
  H   H967      1.0  0.07519  0.90827  0.20184  1.0000
  C   C1203     1.0  0.04810  0.79069  0.08695  1.0000
  H   H968      1.0  0.14660  0.83279  0.45592  1.0000
  C   C1204     1.0  0.04549  0.85113  0.13946  1.0000
  C   C1205     1.0  0.03405  0.84673  0.16957  1.0000
  C   C1206     1.0  0.04479  0.86722  0.19205  1.0000
  C   C1207     1.0  0.06727  0.89211  0.18479  1.0000
  C   C1208     1.0  0.07922  0.89635  0.15523  1.0000
  C   C1209     1.0  0.03737  0.84050  0.07150  1.0000
  H   H969      1.0  0.31545  0.76162  0.13688  1.0000
  C   C1210     1.0  0.15152  0.81832  0.44611  1.0000
  C   C1211     1.0  0.44559  0.89591  0.36306  1.0000
  H   H970      1.0  0.16957  0.77047  0.27040  1.0000
  C   C1212     1.0  0.32989  0.77402  0.34119  1.0000
  C   C1213     1.0  0.38034  0.77335  0.35793  1.0000
  H   H971      1.0  0.42746  0.76282  0.47219  1.0000
  C   C1214     1.0  0.45805  0.89670  0.39180  1.0000
  H   H972      1.0  0.48224  0.75336  0.18798  1.0000
  P   P39       1.0  0.03071  0.82507  0.10997  1.0000
  H   H973      1.0  0.34881  0.99295  0.42414  1.0000
  C   C1215     1.0  0.42380  0.77579  0.36543  1.0000
  C   C1216     1.0  0.06104  0.77553  0.08923  1.0000
  H   H974      1.0  0.39767  0.79778  0.43011  1.0000
  C   C1217     1.0  0.25720  0.79757  0.43707  1.0000
  C   C1218     1.0  0.24707  0.75974  0.10076  1.0000
  H   H975      1.0  0.03539  0.86397  0.21490  1.0000
  H   H976      1.0  0.21540  0.98972  0.16197  1.0000
  C   C1219     1.0  0.14913  0.95421  0.18202  1.0000
  C   C1220     1.0  0.06219  0.84854  0.05660  1.0000
  H   H977      1.0  0.26665  0.95914  0.00965  1.0000
  H   H978      1.0  0.07764  0.84579  0.06796  1.0000
  C   C1221     1.0  0.22859  0.76148  0.16496  1.0000
  H   H979      1.0  0.16793  0.90996  0.98861  1.0000
  C   C1222     1.0  0.48110  0.87327  0.13604  1.0000
  H   H980      1.0  0.47950  0.92408  0.24468  1.0000
  H   H981      1.0  0.07406  0.98682  0.07372  1.0000
  C   C1223     1.0  0.04219  0.95887  0.47401  1.0000
  H   H982      1.0  0.41175  0.90812  0.47468  1.0000
  H   H983      1.0  0.18886  0.77841  0.47981  1.0000
  H   H984      1.0  0.25166  0.83972  0.47386  1.0000
  H   H985      1.0  0.36643  0.74581  0.41487  1.0000
  H   H986      1.0  0.00816  0.75066  0.23109  1.0000
  H   H987      1.0  0.99919  0.84000  0.06751  1.0000
  C   C1224     1.0  0.22142  0.75009  0.12663  1.0000
  H   H988      1.0  0.48681  0.78404  0.14761  1.0000
  C   C1225     1.0  0.01687  0.80042  0.48122  1.0000
  C   C1226     1.0  0.30392  0.74612  0.11970  1.0000
  H   H989      1.0  0.16255  0.93822  0.48258  1.0000
  Fe  Fe84      1.0  0.31854  0.96661  0.80654  1.0000
  C   C1227     1.0  0.08882  0.88229  0.78758  1.0000
  Fe  Fe85      1.0  0.26255  0.92620  0.78102  1.0000
  S   S169      1.0  0.27448  0.93904  0.73120  1.0000
  S   S170      1.0  0.22096  0.89332  0.79597  1.0000
  Fe  Fe86      1.0  0.31249  0.93796  0.74341  1.0000
  S   S171      1.0  0.32460  0.91649  0.70709  1.0000
  C   C1228     1.0  0.01369  0.77227  0.79572  1.0000
  S   S172      1.0  0.29919  0.92283  0.79248  1.0000
  S   S173      1.0  0.28058  0.96839  0.79962  1.0000
  Fe  Fe87      1.0  0.07897  0.90538  0.54856  1.0000
  S   S174      1.0  0.06414  0.91166  0.59521  1.0000
  Fe  Fe88      1.0  0.40904  0.83538  0.70347  1.0000
  S   S175      1.0  0.38661  0.80859  0.66272  1.0000
  S   S176      1.0  0.40218  0.86708  0.72780  1.0000
  Fe  Fe89      1.0  0.44354  0.80842  0.71145  1.0000
  S   S177      1.0  0.42328  0.77962  0.67190  1.0000
  H   H990      1.0  0.21274  0.99354  0.97518  1.0000
  Fe  Fe90      1.0  0.42725  0.81571  0.64654  1.0000
  S   S178      1.0  0.43880  0.81912  0.59517  1.0000
  Fe  Fe91      1.0  0.38468  0.77486  0.69157  1.0000
  C   C1229     1.0  0.24975  0.95975  0.49551  1.0000
  S   S179      1.0  0.45004  0.84506  0.68507  1.0000
  S   S180      1.0  0.40460  0.80097  0.73353  1.0000
  S   S181      1.0  0.14555  0.80552  0.69607  1.0000
  H   H991      1.0  0.36505  0.78694  0.78813  1.0000
  C   C1230     1.0  0.04064  0.86549  0.78878  1.0000
  C   C1231     1.0  0.35530  0.79531  0.50714  1.0000
  H   H992      1.0  0.28290  0.91832  0.53506  1.0000
  C   C1232     1.0  0.48953  0.86453  0.60130  1.0000
  H   H993      1.0  0.36556  0.75321  0.62379  1.0000
  H   H994      1.0  0.10546  0.87934  0.78139  1.0000
  H   H995      1.0  0.19785  0.94964  0.95647  1.0000
  H   H996      1.0  0.30330  0.83172  0.65014  1.0000
  C   C1233     1.0  0.02950  0.89105  0.60429  1.0000
  C   C1234     1.0  0.02037  0.89196  0.63458  1.0000
  S   S182      1.0  0.12120  0.93458  0.53204  1.0000
  C   C1235     1.0  0.47198  0.84258  0.58269  1.0000
  C   C1236     1.0  0.18750  0.93182  0.75744  1.0000
  H   H997      1.0  0.12240  0.85332  0.58254  1.0000
  H   H998      1.0  0.03468  0.90495  0.65207  1.0000
  H   H999      1.0  0.99903  0.87696  0.49657  1.0000
  H   H1000     1.0  0.46694  0.82296  0.53820  1.0000
  C   C1237     1.0  0.14994  0.81380  0.56704  1.0000
  C   C1238     1.0  0.37920  0.79468  0.50271  1.0000
  H   H1001     1.0  0.18452  0.80014  0.64387  1.0000
  C   C1239     1.0  0.19531  0.97886  0.48714  1.0000
  C   C1240     1.0  0.04434  0.94830  0.52855  1.0000
  C   C1241     1.0  0.34542  0.90204  0.71388  1.0000
  C   C1242     1.0  0.34794  0.88644  0.69009  1.0000
  C   C1243     1.0  0.36463  0.87501  0.69419  1.0000
  C   C1244     1.0  0.37940  0.87943  0.72197  1.0000
  C   C1245     1.0  0.37654  0.89470  0.74591  1.0000
  C   C1246     1.0  0.35948  0.90573  0.74206  1.0000
  H   H1002     1.0  0.33711  0.88340  0.66826  1.0000
  H   H1003     1.0  0.36635  0.86313  0.67575  1.0000
  H   H1004     1.0  0.38789  0.89832  0.76749  1.0000
  H   H1005     1.0  0.35771  0.91760  0.76062  1.0000
  C   C1247     1.0  0.20036  0.86913  0.76784  1.0000
  C   C1248     1.0  0.18109  0.84320  0.77782  1.0000
  C   C1249     1.0  0.16476  0.82333  0.75592  1.0000
  C   C1250     1.0  0.16651  0.82968  0.72402  1.0000
  C   C1251     1.0  0.18519  0.85586  0.71412  1.0000
  C   C1252     1.0  0.20243  0.87540  0.73585  1.0000
  H   H1006     1.0  0.17913  0.83829  0.80256  1.0000
  H   H1007     1.0  0.15039  0.80328  0.76384  1.0000
  H   H1008     1.0  0.18628  0.86106  0.68955  1.0000
  H   H1009     1.0  0.21682  0.89544  0.72795  1.0000
  P   P40       1.0  0.12804  0.93189  0.81138  1.0000
  C   C1253     1.0  0.29111  0.99206  0.96148  1.0000
  C   C1254     1.0  0.24171  0.83707  0.78503  1.0000
  C   C1255     1.0  0.25420  0.84809  0.75642  1.0000
  C   C1256     1.0  0.28024  0.85270  0.75068  1.0000
  C   C1257     1.0  0.29379  0.84631  0.77353  1.0000
  C   C1258     1.0  0.28103  0.83451  0.80199  1.0000
  C   C1259     1.0  0.25507  0.83054  0.80783  1.0000
  P   P41       1.0  0.29958  0.82909  0.83281  1.0000
  C   C1260     1.0  0.27620  0.80604  0.86162  1.0000
  C   C1261     1.0  0.31940  0.81522  0.81679  1.0000
  C   C1262     1.0  0.31059  0.78758  0.81935  1.0000
  C   C1263     1.0  0.12117  0.96804  0.84825  1.0000
  C   C1264     1.0  0.35230  0.79478  0.79598  1.0000
  C   C1265     1.0  0.36108  0.82217  0.79293  1.0000
  C   C1266     1.0  0.34468  0.83236  0.80305  1.0000
  C   C1267     1.0  0.28092  0.81156  0.89385  1.0000
  C   C1268     1.0  0.21663  0.85884  0.60232  1.0000
  C   C1269     1.0  0.19831  0.82105  0.63830  1.0000
  H   H1010     1.0  0.22950  0.95603  0.49094  1.0000
  C   C1270     1.0  0.25288  0.78237  0.85188  1.0000
  C   C1271     1.0  0.32194  0.86142  0.85056  1.0000
  C   C1272     1.0  0.31628  0.88256  0.84831  1.0000
  C   C1273     1.0  0.33410  0.90780  0.86112  1.0000
  C   C1274     1.0  0.35754  0.91207  0.87655  1.0000
  C   C1275     1.0  0.36310  0.89104  0.87939  1.0000
  C   C1276     1.0  0.34535  0.86577  0.86652  1.0000
  H   H1011     1.0  0.22196  0.83436  0.79004  1.0000
  H   H1012     1.0  0.24403  0.85385  0.73918  1.0000
  H   H1013     1.0  0.29027  0.86207  0.72890  1.0000
  H   H1014     1.0  0.31446  0.85134  0.76928  1.0000
  H   H1015     1.0  0.24537  0.82332  0.83034  1.0000
  C   C1277     1.0  0.30349  0.98080  0.94344  1.0000
  S   S183      1.0  0.10114  0.75014  0.76290  1.0000
  H   H1016     1.0  0.26265  0.82608  0.52430  1.0000
  H   H1017     1.0  0.38073  0.83558  0.78280  1.0000
  H   H1018     1.0  0.35205  0.85372  0.80061  1.0000
  H   H1019     1.0  0.29866  0.82959  0.90211  1.0000
  C   C1278     1.0  0.24103  0.97760  0.85899  1.0000
  H   H1020     1.0  0.02019  0.84986  0.78344  1.0000
  H   H1021     1.0  0.24887  0.77759  0.82716  1.0000
  H   H1022     1.0  0.29827  0.87980  0.83648  1.0000
  H   H1023     1.0  0.32989  0.92421  0.85884  1.0000
  H   H1024     1.0  0.37140  0.93175  0.88618  1.0000
  H   H1025     1.0  0.38130  0.89440  0.89135  1.0000
  H   H1026     1.0  0.35002  0.84972  0.86884  1.0000
  C   C1279     1.0  0.04787  0.77389  0.60348  1.0000
  C   C1280     1.0  0.06821  0.77704  0.62429  1.0000
  C   C1281     1.0  0.07896  0.79832  0.64585  1.0000
  C   C1282     1.0  0.06884  0.81609  0.64737  1.0000
  C   C1283     1.0  0.04929  0.81354  0.62539  1.0000
  P   P42       1.0  0.08400  0.84449  0.67374  1.0000
  C   C1284     1.0  0.09527  0.83694  0.70990  1.0000
  C   C1285     1.0  0.11169  0.87046  0.65188  1.0000
  C   C1286     1.0  0.13646  0.87088  0.65029  1.0000
  C   C1287     1.0  0.15730  0.88977  0.63135  1.0000
  C   C1288     1.0  0.15331  0.90791  0.61334  1.0000
  C   C1289     1.0  0.12857  0.90734  0.61458  1.0000
  C   C1290     1.0  0.10776  0.88855  0.63358  1.0000
  C   C1291     1.0  0.11878  0.85670  0.72495  1.0000
  H   H1027     1.0  0.31394  0.90782  0.64030  1.0000
  C   C1292     1.0  0.11031  0.82663  0.76877  1.0000
  C   C1293     1.0  0.08666  0.80709  0.75422  1.0000
  C   C1294     1.0  0.07904  0.81223  0.72495  1.0000
  C   C1295     1.0  0.06016  0.85434  0.68670  1.0000
  C   C1296     1.0  0.03267  0.83503  0.69000  1.0000
  C   C1297     1.0  0.01456  0.84239  0.70210  1.0000
  C   C1298     1.0  0.02382  0.86885  0.71170  1.0000
  C   C1299     1.0  0.05126  0.88805  0.70917  1.0000
  C   C1300     1.0  0.06941  0.88081  0.69685  1.0000
  H   H1028     1.0  0.07565  0.76296  0.62373  1.0000
  H   H1029     1.0  0.09523  0.80093  0.66128  1.0000
  H   H1030     1.0  0.04238  0.82804  0.62477  1.0000
  H   H1031     1.0  0.13940  0.85613  0.66303  1.0000
  H   H1032     1.0  0.17612  0.88957  0.62975  1.0000
  H   H1033     1.0  0.16895  0.92179  0.59754  1.0000
  H   H1034     1.0  0.12511  0.92090  0.60012  1.0000
  H   H1035     1.0  0.08836  0.88767  0.63324  1.0000
  H   H1036     1.0  0.13120  0.87623  0.71438  1.0000
  C   C1301     1.0  0.32700  0.77747  0.80897  1.0000
  S   S184      1.0  0.33486  0.98165  0.75811  1.0000
  H   H1037     1.0  0.07427  0.78788  0.76563  1.0000
  H   H1038     1.0  0.06040  0.79701  0.71423  1.0000
  H   H1039     1.0  0.02523  0.81421  0.68372  1.0000
  C   C1302     1.0  0.29813  0.93716  0.58048  1.0000
  H   H1040     1.0  0.05841  0.90850  0.71686  1.0000
  H   H1041     1.0  0.09066  0.89579  0.69556  1.0000
  H   H1042     1.0  0.32238  0.76953  0.63166  1.0000
  C   C1303     1.0  0.26255  0.79376  0.91593  1.0000
  C   C1304     1.0  0.45642  0.88664  0.48724  1.0000
  H   H1043     1.0  0.05871  0.84373  0.76904  1.0000
  H   H1044     1.0  0.21648  0.74662  0.86636  1.0000
  H   H1045     1.0  0.19083  0.93271  0.70713  1.0000
  H   H1046     1.0  0.46825  0.87951  0.53280  1.0000
  C   C1305     1.0  0.29062  0.89312  0.56521  1.0000
  H   H1047     1.0  0.16604  0.90627  0.92262  1.0000
  H   H1048     1.0  0.23606  0.93015  0.92671  1.0000
  H   H1049     1.0  0.17056  0.77391  0.70476  1.0000
  C   C1306     1.0  0.12796  0.89658  0.85709  1.0000
  H   H1050     1.0  0.47769  0.91900  0.63481  1.0000
  C   C1307     1.0  0.23761  0.83382  0.49326  1.0000
  H   H1051     1.0  0.32023  0.75621  0.81124  1.0000
  H   H1052     1.0  0.00725  0.91826  0.54921  1.0000
  C   C1308     1.0  0.46960  0.75207  0.61133  1.0000
  H   H1053     1.0  0.13316  0.77493  0.61708  1.0000
  C   C1309     1.0  0.19851  0.77474  0.73926  1.0000
  C   C1310     1.0  0.24703  0.97102  0.91415  1.0000
  C   C1311     1.0  0.23727  0.94358  0.90809  1.0000
  C   C1312     1.0  0.22920  0.93326  0.87781  1.0000
  S   S185      1.0  0.14535  0.98199  0.96554  1.0000
  C   C1313     1.0  0.48228  0.76591  0.75444  1.0000
  C   C1314     1.0  0.17246  0.93207  0.78315  1.0000
  H   H1054     1.0  0.24398  0.98580  0.76109  1.0000
  C   C1315     1.0  0.10577  0.79603  0.54239  1.0000
  C   C1316     1.0  0.29864  0.75858  0.73071  1.0000
  H   H1055     1.0  0.08534  0.81840  0.55061  1.0000
  C   C1317     1.0  0.01665  0.92961  0.52807  1.0000
  H   H1056     1.0  0.21209  0.93659  0.63038  1.0000
  C   C1318     1.0  0.23314  0.95189  0.62847  1.0000
  S   S186      1.0  0.47761  0.80958  0.73959  1.0000
  H   H1057     1.0  0.14918  0.93541  0.69841  1.0000
  H   H1058     1.0  0.37947  0.77992  0.48715  1.0000
  C   C1319     1.0  0.24377  0.82615  0.52180  1.0000
  Fe  Fe92      1.0  0.12310  0.89757  0.51911  1.0000
  H   H1059     1.0  0.02135  0.76972  0.81795  1.0000
  H   H1060     1.0  0.17926  0.93077  0.80646  1.0000
  C   C1320     1.0  0.12897  0.79436  0.54833  1.0000
  H   H1061     1.0  0.43654  0.86896  0.48845  1.0000
  H   H1062     1.0  0.22186  0.91215  0.87307  1.0000
  C   C1321     1.0  0.12975  0.96371  0.81901  1.0000
  C   C1322     1.0  0.03144  0.79326  0.50159  1.0000
  C   C1323     1.0  0.13989  0.92330  0.84647  1.0000
  C   C1324     1.0  0.21576  0.83777  0.66179  1.0000
  S   S187      1.0  0.08241  0.86867  0.53997  1.0000
  C   C1325     1.0  0.24913  0.95045  0.60457  1.0000
  H   H1063     1.0  0.47176  0.76525  0.77577  1.0000
  C   C1326     1.0  0.36695  0.92007  0.56395  1.0000
  C   C1327     1.0  0.35507  0.91650  0.53438  1.0000
  C   C1328     1.0  0.35037  0.89444  0.51601  1.0000
  C   C1329     1.0  0.35725  0.87572  0.52719  1.0000
  C   C1330     1.0  0.36891  0.87896  0.55705  1.0000
  C   C1331     1.0  0.37390  0.90144  0.57524  1.0000
  P   P43       1.0  0.37671  0.85445  0.57311  1.0000
  C   C1332     1.0  0.35052  0.83269  0.60035  1.0000
  C   C1333     1.0  0.37852  0.83283  0.54342  1.0000
  C   C1334     1.0  0.40241  0.83193  0.53879  1.0000
  C   C1335     1.0  0.05714  0.96279  0.50146  1.0000
  C   C1336     1.0  0.09368  0.90603  0.80274  1.0000
  C   C1337     1.0  0.45412  0.74473  0.53267  1.0000
  H   H1064     1.0  0.11338  0.95246  0.86607  1.0000
  C   C1338     1.0  0.34566  0.80649  0.60589  1.0000
  C   C1339     1.0  0.32554  0.78948  0.62693  1.0000
  C   C1340     1.0  0.33501  0.84163  0.61640  1.0000
  C   C1341     1.0  0.40889  0.87403  0.59272  1.0000
  C   C1342     1.0  0.41109  0.87255  0.62536  1.0000
  C   C1343     1.0  0.43575  0.88894  0.64048  1.0000
  C   C1344     1.0  0.45851  0.90660  0.62307  1.0000
  C   C1345     1.0  0.45644  0.90841  0.59057  1.0000
  C   C1346     1.0  0.43161  0.89253  0.57550  1.0000
  H   H1065     1.0  0.37074  0.93728  0.57813  1.0000
  H   H1066     1.0  0.34954  0.93085  0.52568  1.0000
  H   H1067     1.0  0.22468  0.77156  0.50214  1.0000
  H   H1068     1.0  0.35339  0.85897  0.51227  1.0000
  H   H1069     1.0  0.38299  0.90451  0.59834  1.0000
  H   H1070     1.0  0.42067  0.84505  0.55162  1.0000
  C   C1347     1.0  0.14880  0.93346  0.77852  1.0000
  C   C1348     1.0  0.04522  0.88906  0.80371  1.0000
  C   C1349     1.0  0.25947  0.96328  0.52633  1.0000
  C   C1350     1.0  0.20538  0.89522  0.50893  1.0000
  H   H1071     1.0  0.35786  0.79934  0.59457  1.0000
  C   C1351     1.0  0.48923  0.74882  0.59521  1.0000
  H   H1072     1.0  0.33858  0.86182  0.61318  1.0000
  H   H1073     1.0  0.39382  0.85907  0.63928  1.0000
  H   H1074     1.0  0.43715  0.88799  0.66581  1.0000
  H   H1075     1.0  0.24095  0.89611  0.48989  1.0000
  H   H1076     1.0  0.47407  0.92226  0.57711  1.0000
  H   H1077     1.0  0.43014  0.89456  0.55040  1.0000
  C   C1352     1.0  0.27737  0.76413  0.73263  1.0000
  C   C1353     1.0  0.21600  0.76528  0.74755  1.0000
  H   H1078     1.0  0.11634  0.82241  0.79124  1.0000
  C   C1354     1.0  0.48048  0.83975  0.55276  1.0000
  C   C1355     1.0  0.32501  0.77918  0.72485  1.0000
  C   C1356     1.0  0.33044  0.80547  0.72056  1.0000
  C   C1357     1.0  0.30950  0.81128  0.72217  1.0000
  C   C1358     1.0  0.28305  0.79076  0.72830  1.0000
  C   C1359     1.0  0.23085  0.95021  0.85336  1.0000
  H   H1079     1.0  0.12815  0.86989  0.89264  1.0000
  H   H1080     1.0  0.34133  0.77480  0.72362  1.0000
  H   H1081     1.0  0.35092  0.82127  0.71587  1.0000
  H   H1082     1.0  0.31387  0.83172  0.71836  1.0000
  H   H1083     1.0  0.26726  0.79587  0.72910  1.0000
  C   C1360     1.0  0.20103  0.81836  0.54344  1.0000
  C   C1361     1.0  0.19524  0.82659  0.51480  1.0000
  C   C1362     1.0  0.13747  0.89051  0.88443  1.0000
  H   H1084     1.0  0.13043  0.77769  0.53871  1.0000
  H   H1085     1.0  0.22700  0.77175  0.76951  1.0000
  C   C1363     1.0  0.22570  0.81871  0.54692  1.0000
  C   C1364     1.0  0.23354  0.86502  0.65567  1.0000
  H   H1086     1.0  0.16330  0.85038  0.59374  1.0000
  Fe  Fe93      1.0  0.06580  0.86886  0.49216  1.0000
  Fe  Fe94      1.0  0.11332  0.76443  0.71344  1.0000
  C   C1365     1.0  0.23936  0.77038  0.90602  1.0000
  H   H1087     1.0  0.23095  0.81323  0.56911  1.0000
  H   H1088     1.0  0.22478  0.94214  0.82987  1.0000
  C   C1366     1.0  0.47422  0.89262  0.51252  1.0000
  H   H1089     1.0  0.29990  0.87182  0.60024  1.0000
  H   H1090     1.0  0.26625  0.79816  0.94077  1.0000
  H   H1091     1.0  0.24759  0.89668  0.62132  1.0000
  H   H1092     1.0  0.29484  0.78544  0.65925  1.0000
  C   C1367     1.0  0.35489  0.81421  0.52748  1.0000
  C   C1368     1.0  0.00548  0.76277  0.74033  1.0000
  C   C1369     1.0  0.30130  0.96751  0.50712  1.0000
  H   H1093     1.0  0.21738  0.86724  0.57928  1.0000
  C   C1370     1.0  0.15884  0.91101  0.90135  1.0000
  H   H1094     1.0  0.21179  0.89649  0.53306  1.0000
  H   H1095     1.0  0.21501  0.82967  0.68501  1.0000
  H   H1096     1.0  0.24687  0.87799  0.67405  1.0000
  H   H1097     1.0  0.01765  0.87344  0.55832  1.0000
  H   H1098     1.0  0.28471  0.87755  0.54761  1.0000
  C   C1371     1.0  0.18723  0.74910  0.69104  1.0000
  C   C1372     1.0  0.24920  0.98806  0.88927  1.0000
  C   C1373     1.0  0.01083  0.87436  0.58170  1.0000
  Fe  Fe95      1.0  0.29553  0.98112  0.75064  1.0000
  H   H1099     1.0  0.05602  0.95092  0.54972  1.0000
  C   C1374     1.0  0.16161  0.94371  0.86339  1.0000
  C   C1375     1.0  0.48729  0.78540  0.73169  1.0000
  C   C1376     1.0  0.23384  0.87557  0.62599  1.0000
  C   C1377     1.0  0.03865  0.79233  0.60376  1.0000
  H   H1100     1.0  0.00742  0.75349  0.71933  1.0000
  H   H1101     1.0  0.33599  0.81394  0.53126  1.0000
  C   C1378     1.0  0.44188  0.76439  0.48980  1.0000
  C   C1379     1.0  0.10337  0.81716  0.55500  1.0000
  H   H1102     1.0  0.29135  0.77370  0.82974  1.0000
  H   H1103     1.0  0.05109  0.80850  0.50993  1.0000
  S   S188      1.0  0.16118  0.89647  0.53258  1.0000
  H   H1104     1.0  0.12224  0.93553  0.74369  1.0000
  C   C1380     1.0  0.14747  0.83510  0.57940  1.0000
  H   H1105     1.0  0.17701  0.82772  0.51173  1.0000
  H   H1106     1.0  0.03949  0.75734  0.58687  1.0000
  C   C1381     1.0  0.14014  0.98450  0.79669  1.0000
  H   H1107     1.0  0.00971  0.87436  0.72133  1.0000
  C   C1382     1.0  0.99591  0.74601  0.49854  1.0000
  C   C1383     1.0  0.17915  0.93304  0.72694  1.0000
  C   C1384     1.0  0.18368  0.75865  0.48820  1.0000
  C   C1385     1.0  0.17084  0.93760  0.89083  1.0000
  C   C1386     1.0  0.29929  0.88995  0.59479  1.0000
  C   C1387     1.0  0.30723  0.91022  0.61730  1.0000
  C   C1388     1.0  0.31490  0.82457  0.63744  1.0000
  C   C1389     1.0  0.19878  0.83141  0.60827  1.0000
  H   H1108     1.0  0.19570  0.78804  0.75484  1.0000
  C   C1390     1.0  0.16386  0.77462  0.58744  1.0000
  C   C1391     1.0  0.40276  0.81305  0.51842  1.0000
  C   C1392     1.0  0.37364  0.75238  0.57461  1.0000
  H   H1109     1.0  0.42905  0.76897  0.77205  1.0000
  H   H1110     1.0  0.20559  0.93046  0.76125  1.0000
  H   H1111     1.0  0.35209  0.97404  0.57897  1.0000
  H   H1112     1.0  0.14760  0.98219  0.77430  1.0000
  P   P44       1.0  0.17849  0.80967  0.57664  1.0000
  H   H1113     1.0  0.11129  0.88041  0.84452  1.0000
  H   H1114     1.0  0.02338  0.79030  0.58703  1.0000
  H   H1115     1.0  0.24020  0.93370  0.58828  1.0000
  C   C1393     1.0  0.31013  0.79850  0.64262  1.0000
  H   H1116     1.0  0.03295  0.76066  0.52487  1.0000
  C   C1394     1.0  0.00056  0.78733  0.79443  1.0000
  H   H1117     1.0  0.38668  0.77404  0.57296  1.0000
  C   C1395     1.0  0.14054  0.93469  0.74777  1.0000
  C   C1396     1.0  0.28988  0.91654  0.55808  1.0000
  H   H1118     1.0  0.18731  0.95362  0.90384  1.0000
  H   H1119     1.0  0.14489  0.86652  0.76529  1.0000
  H   H1120     1.0  0.19113  0.76677  0.56010  1.0000
  C   C1397     1.0  0.30657  0.93371  0.61026  1.0000
  C   C1398     1.0  0.14126  0.76295  0.60736  1.0000
  H   H1121     1.0  0.42126  0.81233  0.51553  1.0000
  C   C1399     1.0  0.12422  0.83672  0.57335  1.0000
  C   C1400     1.0  0.20411  0.75486  0.50098  1.0000
  C   C1401     1.0  0.12640  0.85143  0.75411  1.0000
  C   C1402     1.0  0.15571  0.93454  0.72209  1.0000
  S   S189      1.0  0.07079  0.74993  0.69751  1.0000
  C   C1403     1.0  0.06241  0.86209  0.78066  1.0000
  H   H1122     1.0  0.17136  0.96445  0.85551  1.0000
  C   C1404     1.0  0.01591  0.75953  0.76891  1.0000
  H   H1123     1.0  0.99871  0.79667  0.81561  1.0000
  H   H1124     1.0  0.48311  0.86710  0.62424  1.0000
  H   H1125     1.0  0.08952  0.78089  0.52819  1.0000
  H   H1126     1.0  0.02820  0.89155  0.80994  1.0000
  C   C1405     1.0  0.07163  0.90930  0.81070  1.0000
  C   C1406     1.0  0.21348  0.83417  0.48982  1.0000
  H   H1127     1.0  0.07460  0.92733  0.82228  1.0000
  H   H1128     1.0  0.33703  0.78104  0.49494  1.0000
  C   C1407     1.0  0.46752  0.78738  0.49116  1.0000
  H   H1129     1.0  0.46246  0.76500  0.60199  1.0000
  C   C1408     1.0  0.22193  0.89505  0.48453  1.0000
  H   H1130     1.0  0.31280  0.94921  0.62804  1.0000
  S   S190      1.0  0.05984  0.90393  0.50209  1.0000
  C   C1409     1.0  0.18088  0.89439  0.50205  1.0000
  C   C1410     1.0  0.02112  0.76614  0.50996  1.0000
  C   C1411     1.0  0.23461  0.95742  0.98029  1.0000
  C   C1412     1.0  0.00138  0.92561  0.50062  1.0000
  C   C1413     1.0  0.27651  0.97035  0.60195  1.0000
  C   C1414     1.0  0.49101  0.74733  0.75002  1.0000
  H   H1131     1.0  0.33893  0.97721  0.93699  1.0000
  H   H1132     1.0  0.32124  0.97023  0.51124  1.0000
  H   H1133     1.0  0.07875  0.97671  0.50151  1.0000
  C   C1415     1.0  0.47988  0.76783  0.53424  1.0000
  C   C1416     1.0  0.23453  0.76470  0.87402  1.0000
  H   H1134     1.0  0.29339  0.96829  0.92329  1.0000
  C   C1417     1.0  0.21929  0.74767  0.72755  1.0000
  P   P45       1.0  0.25672  0.98388  0.95362  1.0000
  H   H1135     1.0  0.34132  0.89174  0.49304  1.0000
  C   C1418     1.0  0.28514  0.96652  0.53243  1.0000
  H   H1136     1.0  0.24661  0.96295  0.54500  1.0000
  P   P46       1.0  0.29738  0.96764  0.57191  1.0000
  S   S191      1.0  0.34557  0.98412  0.84957  1.0000
  C   C1419     1.0  0.32938  0.98573  0.95125  1.0000
  H   H1137     1.0  0.24296  0.99069  0.83965  1.0000
  C   C1420     1.0  0.17391  0.75852  0.57555  1.0000
  C   C1421     1.0  0.41552  0.74859  0.78002  1.0000
  C   C1422     1.0  0.18426  0.76674  0.71098  1.0000
  H   H1138     1.0  0.40638  0.76120  0.82359  1.0000
  C   C1423     1.0  0.48650  0.78907  0.51317  1.0000
  C   C1424     1.0  0.24442  0.97286  0.65030  1.0000
  C   C1425     1.0  0.28786  0.99082  0.62470  1.0000
  H   H1139     1.0  0.23222  0.97383  0.66916  1.0000
  C   C1426     1.0  0.20659  0.94333  0.97480  1.0000
  Fe  Fe96      1.0  0.10230  0.93039  0.48465  1.0000
  C   C1427     1.0  0.12294  0.99270  0.85500  1.0000
  C   C1428     1.0  0.27177  0.99226  0.64840  1.0000
  H   H1140     1.0  0.22508  0.75669  0.92316  1.0000
  H   H1141     1.0  0.19069  0.97984  0.51151  1.0000
  C   C1429     1.0  0.35398  0.99371  0.57728  1.0000
  H   H1142     1.0  0.37809  0.74523  0.52602  1.0000
  Fe  Fe97      1.0  0.86308  0.10797  0.05831  1.0000
  S   S192      1.0  0.86699  0.08921  0.10272  1.0000
  S   S193      1.0  0.84914  0.13859  0.05465  1.0000
  H   H1143     1.0  0.85226  0.22228  0.21212  1.0000
  S   S194      1.0  0.88386  0.05289  0.05818  1.0000
  C   C1430     1.0  0.62222  0.99716  0.40751  1.0000
  Fe  Fe98      1.0  0.84568  0.05018  0.07644  1.0000
  S   S195      1.0  0.81229  0.01082  0.09572  1.0000
  Fe  Fe99      1.0  0.90507  0.09392  0.08078  1.0000
  S   S196      1.0  0.94036  0.10808  0.11482  1.0000
  S   S197      1.0  0.83847  0.06833  0.03363  1.0000
  S   S198      1.0  0.90243  0.11532  0.03780  1.0000
  S   S199      1.0  0.70205  0.00784  0.12456  1.0000
  C   C1431     1.0  0.70021  0.00673  0.39073  1.0000
  Fe  Fe100     1.0  0.59669  0.19120  0.10834  1.0000
  S   S200      1.0  0.59920  0.21586  0.15046  1.0000
  S   S201      1.0  0.55715  0.15511  0.09161  1.0000
  Fe  Fe101     1.0  0.65788  0.22339  0.09807  1.0000
  C   C1432     1.0  0.51051  0.18018  0.04599  1.0000
  H   H1144     1.0  0.50369  0.23555  0.05003  1.0000
  Fe  Fe102     1.0  0.63589  0.21340  0.16452  1.0000
  S   S202      1.0  0.64559  0.21316  0.21610  1.0000
  C   C1433     1.0  0.77478  0.09118  0.43259  1.0000
  S   S203      1.0  0.63120  0.18550  0.12505  1.0000
  C   C1434     1.0  0.83098  0.20956  0.21750  1.0000
  Fe  Fe103     1.0  0.71379  0.18198  0.38942  1.0000
  S   S204      1.0  0.73881  0.18740  0.34654  1.0000
  S   S205      1.0  0.70736  0.21496  0.40925  1.0000
  Fe  Fe104     1.0  0.69480  0.12187  0.39476  1.0000
  S   S206      1.0  0.71809  0.12271  0.35197  1.0000
  S   S207      1.0  0.67441  0.08746  0.42984  1.0000
  Fe  Fe105     1.0  0.75163  0.16115  0.37193  1.0000
  S   S208      1.0  0.79473  0.16948  0.36890  1.0000
  Fe  Fe106     1.0  0.70322  0.14875  0.33004  1.0000
  S   S209      1.0  0.69054  0.14235  0.27861  1.0000
  S   S210      1.0  0.72958  0.15906  0.41616  1.0000
  S   S211      1.0  0.67696  0.14474  0.37139  1.0000
  Fe  Fe107     1.0  0.95016  0.18218  0.46256  1.0000
  H   H1145     1.0  0.83219  0.99611  0.34418  1.0000
  H   H1146     1.0  0.85253  0.10383  0.42270  1.0000
  C   C1435     1.0  0.81954  0.07461  0.39434  1.0000
  H   H1147     1.0  0.79754  0.10976  0.39066  1.0000
  S   S212      1.0  0.89975  0.08544  0.42508  1.0000
  C   C1436     1.0  0.72193  0.21281  0.19764  1.0000
  H   H1148     1.0  0.66557  0.19895  0.35950  1.0000
  S   S213      1.0  0.91042  0.15544  0.43879  1.0000
  C   C1437     1.0  0.58617  0.13310  0.00029  1.0000
  C   C1438     1.0  0.86017  0.00362  0.42116  1.0000
  C   C1439     1.0  0.63108  0.01623  0.38312  1.0000
  C   C1440     1.0  0.64741  0.04394  0.38946  1.0000
  C   C1441     1.0  0.65475  0.05282  0.42036  1.0000
  C   C1442     1.0  0.64627  0.03371  0.44469  1.0000
  C   C1443     1.0  0.74900  0.07735  0.44625  1.0000
  C   C1444     1.0  0.77758  0.09799  0.40074  1.0000
  H   H1149     1.0  0.65383  0.05843  0.37054  1.0000
  C   C1445     1.0  0.81030  0.16537  0.40269  1.0000
  C   C1446     1.0  0.83611  0.16828  0.40002  1.0000
  C   C1447     1.0  0.84924  0.16536  0.42644  1.0000
  C   C1448     1.0  0.83683  0.15987  0.45585  1.0000
  C   C1449     1.0  0.81081  0.15651  0.45845  1.0000
  C   C1450     1.0  0.79755  0.15918  0.43197  1.0000
  H   H1150     1.0  0.84607  0.17294  0.37744  1.0000
  H   H1151     1.0  0.86926  0.16810  0.42411  1.0000
  C   C1451     1.0  0.82178  0.02538  0.19216  1.0000
  H   H1152     1.0  0.77757  0.15657  0.43430  1.0000
  C   C1452     1.0  0.65744  0.19268  0.23284  1.0000
  C   C1453     1.0  0.65679  0.17119  0.21658  1.0000
  C   C1454     1.0  0.66708  0.15592  0.23076  1.0000
  C   C1455     1.0  0.67769  0.16178  0.26141  1.0000
  C   C1456     1.0  0.67809  0.18310  0.27768  1.0000
  C   C1457     1.0  0.66799  0.19842  0.26342  1.0000
  H   H1153     1.0  0.64854  0.16644  0.19307  1.0000
  H   H1154     1.0  0.66676  0.13948  0.21803  1.0000
  H   H1155     1.0  0.68619  0.18774  0.30127  1.0000
  H   H1156     1.0  0.66833  0.21480  0.27615  1.0000
  C   C1458     1.0  0.72444  0.15087  0.00147  1.0000
  H   H1157     1.0  0.80137  0.02802  0.46692  1.0000
  C   C1459     1.0  0.88204  0.05109  0.43641  1.0000
  C   C1460     1.0  0.87328  0.03112  0.41310  1.0000
  H   H1158     1.0  0.94562  0.06627  0.16085  1.0000
  C   C1461     1.0  0.63019  0.00600  0.43830  1.0000
  H   H1159     1.0  0.66828  0.02217  0.02067  1.0000
  H   H1160     1.0  0.87702  0.03696  0.38869  1.0000
  C   C1462     1.0  0.97475  0.12780  0.10425  1.0000
  C   C1463     1.0  0.83482  0.08387  0.42184  1.0000
  H   H1161     1.0  0.92598  0.05247  0.32297  1.0000
  C   C1464     1.0  0.53257  0.18022  0.06102  1.0000
  C   C1465     1.0  0.52953  0.15648  0.07407  1.0000
  C   C1466     1.0  0.61918  0.04943  0.20341  1.0000
  C   C1467     1.0  0.81515  0.01517  0.24761  1.0000
  H   H1162     1.0  0.62685  0.01991  0.13823  1.0000
  H   H1163     1.0  0.55207  0.19845  0.06188  1.0000
  H   H1164     1.0  0.93425  0.05442  0.26586  1.0000
  C   C1468     1.0  0.97590  0.10013  0.22827  1.0000
  C   C1469     1.0  0.73248  0.00856  0.11566  1.0000
  C   C1470     1.0  0.75689  0.03320  0.11580  1.0000
  C   C1471     1.0  0.78144  0.03418  0.10895  1.0000
  C   C1472     1.0  0.78178  0.01037  0.10325  1.0000
  H   H1165     1.0  0.78609  0.04143  0.37121  1.0000
  H   H1166     1.0  0.68504  0.22520  0.47420  1.0000
  H   H1167     1.0  0.75683  0.05161  0.12091  1.0000
  H   H1168     1.0  0.80014  0.05327  0.10869  1.0000
  H   H1169     1.0  0.73474  0.03874  0.05392  1.0000
  C   C1473     1.0  0.85978  0.16492  0.08196  1.0000
  C   C1474     1.0  0.85709  0.18727  0.07433  1.0000
  C   C1475     1.0  0.86397  0.20799  0.09625  1.0000
  C   C1476     1.0  0.87341  0.20627  0.12595  1.0000
  C   C1477     1.0  0.87629  0.18404  0.13349  1.0000
  C   C1478     1.0  0.86969  0.16346  0.11145  1.0000
  H   H1170     1.0  0.84953  0.18847  0.05145  1.0000
  H   H1171     1.0  0.78259  0.07485  0.06147  1.0000
  H   H1172     1.0  0.88335  0.18266  0.15660  1.0000
  H   H1173     1.0  0.87170  0.14624  0.11742  1.0000
  H   H1174     1.0  0.79284  0.09774  0.44653  1.0000
  H   H1175     1.0  0.73234  0.24437  0.02048  1.0000
  C   C1479     1.0  0.61873  0.03218  0.04410  1.0000
  C   C1480     1.0  0.61326  0.03519  0.07549  1.0000
  H   H1176     1.0  0.71132  0.07242  0.38179  1.0000
  P   P47       1.0  0.63638  0.06511  0.09720  1.0000
  C   C1481     1.0  0.63013  0.05926  0.13895  1.0000
  C   C1482     1.0  0.67078  0.07352  0.08843  1.0000
  C   C1483     1.0  0.68488  0.06521  0.10832  1.0000
  C   C1484     1.0  0.71170  0.07252  0.10193  1.0000
  C   C1485     1.0  0.72460  0.08782  0.07541  1.0000
  C   C1486     1.0  0.71057  0.09557  0.05502  1.0000
  C   C1487     1.0  0.68379  0.08850  0.06141  1.0000
  C   C1488     1.0  0.62872  0.07845  0.15815  1.0000
  H   H1177     1.0  0.72827  0.11049  0.46420  1.0000
  C   C1489     1.0  0.62610  0.03517  0.15249  1.0000
  C   C1490     1.0  0.63098  0.09236  0.08555  1.0000
  C   C1491     1.0  0.60514  0.08699  0.07624  1.0000
  C   C1492     1.0  0.60055  0.10815  0.06898  1.0000
  C   C1493     1.0  0.62171  0.13476  0.07080  1.0000
  C   C1494     1.0  0.64745  0.14030  0.08015  1.0000
  C   C1495     1.0  0.65209  0.11922  0.08776  1.0000
  C   C1496     1.0  0.62058  0.03027  0.18453  1.0000
  H   H1178     1.0  0.63683  0.04739  0.03262  1.0000
  C   C1497     1.0  0.86297  0.99952  0.16383  1.0000
  H   H1179     1.0  0.67539  0.05288  0.12870  1.0000
  H   H1180     1.0  0.72228  0.06586  0.11739  1.0000
  H   H1181     1.0  0.74531  0.09325  0.07041  1.0000
  H   H1182     1.0  0.72033  0.10661  0.03393  1.0000
  H   H1183     1.0  0.67325  0.09461  0.04514  1.0000
  H   H1184     1.0  0.63171  0.09722  0.14860  1.0000
  H   H1185     1.0  0.97197  0.10773  0.24967  1.0000
  H   H1186     1.0  0.96775  0.12817  0.05467  1.0000
  H   H1187     1.0  0.58838  0.06651  0.07519  1.0000
  H   H1188     1.0  0.58044  0.10400  0.06253  1.0000
  H   H1189     1.0  0.61798  0.15111  0.06558  1.0000
  H   H1190     1.0  0.66364  0.16102  0.08200  1.0000
  H   H1191     1.0  0.67196  0.12392  0.09587  1.0000
  S   S214      1.0  0.98523  0.21789  0.43899  1.0000
  C   C1498     1.0  0.72653  0.01177  0.39645  1.0000
  Fe  Fe108     1.0  0.87792  0.07372  0.01674  1.0000
  C   C1499     1.0  0.96103  0.07671  0.17855  1.0000
  H   H1192     1.0  0.49838  0.21386  0.10139  1.0000
  H   H1193     1.0  0.81885  0.20637  0.16939  1.0000
  H   H1194     1.0  0.84854  0.01249  0.99294  1.0000
  H   H1195     1.0  0.81072  0.09861  0.01603  1.0000
  C   C1500     1.0  0.63707  0.17884  0.99252  1.0000
  C   C1501     1.0  0.80679  0.99793  0.18521  1.0000
  C   C1502     1.0  0.72620  0.07032  0.42745  1.0000
  C   C1503     1.0  0.91881  0.06272  0.30767  1.0000
  C   C1504     1.0  0.87316  0.02388  0.14776  1.0000
  C   C1505     1.0  0.89026  0.04811  0.16307  1.0000
  C   C1506     1.0  0.89702  0.04825  0.19483  1.0000
  C   C1507     1.0  0.88657  0.02361  0.21086  1.0000
  P   P48       1.0  0.92123  0.07946  0.21366  1.0000
  C   C1508     1.0  0.91903  0.10739  0.19716  1.0000
  C   C1509     1.0  0.94250  0.13252  0.19291  1.0000
  C   C1510     1.0  0.94087  0.15388  0.17940  1.0000
  C   C1511     1.0  0.91585  0.15042  0.17021  1.0000
  C   C1512     1.0  0.89232  0.12569  0.17498  1.0000
  C   C1513     1.0  0.89387  0.10423  0.18838  1.0000
  C   C1514     1.0  0.91450  0.07743  0.25541  1.0000
  C   C1515     1.0  0.92348  0.06391  0.27532  1.0000
  C   C1516     1.0  0.73644  0.04252  0.00354  1.0000
  C   C1517     1.0  0.90519  0.07502  0.32046  1.0000
  C   C1518     1.0  0.89600  0.08831  0.30083  1.0000
  C   C1519     1.0  0.90057  0.08950  0.26844  1.0000
  H   H1196     1.0  0.80404  0.23289  0.08039  1.0000
  C   C1520     1.0  0.66354  0.21675  0.47813  1.0000
  H   H1197     1.0  0.86797  0.02399  0.12326  1.0000
  H   H1198     1.0  0.89850  0.06666  0.14985  1.0000
  H   H1199     1.0  0.95910  0.17298  0.17548  1.0000
  C   C1521     1.0  0.60679  0.13101  0.98520  1.0000
  H   H1200     1.0  0.91479  0.16682  0.15904  1.0000
  H   H1201     1.0  0.87294  0.12300  0.16762  1.0000
  H   H1202     1.0  0.87554  0.08508  0.19134  1.0000
  H   H1203     1.0  0.61712  0.01144  0.19462  1.0000
  H   H1204     1.0  0.81815  0.02188  0.27181  1.0000
  H   H1205     1.0  0.56640  0.11541  0.00329  1.0000
  H   H1206     1.0  0.88563  0.09800  0.31088  1.0000
  H   H1207     1.0  0.89346  0.10014  0.25384  1.0000
  H   H1208     1.0  0.80098  0.15216  0.48108  1.0000
  H   H1209     1.0  0.90199  0.07447  0.34565  1.0000
  H   H1210     1.0  0.98843  0.13148  0.15212  1.0000
  C   C1522     1.0  0.52399  0.18044  0.18421  1.0000
  H   H1211     1.0  0.62227  0.08840  0.20498  1.0000
  C   C1523     1.0  0.72600  0.24432  0.07023  1.0000
  H   H1212     1.0  0.51195  0.19011  0.22783  1.0000
  H   H1213     1.0  0.67820  0.17987  0.02297  1.0000
  H   H1214     1.0  0.88472  0.21897  0.41224  1.0000
  H   H1215     1.0  0.78567  0.01640  0.03062  1.0000
  H   H1216     1.0  0.65662  0.19684  0.98956  1.0000
  C   C1524     1.0  0.64549  0.19422  0.46067  1.0000
  C   C1525     1.0  0.82617  0.03401  0.22335  1.0000
  H   H1217     1.0  0.96218  0.13563  0.19931  1.0000
  C   C1526     1.0  0.98282  0.13486  0.07309  1.0000
  H   H1218     1.0  0.83770  0.20869  0.26717  1.0000
  C   C1527     1.0  0.51780  0.17449  0.15248  1.0000
  C   C1528     1.0  0.79707  0.04863  0.39310  1.0000
  C   C1529     1.0  0.82781  0.06706  0.44800  1.0000
  C   C1530     1.0  0.78975  0.03160  0.41942  1.0000
  C   C1531     1.0  0.83198  0.24035  0.43336  1.0000
  H   H1219     1.0  0.95051  0.23616  0.46688  1.0000
  H   H1220     1.0  0.71534  0.01930  0.45999  1.0000
  H   H1221     1.0  0.75713  0.09739  0.35797  1.0000
  C   C1532     1.0  0.82294  0.21483  0.48154  1.0000
  C   C1533     1.0  0.79001  0.08331  0.01213  1.0000
  C   C1534     1.0  0.95497  0.08525  0.20670  1.0000
  H   H1222     1.0  0.96373  0.24133  0.37828  1.0000
  C   C1535     1.0  0.84705  0.23945  0.35784  1.0000
  H   H1223     1.0  0.82993  0.03986  0.17313  1.0000
  H   H1224     1.0  0.83779  0.05528  0.22873  1.0000
  H   H1225     1.0  0.55677  0.23191  0.13937  1.0000
  C   C1536     1.0  0.62328  0.07351  0.19024  1.0000
  H   H1226     1.0  0.60371  0.16616  0.45022  1.0000
  H   H1227     1.0  0.82543  0.08749  0.37385  1.0000
  H   H1228     1.0  0.71062  0.23477  0.34412  1.0000
  C   C1537     1.0  0.69334  0.23674  0.33778  1.0000
  H   H1229     1.0  0.65323  0.18531  0.44417  1.0000
  H   H1230     1.0  0.69484  0.06761  0.99667  1.0000
  C   C1538     1.0  0.72909  0.07717  0.39569  1.0000
  C   C1539     1.0  0.59108  0.15789  0.01190  1.0000
  H   H1231     1.0  0.62042  0.19978  0.01748  1.0000
  H   H1232     1.0  0.57521  0.15934  0.02417  1.0000
  C   C1540     1.0  0.72891  0.16569  0.02903  1.0000
  C   C1541     1.0  0.64476  0.21798  0.33918  1.0000
  C   C1542     1.0  0.66765  0.21627  0.34677  1.0000
  C   C1543     1.0  0.58907  0.01520  0.08919  1.0000
  C   C1544     1.0  0.66617  0.02500  0.99591  1.0000
  S   S215      1.0  0.88209  0.23162  0.15417  1.0000
  H   H1233     1.0  0.89173  0.02290  0.23510  1.0000
  H   H1234     1.0  0.69201  0.19286  0.12608  1.0000
  S   S216      1.0  0.69036  0.22665  0.06489  1.0000
  H   H1235     1.0  0.81772  0.01209  0.38946  1.0000
  C   C1545     1.0  0.50400  0.13295  0.07260  1.0000
  H   H1236     1.0  0.72175  0.22384  0.21820  1.0000
  H   H1237     1.0  0.50142  0.11447  0.08265  1.0000
  H   H1238     1.0  0.75033  0.20312  0.21757  1.0000
  C   C1546     1.0  0.87707  0.04329  0.46792  1.0000
  H   H1239     1.0  0.78260  0.24004  0.32114  1.0000
  H   H1240     1.0  0.83219  0.14058  0.98669  1.0000
  H   H1241     1.0  0.51334  0.19846  0.03520  1.0000
  C   C1547     1.0  0.71203  0.17596  0.03657  1.0000
  H   H1242     1.0  0.62490  0.20188  0.34586  1.0000
  C   C1548     1.0  0.70479  0.19491  0.14595  1.0000
  H   H1243     1.0  0.74555  0.16942  0.04443  1.0000
  H   H1244     1.0  0.53017  0.24373  0.17509  1.0000
  H   H1245     1.0  0.71578  0.02647  0.00018  1.0000
  H   H1246     1.0  0.53010  0.16917  0.13824  1.0000
  C   C1549     1.0  0.50760  0.18632  0.20298  1.0000
  C   C1550     1.0  0.77069  0.00237  0.01426  1.0000
  H   H1247     1.0  0.54118  0.17990  0.19433  1.0000
  H   H1248     1.0  0.76105  0.23138  0.43375  1.0000
  H   H1249     1.0  0.99204  0.07642  0.15021  1.0000
  C   C1551     1.0  0.83408  0.23625  0.32896  1.0000
  H   H1250     1.0  0.62505  0.00955  0.35922  1.0000
  H   H1251     1.0  0.98934  0.22178  0.08996  1.0000
  H   H1252     1.0  0.61491  0.04563  0.22827  1.0000
  C   C1552     1.0  0.75480  0.09111  0.38232  1.0000
  C   C1553     1.0  0.80546  0.04102  0.44684  1.0000
  H   H1253     1.0  0.69278  0.21910  0.17254  1.0000
  H   H1254     1.0  0.65199  0.04041  0.46864  1.0000
  H   H1255     1.0  0.74328  0.03179  0.39240  1.0000
  C   C1554     1.0  0.86954  0.99937  0.19541  1.0000
  C   C1555     1.0  0.81383  0.22390  0.45644  1.0000
  H   H1256     1.0  0.81906  0.21625  0.32126  1.0000
  H   H1257     1.0  0.86174  0.22511  0.09030  1.0000
  H   H1258     1.0  0.91994  0.20732  0.40089  1.0000
  C   C1556     1.0  0.61762  0.18357  0.46392  1.0000
  C   C1557     1.0  0.61654  0.18070  0.00807  1.0000
  C   C1558     1.0  0.70548  0.21004  0.17195  1.0000
  C   C1559     1.0  0.74716  0.04938  0.03382  1.0000
  H   H1259     1.0  0.70617  0.06053  0.43759  1.0000
  H   H1260     1.0  0.79257  0.21763  0.45445  1.0000
  C   C1560     1.0  0.79539  0.18515  0.25537  1.0000
  C   C1561     1.0  0.82278  0.20191  0.24851  1.0000
  Fe  Fe109     1.0  0.91336  0.12069  0.45893  1.0000
  C   C1562     1.0  0.81185  0.20052  0.19325  1.0000
  C   C1563     1.0  0.78427  0.18375  0.19996  1.0000
  C   C1564     1.0  0.77621  0.17600  0.23120  1.0000
  P   P49       1.0  0.75913  0.17094  0.16911  1.0000
  C   C1565     1.0  0.74035  0.13491  0.17476  1.0000
  C   C1566     1.0  0.73750  0.18557  0.17115  1.0000
  C   C1567     1.0  0.72073  0.18272  0.14550  1.0000
  C   C1568     1.0  0.73791  0.20067  0.19730  1.0000
  C   C1569     1.0  0.77854  0.99827  0.98474  1.0000
  C   C1570     1.0  0.75434  0.12066  0.17784  1.0000
  C   C1571     1.0  0.74023  0.09284  0.18287  1.0000
  C   C1572     1.0  0.71211  0.07917  0.18583  1.0000
  C   C1573     1.0  0.69815  0.09333  0.18379  1.0000
  C   C1574     1.0  0.71211  0.12108  0.17815  1.0000
  C   C1575     1.0  0.77499  0.17953  0.13083  1.0000
  C   C1576     1.0  0.77801  0.16076  0.11266  1.0000
  C   C1577     1.0  0.79053  0.16807  0.08329  1.0000
  C   C1578     1.0  0.79984  0.19402  0.07164  1.0000
  C   C1579     1.0  0.79664  0.21269  0.08933  1.0000
  C   C1580     1.0  0.78430  0.20552  0.11878  1.0000
  H   H1261     1.0  0.78896  0.17892  0.27938  1.0000
  S   S217      1.0  0.62307  0.22700  0.07824  1.0000
  C   C1581     1.0  0.77398  0.06973  0.03808  1.0000
  H   H1262     1.0  0.84236  0.22182  0.37176  1.0000
  H   H1263     1.0  0.75503  0.16279  0.23691  1.0000
  H   H1264     1.0  0.72015  0.17126  0.12506  1.0000
  H   H1265     1.0  0.69679  0.02250  0.38196  1.0000
  H   H1266     1.0  0.77622  0.13110  0.17635  1.0000
  H   H1267     1.0  0.75107  0.08188  0.18478  1.0000
  H   H1268     1.0  0.70116  0.05762  0.18994  1.0000
  H   H1269     1.0  0.67650  0.08280  0.18705  1.0000
  H   H1270     1.0  0.70084  0.13163  0.17726  1.0000
  H   H1271     1.0  0.77099  0.14055  0.12091  1.0000
  H   H1272     1.0  0.79355  0.15377  0.06980  1.0000
  H   H1273     1.0  0.80987  0.19979  0.04908  1.0000
  H   H1274     1.0  0.71572  0.18785  0.05768  1.0000
  H   H1275     1.0  0.78217  0.22037  0.13222  1.0000
  C   C1582     1.0  0.69068  0.17143  0.01658  1.0000
  C   C1583     1.0  0.86411  0.01578  0.47600  1.0000
  C   C1584     1.0  0.64755  0.24035  0.32282  1.0000
  C   C1585     1.0  0.49557  0.17492  0.13927  1.0000
  H   H1276     1.0  0.58359  0.01719  0.11289  1.0000
  P   P50       1.0  0.76428  0.99644  0.41553  1.0000
  C   C1586     1.0  0.68598  0.15651  0.98882  1.0000
  C   C1587     1.0  0.60095  0.00906  0.02727  1.0000
  H   H1277     1.0  0.73765  0.14311  0.99534  1.0000
  S   S218      1.0  0.95528  0.14754  0.47852  1.0000
  C   C1588     1.0  0.98748  0.08259  0.17231  1.0000
  C   C1589     1.0  0.92352  0.22734  0.39569  1.0000
  H   H1278     1.0  0.98625  0.18346  0.11954  1.0000
  H   H1279     1.0  0.61927  0.23883  0.99858  1.0000
  C   C1590     1.0  0.80250  0.99576  0.37547  1.0000
  C   C1591     1.0  0.85585  0.99585  0.45271  1.0000
  C   C1592     1.0  0.86849  0.23898  0.46083  1.0000
  H   H1280     1.0  0.88092  0.16778  0.99776  1.0000
  C   C1593     1.0  0.90378  0.23417  0.40259  1.0000
  H   H1281     1.0  0.62976  0.24157  0.31679  1.0000
  H   H1282     1.0  0.60544  0.00655  0.00325  1.0000
  H   H1283     1.0  0.64369  0.09828  0.98681  1.0000
  H   H1284     1.0  0.84044  0.07395  0.46877  1.0000
  C   C1594     1.0  0.70337  0.02012  0.47911  1.0000
  H   H1285     1.0  0.86918  0.04809  0.90126  1.0000
  H   H1286     1.0  0.82217  0.03990  0.65920  1.0000
  Fe  Fe110     1.0  0.70560  0.07730  0.81668  1.0000
  S   S219      1.0  0.73603  0.09866  0.85482  1.0000
  S   S220      1.0  0.69944  0.03975  0.79185  1.0000
  Fe  Fe111     1.0  0.68014  0.11305  0.82417  1.0000
  S   S221      1.0  0.70845  0.13671  0.86349  1.0000
  S   S222      1.0  0.64481  0.11652  0.80437  1.0000
  Fe  Fe112     1.0  0.74066  0.13658  0.83307  1.0000
  S   S223      1.0  0.78248  0.17390  0.83144  1.0000
  Fe  Fe113     1.0  0.70135  0.09671  0.88184  1.0000
  S   S224      1.0  0.69771  0.08758  0.93436  1.0000
  S   S225      1.0  0.71284  0.11526  0.79254  1.0000
  S   S226      1.0  0.67051  0.07304  0.84500  1.0000
  Fe  Fe114     1.0  0.93437  0.14947  0.52224  1.0000
  S   S227      1.0  0.94690  0.14682  0.57229  1.0000
  Fe  Fe115     1.0  0.57011  0.22787  0.69705  1.0000
  S   S228      1.0  0.55837  0.20835  0.74488  1.0000
  S   S229      1.0  0.55529  0.21261  0.64779  1.0000
  C   C1595     1.0  0.73690  0.11700  0.48738  1.0000
  H   H1287     1.0  0.69728  0.01388  0.85641  1.0000
  Fe  Fe116     1.0  0.60332  0.22836  0.75471  1.0000
  S   S230      1.0  0.63060  0.21914  0.78546  1.0000
  C   C1596     1.0  0.70298  0.14613  0.98159  1.0000
  C   C1597     1.0  0.70020  0.00558  0.90521  1.0000
  C   C1598     1.0  0.86961  0.05196  0.81291  1.0000
  S   S231      1.0  0.93157  0.18557  0.50738  1.0000
  C   C1599     1.0  0.94096  0.10944  0.66340  1.0000
  H   H1288     1.0  0.54322  0.16062  0.54198  1.0000
  C   C1600     1.0  0.51341  0.19420  0.60593  1.0000
  C   C1601     1.0  0.52074  0.19331  0.63716  1.0000
  H   H1289     1.0  0.63700  0.17827  0.92305  1.0000
  C   C1602     1.0  0.83762  0.23328  0.77557  1.0000
  H   H1290     1.0  0.60242  0.11153  0.97657  1.0000
  H   H1291     1.0  0.52853  0.20730  0.58945  1.0000
  H   H1292     1.0  0.80183  0.11080  0.50244  1.0000
  H   H1293     1.0  0.97046  0.15885  0.63366  1.0000
  H   H1294     1.0  0.84802  0.09034  0.92501  1.0000
  H   H1295     1.0  0.50615  0.17769  0.88432  1.0000
  C   C1603     1.0  0.52140  0.13693  0.83212  1.0000
  C   C1604     1.0  0.79839  0.19388  0.79801  1.0000
  C   C1605     1.0  0.78635  0.18740  0.76831  1.0000
  C   C1606     1.0  0.80000  0.20380  0.74233  1.0000
  C   C1607     1.0  0.82577  0.22661  0.74577  1.0000
  C   C1608     1.0  0.50064  0.17695  0.65863  1.0000
  C   C1609     1.0  0.82401  0.21692  0.80152  1.0000
  H   H1296     1.0  0.76658  0.16979  0.76535  1.0000
  H   H1297     1.0  0.79063  0.19879  0.71941  1.0000
  H   H1298     1.0  0.89714  0.17615  0.81129  1.0000
  C   C1610     1.0  0.64163  0.14549  0.79880  1.0000
  C   C1611     1.0  0.62048  0.14350  0.77982  1.0000
  C   C1612     1.0  0.61699  0.16590  0.77493  1.0000
  C   C1613     1.0  0.63458  0.19051  0.78920  1.0000
  C   C1614     1.0  0.65563  0.19246  0.80826  1.0000
  C   C1615     1.0  0.65915  0.17010  0.81315  1.0000
  H   H1299     1.0  0.60671  0.12448  0.76880  1.0000
  H   H1300     1.0  0.60057  0.16403  0.76040  1.0000
  H   H1301     1.0  0.66925  0.21141  0.81935  1.0000
  H   H1302     1.0  0.67533  0.17186  0.82803  1.0000
  H   H1303     1.0  0.57854  0.19102  0.57965  1.0000
  H   H1304     1.0  0.52313  0.17913  0.50462  1.0000
  H   H1305     1.0  0.58618  0.18785  0.48625  1.0000
  C   C1616     1.0  0.67858  0.05478  0.95023  1.0000
  C   C1617     1.0  0.66068  0.03286  0.93186  1.0000
  H   H1306     1.0  0.92222  0.20323  0.95146  1.0000
  H   H1307     1.0  0.74544  0.13851  0.93788  1.0000
  C   C1618     1.0  0.73952  0.99850  0.78220  1.0000
  H   H1308     1.0  0.65840  0.03569  0.90716  1.0000
  C   C1619     1.0  0.72557  0.03192  0.79022  1.0000
  H   H1309     1.0  0.73904  0.22446  0.54136  1.0000
  H   H1310     1.0  0.91671  0.10792  0.62378  1.0000
  C   C1620     1.0  0.76650  0.01815  0.78723  1.0000
  C   C1621     1.0  0.77293  0.04468  0.79372  1.0000
  C   C1622     1.0  0.75250  0.05151  0.79557  1.0000
  H   H1311     1.0  0.98477  0.17391  0.77024  1.0000
  H   H1312     1.0  0.79369  0.05985  0.79808  1.0000
  H   H1313     1.0  0.75754  0.07188  0.80110  1.0000
  C   C1623     1.0  0.86072  0.03339  0.94878  1.0000
  C   C1624     1.0  0.84675  0.01056  0.96767  1.0000
  C   C1625     1.0  0.64776  0.23733  0.57534  1.0000
  C   C1626     1.0  0.57027  0.19917  0.56283  1.0000
  C   C1627     1.0  0.68110  0.05076  0.98233  1.0000
  C   C1628     1.0  0.85839  0.03053  0.91599  1.0000
  H   H1314     1.0  0.74426  0.19574  0.80596  1.0000
  H   H1315     1.0  0.50604  0.17611  0.68278  1.0000
  H   H1316     1.0  0.90764  0.22976  0.70295  1.0000
  C   C1629     1.0  0.71179  0.18019  0.77224  1.0000
  H   H1317     1.0  0.73148  0.21208  0.88831  1.0000
  C   C1630     1.0  0.57861  0.22662  0.56339  1.0000
  C   C1631     1.0  0.74214  0.09242  0.72682  1.0000
  C   C1632     1.0  0.73964  0.11361  0.71440  1.0000
  C   C1633     1.0  0.76280  0.13784  0.70654  1.0000
  C   C1634     1.0  0.78852  0.14115  0.71174  1.0000
  C   C1635     1.0  0.79114  0.12006  0.72480  1.0000
  C   C1636     1.0  0.76776  0.09553  0.73163  1.0000
  P   P51       1.0  0.82374  0.12351  0.73315  1.0000
  C   C1637     1.0  0.82438  0.09733  0.71007  1.0000
  C   C1638     1.0  0.85096  0.15700  0.72376  1.0000
  C   C1639     1.0  0.87041  0.16134  0.70084  1.0000
  C   C1640     1.0  0.89069  0.18748  0.69330  1.0000
  C   C1641     1.0  0.89207  0.20948  0.70894  1.0000
  C   C1642     1.0  0.87340  0.20534  0.73243  1.0000
  C   C1643     1.0  0.85293  0.17926  0.73990  1.0000
  C   C1644     1.0  0.82120  0.07375  0.72420  1.0000
  C   C1645     1.0  0.82069  0.05331  0.70592  1.0000
  C   C1646     1.0  0.82283  0.05592  0.67331  1.0000
  C   C1647     1.0  0.82485  0.07876  0.65890  1.0000
  C   C1648     1.0  0.82519  0.09917  0.67716  1.0000
  C   C1649     1.0  0.82605  0.11929  0.77490  1.0000
  C   C1650     1.0  0.80945  0.12323  0.79596  1.0000
  C   C1651     1.0  0.81031  0.11855  0.82805  1.0000
  C   C1652     1.0  0.82781  0.11004  0.83937  1.0000
  C   C1653     1.0  0.84512  0.10709  0.81874  1.0000
  C   C1654     1.0  0.84462  0.11219  0.78670  1.0000
  H   H1318     1.0  0.72420  0.07362  0.73308  1.0000
  H   H1319     1.0  0.71974  0.11126  0.71104  1.0000
  H   H1320     1.0  0.76079  0.15421  0.69684  1.0000
  H   H1321     1.0  0.80609  0.16019  0.70571  1.0000
  H   H1322     1.0  0.76935  0.07882  0.74091  1.0000
  H   H1323     1.0  0.87009  0.14482  0.68854  1.0000
  H   H1324     1.0  0.90532  0.19076  0.67522  1.0000
  H   H1325     1.0  0.87457  0.22249  0.74448  1.0000
  H   H1326     1.0  0.83831  0.17655  0.75781  1.0000
  H   H1327     1.0  0.81817  0.07040  0.74916  1.0000
  H   H1328     1.0  0.81789  0.03507  0.71714  1.0000
  C   C1655     1.0  0.64618  0.11900  0.94331  1.0000
  H   H1329     1.0  0.82566  0.08041  0.63354  1.0000
  H   H1330     1.0  0.82578  0.11629  0.66558  1.0000
  H   H1331     1.0  0.79554  0.12962  0.78779  1.0000
  H   H1332     1.0  0.79701  0.12115  0.84395  1.0000
  H   H1333     1.0  0.82783  0.10553  0.86406  1.0000
  H   H1334     1.0  0.85850  0.10027  0.82752  1.0000
  H   H1335     1.0  0.85810  0.10975  0.77099  1.0000
  C   C1656     1.0  0.95874  0.24001  0.96312  1.0000
  C   C1657     1.0  0.91203  0.09410  0.81010  1.0000
  C   C1658     1.0  0.90819  0.09585  0.77778  1.0000
  C   C1659     1.0  0.88488  0.07533  0.76322  1.0000
  P   P52       1.0  0.93295  0.12462  0.75581  1.0000
  C   C1660     1.0  0.92963  0.15380  0.76350  1.0000
  C   C1661     1.0  0.77509  0.02402  0.87721  1.0000
  H   H1336     1.0  0.69994  0.13474  0.96022  1.0000
  C   C1662     1.0  0.94244  0.17625  0.74360  1.0000
  C   C1663     1.0  0.93881  0.19835  0.74795  1.0000
  C   C1664     1.0  0.92251  0.19833  0.77235  1.0000
  C   C1665     1.0  0.90983  0.17616  0.79242  1.0000
  C   C1666     1.0  0.91351  0.15403  0.78817  1.0000
  C   C1667     1.0  0.92761  0.11836  0.71408  1.0000
  H   H1337     1.0  0.85464  0.03491  0.82634  1.0000
  C   C1668     1.0  0.89178  0.14463  0.96757  1.0000
  C   C1669     1.0  0.75682  0.11136  0.53501  1.0000
  H   H1338     1.0  0.92994  0.10964  0.82180  1.0000
  H   H1339     1.0  0.91313  0.15613  0.97316  1.0000
  H   H1340     1.0  0.82767  0.13747  0.90331  1.0000
  H   H1341     1.0  0.95560  0.17682  0.72501  1.0000
  H   H1342     1.0  0.94895  0.21571  0.73264  1.0000
  H   H1343     1.0  0.91990  0.21561  0.77577  1.0000
  C   C1670     1.0  0.74626  0.22717  0.77620  1.0000
  H   H1344     1.0  0.70325  0.06231  0.53537  1.0000
  C   C1671     1.0  0.98067  0.16814  0.58498  1.0000
  C   C1672     1.0  0.74657  0.10265  0.50462  1.0000
  H   H1345     1.0  0.68112  0.17051  0.73722  1.0000
  C   C1673     1.0  0.63252  0.15387  0.98137  1.0000
  S   S232      1.0  0.79278  0.01063  0.78379  1.0000
  H   H1346     1.0  0.83340  0.22213  0.82446  1.0000
  C   C1674     1.0  0.76714  0.04293  0.51398  1.0000
  C   C1675     1.0  0.56669  0.23706  0.54307  1.0000
  H   H1347     1.0  0.65914  0.02228  0.54670  1.0000
  C   C1676     1.0  0.95352  0.21885  0.60754  1.0000
  H   H1348     1.0  0.84052  0.00310  0.87689  1.0000
  H   H1349     1.0  0.86084  0.00995  0.50045  1.0000
  H   H1350     1.0  0.52025  0.19560  0.82452  1.0000
  H   H1351     1.0  0.84805  0.03747  0.76936  1.0000
  C   C1677     1.0  0.71918  0.00550  0.78315  1.0000
  H   H1352     1.0  0.49427  0.18161  0.93881  1.0000
  C   C1678     1.0  0.73502  0.20058  0.78662  1.0000
  H   H1353     1.0  0.58835  0.18323  0.82632  1.0000
  C   C1679     1.0  0.69968  0.18632  0.74754  1.0000
  C   C1680     1.0  0.88224  0.12286  0.94701  1.0000
  C   C1681     1.0  0.73807  0.14002  0.50005  1.0000
  S   S233      1.0  0.85365  0.15818  0.48993  1.0000
  C   C1682     1.0  0.84216  0.00508  0.90214  1.0000
  C   C1683     1.0  0.98652  0.17019  0.61721  1.0000
  C   C1684     1.0  0.56670  0.17515  0.82739  1.0000
  H   H1354     1.0  0.70332  0.22826  0.86247  1.0000
  S   S234      1.0  0.61462  0.24446  0.70567  1.0000
  C   C1685     1.0  0.89278  0.07224  0.82759  1.0000
  P   P53       1.0  0.80003  0.09341  0.94764  1.0000
  C   C1686     1.0  0.60778  0.19573  0.48432  1.0000
  C   C1687     1.0  0.55608  0.19237  0.82517  1.0000
  H   H1355     1.0  0.95441  0.08833  0.76538  1.0000
  C   C1688     1.0  0.94586  0.19649  0.62686  1.0000
  H   H1356     1.0  0.71300  0.17945  0.93153  1.0000
  H   H1357     1.0  0.70265  0.15968  0.78074  1.0000
  H   H1358     1.0  0.89627  0.11767  0.93640  1.0000
  H   H1359     1.0  0.79848  0.01232  0.90588  1.0000
  H   H1360     1.0  0.90366  0.13723  0.80411  1.0000
  H   H1361     1.0  0.62484  0.22110  0.61801  1.0000
  H   H1362     1.0  0.63916  0.21776  0.56434  1.0000
  C   C1689     1.0  0.67164  0.02165  0.52802  1.0000
  C   C1690     1.0  0.85022  0.22226  0.48366  1.0000
  C   C1691     1.0  0.76884  0.11862  0.94246  1.0000
  C   C1692     1.0  0.75814  0.13452  0.54751  1.0000
  C   C1693     1.0  0.73456  0.23346  0.75084  1.0000
  H   H1363     1.0  0.50846  0.11544  0.83486  1.0000
  H   H1364     1.0  0.80873  0.20136  0.49884  1.0000
  H   H1365     1.0  0.81759  0.17171  0.88259  1.0000
  S   S235      1.0  0.88151  0.06568  0.96523  1.0000
  H   H1366     1.0  0.88374  0.05846  0.48607  1.0000
  C   C1694     1.0  0.74883  0.14888  0.53000  1.0000
  C   C1695     1.0  0.80968  0.13748  0.91120  1.0000
  H   H1367     1.0  0.88548  0.11629  0.65571  1.0000
  H   H1368     1.0  0.89223  0.12291  0.71317  1.0000
  C   C1696     1.0  0.84593  0.13529  0.97553  1.0000
  C   C1697     1.0  0.81835  0.08800  0.52285  1.0000
  H   H1369     1.0  0.77673  0.17247  0.90011  1.0000
  C   C1698     1.0  0.62922  0.07093  0.94785  1.0000
  C   C1699     1.0  0.62580  0.21831  0.50180  1.0000
  C   C1700     1.0  0.69920  0.00057  0.87304  1.0000
  H   H1370     1.0  0.75207  0.03951  0.85463  1.0000
  H   H1371     1.0  0.51546  0.23735  0.63762  1.0000
  P   P54       1.0  0.74513  0.07289  0.48825  1.0000
  H   H1372     1.0  0.76657  0.07757  0.89064  1.0000
  H   H1373     1.0  0.65601  0.21109  0.87980  1.0000
  C   C1701     1.0  0.85451  0.10692  0.94113  1.0000
  S   S236      1.0  0.89270  0.11973  0.50402  1.0000
  H   H1374     1.0  0.75458  0.10374  0.95859  1.0000
  H   H1375     1.0  0.73038  0.15081  0.48658  1.0000
  C   C1702     1.0  0.53894  0.19239  0.52075  1.0000
  H   H1376     1.0  0.76888  0.00750  0.86079  1.0000
  C   C1703     1.0  0.51052  0.15408  0.82971  1.0000
  C   C1704     1.0  0.86579  0.05347  0.78075  1.0000
  C   C1705     1.0  0.79180  0.02678  0.90257  1.0000
  C   C1706     1.0  0.77423  0.06390  0.89399  1.0000
  C   C1707     1.0  0.78121  0.15756  0.90955  1.0000
  C   C1708     1.0  0.96614  0.13055  0.76653  1.0000
  H   H1377     1.0  0.95470  0.10603  0.64922  1.0000
  C   C1709     1.0  0.67835  0.99746  0.48578  1.0000
  H   H1378     1.0  0.61703  0.04847  0.90460  1.0000
  C   C1710     1.0  0.54940  0.14747  0.83075  1.0000
  C   C1711     1.0  0.90202  0.11541  0.66702  1.0000
  C   C1712     1.0  0.83595  0.11250  0.95613  1.0000
  C   C1713     1.0  0.55028  0.18202  0.54172  1.0000
  C   C1714     1.0  0.76600  0.04234  0.87333  1.0000
  H   H1379     1.0  0.81177  0.04924  0.94404  1.0000
  C   C1715     1.0  0.76357  0.13839  0.93090  1.0000
  C   C1716     1.0  0.81361  0.06255  0.53168  1.0000
  H   H1380     1.0  0.93012  0.17679  0.61919  1.0000
  H   H1381     1.0  0.74970  0.16673  0.53972  1.0000
  C   C1717     1.0  0.52812  0.18192  0.82634  1.0000
  C   C1718     1.0  0.94515  0.11349  0.69577  1.0000
  H   H1382     1.0  0.51627  0.23426  0.54979  1.0000
  C   C1719     1.0  0.77188  0.06845  0.50473  1.0000
  H   H1383     1.0  0.74746  0.02526  0.51117  1.0000
  H   H1384     1.0  0.69414  0.22082  0.53781  1.0000
  H   H1385     1.0  0.83813  0.10562  0.52620  1.0000
  C   C1720     1.0  0.73751  0.24194  0.53500  1.0000
  H   H1386     1.0  0.90232  0.22618  0.92148  1.0000
  H   H1387     1.0  0.76378  0.10030  0.54910  1.0000
  H   H1388     1.0  0.82986  0.06032  0.54167  1.0000
  C   C1721     1.0  0.80425  0.15710  0.89967  1.0000
  H   H1389     1.0  0.69953  0.02304  0.91346  1.0000
  H   H1390     1.0  0.70090  0.21712  0.71812  1.0000
  C   C1722     1.0  0.98767  0.15674  0.77171  1.0000
  C   C1723     1.0  0.90600  0.11926  0.69943  1.0000
  H   H1391     1.0  0.78432  0.02025  0.53404  1.0000
  H   H1392     1.0  0.76631  0.14127  0.57084  1.0000
  H   H1393     1.0  0.88132  0.07579  0.73837  1.0000
  C   C1724     1.0  0.54726  0.21980  0.52122  1.0000
  H   H1394     1.0  0.96223  0.11308  0.70615  1.0000
  C   C1725     1.0  0.79139  0.06708  0.91921  1.0000
  C   C1726     1.0  0.67387  0.17710  0.93151  1.0000
  C   C1727     1.0  0.70049  0.18664  0.92116  1.0000
  C   C1728     1.0  0.71108  0.20516  0.89650  1.0000
  C   C1729     1.0  0.93330  0.22494  0.94913  1.0000
  C   C1730     1.0  0.66859  0.20465  0.89178  1.0000
  C   C1731     1.0  0.65791  0.18608  0.91641  1.0000
  C   C1732     1.0  0.63062  0.09046  0.89700  1.0000
  C   C1733     1.0  0.75244  0.05607  0.97756  1.0000
  C   C1734     1.0  0.64119  0.11584  0.91082  1.0000
  C   C1735     1.0  0.62473  0.06803  0.91547  1.0000
  H   H1395     1.0  0.64562  0.13281  0.89585  1.0000
  C   C1736     1.0  0.79210  0.11816  0.93281  1.0000
  H   H1396     1.0  0.59363  0.23927  0.58041  1.0000
  H   H1397     1.0  0.55777  0.13420  0.83211  1.0000
  H   H1398     1.0  0.62729  0.08825  0.87181  1.0000
  C   C1737     1.0  0.63984  0.23906  0.60592  1.0000
  C   C1738     1.0  0.64582  0.00708  0.94539  1.0000
  C   C1739     1.0  0.79947  0.04788  0.92392  1.0000
  H   H1399     1.0  0.94320  0.21602  0.58534  1.0000
  H   H1400     1.0  0.76390  0.24267  0.78821  1.0000
  C   C1740     1.0  0.71098  0.21282  0.73684  1.0000
  C   C1741     1.0  0.97074  0.10874  0.76917  1.0000
  C   C1742     1.0  0.91951  0.11052  0.64901  1.0000
  H   H1401     1.0  0.89588  0.07085  0.85248  1.0000
  C   C1743     1.0  0.79767  0.09091  0.50927  1.0000
  C   C1744     1.0  0.78798  0.04001  0.52730  1.0000
  H   H1402     1.0  0.61788  0.22802  0.51669  1.0000
  H   H1403     1.0  0.56956  0.21382  0.82211  1.0000
  C   C1745     1.0  0.69667  0.04434  0.52144  1.0000
  H   H1404     1.0  0.98174  0.23785  0.79917  1.0000
  H   H1405     1.0  0.74366  0.05048  0.95431  1.0000
  P   P55       1.0  0.65937  0.15158  0.96170  1.0000
  C   C1746     1.0  0.95923  0.19930  0.65530  1.0000
  C   C1747     1.0  0.71272  0.04373  0.49691  1.0000
  H   H1406     1.0  0.95362  0.18176  0.66974  1.0000
  C   C1748     1.0  0.92211  0.23789  0.93220  1.0000
  C   C1749     1.0  0.71210  0.23992  0.53283  1.0000
  H   H1407     1.0  0.62503  0.05356  0.96201  1.0000
  H   H1408     1.0  0.53800  0.22743  0.50500  1.0000
  H   H1409     1.0  0.91548  0.23962  0.50729  1.0000
  C   C1750     1.0  0.63999  0.09632  0.96175  1.0000
  C   C1751     1.0  0.66250  0.99823  0.51024  1.0000
  C   C1752     1.0  0.64857  0.00299  0.97741  1.0000
  C   C1753     1.0  0.65381  0.22847  0.49961  1.0000
  C   C1754     1.0  0.69519  0.21424  0.88190  1.0000
  H   H1410     1.0  0.85703  0.21435  0.50251  1.0000
  H   H1411     1.0  0.79962  0.00939  0.97816  1.0000
  Fe  Fe117     1.0  0.89199  0.15591  0.48489  1.0000
  H   H1412     1.0  0.96734  0.22993  0.97639  1.0000
  H   H1413     1.0  0.99161  0.22635  0.68581  1.0000
  C   C1755     1.0  0.98068  0.22438  0.66421  1.0000
  H   H1414     1.0  0.49540  0.16371  0.77019  1.0000
  C   C1756     1.0  0.77945  0.07663  0.98165  1.0000
  C   C1757     1.0  0.87366  0.15110  0.98145  1.0000
  C   C1758     1.0  0.97460  0.24431  0.61663  1.0000
  Fe  Fe118     1.0  0.62655  0.44046  0.03517  1.0000
  S   S237      1.0  0.64450  0.42936  0.99517  1.0000
  Fe  Fe119     1.0  0.56813  0.39897  0.01788  1.0000
  H   H1415     1.0  0.94747  0.40893  0.15330  1.0000
  S   S238      1.0  0.52231  0.37197  0.02232  1.0000
  Fe  Fe120     1.0  0.61393  0.38676  0.00792  1.0000
  S   S239      1.0  0.62031  0.35095  0.00472  1.0000
  H   H1416     1.0  0.67515  0.27813  0.30133  1.0000
  H   H1417     1.0  0.78298  0.30753  0.21119  1.0000
  S   S240      1.0  0.59855  0.39759  0.05041  1.0000
  Fe  Fe121     1.0  0.87636  0.26686  0.14314  1.0000
  S   S241      1.0  0.88602  0.29104  0.09877  1.0000
  H   H1418     1.0  0.78204  0.26905  0.02409  1.0000
  Fe  Fe122     1.0  0.86268  0.30550  0.18530  1.0000
  S   S242      1.0  0.87284  0.33200  0.13996  1.0000
  S   S243      1.0  0.84046  0.31509  0.25801  1.0000
  Fe  Fe123     1.0  0.84931  0.29431  0.11163  1.0000
  S   S244      1.0  0.81914  0.29055  0.07422  1.0000
  Fe  Fe124     1.0  0.90870  0.32662  0.13055  1.0000
  S   S245      1.0  0.95083  0.36319  0.12418  1.0000
  S   S246      1.0  0.83820  0.26720  0.15306  1.0000
  S   S247      1.0  0.90086  0.30216  0.17410  1.0000
  Fe  Fe125     1.0  0.81835  0.40209  0.37880  1.0000
  S   S248      1.0  0.84244  0.40060  0.41981  1.0000
  S   S249      1.0  0.83149  0.40808  0.32778  1.0000
  Fe  Fe126     1.0  0.77158  0.39434  0.42025  1.0000
  H   H1419     1.0  0.94141  0.35106  0.35588  1.0000
  S   S250      1.0  0.73153  0.39292  0.41379  1.0000
  Fe  Fe127     1.0  0.82918  0.42656  0.44502  1.0000
  C   C1759     1.0  0.93114  0.32451  0.00651  1.0000
  Fe  Fe128     1.0  0.80289  0.36566  0.43586  1.0000
  H   H1420     1.0  0.77714  0.30668  0.26827  1.0000
  S   S251      1.0  0.80855  0.43124  0.40255  1.0000
  S   S252      1.0  0.77983  0.36554  0.39326  1.0000
  S   S253      1.0  0.62461  0.28899  0.12591  1.0000
  H   H1421     1.0  0.91098  0.44984  0.45551  1.0000
  C   C1760     1.0  0.67323  0.26090  0.31391  1.0000
  C   C1761     1.0  0.63751  0.25764  0.99347  1.0000
  C   C1762     1.0  0.93474  0.49294  0.45217  1.0000
  C   C1763     1.0  0.73073  0.47766  0.45616  1.0000
  S   S254      1.0  0.62282  0.46813  0.45606  1.0000
  C   C1764     1.0  0.69635  0.25918  0.32103  1.0000
  H   H1422     1.0  0.96231  0.42826  0.35014  1.0000
  C   C1765     1.0  0.93316  0.27920  0.38286  1.0000
  C   C1766     1.0  0.85940  0.24764  0.43512  1.0000
  C   C1767     1.0  0.52854  0.29987  0.48107  1.0000
  C   C1768     1.0  0.97444  0.36556  0.00844  1.0000
  H   H1423     1.0  0.69340  0.44183  0.46769  1.0000
  H   H1424     1.0  0.67370  0.34364  0.00965  1.0000
  H   H1425     1.0  0.92971  0.24774  0.10823  1.0000
  C   C1769     1.0  0.79520  0.40405  0.22120  1.0000
  H   H1426     1.0  0.67806  0.32352  0.27832  1.0000
  S   S255      1.0  0.59999  0.39331  0.47358  1.0000
  H   H1427     1.0  0.49944  0.33631  0.12893  1.0000
  C   C1770     1.0  0.67986  0.40528  0.13192  1.0000
  C   C1771     1.0  0.92306  0.31764  0.43190  1.0000
  H   H1428     1.0  0.61890  0.30116  0.01268  1.0000
  C   C1772     1.0  0.90057  0.48944  0.08454  1.0000
  C   C1773     1.0  0.71125  0.39165  0.44557  1.0000
  S   S256      1.0  0.80325  0.32853  0.45336  1.0000
  C   C1774     1.0  0.90873  0.26038  0.39707  1.0000
  C   C1775     1.0  0.60166  0.32361  0.46878  1.0000
  C   C1776     1.0  0.66918  0.38836  0.46355  1.0000
  C   C1777     1.0  0.68706  0.39152  0.43921  1.0000
  H   H1429     1.0  0.79790  0.27592  0.45246  1.0000
  H   H1430     1.0  0.86289  0.45491  0.09842  1.0000
  H   H1431     1.0  0.65048  0.38802  0.45831  1.0000
  H   H1432     1.0  0.68191  0.39343  0.41525  1.0000
  C   C1778     1.0  0.77665  0.29701  0.44073  1.0000
  C   C1779     1.0  0.75288  0.29455  0.42813  1.0000
  C   C1780     1.0  0.73206  0.26934  0.41786  1.0000
  H   H1433     1.0  0.67158  0.36419  0.19356  1.0000
  H   H1434     1.0  0.64277  0.27749  0.26170  1.0000
  C   C1781     1.0  0.95715  0.33683  0.21503  1.0000
  H   H1435     1.0  0.75044  0.31201  0.42645  1.0000
  H   H1436     1.0  0.71366  0.26749  0.40821  1.0000
  C   C1782     1.0  0.78324  0.27173  0.07448  1.0000
  H   H1437     1.0  0.80982  0.26862  0.36566  1.0000
  H   H1438     1.0  0.93713  0.29927  0.37733  1.0000
  C   C1783     1.0  0.94808  0.34982  0.01959  1.0000
  H   H1439     1.0  0.97345  0.28754  0.22229  1.0000
  C   C1784     1.0  0.97049  0.32235  0.20971  1.0000
  C   C1785     1.0  0.95375  0.40094  0.24280  1.0000
  C   C1786     1.0  0.73801  0.41417  0.00412  1.0000
  H   H1440     1.0  0.77734  0.27134  0.12450  1.0000
  C   C1787     1.0  0.83593  0.34053  0.27555  1.0000
  C   C1788     1.0  0.82967  0.33803  0.30759  1.0000
  C   C1789     1.0  0.82755  0.35824  0.32370  1.0000
  C   C1790     1.0  0.83226  0.38152  0.30789  1.0000
  C   C1791     1.0  0.83841  0.38408  0.27574  1.0000
  C   C1792     1.0  0.83993  0.36354  0.25947  1.0000
  H   H1441     1.0  0.82729  0.32065  0.32017  1.0000
  H   H1442     1.0  0.82298  0.35612  0.34852  1.0000
  H   H1443     1.0  0.84242  0.40222  0.26351  1.0000
  H   H1444     1.0  0.84492  0.36602  0.23486  1.0000
  C   C1793     1.0  0.50090  0.37043  0.05316  1.0000
  C   C1794     1.0  0.50927  0.39097  0.07540  1.0000
  C   C1795     1.0  0.99392  0.27305  0.08013  1.0000
  C   C1796     1.0  0.97976  0.36668  0.10448  1.0000
  C   C1797     1.0  0.97867  0.34655  0.08504  1.0000
  C   C1798     1.0  0.75884  0.24897  0.43205  1.0000
  H   H1445     1.0  0.52959  0.40805  0.07448  1.0000
  C   C1799     1.0  0.77018  0.26420  0.04536  1.0000
  H   H1446     1.0  0.95997  0.32760  0.08272  1.0000
  H   H1447     1.0  0.69036  0.26289  0.25532  1.0000
  C   C1800     1.0  0.62033  0.33369  0.03897  1.0000
  C   C1801     1.0  0.62148  0.34407  0.06897  1.0000
  C   C1802     1.0  0.62270  0.33012  0.09554  1.0000
  C   C1803     1.0  0.62288  0.30587  0.09221  1.0000
  C   C1804     1.0  0.62163  0.29551  0.06223  1.0000
  C   C1805     1.0  0.62017  0.30932  0.03578  1.0000
  H   H1448     1.0  0.62175  0.36292  0.07173  1.0000
  H   H1449     1.0  0.62373  0.33825  0.11872  1.0000
  H   H1450     1.0  0.62165  0.27681  0.05941  1.0000
  P   P56       1.0  0.88302  0.26906  0.40556  1.0000
  C   C1806     1.0  0.67601  0.31777  0.25381  1.0000
  C   C1807     1.0  0.94817  0.24648  0.38270  1.0000
  C   C1808     1.0  0.54503  0.32054  0.00734  1.0000
  C   C1809     1.0  0.54566  0.32003  0.04011  1.0000
  C   C1810     1.0  0.52148  0.30716  0.05728  1.0000
  C   C1811     1.0  0.71754  0.32007  0.34289  1.0000
  P   P57       1.0  0.52264  0.30501  0.09958  1.0000
  C   C1812     1.0  0.53153  0.28003  0.11085  1.0000
  C   C1813     1.0  0.54829  0.33732  0.11460  1.0000
  C   C1814     1.0  0.56832  0.33942  0.13558  1.0000
  C   C1815     1.0  0.58765  0.36454  0.14740  1.0000
  C   C1816     1.0  0.58707  0.38771  0.13856  1.0000
  C   C1817     1.0  0.56734  0.38579  0.11760  1.0000
  C   C1818     1.0  0.54846  0.36079  0.10513  1.0000
  C   C1819     1.0  0.52541  0.26909  0.14122  1.0000
  C   C1820     1.0  0.72681  0.47903  0.06843  1.0000
  C   C1821     1.0  0.71427  0.27316  0.21384  1.0000
  H   H1451     1.0  0.74522  0.33902  0.21312  1.0000
  C   C1822     1.0  0.54683  0.27332  0.09089  1.0000
  H   H1452     1.0  0.70219  0.31370  0.42332  1.0000
  S   S257      1.0  0.65356  0.47513  0.06733  1.0000
  C   C1823     1.0  0.73884  0.25211  0.09967  1.0000
  H   H1453     1.0  0.74143  0.46684  0.45155  1.0000
  C   C1824     1.0  0.94663  0.25714  0.09208  1.0000
  C   C1825     1.0  0.94890  0.40688  0.17844  1.0000
  C   C1826     1.0  0.75986  0.26041  0.31540  1.0000
  C   C1827     1.0  0.54937  0.24497  0.13134  1.0000
  H   H1454     1.0  0.56506  0.32955  0.05200  1.0000
  H   H1455     1.0  0.67460  0.38257  0.03488  1.0000
  H   H1456     1.0  0.56941  0.32189  0.14274  1.0000
  H   H1457     1.0  0.86425  0.30190  0.30668  1.0000
  C   C1828     1.0  0.87987  0.31448  0.42112  1.0000
  H   H1458     1.0  0.56711  0.40377  0.11024  1.0000
  H   H1459     1.0  0.53390  0.35968  0.08810  1.0000
  C   C1829     1.0  0.60702  0.30938  0.44614  1.0000
  H   H1460     1.0  0.80299  0.30570  0.38430  1.0000
  C   C1830     1.0  0.73329  0.28516  0.26641  1.0000
  H   H1461     1.0  0.54878  0.31533  0.47515  1.0000
  H   H1462     1.0  0.55276  0.28206  0.06777  1.0000
  C   C1831     1.0  0.65620  0.29192  0.24455  1.0000
  H   H1463     1.0  0.67194  0.41760  0.12262  1.0000
  C   C1832     1.0  0.72054  0.34512  0.35055  1.0000
  C   C1833     1.0  0.87257  0.47510  0.08882  1.0000
  H   H1464     1.0  0.75585  0.43398  0.00271  1.0000
  H   H1465     1.0  0.78873  0.36659  0.24045  1.0000
  H   H1466     1.0  0.83010  0.25645  0.28817  1.0000
  C   C1834     1.0  0.89003  0.34080  0.43201  1.0000
  H   H1467     1.0  0.73451  0.46528  0.06710  1.0000
  H   H1468     1.0  0.95411  0.35546  0.45043  1.0000
  C   C1835     1.0  0.52060  0.27249  0.47760  1.0000
  C   C1836     1.0  0.98834  0.24990  0.44295  1.0000
  C   C1837     1.0  0.71525  0.41072  0.02032  1.0000
  H   H1469     1.0  0.73688  0.34272  0.03413  1.0000
  C   C1838     1.0  0.96848  0.42630  0.22877  1.0000
  C   C1839     1.0  0.65356  0.28460  0.21296  1.0000
  S   S258      1.0  0.66486  0.25088  0.13840  1.0000
  C   C1840     1.0  0.69165  0.30952  0.44556  1.0000
  C   C1841     1.0  0.77953  0.27413  0.44281  1.0000
  H   H1470     1.0  0.70274  0.30246  0.35549  1.0000
  C   C1842     1.0  0.75736  0.36674  0.31354  1.0000
  H   H1471     1.0  0.92477  0.37615  0.45053  1.0000
  C   C1843     1.0  0.75536  0.28089  0.32642  1.0000
  C   C1844     1.0  0.69317  0.33629  0.23142  1.0000
  C   C1845     1.0  0.93124  0.46706  0.45358  1.0000
  H   H1472     1.0  0.70827  0.35627  0.23900  1.0000
  C   C1846     1.0  0.49667  0.29526  0.04103  1.0000
  H   H1473     1.0  0.94098  0.35708  0.03878  1.0000
  C   C1847     1.0  0.66974  0.39112  0.15999  1.0000
  C   C1848     1.0  0.74965  0.33979  0.01772  1.0000
  H   H1474     1.0  0.79616  0.43810  0.19858  1.0000
  C   C1849     1.0  0.86524  0.49345  0.47371  1.0000
  C   C1850     1.0  0.96829  0.25336  0.45736  1.0000
  H   H1475     1.0  0.70437  0.29139  0.01102  1.0000
  C   C1851     1.0  0.69228  0.38520  0.02238  1.0000
  C   C1852     1.0  0.98225  0.45080  0.39185  1.0000
  C   C1853     1.0  0.79479  0.27214  0.35459  1.0000
  C   C1854     1.0  0.92939  0.30432  0.25455  1.0000
  C   C1855     1.0  0.93636  0.32789  0.23746  1.0000
  C   C1856     1.0  0.49618  0.29629  0.00824  1.0000
  P   P58       1.0  0.91745  0.34527  0.24258  1.0000
  C   C1857     1.0  0.88368  0.32559  0.22519  1.0000
  C   C1858     1.0  0.91510  0.35150  0.28383  1.0000
  C   C1859     1.0  0.90024  0.36383  0.29257  1.0000
  C   C1860     1.0  0.89930  0.37054  0.32389  1.0000
  C   C1861     1.0  0.91392  0.36570  0.34674  1.0000
  H   H1476     1.0  0.68490  0.44786  0.06319  1.0000
  C   C1862     1.0  0.93056  0.34758  0.30683  1.0000
  C   C1863     1.0  0.87038  0.33954  0.20885  1.0000
  C   C1864     1.0  0.84119  0.32351  0.19748  1.0000
  C   C1865     1.0  0.82513  0.29337  0.20253  1.0000
  C   C1866     1.0  0.83832  0.27920  0.21876  1.0000
  C   C1867     1.0  0.86737  0.29519  0.22982  1.0000
  C   C1868     1.0  0.93611  0.37832  0.22475  1.0000
  C   C1869     1.0  0.93413  0.38153  0.19243  1.0000
  C   C1870     1.0  0.53433  0.25164  0.15141  1.0000
  H   H1477     1.0  0.76812  0.34099  0.28901  1.0000
  C   C1871     1.0  0.94286  0.28997  0.24925  1.0000
  H   H1478     1.0  0.96264  0.28597  0.01983  1.0000
  S   S259      1.0  0.79131  0.39127  0.46454  1.0000
  C   C1872     1.0  0.93336  0.34414  0.44212  1.0000
  H   H1479     1.0  0.63825  0.26453  0.20572  1.0000
  H   H1480     1.0  0.91353  0.29698  0.27201  1.0000
  H   H1481     1.0  0.96266  0.35447  0.20080  1.0000
  H   H1482     1.0  0.88984  0.36878  0.27488  1.0000
  H   H1483     1.0  0.88728  0.37964  0.33029  1.0000
  C   C1873     1.0  0.67991  0.37519  0.17197  1.0000
  H   H1484     1.0  0.94375  0.33986  0.30076  1.0000
  H   H1485     1.0  0.88097  0.36119  0.20667  1.0000
  H   H1486     1.0  0.83172  0.33378  0.18665  1.0000
  H   H1487     1.0  0.80419  0.28192  0.19524  1.0000
  H   H1488     1.0  0.82660  0.25781  0.22331  1.0000
  H   H1489     1.0  0.87580  0.28472  0.24221  1.0000
  H   H1490     1.0  0.92159  0.36432  0.17786  1.0000
  C   C1874     1.0  0.73390  0.31808  0.31968  1.0000
  C   C1875     1.0  0.68870  0.48687  0.06884  1.0000
  H   H1491     1.0  0.69667  0.26342  0.19869  1.0000
  C   C1876     1.0  0.74023  0.28544  0.20106  1.0000
  H   H1492     1.0  0.66797  0.29719  0.16628  1.0000
  H   H1493     1.0  0.60308  0.36598  0.16339  1.0000
  C   C1877     1.0  0.78758  0.33287  0.00855  1.0000
  C   C1878     1.0  0.71075  0.27295  0.24631  1.0000
  C   C1879     1.0  0.75633  0.36059  0.20935  1.0000
  C   C1880     1.0  0.67064  0.30310  0.19060  1.0000
  H   H1494     1.0  0.93593  0.30881  0.43337  1.0000
  C   C1881     1.0  0.74035  0.36843  0.33578  1.0000
  C   C1882     1.0  0.73494  0.24650  0.41983  1.0000
  H   H1495     1.0  0.70168  0.27957  0.45925  1.0000
  H   H1496     1.0  0.98778  0.38495  0.01915  1.0000
  H   H1497     1.0  0.56377  0.33025  0.99430  1.0000
  H   H1498     1.0  0.77501  0.33808  0.05425  1.0000
  C   C1883     1.0  0.97992  0.48579  0.44930  1.0000
  C   C1884     1.0  0.98813  0.41492  0.37060  1.0000
  H   H1499     1.0  0.60459  0.34334  0.46335  1.0000
  C   C1885     1.0  0.78089  0.37613  0.22503  1.0000
  H   H1500     1.0  0.95517  0.28162  0.46918  1.0000
  C   C1886     1.0  0.95373  0.46346  0.45231  1.0000
  C   C1887     1.0  0.91688  0.35575  0.44215  1.0000
  C   C1888     1.0  0.69877  0.46916  0.06629  1.0000
  C   C1889     1.0  0.60350  0.28407  0.45335  1.0000
  H   H1501     1.0  0.97425  0.25450  0.12405  1.0000
  H   H1502     1.0  0.66859  0.46601  0.47796  1.0000
  P   P59       1.0  0.72936  0.28565  0.30854  1.0000
  H   H1503     1.0  0.91070  0.31232  0.01530  1.0000
  H   H1504     1.0  0.87696  0.34948  0.43272  1.0000
  H   H1505     1.0  0.76798  0.31307  0.36040  1.0000
  C   C1890     1.0  0.76748  0.26541  0.10186  1.0000
  H   H1506     1.0  0.93719  0.27168  0.26231  1.0000
  H   H1507     1.0  0.97229  0.28733  0.36665  1.0000
  C   C1891     1.0  0.96516  0.27852  0.04217  1.0000
  H   H1508     1.0  0.71527  0.42785  0.03102  1.0000
  C   C1892     1.0  0.55544  0.25564  0.10105  1.0000
  H   H1509     1.0  0.74282  0.28521  0.17590  1.0000
  H   H1510     1.0  0.60208  0.40722  0.14757  1.0000
  H   H1511     1.0  0.67767  0.33756  0.43760  1.0000
  H   H1512     1.0  0.70811  0.34670  0.36868  1.0000
  H   H1513     1.0  0.61413  0.31810  0.42313  1.0000
  C   C1893     1.0  0.77116  0.33713  0.02924  1.0000
  C   C1894     1.0  0.92977  0.35448  0.33817  1.0000
  H   H1514     1.0  0.98389  0.39995  0.35270  1.0000
  H   H1515     1.0  0.74323  0.38790  0.34262  1.0000
  C   C1895     1.0  0.52035  0.30896  0.99140  1.0000
  Fe  Fe129     1.0  0.62782  0.25139  0.12138  1.0000
  C   C1896     1.0  0.89650  0.30291  0.42030  1.0000
  C   C1897     1.0  0.96333  0.29892  0.22675  1.0000
  H   H1516     1.0  0.82443  0.24708  0.41411  1.0000
  H   H1517     1.0  0.97321  0.46343  0.38986  1.0000
  C   C1898     1.0  0.69759  0.30941  0.08915  1.0000
  C   C1899     1.0  0.71825  0.30312  0.08800  1.0000
  C   C1900     1.0  0.73815  0.31265  0.11135  1.0000
  C   C1901     1.0  0.73715  0.32803  0.13621  1.0000
  C   C1902     1.0  0.71635  0.33431  0.13766  1.0000
  C   C1903     1.0  0.69667  0.32496  0.11381  1.0000
  P   P60       1.0  0.71343  0.35250  0.17070  1.0000
  C   C1904     1.0  0.69076  0.32895  0.19960  1.0000
  C   C1905     1.0  0.74597  0.37284  0.18939  1.0000
  C   C1906     1.0  0.87218  0.28764  0.34987  1.0000
  H   H1518     1.0  0.91316  0.37090  0.37101  1.0000
  H   H1519     1.0  0.83525  0.47548  0.08298  1.0000
  C   C1907     1.0  0.78510  0.41641  0.20136  1.0000
  C   C1908     1.0  0.76060  0.40091  0.18547  1.0000
  H   H1520     1.0  0.95641  0.39914  0.26764  1.0000
  H   H1521     1.0  0.65400  0.39251  0.17247  1.0000
  C   C1909     1.0  0.86572  0.26523  0.36882  1.0000
  C   C1910     1.0  0.85945  0.28442  0.32088  1.0000
  C   C1911     1.0  0.74411  0.33779  0.98535  1.0000
  C   C1912     1.0  0.70044  0.37345  0.15597  1.0000
  C   C1913     1.0  0.71054  0.38779  0.12779  1.0000
  C   C1914     1.0  0.70026  0.40362  0.11585  1.0000
  H   H1522     1.0  0.68185  0.30174  0.07138  1.0000
  H   H1523     1.0  0.71870  0.29064  0.06922  1.0000
  H   H1524     1.0  0.75421  0.30781  0.11034  1.0000
  H   H1525     1.0  0.75254  0.33479  0.15420  1.0000
  H   H1526     1.0  0.68019  0.32918  0.11461  1.0000
  H   H1527     1.0  0.88692  0.30760  0.35747  1.0000
  C   C1915     1.0  0.76277  0.29775  0.22085  1.0000
  C   C1916     1.0  0.68965  0.47714  0.47104  1.0000
  H   H1528     1.0  0.75307  0.41102  0.17061  1.0000
  C   C1917     1.0  0.77099  0.29715  0.35142  1.0000
  H   H1529     1.0  0.85899  0.30315  0.41338  1.0000
  C   C1918     1.0  0.84030  0.25876  0.31042  1.0000
  H   H1530     1.0  0.95068  0.44325  0.45316  1.0000
  H   H1531     1.0  0.60799  0.27315  0.43593  1.0000
  H   H1532     1.0  0.72631  0.38667  0.11498  1.0000
  H   H1533     1.0  0.70812  0.41467  0.09416  1.0000
  S   S260      1.0  0.59467  0.44303  0.00602  1.0000
  H   H1534     1.0  0.98201  0.44363  0.24280  1.0000
  H   H1535     1.0  0.77357  0.38497  0.30321  1.0000
  C   C1919     1.0  0.79073  0.29284  0.36530  1.0000
  C   C1920     1.0  0.77949  0.25608  0.32949  1.0000
  H   H1536     1.0  0.81400  0.41614  0.23382  1.0000
  C   C1921     1.0  0.75422  0.34170  0.30556  1.0000
  C   C1922     1.0  0.75935  0.29741  0.25334  1.0000
  C   C1923     1.0  0.95297  0.27239  0.37621  1.0000
  H   H1537     1.0  0.80061  0.45902  0.47680  1.0000
  C   C1924     1.0  0.71445  0.36650  0.99106  1.0000
  H   H1538     1.0  0.51459  0.27486  0.15738  1.0000
  C   C1925     1.0  0.69160  0.29047  0.46605  1.0000
  C   C1926     1.0  0.94326  0.26596  0.06275  1.0000
  C   C1927     1.0  0.69183  0.36312  0.00786  1.0000
  H   H1539     1.0  0.72678  0.24797  0.12061  1.0000
  H   H1540     1.0  0.97767  0.44884  0.18560  1.0000
  C   C1928     1.0  0.74191  0.25028  0.04329  1.0000
  H   H1541     1.0  0.53511  0.26697  0.46956  1.0000
  C   C1929     1.0  0.97088  0.27906  0.45848  1.0000
  C   C1930     1.0  0.67802  0.32313  0.45371  1.0000
  S   S261      1.0  0.85623  0.45934  0.47972  1.0000
  C   C1931     1.0  0.68558  0.28782  0.00065  1.0000
  C   C1932     1.0  0.96603  0.42928  0.19659  1.0000
  C   C1933     1.0  0.85703  0.48667  0.08020  1.0000
  H   H1542     1.0  0.85422  0.48880  0.42486  1.0000
  H   H1543     1.0  0.80399  0.33038  0.01761  1.0000
  C   C1934     1.0  0.70362  0.46345  0.46517  1.0000
  H   H1544     1.0  0.92372  0.26336  0.05625  1.0000
  C   C1935     1.0  0.66215  0.26336  0.00697  1.0000
  C   C1936     1.0  0.97188  0.26084  0.10087  1.0000
  C   C1937     1.0  0.71771  0.38900  0.47658  1.0000
  H   H1545     1.0  0.91259  0.48026  0.09060  1.0000
  H   H1546     1.0  0.74784  0.24746  0.29629  1.0000
  H   H1547     1.0  0.73615  0.38876  0.48162  1.0000
  C   C1938     1.0  0.97611  0.43095  0.36913  1.0000
  C   C1939     1.0  0.99045  0.28213  0.05081  1.0000
  H   H1548     1.0  0.49753  0.40591  0.11529  1.0000
  C   C1940     1.0  0.73763  0.39216  0.98951  1.0000
  H   H1549     1.0  0.88960  0.24469  0.46291  1.0000
  H   H1550     1.0  0.66322  0.24881  0.02232  1.0000
  H   H1551     1.0  0.98602  0.32908  0.19185  1.0000
  H   H1552     1.0  0.56765  0.25089  0.08583  1.0000
  C   C1941     1.0  0.98402  0.35592  0.98449  1.0000
  C   C1942     1.0  0.99384  0.30145  0.44595  1.0000
  C   C1943     1.0  0.66471  0.31802  0.48254  1.0000
  Fe  Fe130     1.0  0.82385  0.47102  0.82956  1.0000
  S   S262      1.0  0.83919  0.48252  0.87969  1.0000
  Fe  Fe131     1.0  0.77089  0.43449  0.79507  1.0000
  S   S263      1.0  0.78882  0.45060  0.74792  1.0000
  S   S264      1.0  0.72776  0.40332  0.80689  1.0000
  Fe  Fe132     1.0  0.82404  0.44672  0.76528  1.0000
  S   S265      1.0  0.83675  0.42654  0.72855  1.0000
  H   H1553     1.0  0.73256  0.30454  0.51080  1.0000
  S   S266      1.0  0.80474  0.42833  0.81153  1.0000
  S   S267      1.0  0.78859  0.47560  0.81629  1.0000
  Fe  Fe133     1.0  0.59103  0.41285  0.55791  1.0000
  S   S268      1.0  0.58490  0.42148  0.60796  1.0000
  Fe  Fe134     1.0  0.91243  0.34371  0.73185  1.0000
  S   S269      1.0  0.88691  0.32108  0.69036  1.0000
  S   S270      1.0  0.91084  0.37603  0.76077  1.0000
  Fe  Fe135     1.0  0.94354  0.31321  0.73090  1.0000
  S   S271      1.0  0.92026  0.28788  0.68966  1.0000
  H   H1554     1.0  0.78601  0.27741  0.68565  1.0000
  Fe  Fe136     1.0  0.92561  0.32653  0.66962  1.0000
  S   S272      1.0  0.93500  0.33487  0.61776  1.0000
  Fe  Fe137     1.0  0.88356  0.28436  0.71397  1.0000
  H   H1555     1.0  0.55965  0.36247  0.67187  1.0000
  S   S273      1.0  0.95145  0.35216  0.70923  1.0000
  S   S274      1.0  0.90656  0.30665  0.75709  1.0000
  S   S275      1.0  0.64880  0.32065  0.70564  1.0000
  C   C1944     1.0  0.66452  0.39246  0.94290  1.0000
  C   C1945     1.0  0.50607  0.24916  0.64311  1.0000
  H   H1556     1.0  0.64457  0.26539  0.64445  1.0000
  S   S276      1.0  0.58357  0.37186  0.54575  1.0000
  C   C1946     1.0  0.67834  0.28525  0.49504  1.0000
  H   H1557     1.0  0.49458  0.29429  0.85255  1.0000
  H   H1558     1.0  0.96458  0.26969  0.79468  1.0000
  S   S277      1.0  0.51907  0.34162  0.49402  1.0000
  H   H1559     1.0  0.98107  0.46483  0.50690  1.0000
  C   C1947     1.0  0.55220  0.39828  0.62136  1.0000
  C   C1948     1.0  0.54411  0.40040  0.65182  1.0000
  C   C1949     1.0  0.49887  0.29431  0.77298  1.0000
  C   C1950     1.0  0.96854  0.35557  0.60428  1.0000
  H   H1560     1.0  0.94648  0.34937  0.51072  1.0000
  C   C1951     1.0  0.68886  0.41667  0.93973  1.0000
  H   H1561     1.0  0.55809  0.41628  0.66720  1.0000
  C   C1952     1.0  0.51193  0.27470  0.82637  1.0000
  H   H1562     1.0  0.96092  0.33446  0.56032  1.0000
  C   C1953     1.0  0.68446  0.30693  0.98095  1.0000
  C   C1954     1.0  0.75447  0.43902  0.67689  1.0000
  H   H1563     1.0  0.77376  0.44070  0.68262  1.0000
  C   C1955     1.0  0.64409  0.45814  0.65421  1.0000
  H   H1564     1.0  0.94091  0.38619  0.66565  1.0000
  C   C1956     1.0  0.85574  0.41102  0.73891  1.0000
  C   C1957     1.0  0.85720  0.39299  0.71782  1.0000
  C   C1958     1.0  0.87331  0.38140  0.72465  1.0000
  C   C1959     1.0  0.88860  0.38830  0.75230  1.0000
  C   C1960     1.0  0.88679  0.40601  0.77357  1.0000
  C   C1961     1.0  0.87024  0.41715  0.76707  1.0000
  H   H1565     1.0  0.84601  0.38812  0.69601  1.0000
  H   H1566     1.0  0.87442  0.36767  0.70818  1.0000
  H   H1567     1.0  0.89850  0.41139  0.79504  1.0000
  H   H1568     1.0  0.86931  0.43105  0.78343  1.0000
  C   C1962     1.0  0.70571  0.38129  0.77811  1.0000
  C   C1963     1.0  0.68012  0.36053  0.78732  1.0000
  C   C1964     1.0  0.66233  0.34194  0.76522  1.0000
  C   C1965     1.0  0.66999  0.34423  0.73375  1.0000
  C   C1966     1.0  0.69517  0.36553  0.72435  1.0000
  C   C1967     1.0  0.71314  0.38395  0.74652  1.0000
  H   H1569     1.0  0.67414  0.35861  0.81168  1.0000
  H   H1570     1.0  0.64277  0.32584  0.77255  1.0000
  H   H1571     1.0  0.70106  0.36727  0.70002  1.0000
  H   H1572     1.0  0.73276  0.40002  0.73922  1.0000
  H   H1573     1.0  0.99277  0.45073  0.55665  1.0000
  H   H1574     1.0  0.75299  0.39265  0.59093  1.0000
  C   C1968     1.0  0.65099  0.26400  0.62093  1.0000
  C   C1969     1.0  0.72545  0.45858  0.67451  1.0000
  C   C1970     1.0  0.61995  0.35741  0.67501  1.0000
  C   C1971     1.0  0.60068  0.34797  0.65107  1.0000
  C   C1972     1.0  0.60412  0.36417  0.62505  1.0000
  C   C1973     1.0  0.62711  0.38973  0.62259  1.0000
  C   C1974     1.0  0.64695  0.39904  0.64618  1.0000
  C   C1975     1.0  0.64296  0.38286  0.67268  1.0000
  C   C1976     1.0  0.51025  0.29258  0.65280  1.0000
  C   C1977     1.0  0.57917  0.31028  0.85265  1.0000
  H   H1575     1.0  0.61684  0.34512  0.69562  1.0000
  H   H1576     1.0  0.58285  0.32830  0.65303  1.0000
  H   H1577     1.0  0.58859  0.35713  0.60721  1.0000
  H   H1578     1.0  0.62895  0.40239  0.60275  1.0000
  H   H1579     1.0  0.65737  0.39002  0.69189  1.0000
  H   H1580     1.0  0.53553  0.32792  0.71305  1.0000
  H   H1581     1.0  0.70784  0.24897  0.78919  1.0000
  S   S278      1.0  0.61819  0.44327  0.91580  1.0000
  C   C1978     1.0  0.69470  0.47567  0.60342  1.0000
  H   H1582     1.0  0.51728  0.27504  0.74695  1.0000
  C   C1979     1.0  0.66448  0.29884  0.50299  1.0000
  C   C1980     1.0  0.66151  0.45940  0.80282  1.0000
  C   C1981     1.0  0.56981  0.39668  0.81741  1.0000
  C   C1982     1.0  0.66654  0.26072  0.55936  1.0000
  C   C1983     1.0  0.71372  0.34162  0.92941  1.0000
  H   H1583     1.0  0.69405  0.48785  0.62238  1.0000
  C   C1984     1.0  0.59223  0.31238  0.49843  1.0000
  C   C1985     1.0  0.94473  0.45956  0.56854  1.0000
  H   H1584     1.0  0.50588  0.38644  0.81118  1.0000
  S   S279      1.0  0.56760  0.41543  0.51710  1.0000
  H   H1585     1.0  0.63021  0.32152  0.54239  1.0000
  H   H1586     1.0  0.59809  0.34015  0.78117  1.0000
  H   H1587     1.0  0.69000  0.41989  0.80725  1.0000
  C   C1986     1.0  0.95774  0.48614  0.55771  1.0000
  C   C1987     1.0  0.67049  0.28717  0.60566  1.0000
  C   C1988     1.0  0.98623  0.28793  0.75208  1.0000
  H   H1588     1.0  0.52003  0.31015  0.96605  1.0000
  H   H1589     1.0  0.75532  0.39515  0.97675  1.0000
  C   C1989     1.0  0.97305  0.26805  0.96016  1.0000
  C   C1990     1.0  0.67544  0.38541  0.49447  1.0000
  P   P61       1.0  0.72477  0.46462  0.91074  1.0000
  C   C1991     1.0  0.69225  0.43464  0.91548  1.0000
  C   C1992     1.0  0.74819  0.45228  0.90769  1.0000
  C   C1993     1.0  0.74721  0.43729  0.88134  1.0000
  C   C1994     1.0  0.76423  0.27413  0.64339  1.0000
  C   C1995     1.0  0.74513  0.26865  0.69570  1.0000
  C   C1996     1.0  0.51239  0.27936  0.76995  1.0000
  C   C1997     1.0  0.76547  0.45501  0.93278  1.0000
  H   H1590     1.0  0.62989  0.39904  0.88175  1.0000
  C   C1998     1.0  0.67099  0.42781  0.89413  1.0000
  C   C1999     1.0  0.50853  0.36394  0.91176  1.0000
  C   C2000     1.0  0.76123  0.33434  0.96462  1.0000
  H   H1591     1.0  0.79575  0.32877  0.96022  1.0000
  Fe  Fe138     1.0  0.62171  0.39322  0.51765  1.0000
  C   C2001     1.0  0.63632  0.27630  0.97342  1.0000
  H   H1592     1.0  0.52791  0.38157  0.90662  1.0000
  C   C2002     1.0  0.93631  0.26593  0.92928  1.0000
  H   H1593     1.0  0.61719  0.27191  0.96302  1.0000
  C   C2003     1.0  0.59163  0.33743  0.80544  1.0000
  H   H1594     1.0  0.77704  0.30761  0.51431  1.0000
  C   C2004     1.0  0.58286  0.37810  0.75903  1.0000
  C   C2005     1.0  0.82817  0.29352  0.75506  1.0000
  H   H1595     1.0  0.52253  0.31427  0.65449  1.0000
  C   C2006     1.0  0.78113  0.42892  0.90442  1.0000
  H   H1596     1.0  0.67301  0.44086  0.87477  1.0000
  C   C2007     1.0  0.51785  0.38199  0.66239  1.0000
  H   H1597     1.0  0.71137  0.30336  0.92034  1.0000
  C   C2008     1.0  0.64348  0.33023  0.58994  1.0000
  C   C2009     1.0  0.63780  0.32224  0.62128  1.0000
  C   C2010     1.0  0.61402  0.29859  0.62904  1.0000
  C   C2011     1.0  0.59569  0.28313  0.60555  1.0000
  C   C2012     1.0  0.60140  0.29080  0.57392  1.0000
  C   C2013     1.0  0.62547  0.31452  0.56632  1.0000
  P   P62       1.0  0.57601  0.27221  0.54439  1.0000
  C   C2014     1.0  0.94535  0.25456  0.54406  1.0000
  C   C2015     1.0  0.54754  0.27621  0.55550  1.0000
  C   C2016     1.0  0.53058  0.30547  0.57276  1.0000
  C   C2017     1.0  0.55217  0.30163  0.56491  1.0000
  C   C2018     1.0  0.58824  0.28679  0.50588  1.0000
  H   H1598     1.0  0.50398  0.34676  0.86573  1.0000
  C   C2019     1.0  0.95387  0.26884  0.57252  1.0000
  Fe  Fe139     1.0  0.80995  0.49120  0.77075  1.0000
  H   H1599     1.0  0.67931  0.30641  0.61757  1.0000
  C   C2020     1.0  0.91766  0.47673  0.52838  1.0000
  C   C2021     1.0  0.81802  0.45082  0.62823  1.0000
  C   C2022     1.0  0.68697  0.43301  0.58295  1.0000
  H   H1600     1.0  0.53417  0.32533  0.57882  1.0000
  H   H1601     1.0  0.57250  0.31860  0.56598  1.0000
  C   C2023     1.0  0.67832  0.28557  0.57504  1.0000
  C   C2024     1.0  0.78196  0.44349  0.93099  1.0000
  H   H1602     1.0  0.58816  0.32387  0.51535  1.0000
  H   H1603     1.0  0.71701  0.48259  0.52823  1.0000
  H   H1604     1.0  0.85897  0.33124  0.77407  1.0000
  H   H1605     1.0  0.96629  0.39828  0.50117  1.0000
  C   C2025     1.0  0.53401  0.37772  0.60160  1.0000
  C   C2026     1.0  0.59635  0.39755  0.73561  1.0000
  C   C2027     1.0  0.58811  0.39177  0.70425  1.0000
  C   C2028     1.0  0.80824  0.47190  0.52506  1.0000
  C   C2029     1.0  0.57528  0.32948  0.86825  1.0000
  C   C2030     1.0  0.80679  0.42475  0.64034  1.0000
  C   C2031     1.0  0.71801  0.26414  0.64946  1.0000
  C   C2032     1.0  0.50994  0.30732  0.49100  1.0000
  H   H1606     1.0  0.59259  0.25363  0.48819  1.0000
  C   C2033     1.0  0.82068  0.32984  0.77017  1.0000
  C   C2034     1.0  0.56406  0.47342  0.62529  1.0000
  C   C2035     1.0  0.78332  0.28816  0.74969  1.0000
  H   H1607     1.0  0.76618  0.47885  0.69291  1.0000
  S   S280      1.0  0.57082  0.26600  0.71094  1.0000
  C   C2036     1.0  0.70991  0.26223  0.52347  1.0000
  C   C2037     1.0  0.76370  0.42574  0.87972  1.0000
  C   C2038     1.0  0.54332  0.38661  0.80620  1.0000
  C   C2039     1.0  0.75890  0.28882  0.51990  1.0000
  H   H1608     1.0  0.78066  0.32307  0.76424  1.0000
  C   C2040     1.0  0.70985  0.36424  0.88301  1.0000
  C   C2041     1.0  0.70888  0.34401  0.86395  1.0000
  C   C2042     1.0  0.73389  0.41523  0.66391  1.0000
  H   H1609     1.0  0.82854  0.35014  0.77900  1.0000
  H   H1610     1.0  0.61838  0.47524  0.66044  1.0000
  H   H1611     1.0  0.49813  0.47656  0.63561  1.0000
  C   C2043     1.0  0.63247  0.47036  0.67163  1.0000
  P   P63       1.0  0.97976  0.31757  0.94058  1.0000
  Fe  Fe140     1.0  0.61442  0.28109  0.72305  1.0000
  H   H1612     1.0  0.67949  0.26635  0.81020  1.0000
  C   C2044     1.0  0.71250  0.36326  0.91557  1.0000
  C   C2045     1.0  0.98781  0.37710  0.62218  1.0000
  H   H1613     1.0  0.65307  0.29437  0.52454  1.0000
  C   C2046     1.0  0.72563  0.48484  0.87797  1.0000
  H   H1614     1.0  0.70841  0.30630  0.86268  1.0000
  H   H1615     1.0  0.62406  0.36767  0.92527  1.0000
  H   H1616     1.0  0.54379  0.28638  0.64293  1.0000
  H   H1617     1.0  0.51159  0.38375  0.68579  1.0000
  H   H1618     1.0  0.70856  0.38073  0.87236  1.0000
  H   H1619     1.0  0.70742  0.34524  0.83867  1.0000
  H   H1620     1.0  0.96905  0.28657  0.65211  1.0000
  C   C2047     1.0  0.49719  0.36068  0.94155  1.0000
  P   P64       1.0  0.71443  0.33851  0.97164  1.0000
  H   H1621     1.0  0.96303  0.35081  0.82029  1.0000
  H   H1622     1.0  0.61301  0.41723  0.74143  1.0000
  H   H1623     1.0  0.81595  0.42096  0.66068  1.0000
  H   H1624     1.0  0.67990  0.41173  0.58577  1.0000
  H   H1625     1.0  0.76226  0.48900  0.85871  1.0000
  H   H1626     1.0  0.70456  0.38325  0.52485  1.0000
  C   C2048     1.0  0.69855  0.44552  0.55440  1.0000
  C   C2049     1.0  0.78240  0.43497  0.58916  1.0000
  H   H1627     1.0  0.97267  0.29448  0.87727  1.0000
  C   C2050     1.0  0.50788  0.35943  0.61211  1.0000
  H   H1628     1.0  0.56036  0.45302  0.62694  1.0000
  C   C2051     1.0  0.64722  0.40516  0.80474  1.0000
  C   C2052     1.0  0.76089  0.26632  0.52829  1.0000
  H   H1629     1.0  0.65418  0.32866  0.48877  1.0000
  H   H1630     1.0  0.73709  0.39840  0.66008  1.0000
  C   C2053     1.0  0.79347  0.31436  0.76152  1.0000
  C   C2054     1.0  0.64318  0.38611  0.92215  1.0000
  H   H1631     1.0  0.69375  0.39474  0.64498  1.0000
  H   H1632     1.0  0.59848  0.40677  0.68613  1.0000
  H   H1633     1.0  0.58997  0.29921  0.80917  1.0000
  C   C2055     1.0  0.56152  0.42213  0.85708  1.0000
  H   H1634     1.0  0.98257  0.38082  0.64526  1.0000
  C   C2056     1.0  0.73355  0.28687  0.51762  1.0000
  P   P65       1.0  0.67452  0.43326  0.64608  1.0000
  H   H1635     1.0  0.63593  0.46935  0.85648  1.0000
  H   H1636     1.0  0.77211  0.43867  0.57009  1.0000
  C   C2057     1.0  0.91508  0.27551  0.57057  1.0000
  C   C2058     1.0  0.93840  0.27908  0.58573  1.0000
  H   H1637     1.0  0.76298  0.41429  0.85925  1.0000
  H   H1638     1.0  0.65162  0.33451  0.63965  1.0000
  C   C2059     1.0  0.62687  0.41203  0.80266  1.0000
  H   H1639     1.0  0.90349  0.28378  0.58095  1.0000
  H   H1640     1.0  0.94426  0.29009  0.60755  1.0000
  C   C2060     1.0  0.91811  0.44125  0.55909  1.0000
  C   C2061     1.0  0.90463  0.45007  0.53890  1.0000
  P   P66       1.0  0.90239  0.40671  0.57237  1.0000
  C   C2062     1.0  0.91075  0.40816  0.61358  1.0000
  C   C2063     1.0  0.86618  0.38961  0.56629  1.0000
  C   C2064     1.0  0.85578  0.38241  0.53571  1.0000
  C   C2065     1.0  0.82790  0.36967  0.53035  1.0000
  C   C2066     1.0  0.81013  0.36364  0.55548  1.0000
  C   C2067     1.0  0.82024  0.37020  0.58607  1.0000
  C   C2068     1.0  0.84814  0.38308  0.59153  1.0000
  C   C2069     1.0  0.92382  0.39468  0.62523  1.0000
  C   C2070     1.0  0.93106  0.39684  0.65687  1.0000
  C   C2071     1.0  0.92556  0.41257  0.67715  1.0000
  C   C2072     1.0  0.91279  0.42625  0.66576  1.0000
  C   C2073     1.0  0.90562  0.42427  0.63404  1.0000
  C   C2074     1.0  0.91520  0.38839  0.55069  1.0000
  C   C2075     1.0  0.93731  0.40174  0.53033  1.0000
  C   C2076     1.0  0.94853  0.38771  0.51587  1.0000
  C   C2077     1.0  0.93734  0.36013  0.52114  1.0000
  C   C2078     1.0  0.91482  0.34653  0.54061  1.0000
  C   C2079     1.0  0.90371  0.36055  0.55529  1.0000
  H   H1641     1.0  0.95544  0.45323  0.58428  1.0000
  H   H1642     1.0  0.88408  0.43673  0.53122  1.0000
  H   H1643     1.0  0.86922  0.38691  0.51587  1.0000
  H   H1644     1.0  0.82011  0.36454  0.50661  1.0000
  H   H1645     1.0  0.78855  0.35379  0.55117  1.0000
  H   H1646     1.0  0.80647  0.36527  0.60563  1.0000
  H   H1647     1.0  0.85534  0.38762  0.61546  1.0000
  H   H1648     1.0  0.92876  0.38262  0.61017  1.0000
  H   H1649     1.0  0.77490  0.38355  0.63616  1.0000
  H   H1650     1.0  0.93095  0.41393  0.70180  1.0000
  H   H1651     1.0  0.90824  0.43816  0.68172  1.0000
  H   H1652     1.0  0.89595  0.43519  0.62554  1.0000
  H   H1653     1.0  0.94620  0.42300  0.52601  1.0000
  S   S281      1.0  0.60572  0.26639  0.77252  1.0000
  H   H1654     1.0  0.79586  0.44634  0.94988  1.0000
  H   H1655     1.0  0.90664  0.32530  0.54538  1.0000
  H   H1656     1.0  0.88688  0.34988  0.57125  1.0000
  C   C2080     1.0  0.57927  0.35254  0.85239  1.0000
  S   S282      1.0  0.65281  0.38018  0.52523  1.0000
  H   H1657     1.0  0.97428  0.36363  0.91972  1.0000
  C   C2081     1.0  0.64648  0.40373  0.89768  1.0000
  C   C2082     1.0  0.56621  0.36670  0.69613  1.0000
  Fe  Fe141     1.0  0.56227  0.37510  0.50331  1.0000
  C   C2083     1.0  0.55268  0.34727  0.71926  1.0000
  C   C2084     1.0  0.67441  0.42528  0.80577  1.0000
  H   H1658     1.0  0.61902  0.44523  0.79900  1.0000
  C   C2085     1.0  0.70918  0.41312  0.65587  1.0000
  H   H1659     1.0  0.57691  0.26528  0.61207  1.0000
  H   H1660     1.0  0.57550  0.29208  0.86460  1.0000
  C   C2086     1.0  0.52092  0.25431  0.55609  1.0000
  C   C2087     1.0  0.78280  0.33178  0.97625  1.0000
  H   H1661     1.0  0.70269  0.46775  0.80509  1.0000
  C   C2088     1.0  0.62875  0.47665  0.90401  1.0000
  C   C2089     1.0  0.58723  0.35657  0.82073  1.0000
  H   H1662     1.0  0.64232  0.38435  0.80523  1.0000
  C   C2090     1.0  0.72063  0.26384  0.68209  1.0000
  C   C2091     1.0  0.72820  0.28108  0.75509  1.0000
  C   C2092     1.0  0.65961  0.30096  0.96742  1.0000
  H   H1663     1.0  0.92713  0.27565  0.91644  1.0000
  C   C2093     1.0  0.96192  0.28125  0.94324  1.0000
  C   C2094     1.0  0.70962  0.32220  0.87751  1.0000
  H   H1664     1.0  0.90708  0.48347  0.51303  1.0000
  C   C2095     1.0  0.75018  0.46056  0.68252  1.0000
  C   C2096     1.0  0.71011  0.26749  0.77973  1.0000
  C   C2097     1.0  0.69406  0.27739  0.79192  1.0000
  C   C2098     1.0  0.69599  0.30090  0.77975  1.0000
  C   C2099     1.0  0.71411  0.31467  0.75548  1.0000
  C   C2100     1.0  0.73003  0.30474  0.74303  1.0000
  H   H1665     1.0  0.81003  0.45472  0.53215  1.0000
  H   H1666     1.0  0.71312  0.37922  0.92966  1.0000
  C   C2101     1.0  0.80106  0.27803  0.74614  1.0000
  C   C2102     1.0  0.96749  0.32094  0.84611  1.0000
  H   H1667     1.0  0.66109  0.47295  0.74237  1.0000
  C   C2103     1.0  0.76692  0.27377  0.67603  1.0000
  H   H1668     1.0  0.73359  0.43443  0.86211  1.0000
  C   C2104     1.0  0.57858  0.41410  0.84336  1.0000
  H   H1669     1.0  0.63028  0.48584  0.71694  1.0000
  P   P67       1.0  0.67696  0.25913  0.51980  1.0000
  C   C2105     1.0  0.49941  0.25814  0.56445  1.0000
  P   P68       1.0  0.74820  0.26794  0.73796  1.0000
  C   C2106     1.0  0.97129  0.31260  0.87563  1.0000
  H   H1670     1.0  0.66716  0.48049  0.80193  1.0000
  C   C2107     1.0  0.80637  0.45601  0.60196  1.0000
  H   H1671     1.0  0.68314  0.30822  0.78879  1.0000
  H   H1672     1.0  0.71557  0.33288  0.74608  1.0000
  H   H1673     1.0  0.74375  0.31551  0.72395  1.0000
  C   C2108     1.0  0.53536  0.41241  0.84537  1.0000
  H   H1674     1.0  0.66208  0.37877  0.96171  1.0000
  C   C2109     1.0  0.68492  0.44801  0.60766  1.0000
  C   C2110     1.0  0.69975  0.38578  0.50097  1.0000
  C   C2111     1.0  0.77132  0.40885  0.60117  1.0000
  H   H1675     1.0  0.70512  0.42137  0.95614  1.0000
  C   C2112     1.0  0.70471  0.43473  0.66125  1.0000
  H   H1676     1.0  0.59852  0.42132  0.85327  1.0000
  H   H1677     1.0  0.84173  0.28559  0.75242  1.0000
  H   H1678     1.0  0.65821  0.31541  0.95224  1.0000
  C   C2113     1.0  0.96609  0.34446  0.84323  1.0000
  C   C2114     1.0  0.96858  0.35973  0.86987  1.0000
  C   C2115     1.0  0.97235  0.35145  0.89946  1.0000
  C   C2116     1.0  0.97346  0.32764  0.90264  1.0000
  H   H1679     1.0  0.68015  0.44960  0.71248  1.0000
  H   H1680     1.0  0.69996  0.43384  0.53531  1.0000
  C   C2117     1.0  0.63425  0.43935  0.80135  1.0000
  C   C2118     1.0  0.63885  0.47594  0.70340  1.0000
  H   H1681     1.0  0.57601  0.36705  0.86493  1.0000
  C   C2119     1.0  0.97791  0.26950  0.77684  1.0000
  H   H1682     1.0  0.53981  0.37613  0.57793  1.0000
  S   S283      1.0  0.63121  0.43437  0.53346  1.0000
  H   H1683     1.0  0.69339  0.30374  0.56347  1.0000
  H   H1684     1.0  0.70344  0.25968  0.69670  1.0000
  H   H1685     1.0  0.53553  0.37243  0.78696  1.0000
  P   P69       1.0  0.59174  0.38602  0.79996  1.0000
  H   H1686     1.0  0.56892  0.32637  0.89256  1.0000
  C   C2120     1.0  0.51873  0.26931  0.79681  1.0000
  C   C2121     1.0  0.68156  0.45233  0.80470  1.0000
  H   H1687     1.0  0.75810  0.33350  0.93955  1.0000
  C   C2122     1.0  0.78361  0.40371  0.62660  1.0000
  H   H1688     1.0  0.56868  0.43579  0.87695  1.0000
  C   C2123     1.0  0.56094  0.35296  0.75057  1.0000
  H   H1689     1.0  0.66154  0.34891  0.58386  1.0000
  H   H1690     1.0  0.79450  0.42068  0.90256  1.0000
  H   H1691     1.0  0.96745  0.37797  0.86751  1.0000
  H   H1692     1.0  0.72276  0.47577  0.67814  1.0000
  C   C2124     1.0  0.63647  0.48403  0.87268  1.0000
  H   H1693     1.0  0.60960  0.29244  0.65338  1.0000
  C   C2125     1.0  0.83794  0.31932  0.76719  1.0000
  H   H1694     1.0  0.54994  0.33793  0.76834  1.0000
  C   C2126     1.0  0.97561  0.35115  0.57424  1.0000
  C   C2127     1.0  0.58740  0.31432  0.82133  1.0000
  H   H1695     1.0  0.83574  0.46693  0.63958  1.0000
  H   H1696     1.0  0.78114  0.27803  0.62844  1.0000
  C   C2128     1.0  0.52625  0.39449  0.82009  1.0000
  H   H1697     1.0  0.52212  0.41857  0.85605  1.0000
  C   C2129     1.0  0.66194  0.45119  0.66848  1.0000
  H   H1698     1.0  0.63876  0.45367  0.62965  1.0000
  H   H1699     1.0  0.54017  0.46945  0.66573  1.0000
  Fe  Fe142     1.0  0.60717  0.43358  0.49120  1.0000
  S   S284      1.0  0.98000  0.31498  0.75437  1.0000
  S   S285      1.0  0.84677  0.48904  0.78471  1.0000
  C   C2130     1.0  0.52217  0.27700  0.64625  1.0000
  H   H1700     1.0  0.69541  0.46683  0.96602  1.0000
  C   C2131     1.0  0.71593  0.48346  0.96697  1.0000
  H   H1701     1.0  0.95667  0.24611  0.53342  1.0000
  C   C2132     1.0  0.73980  0.26930  0.63009  1.0000
  C   C2133     1.0  0.66747  0.45592  0.70061  1.0000
  H   H1702     1.0  0.78055  0.26777  0.52920  1.0000
  H   H1703     1.0  0.50805  0.43067  0.96831  1.0000
  C   C2134     1.0  0.73444  0.48731  0.94331  1.0000
  H   H1704     1.0  0.76631  0.46590  0.95381  1.0000
  C   C2135     1.0  0.71161  0.32079  0.91012  1.0000
  Fe  Fe143     1.0  0.61147  0.42977  0.96675  1.0000
  C   C2136     1.0  0.70592  0.48800  0.57473  1.0000
  C   C2137     1.0  0.96727  0.33034  0.97135  1.0000
  C   C2138     1.0  0.70806  0.47298  0.55032  1.0000
  H   H1705     1.0  0.69899  0.26020  0.63921  1.0000
  S   S286      1.0  0.58254  0.38611  0.97585  1.0000
  C   C2139     1.0  0.65622  0.46862  0.71782  1.0000
  H   H1706     1.0  0.50780  0.37586  0.95940  1.0000
  H   H1707     1.0  0.96565  0.30925  0.82530  1.0000
  C   C2140     1.0  0.90688  0.26150  0.54220  1.0000
  C   C2141     1.0  0.98790  0.25169  0.77957  1.0000
  H   H1708     1.0  0.69142  0.48815  0.89395  1.0000
  P   P70       1.0  0.82089  0.48998  0.58707  1.0000
  H   H1709     1.0  0.73770  0.26943  0.60480  1.0000
  P   P71       1.0  0.98412  0.27332  0.59186  1.0000
  H   H1710     1.0  0.71569  0.48609  0.74532  1.0000
  C   C2142     1.0  0.49507  0.34430  0.88882  1.0000
  H   H1711     1.0  0.79401  0.25811  0.73653  1.0000
  H   H1712     1.0  0.86052  0.47129  0.58489  1.0000
  H   H1713     1.0  0.75917  0.48635  0.74825  1.0000
  C   C2143     1.0  0.49964  0.36159  0.64237  1.0000
  C   C2144     1.0  0.50803  0.49230  0.68299  1.0000
  H   H1714     1.0  0.51658  0.26696  0.84719  1.0000
  C   C2145     1.0  0.50419  0.28378  0.57226  1.0000
  Fe  Fe144     1.0  0.56191  0.24788  0.75918  1.0000
  C   C2146     1.0  0.49933  0.29015  0.82942  1.0000
  H   H1715     1.0  0.83624  0.49335  0.94519  1.0000
  H   H1716     1.0  0.62344  0.49033  0.94903  1.0000
  C   C2147     1.0  0.74674  0.49432  0.85628  1.0000
  S   S287      1.0  0.53306  0.24816  0.79547  1.0000
  C   C2148     1.0  0.80318  0.47441  0.49346  1.0000
  C   C2149     1.0  0.58001  0.49008  0.60098  1.0000
  C   C2150     1.0  0.70731  0.49440  0.87659  1.0000
  H   H1717     1.0  0.58866  0.48248  0.58395  1.0000
  C   C2151     1.0  0.55250  0.48282  0.64711  1.0000
  C   C2152     1.0  0.92191  0.25085  0.52906  1.0000
  H   H1718     1.0  0.88887  0.25889  0.53054  1.0000
  H   H1719     1.0  0.92697  0.29524  0.97266  1.0000
  C   C2153     1.0  0.81213  0.49196  0.54673  1.0000
  C   C2154     1.0  0.49911  0.48808  0.71429  1.0000
  H   H1720     1.0  0.85740  0.25086  0.77858  1.0000
  C   C2155     1.0  0.98753  0.30405  0.64425  1.0000
  C   C2156     1.0  0.94058  0.31485  0.98237  1.0000
  C   C2157     1.0  0.98848  0.24682  0.64488  1.0000
  C   C2158     1.0  0.87134  0.49298  0.58729  1.0000
  C   C2159     1.0  0.59451  0.27297  0.48317  1.0000
  H   H1721     1.0  0.99263  0.27930  0.97138  1.0000
  S   S288      1.0  0.84280  0.24563  0.71211  1.0000
  H   H1722     1.0  0.98940  0.32766  0.68444  1.0000
  Fe  Fe145     1.0  0.83697  0.62081  0.05272  1.0000
  S   S289      1.0  0.83797  0.59504  0.09131  1.0000
  S   S290      1.0  0.83122  0.65700  0.05942  1.0000
  H   H1723     1.0  0.84847  0.74032  0.11157  1.0000
  S   S291      1.0  0.84871  0.56118  0.03788  1.0000
  H   H1724     1.0  0.89900  0.72306  0.22278  1.0000
  Fe  Fe146     1.0  0.81248  0.56013  0.05983  1.0000
  S   S292      1.0  0.78012  0.51806  0.07434  1.0000
  Fe  Fe147     1.0  0.87740  0.59863  0.06838  1.0000
  S   S293      1.0  0.93592  0.61232  0.11005  1.0000
  S   S294      1.0  0.80802  0.58557  0.02302  1.0000
  S   S295      1.0  0.87371  0.62506  0.02848  1.0000
  H   H1725     1.0  0.69684  0.52725  0.41436  1.0000
  C   C2160     1.0  0.78221  0.56997  0.45010  1.0000
  Fe  Fe148     1.0  0.59055  0.70710  0.17103  1.0000
  C   C2161     1.0  0.91309  0.51549  0.07209  1.0000
  S   S296      1.0  0.55464  0.67705  0.14166  1.0000
  C   C2162     1.0  0.78247  0.74141  0.33133  1.0000
  H   H1726     1.0  0.95145  0.68147  0.25147  1.0000
  H   H1727     1.0  0.69925  0.52825  0.07532  1.0000
  Fe  Fe149     1.0  0.62079  0.71956  0.23341  1.0000
  S   S297      1.0  0.61900  0.70798  0.28475  1.0000
  C   C2163     1.0  0.97056  0.63754  0.10643  1.0000
  S   S298      1.0  0.62049  0.69625  0.19107  1.0000
  H   H1728     1.0  0.57414  0.64670  0.42934  1.0000
  Fe  Fe150     1.0  0.70264  0.68364  0.44039  1.0000
  S   S299      1.0  0.72433  0.68602  0.39568  1.0000
  S   S300      1.0  0.69804  0.71836  0.45758  1.0000
  Fe  Fe151     1.0  0.68439  0.62426  0.45051  1.0000
  S   S301      1.0  0.70408  0.62190  0.40608  1.0000
  H   H1729     1.0  0.96335  0.53534  0.44908  1.0000
  Fe  Fe152     1.0  0.73922  0.66153  0.42123  1.0000
  S   S302      1.0  0.78239  0.67064  0.41395  1.0000
  Fe  Fe153     1.0  0.68747  0.64655  0.38437  1.0000
  S   S303      1.0  0.67071  0.63920  0.33479  1.0000
  S   S304      1.0  0.72069  0.66267  0.46717  1.0000
  S   S305      1.0  0.66464  0.64550  0.42758  1.0000
  H   H1730     1.0  0.84558  0.73217  0.29876  1.0000
  C   C2164     1.0  0.79995  0.58593  0.47397  1.0000
  P   P72       1.0  0.53105  0.66822  0.31946  1.0000
  C   C2165     1.0  0.53424  0.71611  0.33980  1.0000
  C   C2166     1.0  0.93919  0.64924  0.18109  1.0000
  S   S306      1.0  0.89291  0.58291  0.45741  1.0000
  C   C2167     1.0  0.57154  0.67765  0.36235  1.0000
  C   C2168     1.0  0.53565  0.56089  0.29583  1.0000
  S   S307      1.0  0.90623  0.65468  0.47840  1.0000
  H   H1731     1.0  0.60380  0.68409  0.39389  1.0000
  H   H1732     1.0  0.91723  0.49565  0.45287  1.0000
  C   C2169     1.0  0.64532  0.52164  0.44157  1.0000
  C   C2170     1.0  0.65484  0.54902  0.44791  1.0000
  C   C2171     1.0  0.71847  0.57953  0.36343  1.0000
  H   H1733     1.0  0.56280  0.70111  0.44842  1.0000
  C   C2172     1.0  0.94332  0.66522  0.23451  1.0000
  H   H1734     1.0  0.91608  0.60629  0.17495  1.0000
  H   H1735     1.0  0.66240  0.56356  0.42905  1.0000
  C   C2173     1.0  0.79862  0.66373  0.44507  1.0000
  C   C2174     1.0  0.82454  0.66719  0.44054  1.0000
  C   C2175     1.0  0.83820  0.66268  0.46532  1.0000
  C   C2176     1.0  0.70075  0.74147  0.30408  1.0000
  H   H1736     1.0  0.68243  0.54056  0.36655  1.0000
  C   C2177     1.0  0.53488  0.74264  0.11427  1.0000
  H   H1737     1.0  0.83422  0.67363  0.41791  1.0000
  H   H1738     1.0  0.85831  0.66581  0.46169  1.0000
  H   H1739     1.0  0.75364  0.59976  0.98542  1.0000
  C   C2178     1.0  0.63014  0.73885  0.43257  1.0000
  C   C2179     1.0  0.63261  0.68804  0.29810  1.0000
  C   C2180     1.0  0.63665  0.68677  0.33043  1.0000
  C   C2181     1.0  0.64851  0.67207  0.34195  1.0000
  C   C2182     1.0  0.65571  0.65784  0.32120  1.0000
  C   C2183     1.0  0.65084  0.65838  0.28895  1.0000
  C   C2184     1.0  0.63972  0.67376  0.27735  1.0000
  H   H1740     1.0  0.63157  0.69809  0.34650  1.0000
  H   H1741     1.0  0.65212  0.67176  0.36684  1.0000
  H   H1742     1.0  0.65612  0.64723  0.27279  1.0000
  H   H1743     1.0  0.63661  0.67451  0.25240  1.0000
  H   H1744     1.0  0.93235  0.69420  0.14039  1.0000
  C   C2185     1.0  0.91974  0.73167  0.21493  1.0000
  C   C2186     1.0  0.88158  0.54847  0.46492  1.0000
  C   C2187     1.0  0.87067  0.53004  0.43999  1.0000
  H   H1745     1.0  0.90496  0.59689  0.23150  1.0000
  H   H1746     1.0  0.94098  0.74142  0.11120  1.0000
  C   C2188     1.0  0.56730  0.72641  0.08219  1.0000
  H   H1747     1.0  0.86885  0.53705  0.41702  1.0000
  C   C2189     1.0  0.70267  0.50510  0.46779  1.0000
  C   C2190     1.0  0.56340  0.57338  0.30216  1.0000
  H   H1748     1.0  0.69855  0.70724  0.25752  1.0000
  C   C2191     1.0  0.90314  0.57281  0.98560  1.0000
  C   C2192     1.0  0.51939  0.66223  0.14902  1.0000
  C   C2193     1.0  0.98330  0.51178  0.44863  1.0000
  H   H1749     1.0  0.80094  0.50003  0.45810  1.0000
  C   C2194     1.0  0.57425  0.59019  0.32826  1.0000
  H   H1750     1.0  0.52296  0.68097  0.19383  1.0000
  H   H1751     1.0  0.50683  0.60404  0.20969  1.0000
  H   H1752     1.0  0.96907  0.64736  0.05787  1.0000
  C   C2195     1.0  0.96739  0.59278  0.02700  1.0000
  H   H1753     1.0  0.51718  0.58491  0.25586  1.0000
  C   C2196     1.0  0.77308  0.66505  0.32176  1.0000
  C   C2197     1.0  0.74506  0.50670  0.07197  1.0000
  C   C2198     1.0  0.63497  0.50233  0.46566  1.0000
  H   H1754     1.0  0.64947  0.74316  0.44224  1.0000
  C   C2199     1.0  0.52731  0.64016  0.37510  1.0000
  H   H1755     1.0  0.51688  0.58565  0.35755  1.0000
  H   H1756     1.0  0.50616  0.62702  0.36979  1.0000
  C   C2200     1.0  0.84361  0.68037  0.09087  1.0000
  C   C2201     1.0  0.85459  0.67591  0.11809  1.0000
  C   C2202     1.0  0.86294  0.69448  0.14310  1.0000
  C   C2203     1.0  0.86078  0.71781  0.14095  1.0000
  C   C2204     1.0  0.85029  0.72249  0.11352  1.0000
  C   C2205     1.0  0.84156  0.70374  0.08874  1.0000
  H   H1757     1.0  0.85613  0.65794  0.12010  1.0000
  H   H1758     1.0  0.87099  0.69069  0.16427  1.0000
  H   H1759     1.0  0.94796  0.56802  0.10099  1.0000
  H   H1760     1.0  0.83307  0.70734  0.06781  1.0000
  C   C2206     1.0  0.96103  0.57812  0.08119  1.0000
  C   C2207     1.0  0.98157  0.65120  0.07826  1.0000
  H   H1761     1.0  0.78388  0.67063  0.34392  1.0000
  C   C2208     1.0  0.55731  0.59440  0.34815  1.0000
  H   H1762     1.0  0.56582  0.60742  0.36838  1.0000
  H   H1763     1.0  0.80910  0.68258  0.29339  1.0000
  C   C2209     1.0  0.93108  0.71526  0.21052  1.0000
  H   H1764     1.0  0.71189  0.58541  0.34250  1.0000
  H   H1765     1.0  0.90077  0.58878  0.99554  1.0000
  Fe  Fe154     1.0  0.84499  0.58762  0.00222  1.0000
  C   C2210     1.0  0.71011  0.54685  0.40433  1.0000
  S   S308      1.0  0.58867  0.72780  0.21471  1.0000
  H   H1766     1.0  0.50195  0.70254  0.10274  1.0000
  C   C2211     1.0  0.97863  0.71128  0.08218  1.0000
  H   H1767     1.0  0.73384  0.64620  0.34364  1.0000
  H   H1768     1.0  0.52893  0.73108  0.46965  1.0000
  P   P73       1.0  0.97147  0.70487  0.18991  1.0000
  C   C2212     1.0  0.60635  0.72024  0.44780  1.0000
  C   C2213     1.0  0.80166  0.72947  0.20975  1.0000
  H   H1769     1.0  0.74887  0.54574  0.07730  1.0000
  H   H1770     1.0  0.83251  0.73340  0.24176  1.0000
  H   H1771     1.0  0.73244  0.59869  0.46198  1.0000
  C   C2214     1.0  0.70251  0.69737  0.23842  1.0000
  C   C2215     1.0  0.69747  0.70194  0.20771  1.0000
  C   C2216     1.0  0.70150  0.68844  0.18293  1.0000
  C   C2217     1.0  0.71050  0.67023  0.18896  1.0000
  C   C2218     1.0  0.71612  0.66588  0.21988  1.0000
  C   C2219     1.0  0.71176  0.67946  0.24460  1.0000
  P   P74       1.0  0.72603  0.64106  0.22806  1.0000
  C   C2220     1.0  0.69608  0.60837  0.23230  1.0000
  C   C2221     1.0  0.74706  0.63990  0.19697  1.0000
  C   C2222     1.0  0.74727  0.61601  0.19043  1.0000
  C   C2223     1.0  0.76395  0.61543  0.16677  1.0000
  C   C2224     1.0  0.78071  0.63870  0.14964  1.0000
  C   C2225     1.0  0.78074  0.66256  0.15608  1.0000
  C   C2226     1.0  0.76391  0.66312  0.17953  1.0000
  C   C2227     1.0  0.69699  0.58825  0.25022  1.0000
  C   C2228     1.0  0.67387  0.56292  0.25353  1.0000
  C   C2229     1.0  0.64972  0.55743  0.23888  1.0000
  C   C2230     1.0  0.64866  0.57728  0.22091  1.0000
  C   C2231     1.0  0.67173  0.60267  0.21760  1.0000
  C   C2232     1.0  0.74469  0.65001  0.26461  1.0000
  C   C2233     1.0  0.73070  0.64335  0.29329  1.0000
  C   C2234     1.0  0.82788  0.59768  0.46986  1.0000
  C   C2235     1.0  0.86951  0.51269  0.06770  1.0000
  H   H1772     1.0  0.75428  0.73390  0.44960  1.0000
  C   C2236     1.0  0.77309  0.66446  0.26483  1.0000
  H   H1773     1.0  0.69727  0.69192  0.15908  1.0000
  H   H1774     1.0  0.71273  0.65937  0.16952  1.0000
  H   H1775     1.0  0.71485  0.67600  0.26879  1.0000
  H   H1776     1.0  0.73460  0.59776  0.20342  1.0000
  H   H1777     1.0  0.76389  0.59690  0.16160  1.0000
  H   H1778     1.0  0.79363  0.63828  0.13125  1.0000
  H   H1779     1.0  0.76481  0.51608  0.44569  1.0000
  H   H1780     1.0  0.76394  0.68162  0.18391  1.0000
  H   H1781     1.0  0.71559  0.59211  0.26159  1.0000
  H   H1782     1.0  0.67468  0.54749  0.26741  1.0000
  H   H1783     1.0  0.63183  0.53776  0.24137  1.0000
  H   H1784     1.0  0.62996  0.57299  0.20944  1.0000
  H   H1785     1.0  0.67041  0.61768  0.20354  1.0000
  H   H1786     1.0  0.70877  0.63270  0.29375  1.0000
  H   H1787     1.0  0.77179  0.72505  0.31482  1.0000
  C   C2237     1.0  0.94917  0.67069  0.20246  1.0000
  C   C2238     1.0  0.75133  0.59022  0.40496  1.0000
  H   H1788     1.0  0.78440  0.67017  0.24310  1.0000
  H   H1789     1.0  0.51944  0.70421  0.35730  1.0000
  H   H1790     1.0  0.52757  0.54792  0.27549  1.0000
  C   C2239     1.0  0.65377  0.55731  0.47845  1.0000
  C   C2240     1.0  0.90951  0.53429  0.99058  1.0000
  C   C2241     1.0  0.98788  0.64281  0.13233  1.0000
  C   C2242     1.0  0.52334  0.71684  0.10082  1.0000
  C   C2243     1.0  0.50105  0.64451  0.12658  1.0000
  S   S309      1.0  0.68903  0.73874  0.14645  1.0000
  C   C2244     1.0  0.78720  0.67176  0.29335  1.0000
  C   C2245     1.0  0.74320  0.59746  0.37744  1.0000
  H   H1791     1.0  0.60740  0.70995  0.46869  1.0000
  C   C2246     1.0  0.49680  0.58115  0.25279  1.0000
  H   H1792     1.0  0.70931  0.49879  0.00983  1.0000
  H   H1793     1.0  0.57980  0.71980  0.07056  1.0000
  C   C2247     1.0  0.58240  0.67193  0.38874  1.0000
  C   C2248     1.0  0.50922  0.66675  0.17680  1.0000
  H   H1794     1.0  0.85163  0.72937  0.39861  1.0000
  C   C2249     1.0  0.74385  0.50565  0.45270  1.0000
  C   C2250     1.0  0.73504  0.56467  0.41838  1.0000
  H   H1795     1.0  0.94407  0.65272  0.15640  1.0000
  C   C2251     1.0  0.98904  0.59248  0.08583  1.0000
  C   C2252     1.0  0.53951  0.70887  0.08484  1.0000
  H   H1796     1.0  0.50865  0.64092  0.10497  1.0000
  H   H1797     1.0  0.96165  0.73790  0.46975  1.0000
  C   C2253     1.0  0.86237  0.50266  0.44437  1.0000
  C   C2254     1.0  0.85888  0.74077  0.37712  1.0000
  H   H1798     1.0  0.49834  0.51024  0.32881  1.0000
  H   H1799     1.0  0.71689  0.56285  0.01524  1.0000
  C   C2255     1.0  0.79283  0.56613  0.42212  1.0000
  H   H1800     1.0  0.85995  0.60353  0.43864  1.0000
  C   C2256     1.0  0.70187  0.55430  0.37699  1.0000
  C   C2257     1.0  0.84646  0.72809  0.34897  1.0000
  H   H1801     1.0  0.97972  0.63210  0.15410  1.0000
  C   C2258     1.0  0.72981  0.51959  0.45820  1.0000
  C   C2259     1.0  0.83827  0.59390  0.44195  1.0000
  C   C2260     1.0  0.73502  0.52443  0.07424  1.0000
  H   H1802     1.0  0.69904  0.72055  0.38614  1.0000
  C   C2261     1.0  0.78631  0.65533  0.47441  1.0000
  H   H1803     1.0  0.91313  0.52068  0.00461  1.0000
  H   H1804     1.0  0.52514  0.61844  0.41733  1.0000
  H   H1805     1.0  0.57659  0.57008  0.28682  1.0000
  C   C2262     1.0  0.95765  0.72627  0.19923  1.0000
  Fe  Fe155     1.0  0.65293  0.73632  0.17231  1.0000
  C   C2263     1.0  0.74997  0.52371  0.99315  1.0000
  C   C2264     1.0  0.56567  0.65081  0.40871  1.0000
  H   H1806     1.0  0.58051  0.62624  0.27260  1.0000
  H   H1807     1.0  0.82896  0.57493  0.39665  1.0000
  C   C2265     1.0  0.81564  0.73678  0.23823  1.0000
  C   C2266     1.0  0.51848  0.56515  0.31560  1.0000
  H   H1808     1.0  0.57211  0.71269  0.28042  1.0000
  H   H1809     1.0  0.91866  0.69393  0.21500  1.0000
  H   H1810     1.0  0.53058  0.68869  0.07532  1.0000
  C   C2267     1.0  0.54361  0.70420  0.31813  1.0000
  H   H1811     1.0  0.73618  0.73793  0.12539  1.0000
  C   C2268     1.0  0.70691  0.51448  0.07316  1.0000
  H   H1812     1.0  0.75586  0.61729  0.36754  1.0000
  H   H1813     1.0  0.77036  0.72999  0.18181  1.0000
  C   C2269     1.0  0.56368  0.72088  0.29667  1.0000
  C   C2270     1.0  0.54403  0.65746  0.28703  1.0000
  C   C2271     1.0  0.55791  0.64336  0.29269  1.0000
  C   C2272     1.0  0.56894  0.63613  0.26787  1.0000
  C   C2273     1.0  0.56606  0.64265  0.23712  1.0000
  C   C2274     1.0  0.55214  0.65639  0.23116  1.0000
  C   C2275     1.0  0.54117  0.66382  0.25592  1.0000
  H   H1814     1.0  0.58483  0.69406  0.34696  1.0000
  C   C2276     1.0  0.96074  0.51528  0.45002  1.0000
  C   C2277     1.0  0.52955  0.58205  0.34182  1.0000
  H   H1815     1.0  0.77948  0.55412  0.40327  1.0000
  C   C2278     1.0  0.82077  0.57793  0.41818  1.0000
  H   H1816     1.0  0.56113  0.63859  0.31621  1.0000
  H   H1817     1.0  0.68647  0.72735  0.32067  1.0000
  H   H1818     1.0  0.57507  0.63756  0.21788  1.0000
  H   H1819     1.0  0.55041  0.66172  0.20725  1.0000
  H   H1820     1.0  0.53097  0.67503  0.25084  1.0000
  C   C2279     1.0  0.92720  0.63871  0.24492  1.0000
  H   H1821     1.0  0.61852  0.63928  0.46827  1.0000
  C   C2280     1.0  0.89776  0.52776  0.06449  1.0000
  C   C2281     1.0  0.85522  0.74196  0.32055  1.0000
  P   P75       1.0  0.91350  0.56088  0.04648  1.0000
  C   C2282     1.0  0.90302  0.58299  0.06467  1.0000
  C   C2283     1.0  0.94990  0.57807  0.05173  1.0000
  C   C2284     1.0  0.91604  0.61202  0.05411  1.0000
  C   C2285     1.0  0.91372  0.63278  0.07395  1.0000
  C   C2286     1.0  0.89761  0.62440  0.10408  1.0000
  C   C2287     1.0  0.88434  0.59521  0.11469  1.0000
  C   C2288     1.0  0.88668  0.57462  0.09487  1.0000
  C   C2289     1.0  0.90745  0.55534  0.00471  1.0000
  H   H1822     1.0  0.78311  0.71526  0.36741  1.0000
  C   C2290     1.0  0.95381  0.70295  0.09674  1.0000
  C   C2291     1.0  0.74485  0.65103  0.32168  1.0000
  H   H1823     1.0  0.79383  0.68061  0.14277  1.0000
  H   H1824     1.0  0.85698  0.52090  0.06056  1.0000
  H   H1825     1.0  0.93464  0.52568  0.06796  1.0000
  C   C2292     1.0  0.71796  0.56117  0.99001  1.0000
  C   C2293     1.0  0.54388  0.66187  0.35536  1.0000
  C   C2294     1.0  0.78881  0.73575  0.36108  1.0000
  H   H1826     1.0  0.92885  0.61857  0.03364  1.0000
  H   H1827     1.0  0.92430  0.65362  0.06690  1.0000
  H   H1828     1.0  0.89649  0.63925  0.11862  1.0000
  H   H1829     1.0  0.87394  0.58930  0.13699  1.0000
  H   H1830     1.0  0.87864  0.55456  0.10413  1.0000
  H   H1831     1.0  0.77027  0.60472  0.41589  1.0000
  H   H1832     1.0  0.80790  0.72057  0.19152  1.0000
  C   C2295     1.0  0.92326  0.62275  0.19158  1.0000
  H   H1833     1.0  0.69001  0.71567  0.20329  1.0000
  H   H1834     1.0  0.59583  0.59997  0.33306  1.0000
  H   H1835     1.0  0.64563  0.51530  0.41776  1.0000
  H   H1836     1.0  0.98025  0.71275  0.05685  1.0000
  C   C2296     1.0  0.78086  0.73512  0.20416  1.0000
  C   C2297     1.0  0.54437  0.74390  0.33969  1.0000
  C   C2298     1.0  0.58127  0.71533  0.43650  1.0000
  H   H1837     1.0  0.93616  0.69846  0.08277  1.0000
  H   H1838     1.0  0.75582  0.53769  0.01252  1.0000
  H   H1839     1.0  0.76633  0.65242  0.47812  1.0000
  H   H1840     1.0  0.95955  0.59370  0.00419  1.0000
  P   P76       1.0  0.74615  0.55575  0.45387  1.0000
  C   C2299     1.0  0.53812  0.63495  0.40193  1.0000
  H   H1841     1.0  0.92279  0.63459  0.26969  1.0000
  H   H1842     1.0  0.66174  0.72967  0.39219  1.0000
  C   C2300     1.0  0.95173  0.70059  0.12940  1.0000
  C   C2301     1.0  0.97456  0.70671  0.14777  1.0000
  H   H1843     1.0  0.83002  0.70746  0.34938  1.0000
  C   C2302     1.0  0.91716  0.61746  0.22344  1.0000
  H   H1844     1.0  0.56047  0.72520  0.40140  1.0000
  H   H1845     1.0  0.81401  0.67874  0.99702  1.0000
  C   C2303     1.0  0.70282  0.74089  0.38320  1.0000
  H   H1846     1.0  0.69139  0.51532  0.47234  1.0000
  H   H1847     1.0  0.68205  0.52203  0.98776  1.0000
  H   H1848     1.0  0.73281  0.73528  0.31977  1.0000
  C   C2304     1.0  0.72378  0.50158  0.99187  1.0000
  H   H1849     1.0  0.85517  0.67484  0.99562  1.0000
  C   C2305     1.0  0.57996  0.72879  0.40978  1.0000
  S   S310      1.0  0.87040  0.73998  0.17346  1.0000
  S   S311      1.0  0.49779  0.71577  0.41320  1.0000
  C   C2306     1.0  0.85626  0.72878  0.48249  1.0000
  C   C2307     1.0  0.49432  0.65077  0.31911  1.0000
  H   H1850     1.0  0.84341  0.57008  0.88427  1.0000
  C   C2308     1.0  0.87645  0.72473  0.49548  1.0000
  Fe  Fe156     1.0  0.70140  0.56402  0.76756  1.0000
  S   S312      1.0  0.71878  0.58237  0.81434  1.0000
  S   S313      1.0  0.70295  0.52836  0.74804  1.0000
  Fe  Fe157     1.0  0.67448  0.59793  0.75817  1.0000
  S   S314      1.0  0.68931  0.61877  0.80459  1.0000
  S   S315      1.0  0.65080  0.60545  0.72064  1.0000
  Fe  Fe158     1.0  0.72871  0.62160  0.79124  1.0000
  S   S316      1.0  0.76869  0.65898  0.80222  1.0000
  Fe  Fe159     1.0  0.67802  0.57770  0.82361  1.0000
  S   S317      1.0  0.65782  0.56318  0.87095  1.0000
  S   S318      1.0  0.71478  0.60348  0.74342  1.0000
  S   S319      1.0  0.65984  0.55668  0.77826  1.0000
  Fe  Fe160     1.0  0.91804  0.63508  0.56172  1.0000
  S   S320      1.0  0.92750  0.62660  0.61054  1.0000
  Fe  Fe161     1.0  0.57636  0.71480  0.64317  1.0000
  S   S321      1.0  0.54996  0.68964  0.68273  1.0000
  S   S322      1.0  0.56951  0.70336  0.59166  1.0000
  C   C2309     1.0  0.73030  0.52114  0.83092  1.0000
  H   H1851     1.0  0.52896  0.60611  0.62104  1.0000
  Fe  Fe162     1.0  0.58851  0.70168  0.70905  1.0000
  S   S323      1.0  0.59508  0.67590  0.74478  1.0000
  C   C2310     1.0  0.72186  0.72091  0.69020  1.0000
  C   C2311     1.0  0.71767  0.70391  0.71592  1.0000
  H   H1852     1.0  0.98689  0.71975  0.61797  1.0000
  S   S324      1.0  0.59080  0.73892  0.72961  1.0000
  C   C2312     1.0  0.90459  0.61939  0.80799  1.0000
  H   H1853     1.0  0.79020  0.64436  0.52172  1.0000
  C   C2313     1.0  0.53053  0.68282  0.54551  1.0000
  C   C2314     1.0  0.53572  0.68693  0.57786  1.0000
  H   H1854     1.0  0.83574  0.71739  0.49125  1.0000
  S   S325      1.0  0.94348  0.63776  0.52051  1.0000
  H   H1855     1.0  0.57868  0.57785  0.66280  1.0000
  H   H1856     1.0  0.54723  0.68954  0.52933  1.0000
  S   S326      1.0  0.84329  0.65125  0.52749  1.0000
  H   H1857     1.0  0.95977  0.62808  0.66399  1.0000
  C   C2315     1.0  0.79132  0.56518  0.86609  1.0000
  C   C2316     1.0  0.80831  0.51813  0.50402  1.0000
  H   H1858     1.0  0.95988  0.71920  0.77169  1.0000
  C   C2317     1.0  0.78794  0.68193  0.77239  1.0000
  C   C2318     1.0  0.77849  0.67886  0.74146  1.0000
  C   C2319     1.0  0.79557  0.69599  0.71775  1.0000
  C   C2320     1.0  0.82203  0.71636  0.72487  1.0000
  H   H1859     1.0  0.62669  0.49601  0.51511  1.0000
  C   C2321     1.0  0.81403  0.70291  0.77962  1.0000
  H   H1860     1.0  0.75840  0.66280  0.73565  1.0000
  H   H1861     1.0  0.78848  0.69311  0.69375  1.0000
  H   H1862     1.0  0.82144  0.70542  0.80349  1.0000
  C   C2322     1.0  0.63490  0.62452  0.72815  1.0000
  C   C2323     1.0  0.62019  0.62802  0.70400  1.0000
  C   C2324     1.0  0.60802  0.64387  0.70862  1.0000
  C   C2325     1.0  0.61048  0.65631  0.73757  1.0000
  C   C2326     1.0  0.62455  0.65215  0.76205  1.0000
  C   C2327     1.0  0.63679  0.63638  0.75734  1.0000
  H   H1863     1.0  0.61823  0.61834  0.68169  1.0000
  H   H1864     1.0  0.59663  0.64641  0.68992  1.0000
  H   H1865     1.0  0.62590  0.66112  0.78478  1.0000
  H   H1866     1.0  0.64736  0.63312  0.77637  1.0000
  H   H1867     1.0  0.90098  0.54535  0.91405  1.0000
  C   C2328     1.0  0.98074  0.65312  0.83288  1.0000
  C   C2329     1.0  0.63812  0.52220  0.91438  1.0000
  C   C2330     1.0  0.64624  0.52966  0.88311  1.0000
  C   C2331     1.0  0.64510  0.51037  0.86222  1.0000
  S   S327      1.0  0.84705  0.58404  0.94927  1.0000
  S   S328      1.0  0.87885  0.60999  0.53600  1.0000
  H   H1868     1.0  0.63882  0.53698  0.93067  1.0000
  H   H1869     1.0  0.65096  0.51579  0.83800  1.0000
  C   C2332     1.0  0.73404  0.52916  0.74901  1.0000
  H   H1870     1.0  0.77508  0.51335  0.92586  1.0000
  H   H1871     1.0  0.89783  0.58269  0.93824  1.0000
  C   C2333     1.0  0.78339  0.52956  0.75089  1.0000
  C   C2334     1.0  0.78301  0.55377  0.75238  1.0000
  C   C2335     1.0  0.75828  0.55347  0.75213  1.0000
  H   H1872     1.0  0.63001  0.64600  0.63773  1.0000
  H   H1873     1.0  0.80173  0.57268  0.75470  1.0000
  H   H1874     1.0  0.75779  0.57191  0.75457  1.0000
  C   C2336     1.0  0.84069  0.55382  0.93058  1.0000
  H   H1875     1.0  0.70858  0.59524  0.90803  1.0000
  C   C2337     1.0  0.87293  0.70094  0.62967  1.0000
  C   C2338     1.0  0.63985  0.66698  0.63107  1.0000
  C   C2339     1.0  0.83791  0.53008  0.88185  1.0000
  C   C2340     1.0  0.84068  0.55287  0.89765  1.0000
  C   C2341     1.0  0.56153  0.53325  0.70712  1.0000
  H   H1876     1.0  0.57647  0.54604  0.61760  1.0000
  C   C2342     1.0  0.57285  0.52578  0.62021  1.0000
  C   C2343     1.0  0.53123  0.58970  0.63027  1.0000
  S   S329      1.0  0.61487  0.72371  0.66794  1.0000
  H   H1877     1.0  0.91025  0.49547  0.58864  1.0000
  C   C2344     1.0  0.66459  0.73823  0.74826  1.0000
  C   C2345     1.0  0.50901  0.56358  0.63108  1.0000
  C   C2346     1.0  0.94878  0.64760  0.88984  1.0000
  H   H1878     1.0  0.74205  0.73385  0.88598  1.0000
  H   H1879     1.0  0.90890  0.63819  0.79722  1.0000
  C   C2347     1.0  0.81511  0.66477  0.98083  1.0000
  H   H1880     1.0  0.79562  0.60819  0.80847  1.0000
  H   H1881     1.0  0.93886  0.69764  0.63192  1.0000
  C   C2348     1.0  0.55916  0.57364  0.65389  1.0000
  C   C2349     1.0  0.83106  0.72000  0.75595  1.0000
  C   C2350     1.0  0.96469  0.69438  0.70312  1.0000
  C   C2351     1.0  0.88255  0.59548  0.79693  1.0000
  P   P77       1.0  0.76522  0.60791  0.91735  1.0000
  C   C2352     1.0  0.78089  0.57382  0.89013  1.0000
  H   H1882     1.0  0.49470  0.70609  0.64672  1.0000
  H   H1883     1.0  0.70430  0.67443  0.63174  1.0000
  P   P78       1.0  0.54059  0.52054  0.67242  1.0000
  H   H1884     1.0  0.80474  0.57070  0.81809  1.0000
  C   C2353     1.0  0.95336  0.70035  0.64998  1.0000
  H   H1885     1.0  0.99096  0.66386  0.95305  1.0000
  C   C2354     1.0  0.69646  0.69630  0.54055  1.0000
  H   H1886     1.0  0.86941  0.71778  0.62769  1.0000
  H   H1887     1.0  0.80621  0.57851  0.55280  1.0000
  C   C2355     1.0  0.70385  0.69242  0.80049  1.0000
  C   C2356     1.0  0.87658  0.57080  0.81009  1.0000
  C   C2357     1.0  0.65363  0.70121  0.59070  1.0000
  H   H1888     1.0  0.89234  0.55314  0.51389  1.0000
  P   P79       1.0  0.94923  0.64936  0.84744  1.0000
  H   H1889     1.0  0.68907  0.62180  0.88799  1.0000
  C   C2358     1.0  0.73684  0.55816  0.51763  1.0000
  C   C2359     1.0  0.57686  0.52173  0.71742  1.0000
  H   H1890     1.0  0.90529  0.63032  0.89329  1.0000
  Fe  Fe163     1.0  0.94313  0.67608  0.50972  1.0000
  C   C2360     1.0  0.97311  0.64268  0.64706  1.0000
  H   H1891     1.0  0.67803  0.70906  0.79206  1.0000
  H   H1892     1.0  0.80807  0.68327  0.55989  1.0000
  C   C2361     1.0  0.77597  0.59516  0.88503  1.0000
  C   C2362     1.0  0.49767  0.73155  0.60782  1.0000
  S   S330      1.0  0.91896  0.67387  0.55221  1.0000
  C   C2363     1.0  0.83773  0.53164  0.94762  1.0000
  C   C2364     1.0  0.89715  0.71935  0.77373  1.0000
  H   H1893     1.0  0.75401  0.51486  0.62349  1.0000
  H   H1894     1.0  0.90469  0.63027  0.95109  1.0000
  H   H1895     1.0  0.94741  0.64680  0.98121  1.0000
  C   C2365     1.0  0.71763  0.71020  0.65971  1.0000
  C   C2366     1.0  0.57736  0.56329  0.75219  1.0000
  H   H1896     1.0  0.96561  0.61045  0.82613  1.0000
  H   H1897     1.0  0.97830  0.50012  0.56504  1.0000
  H   H1898     1.0  0.76874  0.68917  0.87271  1.0000
  C   C2367     1.0  0.64077  0.67401  0.59953  1.0000
  C   C2368     1.0  0.58449  0.51629  0.59849  1.0000
  C   C2369     1.0  0.69838  0.53813  0.97457  1.0000
  C   C2370     1.0  0.87603  0.51182  0.49875  1.0000
  C   C2371     1.0  0.93940  0.69216  0.85650  1.0000
  H   H1899     1.0  0.89216  0.71370  0.67423  1.0000
  C   C2372     1.0  0.53441  0.73916  0.49315  1.0000
  H   H1900     1.0  0.51215  0.72788  0.59586  1.0000
  C   C2373     1.0  0.93933  0.71550  0.84717  1.0000
  C   C2374     1.0  0.68344  0.73578  0.72982  1.0000
  C   C2375     1.0  0.80813  0.50570  0.61328  1.0000
  C   C2376     1.0  0.74018  0.58001  0.94021  1.0000
  C   C2377     1.0  0.82159  0.51685  0.64169  1.0000
  C   C2378     1.0  0.81091  0.52744  0.66313  1.0000
  C   C2379     1.0  0.78668  0.52690  0.65651  1.0000
  S   S331      1.0  0.98584  0.71198  0.50618  1.0000
  H   H1901     1.0  0.93390  0.73157  0.70702  1.0000
  C   C2380     1.0  0.85739  0.50734  0.58847  1.0000
  H   H1902     1.0  0.67296  0.72945  0.66309  1.0000
  C   C2381     1.0  0.88394  0.53918  0.49450  1.0000
  C   C2382     1.0  0.91415  0.53475  0.59053  1.0000
  C   C2383     1.0  0.90043  0.54921  0.59070  1.0000
  C   C2384     1.0  0.87217  0.53558  0.58964  1.0000
  C   C2385     1.0  0.69067  0.71738  0.54062  1.0000
  H   H1903     1.0  0.63216  0.73610  0.58720  1.0000
  H   H1904     1.0  0.68912  0.67255  0.79219  1.0000
  C   C2386     1.0  0.78144  0.60756  0.85539  1.0000
  C   C2387     1.0  0.69772  0.71311  0.80023  1.0000
  H   H1905     1.0  0.76673  0.72584  0.83231  1.0000
  H   H1906     1.0  0.82119  0.53560  0.68521  1.0000
  H   H1907     1.0  0.77829  0.53462  0.67362  1.0000
  C   C2388     1.0  0.75906  0.50515  0.74867  1.0000
  H   H1908     1.0  0.77724  0.56423  0.91293  1.0000
  C   C2389     1.0  0.92376  0.63771  0.93883  1.0000
  C   C2390     1.0  0.73886  0.58205  0.97295  1.0000
  H   H1909     1.0  0.93606  0.54541  0.59150  1.0000
  H   H1910     1.0  0.91176  0.57104  0.59165  1.0000
  H   H1911     1.0  0.86196  0.54715  0.58968  1.0000
  H   H1912     1.0  0.57790  0.57968  0.76543  1.0000
  S   S332      1.0  0.81433  0.53005  0.75224  1.0000
  H   H1913     1.0  0.80968  0.53659  0.49550  1.0000
  C   C2391     1.0  0.70976  0.51259  0.85318  1.0000
  C   C2392     1.0  0.76061  0.50986  0.94428  1.0000
  S   S333      1.0  0.51526  0.72384  0.71930  1.0000
  C   C2393     1.0  0.63017  0.68319  0.52807  1.0000
  H   H1914     1.0  0.71761  0.59573  0.56058  1.0000
  C   C2394     1.0  0.79409  0.62951  0.94153  1.0000
  H   H1915     1.0  0.73374  0.68128  0.81159  1.0000
  C   C2395     1.0  0.60323  0.67440  0.53632  1.0000
  C   C2396     1.0  0.58196  0.65303  0.52032  1.0000
  C   C2397     1.0  0.74861  0.51174  0.83222  1.0000
  H   H1916     1.0  0.83799  0.53219  0.97298  1.0000
  C   C2398     1.0  0.72520  0.59976  0.51100  1.0000
  C   C2399     1.0  0.92417  0.63769  0.90601  1.0000
  C   C2400     1.0  0.75572  0.66886  0.88111  1.0000
  C   C2401     1.0  0.51397  0.67774  0.59864  1.0000
  H   H1917     1.0  0.68056  0.67574  0.54452  1.0000
  C   C2402     1.0  0.97230  0.65656  0.93990  1.0000
  C   C2403     1.0  0.72075  0.55651  0.92500  1.0000
  C   C2404     1.0  0.72374  0.58854  0.54052  1.0000
  H   H1918     1.0  0.96067  0.67836  0.78785  1.0000
  H   H1919     1.0  0.59866  0.68393  0.55542  1.0000
  H   H1920     1.0  0.56125  0.64627  0.52718  1.0000
  H   H1921     1.0  0.85142  0.73548  0.76164  1.0000
  C   C2405     1.0  0.53687  0.54735  0.65511  1.0000
  C   C2406     1.0  0.83660  0.50954  0.93180  1.0000
  H   H1922     1.0  0.85962  0.55227  0.80129  1.0000
  S   S334      1.0  0.66378  0.59128  0.48703  1.0000
  H   H1923     1.0  0.63172  0.65817  0.58213  1.0000
  H   H1924     1.0  0.83791  0.52958  0.85650  1.0000
  H   H1925     1.0  0.57689  0.50557  0.70447  1.0000
  H   H1926     1.0  0.70474  0.66338  0.73133  1.0000
  H   H1927     1.0  0.69606  0.64460  0.67770  1.0000
  C   C2407     1.0  0.77302  0.51567  0.62838  1.0000
  C   C2408     1.0  0.79039  0.62738  0.73806  1.0000
  C   C2409     1.0  0.81620  0.65005  0.73940  1.0000
  C   C2410     1.0  0.83022  0.66173  0.71173  1.0000
  C   C2411     1.0  0.81883  0.65018  0.68279  1.0000
  C   C2412     1.0  0.79320  0.62703  0.68122  1.0000
  C   C2413     1.0  0.77882  0.61590  0.70908  1.0000
  P   P80       1.0  0.77898  0.61359  0.64312  1.0000
  C   C2414     1.0  0.74502  0.58528  0.64610  1.0000
  C   C2415     1.0  0.77965  0.64160  0.62276  1.0000
  C   C2416     1.0  0.76691  0.65459  0.63653  1.0000
  C   C2417     1.0  0.76874  0.67752  0.62259  1.0000
  C   C2418     1.0  0.78331  0.68771  0.59481  1.0000
  C   C2419     1.0  0.79629  0.67511  0.58113  1.0000
  C   C2420     1.0  0.79467  0.65227  0.59511  1.0000
  C   C2421     1.0  0.74046  0.56209  0.66243  1.0000
  C   C2422     1.0  0.71431  0.53998  0.66496  1.0000
  C   C2423     1.0  0.69260  0.54071  0.65081  1.0000
  C   C2424     1.0  0.69701  0.56349  0.63401  1.0000
  C   C2425     1.0  0.72312  0.58573  0.63163  1.0000
  C   C2426     1.0  0.79860  0.60093  0.62406  1.0000
  C   C2427     1.0  0.81798  0.59778  0.64095  1.0000
  C   C2428     1.0  0.83326  0.58816  0.62607  1.0000
  C   C2429     1.0  0.82887  0.58107  0.59441  1.0000
  C   C2430     1.0  0.80917  0.58350  0.57756  1.0000
  C   C2431     1.0  0.79386  0.59311  0.59241  1.0000
  H   H1928     1.0  0.77890  0.61950  0.75949  1.0000
  H   H1929     1.0  0.82463  0.65941  0.76182  1.0000
  H   H1930     1.0  0.84943  0.68036  0.71262  1.0000
  H   H1931     1.0  0.82966  0.65963  0.66149  1.0000
  H   H1932     1.0  0.75850  0.59889  0.70867  1.0000
  H   H1933     1.0  0.75604  0.64729  0.65848  1.0000
  H   H1934     1.0  0.75930  0.68769  0.63372  1.0000
  H   H1935     1.0  0.80581  0.64367  0.58455  1.0000
  H   H1936     1.0  0.75700  0.56145  0.67407  1.0000
  H   H1937     1.0  0.71071  0.52256  0.67872  1.0000
  H   H1938     1.0  0.67228  0.52379  0.65330  1.0000
  H   H1939     1.0  0.68006  0.56403  0.62324  1.0000
  H   H1940     1.0  0.72598  0.60317  0.61868  1.0000
  H   H1941     1.0  0.82138  0.60272  0.66557  1.0000
  H   H1942     1.0  0.84869  0.58638  0.63899  1.0000
  H   H1943     1.0  0.81731  0.53183  0.55162  1.0000
  Fe  Fe164     1.0  0.55423  0.72865  0.69986  1.0000
  H   H1944     1.0  0.77885  0.59512  0.57899  1.0000
  H   H1945     1.0  0.89329  0.73007  0.79206  1.0000
  C   C2432     1.0  0.73445  0.50501  0.74709  1.0000
  C   C2433     1.0  0.72213  0.61579  0.90087  1.0000
  H   H1946     1.0  0.76376  0.73190  0.52414  1.0000
  C   C2434     1.0  0.63458  0.51070  0.49638  1.0000
  H   H1947     1.0  0.72123  0.71184  0.73956  1.0000
  H   H1948     1.0  0.51768  0.68059  0.62360  1.0000
  C   C2435     1.0  0.50382  0.67022  0.53395  1.0000
  H   H1949     1.0  0.84008  0.51691  0.64766  1.0000
  C   C2436     1.0  0.59247  0.53112  0.74473  1.0000
  H   H1950     1.0  0.57343  0.61502  0.64128  1.0000
  C   C2437     1.0  0.92065  0.61876  0.83267  1.0000
  C   C2438     1.0  0.95389  0.71145  0.79526  1.0000
  C   C2439     1.0  0.76839  0.52790  0.96930  1.0000
  H   H1951     1.0  0.72020  0.61555  0.50829  1.0000
  C   C2440     1.0  0.72280  0.70157  0.53494  1.0000
  H   H1952     1.0  0.64450  0.72120  0.75141  1.0000
  C   C2441     1.0  0.66603  0.72119  0.61370  1.0000
  C   C2442     1.0  0.91420  0.59387  0.84612  1.0000
  C   C2443     1.0  0.89245  0.57000  0.83461  1.0000
  C   C2444     1.0  0.59294  0.55206  0.76194  1.0000
  P   P81       1.0  0.65693  0.71041  0.54993  1.0000
  H   H1953     1.0  0.81896  0.61284  0.92630  1.0000
  H   H1954     1.0  0.93392  0.68532  0.88040  1.0000
  C   C2445     1.0  0.96258  0.64579  0.61854  1.0000
  C   C2446     1.0  0.90338  0.54845  0.93922  1.0000
  H   H1955     1.0  0.99215  0.66495  0.89528  1.0000
  C   C2447     1.0  0.89960  0.50666  0.58887  1.0000
  H   H1956     1.0  0.71876  0.66892  0.87068  1.0000
  H   H1957     1.0  0.60442  0.52231  0.75244  1.0000
  C   C2448     1.0  0.81755  0.62736  0.94107  1.0000
  C   C2449     1.0  0.66446  0.71406  0.64525  1.0000
  C   C2450     1.0  0.94723  0.67855  0.83534  1.0000
  H   H1958     1.0  0.79496  0.54865  0.87024  1.0000
  H   H1959     1.0  0.88780  0.55080  0.84479  1.0000
  C   C2451     1.0  0.65260  0.73906  0.54315  1.0000
  H   H1960     1.0  0.60552  0.55973  0.78273  1.0000
  C   C2452     1.0  0.76705  0.65382  0.89257  1.0000
  C   C2453     1.0  0.75034  0.62716  0.90261  1.0000
  H   H1961     1.0  0.78885  0.66285  0.89312  1.0000
  C   C2454     1.0  0.72763  0.65743  0.87970  1.0000
  H   H1962     1.0  0.65104  0.68171  0.67840  1.0000
  C   C2455     1.0  0.86470  0.68186  0.60569  1.0000
  C   C2456     1.0  0.86916  0.66013  0.60844  1.0000
  C   C2457     1.0  0.88237  0.65773  0.63485  1.0000
  C   C2458     1.0  0.89057  0.67668  0.65923  1.0000
  C   C2459     1.0  0.88588  0.69844  0.65630  1.0000
  P   P82       1.0  0.90989  0.67455  0.69170  1.0000
  C   C2460     1.0  0.90655  0.69179  0.72544  1.0000
  C   C2461     1.0  0.89686  0.63926  0.70029  1.0000
  C   C2462     1.0  0.86897  0.62214  0.70463  1.0000
  C   C2463     1.0  0.85852  0.59475  0.71078  1.0000
  C   C2464     1.0  0.87583  0.58415  0.71233  1.0000
  C   C2465     1.0  0.90356  0.60094  0.70763  1.0000
  C   C2466     1.0  0.91405  0.62836  0.70160  1.0000
  C   C2467     1.0  0.82610  0.65491  0.49489  1.0000
  C   C2468     1.0  0.51177  0.54246  0.64347  1.0000
  H   H1963     1.0  0.72821  0.55896  0.56678  1.0000
  C   C2469     1.0  0.88483  0.69133  0.77469  1.0000
  C   C2470     1.0  0.88957  0.67755  0.75073  1.0000
  C   C2471     1.0  0.94514  0.69102  0.68076  1.0000
  H   H1964     1.0  0.68509  0.51763  0.93034  1.0000
  C   C2472     1.0  0.70857  0.67656  0.71135  1.0000
  H   H1965     1.0  0.87819  0.50489  0.52155  1.0000
  C   C2473     1.0  0.71089  0.63091  0.88952  1.0000
  C   C2474     1.0  0.83695  0.50876  0.89883  1.0000
  Fe  Fe165     1.0  0.88207  0.64935  0.52217  1.0000
  H   H1966     1.0  0.85519  0.68407  0.58475  1.0000
  H   H1967     1.0  0.86311  0.64553  0.58963  1.0000
  H   H1968     1.0  0.88689  0.64149  0.63578  1.0000
  C   C2475     1.0  0.74781  0.72283  0.82280  1.0000
  H   H1969     1.0  0.85537  0.63010  0.70348  1.0000
  H   H1970     1.0  0.83703  0.58167  0.71448  1.0000
  H   H1971     1.0  0.86776  0.56294  0.71731  1.0000
  H   H1972     1.0  0.91699  0.59270  0.70841  1.0000
  H   H1973     1.0  0.93549  0.64076  0.69752  1.0000
  C   C2476     1.0  0.90160  0.56956  0.95297  1.0000
  H   H1974     1.0  0.77787  0.62405  0.85066  1.0000
  H   H1975     1.0  0.90820  0.51412  0.94736  1.0000
  H   H1976     1.0  0.87148  0.68031  0.79395  1.0000
  H   H1977     1.0  0.87958  0.65590  0.75200  1.0000
  H   H1978     1.0  0.64297  0.54433  0.52638  1.0000
  H   H1979     1.0  0.84098  0.57398  0.58290  1.0000
  C   C2477     1.0  0.70845  0.68279  0.65522  1.0000
  H   H1980     1.0  0.95888  0.68736  0.72697  1.0000
  C   C2478     1.0  0.70379  0.66597  0.68103  1.0000
  C   C2479     1.0  0.79675  0.57758  0.83668  1.0000
  C   C2480     1.0  0.79164  0.59865  0.83129  1.0000
  H   H1981     1.0  0.67714  0.71661  0.71874  1.0000
  H   H1982     1.0  0.78491  0.70560  0.58414  1.0000
  C   C2481     1.0  0.55658  0.50904  0.64463  1.0000
  C   C2482     1.0  0.91510  0.73368  0.74956  1.0000
  H   H1983     1.0  0.59674  0.52912  0.57945  1.0000
  H   H1984     1.0  0.67663  0.74226  0.60729  1.0000
  H   H1985     1.0  0.69603  0.52040  0.85248  1.0000
  C   C2483     1.0  0.72898  0.69736  0.81145  1.0000
  C   C2484     1.0  0.90717  0.53071  0.95804  1.0000
  H   H1986     1.0  0.76488  0.51873  0.81532  1.0000
  C   C2485     1.0  0.92008  0.72004  0.72573  1.0000
  C   C2486     1.0  0.98070  0.71301  0.64186  1.0000
  H   H1987     1.0  0.77503  0.65009  0.96276  1.0000
  H   H1988     1.0  0.77224  0.49534  0.58576  1.0000
  H   H1989     1.0  0.71303  0.50920  0.57145  1.0000
  C   C2487     1.0  0.78353  0.50482  0.60694  1.0000
  H   H1990     1.0  0.92613  0.59285  0.86533  1.0000
  C   C2488     1.0  0.98023  0.66423  0.59644  1.0000
  H   H1991     1.0  0.95421  0.51530  0.52911  1.0000
  H   H1992     1.0  0.87006  0.59597  0.77807  1.0000
  H   H1993     1.0  0.50002  0.66734  0.50898  1.0000
  C   C2489     1.0  0.55630  0.59471  0.64164  1.0000
  H   H1994     1.0  0.72693  0.68511  0.53406  1.0000
  C   C2490     1.0  0.95420  0.68825  0.80451  1.0000
  C   C2491     1.0  0.65160  0.68701  0.65394  1.0000
  C   C2492     1.0  0.79998  0.65092  0.49917  1.0000
  C   C2493     1.0  0.81268  0.51536  0.53581  1.0000
  C   C2494     1.0  0.72959  0.56777  0.54389  1.0000
  H   H1995     1.0  0.72109  0.55466  0.89975  1.0000
  C   C2495     1.0  0.56139  0.55368  0.72517  1.0000
  C   C2496     1.0  0.94778  0.64697  0.95578  1.0000
  C   C2497     1.0  0.79306  0.64839  0.96156  1.0000
  H   H1996     1.0  0.73226  0.53544  0.81307  1.0000
  H   H1997     1.0  0.77136  0.73805  0.71509  1.0000
  C   C2498     1.0  0.97287  0.65704  0.90705  1.0000
  C   C2499     1.0  0.74205  0.74398  0.82213  1.0000
  C   C2500     1.0  0.55755  0.74156  0.50741  1.0000
  C   C2501     1.0  0.63556  0.67076  0.50299  1.0000
  C   C2502     1.0  0.61423  0.64921  0.48715  1.0000
  H   H1998     1.0  0.65608  0.67749  0.49562  1.0000
  C   C2503     1.0  0.73208  0.59001  0.48466  1.0000
  C   C2504     1.0  0.74358  0.72794  0.52963  1.0000
  C   C2505     1.0  0.62945  0.49579  0.92486  1.0000
  H   H1999     1.0  0.78870  0.54510  0.97016  1.0000
  H   H2000     1.0  0.97246  0.66730  0.57466  1.0000
  H   H2001     1.0  0.85735  0.64165  0.96022  1.0000
  H   H2002     1.0  0.93388  0.72631  0.86372  1.0000
  C   C2506     1.0  0.64384  0.53808  0.50269  1.0000
  H   H2003     1.0  0.72036  0.72255  0.63936  1.0000
  C   C2507     1.0  0.83957  0.64384  0.96028  1.0000
  H   H2004     1.0  0.74126  0.54200  0.52048  1.0000
  C   C2508     1.0  0.94685  0.72529  0.81668  1.0000
  C   C2509     1.0  0.70009  0.53562  0.94219  1.0000
  C   C2510     1.0  0.98278  0.63055  0.82433  1.0000
  H   H2005     1.0  0.56995  0.73519  0.49512  1.0000
  H   H2006     1.0  0.87166  0.71042  0.51446  1.0000
  H   H2007     1.0  0.94743  0.74375  0.80965  1.0000
  C   C2511     1.0  0.58746  0.64024  0.49593  1.0000
  H   H2008     1.0  0.54916  0.56242  0.71839  1.0000
  H   H2009     1.0  0.84160  0.61027  0.48802  1.0000
  H   H2010     1.0  0.57100  0.62328  0.48397  1.0000
  S   S335      1.0  0.84359  0.73645  0.69440  1.0000
  H   H2011     1.0  0.51118  0.50203  0.73259  1.0000
  C   C2512     1.0  0.99188  0.70613  0.69457  1.0000
  H   H2012     1.0  0.91825  0.73516  0.49339  1.0000
  C   C2513     1.0  0.73789  0.56908  0.48776  1.0000
  Fe  Fe166     1.0  0.90451  0.61603  0.49372  1.0000
  H   H2013     1.0  0.79250  0.58995  0.49542  1.0000
  C   C2514     1.0  0.90269  0.73859  0.48350  1.0000
  C   C2515     1.0  0.83837  0.66254  0.98012  1.0000
  H   H2014     1.0  0.73384  0.73465  0.94255  1.0000
  C   C2516     1.0  0.71680  0.73887  0.81068  1.0000
  H   H2015     1.0  0.49421  0.52249  0.64415  1.0000
  C   C2517     1.0  0.71189  0.74395  0.53647  1.0000
  C   C2518     1.0  0.94423  0.49470  0.53753  1.0000
  C   C2519     1.0  0.80342  0.49758  0.48289  1.0000
  H   H2016     1.0  0.98558  0.89357  0.16525  1.0000
  S   S336      1.0  0.66260  0.95027  0.06169  1.0000
  Fe  Fe167     1.0  0.60172  0.94592  0.10810  1.0000
  S   S337      1.0  0.59634  0.92113  0.06513  1.0000
  S   S338      1.0  0.56832  0.94485  0.13829  1.0000
  Fe  Fe168     1.0  0.62871  0.91460  0.08648  1.0000
  S   S339      1.0  0.62436  0.87302  0.08338  1.0000
  Fe  Fe169     1.0  0.63065  0.95912  0.04434  1.0000
  C   C2520     1.0  0.65376  0.83003  0.45444  1.0000
  S   S340      1.0  0.63227  0.93727  0.13081  1.0000
  Fe  Fe170     1.0  0.87655  0.78246  0.17139  1.0000
  S   S341      1.0  0.87440  0.80618  0.13055  1.0000
  H   H2017     1.0  0.69102  0.90222  0.99149  1.0000
  Fe  Fe171     1.0  0.88979  0.82858  0.21800  1.0000
  S   S342      1.0  0.88977  0.85581  0.18001  1.0000
  S   S343      1.0  0.89033  0.83389  0.27098  1.0000
  Fe  Fe172     1.0  0.85172  0.81904  0.16312  1.0000
  S   S344      1.0  0.81444  0.82386  0.15815  1.0000
  Fe  Fe173     1.0  0.91284  0.84089  0.15100  1.0000
  S   S345      1.0  0.94663  0.86351  0.11460  1.0000
  S   S346      1.0  0.85136  0.79289  0.20202  1.0000
  S   S347      1.0  0.91559  0.81624  0.19063  1.0000
  Fe  Fe174     1.0  0.82588  0.90349  0.36633  1.0000
  S   S348      1.0  0.84220  0.90398  0.41432  1.0000
  S   S349      1.0  0.85078  0.91270  0.32202  1.0000
  Fe  Fe175     1.0  0.77074  0.89130  0.39181  1.0000
  S   S350      1.0  0.78268  0.89004  0.44188  1.0000
  S   S351      1.0  0.72994  0.88419  0.37457  1.0000
  Fe  Fe176     1.0  0.82197  0.92723  0.42897  1.0000
  S   S352      1.0  0.84112  0.96161  0.46405  1.0000
  Fe  Fe177     1.0  0.80180  0.86702  0.42271  1.0000
  S   S353      1.0  0.80400  0.83222  0.44455  1.0000
  S   S354      1.0  0.80875  0.92982  0.38018  1.0000
  S   S355      1.0  0.78674  0.86508  0.37351  1.0000
  S   S356      1.0  0.62549  0.80544  0.20106  1.0000
  Fe  Fe178     1.0  0.55339  0.86770  0.43871  1.0000
  C   C2521     1.0  0.55139  0.76693  0.22034  1.0000
  S   S357      1.0  0.51444  0.83327  0.41951  1.0000
  Fe  Fe179     1.0  0.59038  0.92864  0.43320  1.0000
  C   C2522     1.0  0.79214  0.94235  0.13857  1.0000
  S   S358      1.0  0.60111  0.96259  0.39844  1.0000
  H   H2018     1.0  0.79546  0.86618  0.29680  1.0000
  C   C2523     1.0  0.50175  0.79463  0.12962  1.0000
  S   S359      1.0  0.59329  0.89346  0.41446  1.0000
  S   S360      1.0  0.54884  0.90277  0.45348  1.0000
  C   C2524     1.0  0.51036  0.80080  0.41965  1.0000
  H   H2019     1.0  0.81349  0.94107  0.24589  1.0000
  H   H2020     1.0  0.92932  0.76690  0.44966  1.0000
  H   H2021     1.0  0.52730  0.93505  0.24053  1.0000
  H   H2022     1.0  0.72192  0.93957  0.05771  1.0000
  C   C2525     1.0  0.53264  0.79686  0.42053  1.0000
  C   C2526     1.0  0.53550  0.86526  0.30726  1.0000
  H   H2023     1.0  0.84643  0.74969  0.44776  1.0000
  H   H2024     1.0  0.55287  0.81401  0.42216  1.0000
  H   H2025     1.0  0.81802  0.80777  0.23358  1.0000
  C   C2527     1.0  0.91637  0.91181  0.43770  1.0000
  H   H2026     1.0  0.62768  0.88350  0.15082  1.0000
  C   C2528     1.0  0.77490  0.98365  0.38309  1.0000
  C   C2529     1.0  0.70941  0.89029  0.40050  1.0000
  C   C2530     1.0  0.68376  0.88521  0.39057  1.0000
  C   C2531     1.0  0.66610  0.88763  0.41163  1.0000
  C   C2532     1.0  0.67409  0.89533  0.44273  1.0000
  C   C2533     1.0  0.51791  0.78444  0.11819  1.0000
  C   C2534     1.0  0.71786  0.89932  0.43112  1.0000
  H   H2027     1.0  0.67726  0.87878  0.36674  1.0000
  H   H2028     1.0  0.64605  0.88275  0.40408  1.0000
  H   H2029     1.0  0.98014  0.78586  0.45437  1.0000
  H   H2030     1.0  0.73767  0.90370  0.43892  1.0000
  C   C2535     1.0  0.77432  0.80080  0.44808  1.0000
  C   C2536     1.0  0.74916  0.79890  0.45215  1.0000
  C   C2537     1.0  0.72582  0.77352  0.45567  1.0000
  C   C2538     1.0  0.67377  0.90488  0.98739  1.0000
  H   H2031     1.0  0.60050  0.76572  0.09309  1.0000
  C   C2539     1.0  0.77616  0.77735  0.44793  1.0000
  H   H2032     1.0  0.74788  0.81705  0.45298  1.0000
  H   H2033     1.0  0.70636  0.77209  0.45868  1.0000
  C   C2540     1.0  0.78023  0.79753  0.16021  1.0000
  C   C2541     1.0  0.76117  0.80220  0.17552  1.0000
  C   C2542     1.0  0.73316  0.78388  0.17276  1.0000
  S   S361      1.0  0.65155  0.89501  0.47137  1.0000
  H   H2034     1.0  0.53876  0.89899  0.24342  1.0000
  C   C2543     1.0  0.77103  0.77380  0.14297  1.0000
  H   H2035     1.0  0.76817  0.82051  0.18884  1.0000
  C   C2544     1.0  0.50246  0.74836  0.41675  1.0000
  P   P83       1.0  0.78127  0.77471  0.28432  1.0000
  C   C2545     1.0  0.87960  0.85596  0.28536  1.0000
  C   C2546     1.0  0.86637  0.85081  0.31447  1.0000
  C   C2547     1.0  0.85756  0.86812  0.32617  1.0000
  C   C2548     1.0  0.86264  0.89110  0.30919  1.0000
  C   C2549     1.0  0.87656  0.89661  0.28059  1.0000
  C   C2550     1.0  0.88468  0.87895  0.26851  1.0000
  H   H2036     1.0  0.86243  0.83308  0.32759  1.0000
  H   H2037     1.0  0.84658  0.86358  0.34803  1.0000
  H   H2038     1.0  0.88059  0.91432  0.26732  1.0000
  H   H2039     1.0  0.89510  0.88327  0.24626  1.0000
  C   C2551     1.0  0.53468  0.91745  0.13669  1.0000
  C   C2552     1.0  0.52557  0.89951  0.11146  1.0000
  C   C2553     1.0  0.98081  0.75330  0.47913  1.0000
  H   H2040     1.0  0.91624  0.76477  0.12538  1.0000
  H   H2041     1.0  0.88331  0.77945  0.29818  1.0000
  C   C2554     1.0  0.51661  0.91366  0.16114  1.0000
  H   H2042     1.0  0.53904  0.90253  0.09214  1.0000
  H   H2043     1.0  0.52578  0.85121  0.08493  1.0000
  H   H2044     1.0  0.90134  0.91809  0.43769  1.0000
  H   H2045     1.0  0.52337  0.92783  0.18035  1.0000
  C   C2555     1.0  0.62617  0.85536  0.11644  1.0000
  C   C2556     1.0  0.62575  0.83093  0.11188  1.0000
  C   C2557     1.0  0.62637  0.81591  0.13765  1.0000
  C   C2558     1.0  0.62690  0.82493  0.16821  1.0000
  C   C2559     1.0  0.62797  0.84966  0.17278  1.0000
  C   C2560     1.0  0.62763  0.86486  0.14699  1.0000
  H   H2046     1.0  0.62477  0.82351  0.08831  1.0000
  H   H2047     1.0  0.62605  0.79717  0.13392  1.0000
  H   H2048     1.0  0.62854  0.85690  0.19637  1.0000
  H   H2049     1.0  0.76591  0.89794  0.07195  1.0000
  H   H2050     1.0  0.80810  0.91492  0.20028  1.0000
  H   H2051     1.0  0.82269  0.88371  0.24832  1.0000
  C   C2561     1.0  0.98259  0.88467  0.11592  1.0000
  H   H2052     1.0  0.51623  0.86725  0.19104  1.0000
  H   H2053     1.0  0.91453  0.90609  0.38756  1.0000
  Fe  Fe180     1.0  0.66350  0.97353  0.10440  1.0000
  C   C2562     1.0  0.49883  0.87778  0.11100  1.0000
  H   H2054     1.0  0.72682  0.90284  0.23377  1.0000
  H   H2055     1.0  0.85001  0.98083  0.15172  1.0000
  C   C2563     1.0  0.56406  0.76021  0.31795  1.0000
  H   H2056     1.0  0.98265  0.79670  0.37186  1.0000
  C   C2564     1.0  0.80367  0.78866  0.34497  1.0000
  C   C2565     1.0  0.68656  0.77271  0.38445  1.0000
  C   C2566     1.0  0.90883  0.75655  0.45850  1.0000
  P   P84       1.0  0.51383  0.75336  0.13424  1.0000
  C   C2567     1.0  0.87352  0.84164  0.40712  1.0000
  S   S362      1.0  0.63344  0.98447  0.08568  1.0000
  S   S363      1.0  0.65511  0.75884  0.21609  1.0000
  C   C2568     1.0  0.50425  0.81837  0.11735  1.0000
  H   H2057     1.0  0.57080  0.77091  0.22938  1.0000
  C   C2569     1.0  0.79606  0.97875  0.20939  1.0000
  H   H2058     1.0  0.81011  0.80935  0.33930  1.0000
  C   C2570     1.0  0.97317  0.80516  0.38630  1.0000
  C   C2571     1.0  0.72396  0.76079  0.15424  1.0000
  C   C2572     1.0  0.81333  0.82032  0.24796  1.0000
  H   H2059     1.0  0.49650  0.94026  0.44041  1.0000
  H   H2060     1.0  0.92549  0.77154  0.21066  1.0000
  C   C2573     1.0  0.52340  0.83254  0.09409  1.0000
  C   C2574     1.0  0.65545  0.79214  0.04445  1.0000
  C   C2575     1.0  0.53953  0.82262  0.08252  1.0000
  C   C2576     1.0  0.93807  0.77604  0.12287  1.0000
  C   C2577     1.0  0.74600  0.76491  0.28246  1.0000
  C   C2578     1.0  0.74643  0.92097  0.06320  1.0000
  C   C2579     1.0  0.71033  0.94994  0.17460  1.0000
  C   C2580     1.0  0.93467  0.75908  0.20794  1.0000
  C   C2581     1.0  0.72755  0.74999  0.45430  1.0000
  C   C2582     1.0  0.70159  0.90597  0.15814  1.0000
  H   H2061     1.0  0.53557  0.76816  0.26574  1.0000
  C   C2583     1.0  0.78858  0.75629  0.25538  1.0000
  C   C2584     1.0  0.67831  0.84110  0.47064  1.0000
  C   C2585     1.0  0.56289  0.76014  0.11144  1.0000
  H   H2062     1.0  0.88368  0.80100  0.47302  1.0000
  H   H2063     1.0  0.56454  0.97038  0.02885  1.0000
  S   S364      1.0  0.61116  0.93084  0.47868  1.0000
  C   C2586     1.0  0.87264  0.83060  0.46200  1.0000
  C   C2587     1.0  0.80230  0.75644  0.38285  1.0000
  C   C2588     1.0  0.52191  0.84138  0.28969  1.0000
  H   H2064     1.0  0.83425  0.85435  0.21715  1.0000
  H   H2065     1.0  0.54596  0.76769  0.41877  1.0000
  C   C2589     1.0  0.54587  0.84200  0.34761  1.0000
  C   C2590     1.0  0.53235  0.81813  0.33043  1.0000
  H   H2066     1.0  0.71651  0.81376  0.37246  1.0000
  C   C2591     1.0  0.52871  0.84476  0.22097  1.0000
  C   C2592     1.0  0.52913  0.85856  0.19352  1.0000
  C   C2593     1.0  0.54600  0.86095  0.16858  1.0000
  C   C2594     1.0  0.56166  0.84855  0.17014  1.0000
  C   C2595     1.0  0.56119  0.83451  0.19717  1.0000
  C   C2596     1.0  0.54496  0.83279  0.22262  1.0000
  C   C2597     1.0  0.72687  0.91174  0.16970  1.0000
  C   C2598     1.0  0.80003  0.85324  0.28284  1.0000
  H   H2067     1.0  0.55481  0.84222  0.37016  1.0000
  C   C2599     1.0  0.73547  0.95566  0.18661  1.0000
  H   H2068     1.0  0.74814  0.97503  0.19751  1.0000
  H   H2069     1.0  0.58870  0.76120  0.27930  1.0000
  H   H2070     1.0  0.54657  0.87206  0.14773  1.0000
  H   H2071     1.0  0.57396  0.84972  0.15023  1.0000
  H   H2072     1.0  0.57343  0.82495  0.19834  1.0000
  H   H2073     1.0  0.54493  0.82188  0.24329  1.0000
  S   S365      1.0  0.62301  0.74525  0.14848  1.0000
  H   H2074     1.0  0.76476  0.93856  0.05508  1.0000
  C   C2600     1.0  0.82053  0.91575  0.15303  1.0000
  C   C2601     1.0  0.82007  0.92382  0.12221  1.0000
  C   C2602     1.0  0.80603  0.93728  0.11505  1.0000
  H   H2075     1.0  0.83133  0.90514  0.15852  1.0000
  H   H2076     1.0  0.83073  0.91977  0.10392  1.0000
  C   C2603     1.0  0.88531  0.80805  0.42294  1.0000
  C   C2604     1.0  0.57172  0.99182  0.07252  1.0000
  C   C2605     1.0  0.98037  0.77745  0.11149  1.0000
  H   H2077     1.0  0.75772  0.96735  0.09968  1.0000
  C   C2606     1.0  0.64892  0.81273  0.42913  1.0000
  C   C2607     1.0  0.66850  0.80609  0.42005  1.0000
  C   C2608     1.0  0.69333  0.81777  0.43608  1.0000
  P   P85       1.0  0.65986  0.78046  0.39052  1.0000
  S   S366      1.0  0.62901  0.97026  0.99336  1.0000
  C   C2609     1.0  0.88867  0.76081  0.44528  1.0000
  C   C2610     1.0  0.54744  0.86552  0.33606  1.0000
  C   C2611     1.0  0.81530  0.86308  0.25548  1.0000
  C   C2612     1.0  0.72404  0.97053  0.00159  1.0000
  H   H2078     1.0  0.75849  0.75309  0.22173  1.0000
  C   C2613     1.0  0.88036  0.76752  0.37707  1.0000
  H   H2079     1.0  0.79849  0.95784  0.31247  1.0000
  C   C2614     1.0  0.62904  0.75242  0.40561  1.0000
  C   C2615     1.0  0.76300  0.89484  0.29178  1.0000
  C   C2616     1.0  0.65512  0.79160  0.35274  1.0000
  C   C2617     1.0  0.66383  0.81884  0.34717  1.0000
  C   C2618     1.0  0.66155  0.82745  0.31715  1.0000
  C   C2619     1.0  0.65100  0.80900  0.29242  1.0000
  C   C2620     1.0  0.64281  0.78194  0.29776  1.0000
  C   C2621     1.0  0.64476  0.77323  0.32781  1.0000
  H   H2080     1.0  0.81979  0.79888  0.39188  1.0000
  C   C2622     1.0  0.70027  0.90182  0.45210  1.0000
  H   H2081     1.0  0.70667  0.90799  0.47604  1.0000
  C   C2623     1.0  0.54630  0.76329  0.18807  1.0000
  H   H2082     1.0  0.70882  0.81320  0.42974  1.0000
  C   C2624     1.0  0.79296  0.93490  0.16981  1.0000
  C   C2625     1.0  0.88179  0.82321  0.39937  1.0000
  H   H2083     1.0  0.72046  0.87806  0.28314  1.0000
  C   C2626     1.0  0.68167  0.74625  0.38701  1.0000
  H   H2084     1.0  0.71874  0.78819  0.18383  1.0000
  C   C2627     1.0  0.75749  0.98573  0.10386  1.0000
  C   C2628     1.0  0.52869  0.77067  0.41857  1.0000
  H   H2085     1.0  0.67289  0.83356  0.36577  1.0000
  H   H2086     1.0  0.66831  0.84853  0.31306  1.0000
  H   H2087     1.0  0.64934  0.81565  0.26907  1.0000
  H   H2088     1.0  0.63498  0.76764  0.27859  1.0000
  C   C2629     1.0  0.75278  0.75195  0.45038  1.0000
  C   C2630     1.0  0.66421  0.76621  0.08269  1.0000
  P   P86       1.0  0.89651  0.78446  0.41333  1.0000
  H   H2089     1.0  0.65927  0.74697  0.09298  1.0000
  H   H2090     1.0  0.78116  0.95253  0.13234  1.0000
  C   C2631     1.0  0.68643  0.78980  0.09396  1.0000
  C   C2632     1.0  0.69322  0.81481  0.08073  1.0000
  C   C2633     1.0  0.67798  0.81574  0.05531  1.0000
  P   P87       1.0  0.72327  0.84464  0.09405  1.0000
  C   C2634     1.0  0.72440  0.84503  0.13645  1.0000
  C   C2635     1.0  0.75100  0.84249  0.07675  1.0000
  C   C2636     1.0  0.76323  0.83007  0.09306  1.0000
  C   C2637     1.0  0.78469  0.82847  0.07963  1.0000
  C   C2638     1.0  0.79368  0.83864  0.04953  1.0000
  C   C2639     1.0  0.78085  0.84996  0.03256  1.0000
  C   C2640     1.0  0.75934  0.85155  0.04593  1.0000
  C   C2641     1.0  0.74929  0.85778  0.15239  1.0000
  C   C2642     1.0  0.75003  0.85778  0.18523  1.0000
  C   C2643     1.0  0.72598  0.84560  0.20236  1.0000
  C   C2644     1.0  0.70116  0.83362  0.18667  1.0000
  C   C2645     1.0  0.70032  0.83336  0.15386  1.0000
  C   C2646     1.0  0.72312  0.87494  0.08271  1.0000
  C   C2647     1.0  0.69923  0.87616  0.08503  1.0000
  C   C2648     1.0  0.69888  0.89939  0.07589  1.0000
  C   C2649     1.0  0.65022  0.88977  0.00489  1.0000
  H   H2091     1.0  0.80694  0.75194  0.40597  1.0000
  C   C2650     1.0  0.74693  0.89784  0.07258  1.0000
  H   H2092     1.0  0.75391  0.80406  0.36724  1.0000
  C   C2651     1.0  0.57774  0.98869  0.04162  1.0000
  H   H2093     1.0  0.51114  0.89131  0.36399  1.0000
  H   H2094     1.0  0.69850  0.78844  0.11281  1.0000
  H   H2095     1.0  0.71765  0.84467  0.47305  1.0000
  H   H2096     1.0  0.75619  0.82143  0.11607  1.0000
  H   H2097     1.0  0.79437  0.81931  0.09267  1.0000
  C   C2652     1.0  0.77775  0.96554  0.45448  1.0000
  H   H2098     1.0  0.94103  0.81407  0.13268  1.0000
  H   H2099     1.0  0.74927  0.85989  0.03222  1.0000
  H   H2100     1.0  0.76813  0.86739  0.13949  1.0000
  H   H2101     1.0  0.76926  0.86677  0.19742  1.0000
  H   H2102     1.0  0.72658  0.84536  0.22777  1.0000
  H   H2103     1.0  0.68248  0.82432  0.19992  1.0000
  H   H2104     1.0  0.68084  0.82392  0.14219  1.0000
  H   H2105     1.0  0.68085  0.85917  0.09390  1.0000
  H   H2106     1.0  0.68045  0.90031  0.07768  1.0000
  C   C2653     1.0  0.73368  0.78792  0.37244  1.0000
  H   H2107     1.0  0.86246  0.85960  0.44419  1.0000
  H   H2108     1.0  0.64354  0.79300  0.02510  1.0000
  Fe  Fe181     1.0  0.62310  0.76518  0.19375  1.0000
  H   H2109     1.0  0.78541  0.77014  0.13062  1.0000
  H   H2110     1.0  0.77862  0.81937  0.31330  1.0000
  H   H2111     1.0  0.55443  0.83370  0.06451  1.0000
  C   C2654     1.0  0.50679  0.76073  0.22889  1.0000
  H   H2112     1.0  0.53696  0.88375  0.29906  1.0000
  C   C2655     1.0  0.98923  0.82859  0.40347  1.0000
  H   H2113     1.0  0.88537  0.82108  0.37498  1.0000
  C   C2656     1.0  0.97715  0.83916  0.42285  1.0000
  C   C2657     1.0  0.74306  0.75566  0.13986  1.0000
  H   H2114     1.0  0.93290  0.77364  0.37580  1.0000
  C   C2658     1.0  0.49746  0.86710  0.25107  1.0000
  H   H2115     1.0  0.66469  0.94095  0.41246  1.0000
  C   C2659     1.0  0.88934  0.78112  0.34825  1.0000
  C   C2660     1.0  0.94895  0.82636  0.42511  1.0000
  C   C2661     1.0  0.93266  0.80295  0.40764  1.0000
  C   C2662     1.0  0.94499  0.79226  0.38850  1.0000
  P   P88       1.0  0.50589  0.84061  0.25264  1.0000
  H   H2116     1.0  0.51025  0.79916  0.28848  1.0000
  C   C2663     1.0  0.69345  0.92516  0.16032  1.0000
  C   C2664     1.0  0.88083  0.81208  0.45435  1.0000
  H   H2117     1.0  0.73368  0.98700  0.47354  1.0000
  H   H2118     1.0  0.79571  0.77883  0.44552  1.0000
  H   H2119     1.0  0.78760  0.85752  0.00904  1.0000
  H   H2120     1.0  0.57227  0.78012  0.12149  1.0000
  C   C2665     1.0  0.51146  0.91444  0.24451  1.0000
  C   C2666     1.0  0.68196  0.96069  0.40781  1.0000
  C   C2667     1.0  0.94280  0.89648  0.40936  1.0000
  H   H2121     1.0  0.94000  0.83438  0.44102  1.0000
  C   C2668     1.0  0.69284  0.75531  0.28363  1.0000
  C   C2669     1.0  0.57896  0.75213  0.09524  1.0000
  H   H2122     1.0  0.76002  0.88423  0.31384  1.0000
  C   C2670     1.0  0.52140  0.75852  0.17585  1.0000
  C   C2671     1.0  0.71122  0.77335  0.26191  1.0000
  H   H2123     1.0  0.55775  0.88395  0.34966  1.0000
  H   H2124     1.0  0.71409  0.96579  0.10899  1.0000
  H   H2125     1.0  0.82176  0.75781  0.28176  1.0000
  H   H2126     1.0  0.81047  0.83751  0.03934  1.0000
  C   C2672     1.0  0.53163  0.76551  0.24076  1.0000
  H   H2127     1.0  0.64930  0.87560  0.02236  1.0000
  H   H2128     1.0  0.80645  0.91542  0.29478  1.0000
  H   H2129     1.0  0.86169  0.98043  0.20780  1.0000
  H   H2130     1.0  0.62973  0.80429  0.41691  1.0000
  C   C2673     1.0  0.78914  0.91243  0.28104  1.0000
  C   C2674     1.0  0.51787  0.89393  0.24623  1.0000
  C   C2675     1.0  0.95499  0.89547  0.43746  1.0000
  C   C2676     1.0  0.79303  0.92685  0.25321  1.0000
  C   C2677     1.0  0.80722  0.92141  0.17678  1.0000
  C   C2678     1.0  0.79126  0.82693  0.29267  1.0000
  C   C2679     1.0  0.72894  0.76179  0.37673  1.0000
  C   C2680     1.0  0.81085  0.98677  0.34971  1.0000
  C   C2681     1.0  0.71249  0.79333  0.37576  1.0000
  C   C2682     1.0  0.57354  0.74864  0.29631  1.0000
  C   C2683     1.0  0.74395  0.93657  0.18421  1.0000
  C   C2684     1.0  0.77423  0.74839  0.22691  1.0000
  C   C2685     1.0  0.73748  0.77772  0.26086  1.0000
  C   C2686     1.0  0.80950  0.75060  0.26075  1.0000
  C   C2687     1.0  0.77075  0.92341  0.23542  1.0000
  H   H2131     1.0  0.67413  0.92094  0.15076  1.0000
  H   H2132     1.0  0.63873  0.83537  0.46116  1.0000
  C   C2688     1.0  0.99140  0.78042  0.47030  1.0000
  H   H2133     1.0  0.73481  0.95072  0.37178  1.0000
  C   C2689     1.0  0.74449  0.90559  0.24638  1.0000
  P   P89       1.0  0.77611  0.94322  0.20014  1.0000
  H   H2134     1.0  0.68349  0.83454  0.04360  1.0000
  H   H2135     1.0  0.74986  0.93462  0.32713  1.0000
  C   C2690     1.0  0.74071  0.89143  0.27446  1.0000
  H   H2136     1.0  0.94826  0.89088  0.38743  1.0000
  H   H2137     1.0  0.53694  0.75270  0.35669  1.0000
  H   H2138     1.0  0.73297  0.89676  0.16763  1.0000
  C   C2691     1.0  0.75602  0.96133  0.36565  1.0000
  C   C2692     1.0  0.72234  0.92163  0.06466  1.0000
  C   C2693     1.0  0.52058  0.81783  0.30148  1.0000
  H   H2139     1.0  0.60991  0.88197  0.01441  1.0000
  Fe  Fe182     1.0  0.61208  0.89438  0.46120  1.0000
  C   C2694     1.0  0.78977  0.76793  0.32302  1.0000
  C   C2695     1.0  0.95207  0.80381  0.12731  1.0000
  C   C2696     1.0  0.79795  0.81024  0.27537  1.0000
  C   C2697     1.0  0.76449  0.95218  0.34007  1.0000
  C   C2698     1.0  0.53646  0.79842  0.09400  1.0000
  H   H2140     1.0  0.71080  0.94921  0.42166  1.0000
  C   C2699     1.0  0.69827  0.83537  0.46112  1.0000
  H   H2141     1.0  0.63133  0.74903  0.04954  1.0000
  C   C2700     1.0  0.73072  0.99107  0.40760  1.0000
  H   H2142     1.0  0.55382  0.97590  0.08381  1.0000
  H   H2143     1.0  0.97204  0.79124  0.19007  1.0000
  H   H2144     1.0  0.87065  0.85314  0.38885  1.0000
  C   C2701     1.0  0.79183  0.96515  0.33186  1.0000
  H   H2145     1.0  0.70297  0.96084  0.00831  1.0000
  C   C2702     1.0  0.87658  0.76851  0.32020  1.0000
  H   H2146     1.0  0.53073  0.79983  0.33988  1.0000
  C   C2703     1.0  0.96095  0.77015  0.19635  1.0000
  H   H2147     1.0  0.60226  0.75803  0.37421  1.0000
  H   H2148     1.0  0.68823  0.88661  0.14750  1.0000
  H   H2149     1.0  0.80613  0.94415  0.09129  1.0000
  C   C2704     1.0  0.80963  0.78285  0.37484  1.0000
  H   H2150     1.0  0.96999  0.88918  0.43696  1.0000
  C   C2705     1.0  0.86897  0.84535  0.43838  1.0000
  H   H2151     1.0  0.70408  0.96495  0.17584  1.0000
  H   H2152     1.0  0.99090  0.76690  0.10497  1.0000
  C   C2706     1.0  0.82206  0.84667  0.23815  1.0000
  H   H2153     1.0  0.57203  0.78178  0.31794  1.0000
  H   H2154     1.0  0.70541  0.78431  0.24608  1.0000
  H   H2155     1.0  0.75136  0.79182  0.24376  1.0000
  H   H2156     1.0  0.79084  0.97363  0.25985  1.0000
  C   C2707     1.0  0.62795  0.89328  0.00033  1.0000
  C   C2708     1.0  0.98016  0.81849  0.12410  1.0000
  H   H2157     1.0  0.90618  0.80157  0.34730  1.0000
  C   C2709     1.0  0.70816  0.96551  0.41314  1.0000
  H   H2158     1.0  0.54850  0.79090  0.08347  1.0000
  C   C2710     1.0  0.94836  0.90313  0.46588  1.0000
  H   H2159     1.0  0.63856  0.75222  0.33149  1.0000
  C   C2711     1.0  0.60372  0.74721  0.39427  1.0000
  H   H2160     1.0  0.98987  0.85688  0.43676  1.0000
  C   C2712     1.0  0.92378  0.90502  0.40941  1.0000
  C   C2713     1.0  0.64856  0.76738  0.05816  1.0000
  C   C2714     1.0  0.95219  0.76288  0.11492  1.0000
  H   H2161     1.0  0.99231  0.76242  0.18137  1.0000
  C   C2715     1.0  0.50174  0.75735  0.19663  1.0000
  C   C2716     1.0  0.77578  0.95136  0.48203  1.0000
  C   C2717     1.0  0.97234  0.75378  0.19164  1.0000
  H   H2162     1.0  0.98686  0.88027  0.06638  1.0000
  H   H2163     1.0  0.80354  0.99193  0.16087  1.0000
  H   H2164     1.0  0.67248  0.75197  0.28455  1.0000
  H   H2165     1.0  0.56195  0.76417  0.17313  1.0000
  H   H2166     1.0  0.79117  0.96635  0.43605  1.0000
  C   C2718     1.0  0.86234  0.74685  0.45762  1.0000
  H   H2167     1.0  0.85399  0.98850  0.40304  1.0000
  C   C2719     1.0  0.72719  0.74608  0.30345  1.0000
  H   H2168     1.0  0.74549  0.75772  0.37513  1.0000
  C   C2720     1.0  0.92829  0.91049  0.46590  1.0000
  H   H2169     1.0  0.67104  0.97939  0.47171  1.0000
  C   C2721     1.0  0.74566  0.97727  0.47571  1.0000
  C   C2722     1.0  0.76248  0.97840  0.45104  1.0000
  C   C2723     1.0  0.74341  0.98872  0.02250  1.0000
  C   C2724     1.0  0.73281  0.98485  0.10924  1.0000
  H   H2170     1.0  0.65768  0.97746  0.39208  1.0000
  C   C2725     1.0  0.67800  0.98127  0.39646  1.0000
  C   C2726     1.0  0.79989  0.98769  0.24069  1.0000
  H   H2171     1.0  0.62350  0.99154  0.45725  1.0000
  H   H2172     1.0  0.73720  0.99262  0.04491  1.0000
  H   H2173     1.0  0.99051  0.84015  0.12708  1.0000
  Fe  Fe183     1.0  0.79614  0.94367  0.85302  1.0000
  H   H2174     1.0  0.96029  0.94985  0.51537  1.0000
  Fe  Fe184     1.0  0.74912  0.90876  0.80831  1.0000
  S   S367      1.0  0.77198  0.93257  0.76609  1.0000
  S   S368      1.0  0.70680  0.87208  0.80677  1.0000
  Fe  Fe185     1.0  0.80682  0.92973  0.78695  1.0000
  S   S369      1.0  0.82965  0.91902  0.75131  1.0000
  Fe  Fe186     1.0  0.78557  0.96913  0.79663  1.0000
  S   S370      1.0  0.78325  0.90436  0.82806  1.0000
  S   S371      1.0  0.75959  0.94563  0.83734  1.0000
  H   H2175     1.0  0.75199  0.93191  0.94632  1.0000
  S   S372      1.0  0.55602  0.90553  0.54623  1.0000
  Fe  Fe187     1.0  0.90110  0.83031  0.73868  1.0000
  S   S373      1.0  0.88307  0.81355  0.69154  1.0000
  S   S374      1.0  0.88658  0.84930  0.77492  1.0000
  Fe  Fe188     1.0  0.93835  0.80614  0.73587  1.0000
  S   S375      1.0  0.92282  0.78690  0.68879  1.0000
  C   C2727     1.0  0.62602  0.84830  0.67322  1.0000
  Fe  Fe189     1.0  0.92558  0.82631  0.67639  1.0000
  S   S376      1.0  0.93893  0.84271  0.62728  1.0000
  Fe  Fe190     1.0  0.88153  0.77549  0.70729  1.0000
  C   C2728     1.0  0.99111  0.77694  0.73933  1.0000
  S   S377      1.0  0.94399  0.84656  0.72232  1.0000
  S   S378      1.0  0.89673  0.79118  0.75554  1.0000
  S   S379      1.0  0.65568  0.79901  0.68526  1.0000
  C   C2729     1.0  0.73110  0.79865  0.60562  1.0000
  H   H2176     1.0  0.68283  0.86838  0.87149  1.0000
  H   H2177     1.0  0.87530  0.80225  0.82127  1.0000
  C   C2730     1.0  0.74998  0.77686  0.63721  1.0000
  C   C2731     1.0  0.51214  0.76890  0.70105  1.0000
  H   H2178     1.0  0.75970  0.89944  0.91743  1.0000
  C   C2732     1.0  0.75031  0.77757  0.94433  1.0000
  H   H2179     1.0  0.94234  0.94074  0.61380  1.0000
  H   H2180     1.0  0.58093  0.80110  0.71864  1.0000
  C   C2733     1.0  0.52378  0.88073  0.55996  1.0000
  H   H2181     1.0  0.52794  0.95015  0.48488  1.0000
  C   C2734     1.0  0.57614  0.83178  0.74290  1.0000
  C   C2735     1.0  0.80766  0.77347  0.80782  1.0000
  H   H2182     1.0  0.86937  0.91483  0.64023  1.0000
  H   H2183     1.0  0.59987  0.89564  0.66384  1.0000
  H   H2184     1.0  0.86901  0.83346  0.48622  1.0000
  C   C2736     1.0  0.92052  0.89471  0.67198  1.0000
  H   H2185     1.0  0.52493  0.89614  0.66499  1.0000
  C   C2737     1.0  0.62793  0.91068  0.73213  1.0000
  H   H2186     1.0  0.55387  0.76717  0.57772  1.0000
  H   H2187     1.0  0.53653  0.84506  0.72865  1.0000
  C   C2738     1.0  0.52492  0.75717  0.53997  1.0000
  H   H2188     1.0  0.54194  0.77745  0.80799  1.0000
  C   C2739     1.0  0.84551  0.89981  0.75888  1.0000
  C   C2740     1.0  0.85862  0.89498  0.73405  1.0000
  C   C2741     1.0  0.87078  0.87907  0.73840  1.0000
  C   C2742     1.0  0.87044  0.86833  0.76794  1.0000
  C   C2743     1.0  0.85735  0.87317  0.79287  1.0000
  C   C2744     1.0  0.84482  0.88876  0.78837  1.0000
  H   H2189     1.0  0.85945  0.90378  0.71137  1.0000
  H   H2190     1.0  0.88070  0.87538  0.71912  1.0000
  H   H2191     1.0  0.85701  0.86493  0.81584  1.0000
  H   H2192     1.0  0.83478  0.89234  0.80771  1.0000
  C   C2745     1.0  0.69290  0.85226  0.77257  1.0000
  C   C2746     1.0  0.66648  0.83009  0.77363  1.0000
  C   C2747     1.0  0.65474  0.81376  0.74701  1.0000
  C   C2748     1.0  0.66941  0.81937  0.71908  1.0000
  C   C2749     1.0  0.69577  0.84163  0.71794  1.0000
  C   C2750     1.0  0.70748  0.85803  0.74453  1.0000
  H   H2193     1.0  0.65497  0.82557  0.79514  1.0000
  H   H2194     1.0  0.63437  0.79683  0.74816  1.0000
  H   H2195     1.0  0.70722  0.84619  0.69640  1.0000
  H   H2196     1.0  0.72774  0.87514  0.74331  1.0000
  H   H2197     1.0  0.94360  0.89801  0.61384  1.0000
  H   H2198     1.0  0.95105  0.88033  0.56557  1.0000
  C   C2751     1.0  0.58336  0.81447  0.63345  1.0000
  C   C2752     1.0  0.60957  0.81974  0.62718  1.0000
  C   C2753     1.0  0.63085  0.83658  0.64710  1.0000
  H   H2199     1.0  0.95058  0.96648  0.56421  1.0000
  H   H2200     1.0  0.56675  0.80116  0.61838  1.0000
  H   H2201     1.0  0.61331  0.81040  0.60724  1.0000
  H   H2202     1.0  0.65106  0.84010  0.64277  1.0000
  H   H2203     1.0  0.79270  0.76074  0.79071  1.0000
  H   H2204     1.0  0.54704  0.82271  0.81503  1.0000
  H   H2205     1.0  0.64282  0.86106  0.68836  1.0000
  H   H2206     1.0  0.67694  0.89261  0.77449  1.0000
  C   C2754     1.0  0.65518  0.77333  0.50750  1.0000
  H   H2207     1.0  0.76342  0.79225  0.59054  1.0000
  C   C2755     1.0  0.56427  0.75141  0.53798  1.0000
  C   C2756     1.0  0.55189  0.79277  0.79016  1.0000
  H   H2208     1.0  0.76559  0.97760  0.94060  1.0000
  C   C2757     1.0  0.87594  0.90502  0.53543  1.0000
  H   H2209     1.0  0.72281  0.83209  0.82171  1.0000
  C   C2758     1.0  0.84358  0.85909  0.52132  1.0000
  C   C2759     1.0  0.84193  0.85136  0.55273  1.0000
  C   C2760     1.0  0.85717  0.87048  0.57585  1.0000
  C   C2761     1.0  0.87423  0.89739  0.56694  1.0000
  P   P90       1.0  0.85225  0.86069  0.61673  1.0000
  C   C2762     1.0  0.82281  0.86105  0.63167  1.0000
  C   C2763     1.0  0.84819  0.82744  0.61980  1.0000
  C   C2764     1.0  0.82795  0.80757  0.63880  1.0000
  C   C2765     1.0  0.82580  0.78227  0.64179  1.0000
  C   C2766     1.0  0.84391  0.77671  0.62609  1.0000
  C   C2767     1.0  0.86407  0.79636  0.60715  1.0000
  C   C2768     1.0  0.86610  0.82155  0.60379  1.0000
  C   C2769     1.0  0.82028  0.86331  0.66409  1.0000
  C   C2770     1.0  0.79879  0.86561  0.67615  1.0000
  C   C2771     1.0  0.77914  0.86488  0.65593  1.0000
  C   C2772     1.0  0.78123  0.86221  0.62360  1.0000
  C   C2773     1.0  0.80301  0.86036  0.61143  1.0000
  C   C2774     1.0  0.88090  0.88411  0.64028  1.0000
  C   C2775     1.0  0.89949  0.87709  0.65222  1.0000
  H   H2210     1.0  0.86120  0.89197  0.48837  1.0000
  Fe  Fe191     1.0  0.56976  0.90151  0.49751  1.0000
  C   C2776     1.0  0.50624  0.74889  0.72363  1.0000
  C   C2777     1.0  0.58001  0.88852  0.67389  1.0000
  H   H2211     1.0  0.68650  0.93965  0.77436  1.0000
  H   H2212     1.0  0.82823  0.83059  0.55907  1.0000
  H   H2213     1.0  0.88594  0.91265  0.58418  1.0000
  H   H2214     1.0  0.81425  0.81170  0.65193  1.0000
  H   H2215     1.0  0.81082  0.76723  0.65726  1.0000
  H   H2216     1.0  0.76435  0.76988  0.63977  1.0000
  H   H2217     1.0  0.87885  0.79249  0.59603  1.0000
  H   H2218     1.0  0.88242  0.83684  0.58981  1.0000
  H   H2219     1.0  0.83536  0.86387  0.67996  1.0000
  H   H2220     1.0  0.79769  0.86855  0.70116  1.0000
  H   H2221     1.0  0.76256  0.86682  0.66532  1.0000
  H   H2222     1.0  0.76618  0.86206  0.60794  1.0000
  H   H2223     1.0  0.80447  0.85889  0.58630  1.0000
  H   H2224     1.0  0.89802  0.85808  0.64652  1.0000
  C   C2778     1.0  0.52833  0.86984  0.69843  1.0000
  C   C2779     1.0  0.84759  0.80798  0.84992  1.0000
  H   H2225     1.0  0.76805  0.82047  0.93894  1.0000
  C   C2780     1.0  0.74099  0.89966  0.91399  1.0000
  H   H2226     1.0  0.66045  0.78302  0.48482  1.0000
  P   P91       1.0  0.76595  0.77666  0.83815  1.0000
  H   H2227     1.0  0.88876  0.92591  0.52874  1.0000
  C   C2781     1.0  0.57087  0.86982  0.69866  1.0000
  C   C2782     1.0  0.94996  0.94729  0.56414  1.0000
  H   H2228     1.0  0.75727  0.93897  0.52750  1.0000
  H   H2229     1.0  0.77655  0.82019  0.88232  1.0000
  C   C2783     1.0  0.54470  0.86022  0.71048  1.0000
  H   H2230     1.0  0.90641  0.94561  0.67533  1.0000
  H   H2231     1.0  0.51262  0.85628  0.51832  1.0000
  C   C2784     1.0  0.57843  0.82600  0.65960  1.0000
  H   H2232     1.0  0.92169  0.91524  0.48744  1.0000
  C   C2785     1.0  0.83443  0.77954  0.80395  1.0000
  H   H2233     1.0  0.56937  0.85751  0.77417  1.0000
  S   S380      1.0  0.82278  0.96876  0.81354  1.0000
  S   S381      1.0  0.80745  0.94984  0.90479  1.0000
  C   C2786     1.0  0.76229  0.80158  0.92724  1.0000
  C   C2787     1.0  0.95431  0.91275  0.53606  1.0000
  H   H2234     1.0  0.61430  0.91623  0.72127  1.0000
  P   P92       1.0  0.59244  0.85744  0.71320  1.0000
  C   C2788     1.0  0.63591  0.76874  0.55917  1.0000
  H   H2235     1.0  0.81987  0.96754  0.96863  1.0000
  C   C2789     1.0  0.78023  0.81890  0.79562  1.0000
  P   P93       1.0  0.50521  0.76900  0.56065  1.0000
  C   C2790     1.0  0.65271  0.92700  0.96054  1.0000
  C   C2791     1.0  0.67522  0.92368  0.96519  1.0000
  H   H2236     1.0  0.63632  0.85698  0.74794  1.0000
  P   P94       1.0  0.70648  0.94371  0.94430  1.0000
  C   C2792     1.0  0.71287  0.91941  0.92488  1.0000
  C   C2793     1.0  0.77732  0.83931  0.78139  1.0000
  H   H2237     1.0  0.72712  0.79549  0.84646  1.0000
  C   C2794     1.0  0.65969  0.75199  0.51390  1.0000
  H   H2238     1.0  0.79685  0.81611  0.78852  1.0000
  C   C2795     1.0  0.59973  0.84309  0.67960  1.0000
  C   C2796     1.0  0.73175  0.77287  0.66148  1.0000
  H   H2239     1.0  0.69950  0.78034  0.67607  1.0000
  H   H2240     1.0  0.55791  0.82138  0.66442  1.0000
  C   C2797     1.0  0.62258  0.88394  0.73166  1.0000
  C   C2798     1.0  0.76224  0.80289  0.81928  1.0000
  C   C2799     1.0  0.69304  0.90049  0.90457  1.0000
  C   C2800     1.0  0.69766  0.88210  0.88821  1.0000
  H   H2241     1.0  0.70647  0.94553  0.87434  1.0000
  C   C2801     1.0  0.63977  0.74696  0.56535  1.0000
  H   H2242     1.0  0.79151  0.85203  0.76360  1.0000
  H   H2243     1.0  0.65326  0.94156  0.94393  1.0000
  C   C2802     1.0  0.56171  0.78696  0.76307  1.0000
  H   H2244     1.0  0.74673  0.77780  0.96927  1.0000
  H   H2245     1.0  0.73066  0.80841  0.58399  1.0000
  H   H2246     1.0  0.55941  0.76716  0.76002  1.0000
  C   C2803     1.0  0.90477  0.92668  0.66838  1.0000
  H   H2247     1.0  0.65503  0.95131  0.74770  1.0000
  C   C2804     1.0  0.64030  0.87754  0.74735  1.0000
  C   C2805     1.0  0.76698  0.80131  0.89508  1.0000
  C   C2806     1.0  0.66331  0.89764  0.76251  1.0000
  H   H2248     1.0  0.72566  0.86814  0.87923  1.0000
  H   H2249     1.0  0.67427  0.90049  0.90069  1.0000
  C   C2807     1.0  0.85438  0.79680  0.82495  1.0000
  C   C2808     1.0  0.72177  0.88187  0.89264  1.0000
  C   C2809     1.0  0.56712  0.83779  0.77072  1.0000
  C   C2810     1.0  0.49996  0.91548  0.51164  1.0000
  H   H2250     1.0  0.94232  0.79455  0.51758  1.0000
  H   H2251     1.0  0.98202  0.77832  0.71763  1.0000
  H   H2252     1.0  0.92516  0.75543  0.74926  1.0000
  C   C2811     1.0  0.52793  0.80354  0.57233  1.0000
  C   C2812     1.0  0.50787  0.93255  0.48561  1.0000
  H   H2253     1.0  0.70826  0.76070  0.53728  1.0000
  C   C2813     1.0  0.94535  0.93284  0.59207  1.0000
  H   H2254     1.0  0.71150  0.75452  0.81022  1.0000
  C   C2814     1.0  0.70371  0.96581  0.91607  1.0000
  H   H2255     1.0  0.73029  0.96181  0.52181  1.0000
  C   C2815     1.0  0.55157  0.81971  0.55500  1.0000
  C   C2816     1.0  0.56933  0.84628  0.56413  1.0000
  C   C2817     1.0  0.56347  0.85708  0.59026  1.0000
  C   C2818     1.0  0.95812  0.86833  0.50600  1.0000
  C   C2819     1.0  0.52221  0.81473  0.59849  1.0000
  H   H2256     1.0  0.62628  0.77484  0.57666  1.0000
  H   H2257     1.0  0.93905  0.93279  0.69609  1.0000
  C   C2820     1.0  0.94653  0.81500  0.51401  1.0000
  C   C2821     1.0  0.57372  0.80630  0.73944  1.0000
  C   C2822     1.0  0.65098  0.93072  0.74736  1.0000
  C   C2823     1.0  0.64355  0.78191  0.53022  1.0000
  C   C2824     1.0  0.74130  0.80757  0.82833  1.0000
  H   H2258     1.0  0.64004  0.79844  0.52518  1.0000
  C   C2825     1.0  0.97403  0.86022  0.61944  1.0000
  C   C2826     1.0  0.94991  0.89856  0.56434  1.0000
  C   C2827     1.0  0.75921  0.98014  0.96363  1.0000
  H   H2259     1.0  0.50644  0.80681  0.51334  1.0000
  H   H2260     1.0  0.90599  0.80585  0.52441  1.0000
  C   C2828     1.0  0.51522  0.88362  0.58985  1.0000
  H   H2261     1.0  0.55618  0.81205  0.53413  1.0000
  H   H2262     1.0  0.58734  0.85881  0.55050  1.0000
  H   H2263     1.0  0.57677  0.87796  0.59660  1.0000
  H   H2264     1.0  0.83125  0.84439  0.50371  1.0000
  S   S382      1.0  0.96953  0.80575  0.76849  1.0000
  H   H2265     1.0  0.57074  0.91257  0.64282  1.0000
  C   C2829     1.0  0.53777  0.88886  0.67430  1.0000
  H   H2266     1.0  0.96877  0.84668  0.57159  1.0000
  C   C2830     1.0  0.97268  0.83515  0.50635  1.0000
  C   C2831     1.0  0.86050  0.88592  0.51265  1.0000
  H   H2267     1.0  0.69922  0.80273  0.62744  1.0000
  C   C2832     1.0  0.92609  0.82140  0.51770  1.0000
  H   H2268     1.0  0.53492  0.84980  0.62715  1.0000
  H   H2269     1.0  0.52851  0.90081  0.60410  1.0000
  C   C2833     1.0  0.55468  0.81821  0.79404  1.0000
  H   H2270     1.0  0.69836  0.99036  0.77873  1.0000
  C   C2834     1.0  0.70949  0.75800  0.72516  1.0000
  C   C2835     1.0  0.76705  0.77358  0.71066  1.0000
  C   C2836     1.0  0.78107  0.80179  0.71277  1.0000
  C   C2837     1.0  0.80785  0.81563  0.72323  1.0000
  C   C2838     1.0  0.82133  0.80162  0.73016  1.0000
  C   C2839     1.0  0.80803  0.77374  0.72670  1.0000
  C   C2840     1.0  0.78094  0.75966  0.71738  1.0000
  C   C2841     1.0  0.71612  0.78259  0.73957  1.0000
  C   C2842     1.0  0.69700  0.78494  0.75762  1.0000
  C   C2843     1.0  0.83056  0.98510  0.95384  1.0000
  H   H2271     1.0  0.83992  0.77137  0.78429  1.0000
  C   C2844     1.0  0.71370  0.78267  0.65781  1.0000
  Fe  Fe192     1.0  0.61491  0.76026  0.68685  1.0000
  H   H2272     1.0  0.81618  0.81092  0.87342  1.0000
  H   H2273     1.0  0.50818  0.86233  0.70781  1.0000
  H   H2274     1.0  0.61197  0.91471  0.97482  1.0000
  H   H2275     1.0  0.77147  0.81322  0.70616  1.0000
  H   H2276     1.0  0.81820  0.83723  0.72625  1.0000
  H   H2277     1.0  0.84211  0.81238  0.73818  1.0000
  C   C2845     1.0  0.94563  0.90865  0.59213  1.0000
  C   C2846     1.0  0.56360  0.89815  0.66194  1.0000
  H   H2278     1.0  0.73546  0.80038  0.73603  1.0000
  H   H2279     1.0  0.70172  0.80423  0.76729  1.0000
  C   C2847     1.0  0.50633  0.85861  0.54147  1.0000
  C   C2848     1.0  0.53991  0.84131  0.60737  1.0000
  C   C2849     1.0  0.80049  0.78409  0.83333  1.0000
  C   C2850     1.0  0.95501  0.93758  0.53637  1.0000
  C   C2851     1.0  0.88376  0.90912  0.64853  1.0000
  H   H2280     1.0  0.86329  0.82200  0.86561  1.0000
  C   C2852     1.0  0.73662  0.91836  0.93014  1.0000
  C   C2853     1.0  0.93176  0.84791  0.51333  1.0000
  C   C2854     1.0  0.75657  0.84392  0.79068  1.0000
  C   C2855     1.0  0.66870  0.92420  0.76246  1.0000
  H   H2281     1.0  0.52367  0.77003  0.68044  1.0000
  S   S383      1.0  0.57838  0.75315  0.65858  1.0000
  C   C2856     1.0  0.97853  0.86173  0.50231  1.0000
  H   H2282     1.0  0.50667  0.80229  0.68741  1.0000
  C   C2857     1.0  0.67127  0.76280  0.76199  1.0000
  P   P95       1.0  0.96529  0.90259  0.50162  1.0000
  C   C2858     1.0  0.71341  0.79547  0.62999  1.0000
  C   C2859     1.0  0.50226  0.78692  0.70485  1.0000
  C   C2860     1.0  0.92310  0.91944  0.68018  1.0000
  H   H2283     1.0  0.81878  0.76304  0.73146  1.0000
  C   C2861     1.0  0.82078  0.80166  0.85417  1.0000
  C   C2862     1.0  0.70401  0.96167  0.88359  1.0000
  C   C2863     1.0  0.75883  0.95012  0.50633  1.0000
  H   H2284     1.0  0.98593  0.87751  0.66553  1.0000
  H   H2285     1.0  0.75452  0.85994  0.77988  1.0000
  C   C2864     1.0  0.74950  0.78950  0.60931  1.0000
  C   C2865     1.0  0.73873  0.82823  0.81435  1.0000
  H   H2286     1.0  0.50403  0.80345  0.61204  1.0000
  H   H2287     1.0  0.73448  0.97810  0.77681  1.0000
  H   H2288     1.0  0.93464  0.88897  0.68122  1.0000
  C   C2866     1.0  0.75962  0.77693  0.87969  1.0000
  C   C2867     1.0  0.74377  0.96309  0.50318  1.0000
  C   C2868     1.0  0.82814  0.98224  0.92106  1.0000
  H   H2289     1.0  0.91581  0.85268  0.51642  1.0000
  H   H2290     1.0  0.84290  0.75749  0.62954  1.0000
  C   C2869     1.0  0.74305  0.75325  0.92925  1.0000
  C   C2870     1.0  0.70132  0.97873  0.86228  1.0000
  C   C2871     1.0  0.54826  0.75950  0.55406  1.0000
  C   C2872     1.0  0.73184  0.96563  0.97219  1.0000
  S   S384      1.0  0.57228  0.86513  0.48388  1.0000
  P   P96       1.0  0.73233  0.75597  0.69716  1.0000
  C   C2873     1.0  0.74772  0.75290  0.89708  1.0000
  H   H2291     1.0  0.51389  0.91995  0.53104  1.0000
  H   H2292     1.0  0.58144  0.75206  0.54956  1.0000
  H   H2293     1.0  0.63213  0.99019  0.93094  1.0000
  H   H2294     1.0  0.70204  0.99197  0.95157  1.0000
  C   C2874     1.0  0.99277  0.87639  0.64225  1.0000
  C   C2875     1.0  0.98831  0.78892  0.76666  1.0000
  H   H2295     1.0  0.75418  0.76951  0.52592  1.0000
  H   H2296     1.0  0.98860  0.83025  0.50413  1.0000
  C   C2876     1.0  0.51808  0.74688  0.50929  1.0000
  H   H2297     1.0  0.65628  0.76484  0.77540  1.0000
  C   C2877     1.0  0.62913  0.91172  0.97803  1.0000
  C   C2878     1.0  0.73818  0.74914  0.53068  1.0000
  H   H2298     1.0  0.68212  0.85488  0.48991  1.0000
  C   C2879     1.0  0.98317  0.85923  0.58921  1.0000
  H   H2299     1.0  0.64297  0.98080  0.51524  1.0000
  H   H2300     1.0  0.70110  0.97512  0.83734  1.0000
  C   C2880     1.0  0.70205  0.98811  0.92669  1.0000
  H   H2301     1.0  0.99332  0.82749  0.70447  1.0000
  H   H2302     1.0  0.78740  0.94125  0.48448  1.0000
  H   H2303     1.0  0.50031  0.74484  0.49756  1.0000
  H   H2304     1.0  0.66851  0.74533  0.49601  1.0000
