data_image0
_chemical_formula_structural       C4HC2H2FeSPC2HCH3CHCH2CFeHSHCH2CSCFeS2HSHFeCH2C8H3C6H2CHCH2C2HCHCHC4HCHCHC2SH3CHCHCH2C2H4CH6FeCH3C2H3FeCHC2HCSFeC4H3CHCHCH2CH2C2H2SC2H5C3PCH2CHSH5CSC2H2C5HSH2CH2CHC4HCHCSHC3PC5HC7H8FeSC2H2CHCPSFeSC3FeS2FeS2CFeCFeC6HCH2C6H4SH3C5H2CHCSHCHC4HS2FeSFeSCFeSFeS4FeS2FeS2FeSFeS3C2HC6H4C8H5C2HC2HCHC3H2CHC3H2C2HC8H6C6H6CHC3HCH2C2HC2HCHC4HC2H2CH2CHC3H3CH2C3H5CH2C4HC4HC2H2CHC3HC2HCHC7PC8H2C5HCSC3H2SH3CH2CH3C4PC4HC4HC3HC3H4CPH2CH2CH2C3H4S2CH2CH2CHCHCH5C4HCHCHSC2H3CPCFeH4CHCHCHC2H2C8H4CHC3H3CPH2C2HCHC3H2C2H3CHCFeS2FeS2FeSFeS4FeS2FeS2FeSFeS3HC8H4CHC6H4CHC2HCH2CHC3SCHC7H4C3H6CH2C3PHC3HC2H3CHCHC3H2CHCH2CH2CHCH2CHSHCHC2H2CHCHC2HC12H3CH2C6PC8H2CH3C2HCH6CHC2H2C2HCH3CHC3H5CHCHC2PC3HCHPHCH2C11HC3HC3HCHCH2C2H2C3H3C2H2CHSCH3CH3C2H6CHCHC2HC2HC8H2CHC3HCH2CHCHC2H3CHC2SPH3CFeS2HSCFeSFeHSC2FeS2C2HCFeS2C7H4C6H5C6HC3H2SHPC5H3C2HC6H2C2HCHCH3C2H2C2HCHCHC2HC2P2H5SC2SHCHFeH2C4HCHCPH2C4HCPCH2C4H3CH4CHCH4CH3C2H2CH3FeC2PHCHCHC4H2C6H2C5H2CSHCHCHCH2C2SHC2H4FeC2HC10HC2H2CFeS2HCHFeSFeSCHCFeS2CH3FeSCSHC6H4C6H4CHCHCH3C3H2CSHC2H3CH4CFeCHCHCPC6H2CHCHC2H3C3H8CH3C2H5CHSH2CHC2HC3H2C2HC2HC2HFeCHC8PC12SH2CH6SCH2CHC2HSHC2H2CHC2H4CHC4HCH2CH3C2SC4H2C6FeHSFeS2HCFeS3FeS2HCHCFeSCSC8H4C6H6CHC2HFeC2PC2H2C4H2C4H5CH4C4HC3H2C5H2CH4CH8C2H2C2HC2H3CH2C2SCSC2HCH2CHCHC6PC7SHSHCPCPC2HC2H2C3HC2HC2H2C4HCH2C4HC3H3C2HCHC3HC2H5CSC2HCH4C2H3C2PCHCPC2H3C2H2C2HCFeHCHCH3SH3S3C2FeS2CSFeC2SFeS2C2HCFeSCSC9H3C6H4CH2C3H2C3HC2H3CH2CH2CHCH2CHPC3H3CHC2HC7H2CH3CHCH2CH2CH8C3PC2PC14HCH10CHCH3C2PC2H2CH2C13H10C2H6C2SHFeC2HCHC3FeCHCHC2H2CSCH5C7H2C4H2CHC5H2C2FeHCFeC2HSPHC2H3CHCHC2FeS2FeS2FeSFeS4FeS2FeS2FeSFeS4HC6H4CH2C2H3CH4C6H4C6H4C7PH3C4HPC8HC2HC9H5C2HPCH5C2HC2H2FeH3C4H2CH3SFeCSC3H2CH2C2H2C3H2SCH3CFeHCHPCHCHFeH3CH4CH2C2H2C4H2CSH2C10H2C3H2C6PC4H2C8HCH16C5H2CSHC3H2C2HCH3CH3C2H2FeC3HC5FeS2FeS2FeSFeS3CFeS2FeS2FeSFeS4C7H4CH2C2H4CH2C7H4C6H4C6H2CH6C5HCFeH3CH3C5H2CHCHC2H2CH7CHC2HC3HC5PCHC2SHC5H6C3HC2H2C6PC8SH3C6H12SCHC2H3CH2PH4CHSCHSC2HC8PC18HCH5CH12C6HCH4CH2CFeC6HCHC5H3CHCHCHC2HCPC2HCFeCHCSHCH2C2HFeHFeCSHCFeCHS2CFeS2FeSH2SC7H3C7H2CHCH2CH3C3H2CHCSH2SC2HC3H2C5H2C4HC3S2C2HC3HC2HC2H4C3H2C2H4CH2C2HPSHFeC2HCHCH3PFeHFeS2HSFeSHSC2FeS2FeSHCSC7H4C6H4CHC2PC6PC18H12C2H6C3HCHC2HC4H3C4H3C3H2CSHCFeC2H2C2HCH4CPH3CH2C2HCH2SC4H2C
_chemical_formula_sum              "C1440 H1152 Fe96 S192 P48"
_cell_length_a       51.2115
_cell_length_b       50.8036
_cell_length_c       39.9277
_cell_angle_alpha    90.2667
_cell_angle_beta     89.1287
_cell_angle_gamma    119.915

_space_group_name_H-M_alt    "P 1"
_space_group_IT_number       1

loop_
  _space_group_symop_operation_xyz
  'x, y, z'

loop_
  _atom_site_type_symbol
  _atom_site_label
  _atom_site_symmetry_multiplicity
  _atom_site_fract_x
  _atom_site_fract_y
  _atom_site_fract_z
  _atom_site_occupancy
  C   C1        1.0  0.42206  0.33470  0.02435  1.0000
  C   C2        1.0  0.43690  0.31951  0.30820  1.0000
  C   C3        1.0  0.49758  0.21643  0.24300  1.0000
  C   C4        1.0  0.51331  0.10357  0.40306  1.0000
  H   H1        1.0  0.46438  0.33750  0.09067  1.0000
  C   C5        1.0  0.13914  0.29687  0.44342  1.0000
  C   C6        1.0  0.08949  0.28078  0.48596  1.0000
  H   H2        1.0  0.38737  0.34881  0.13509  1.0000
  H   H3        1.0  0.50908  0.10337  0.06697  1.0000
  Fe  Fe1       1.0  0.48503  0.20041  0.49822  1.0000
  S   S1        1.0  0.50008  0.30584  0.11747  1.0000
  P   P1        1.0  0.48687  0.33532  0.39227  1.0000
  C   C7        1.0  0.13644  0.31959  0.46063  1.0000
  C   C8        1.0  0.11676  0.26639  0.44690  1.0000
  H   H4        1.0  0.52258  0.24721  0.20335  1.0000
  C   C9        1.0  0.42026  0.03010  0.47750  1.0000
  H   H5        1.0  0.11877  0.24896  0.43328  1.0000
  H   H6        1.0  0.51659  0.30736  0.42730  1.0000
  H   H7        1.0  0.36042  0.29676  0.46014  1.0000
  C   C10       1.0  0.43451  0.34168  0.05630  1.0000
  H   H8        1.0  0.47819  0.30896  0.05141  1.0000
  C   C11       1.0  0.46261  0.31612  0.04341  1.0000
  H   H9        1.0  0.15850  0.30257  0.42738  1.0000
  H   H10       1.0  0.04527  0.33533  0.22540  1.0000
  C   C12       1.0  0.09187  0.25836  0.46802  1.0000
  Fe  Fe2       1.0  0.47941  0.14116  0.47122  1.0000
  H   H11       1.0  0.48131  0.30201  0.51020  1.0000
  S   S2        1.0  0.45044  0.09062  0.46019  1.0000
  H   H12       1.0  0.07034  0.27453  0.50259  1.0000
  C   C13       1.0  0.43052  0.23873  0.02952  1.0000
  H   H13       1.0  0.14713  0.34307  0.38810  1.0000
  H   H14       1.0  0.50909  0.02773  0.11448  1.0000
  C   C14       1.0  0.11183  0.31127  0.48254  1.0000
  S   S3        1.0  0.47095  0.17686  0.44840  1.0000
  C   C15       1.0  0.49845  0.03744  0.03243  1.0000
  Fe  Fe3       1.0  0.48757  0.29890  0.24650  1.0000
  S   S4        1.0  0.45867  0.30211  0.20619  1.0000
  S   S5        1.0  0.46707  0.26139  0.28565  1.0000
  H   H15       1.0  0.43003  0.27678  0.48523  1.0000
  S   S6        1.0  0.46774  0.17407  0.06864  1.0000
  H   H16       1.0  0.47472  0.24795  0.15273  1.0000
  Fe  Fe4       1.0  0.49931  0.31621  0.17262  1.0000
  C   C16       1.0  0.43082  0.34342  0.30807  1.0000
  H   H17       1.0  0.49112  0.09860  0.39521  1.0000
  H   H18       1.0  0.49553  0.06881  0.44059  1.0000
  C   C17       1.0  0.37554  0.29609  0.47840  1.0000
  C   C18       1.0  0.47692  0.21084  0.08195  1.0000
  C   C19       1.0  0.47887  0.24456  0.12685  1.0000
  C   C20       1.0  0.49104  0.26909  0.10452  1.0000
  C   C21       1.0  0.49656  0.26450  0.07106  1.0000
  C   C22       1.0  0.48942  0.23548  0.05976  1.0000
  C   C23       1.0  0.51997  0.26771  0.31147  1.0000
  C   C24       1.0  0.41654  0.20824  0.03929  1.0000
  H   H19       1.0  0.21534  0.33208  0.08182  1.0000
  H   H20       1.0  0.49322  0.23213  0.03381  1.0000
  H   H21       1.0  0.07453  0.23474  0.47065  1.0000
  C   C25       1.0  0.51596  0.08669  0.42897  1.0000
  C   C26       1.0  0.49330  0.29022  0.42372  1.0000
  C   C27       1.0  0.48865  0.25436  0.31473  1.0000
  C   C28       1.0  0.47377  0.23413  0.34136  1.0000
  C   C29       1.0  0.48987  0.22695  0.36432  1.0000
  C   C30       1.0  0.46285  0.33733  0.36107  1.0000
  H   H22       1.0  0.44955  0.22361  0.34398  1.0000
  H   H23       1.0  0.47798  0.21086  0.38423  1.0000
  C   C31       1.0  0.45260  0.23888  0.43331  1.0000
  H   H24       1.0  0.43566  0.25564  0.04867  1.0000
  C   C32       1.0  0.49862  0.20164  0.27193  1.0000
  H   H25       1.0  0.49784  0.25595  0.45048  1.0000
  H   H26       1.0  0.41892  0.02238  0.07208  1.0000
  C   C33       1.0  0.47383  0.29696  0.40610  1.0000
  C   C34       1.0  0.50163  0.06636  0.03451  1.0000
  H   H27       1.0  0.46220  0.19655  0.13285  1.0000
  C   C35       1.0  0.39509  0.28551  0.46909  1.0000
  H   H28       1.0  0.51457  0.10267  0.49600  1.0000
  C   C36       1.0  0.45483  0.33241  0.06579  1.0000
  H   H29       1.0  0.40044  0.16221  0.02338  1.0000
  C   C37       1.0  0.50721  0.03845  0.09196  1.0000
  C   C38       1.0  0.43051  0.04098  0.02202  1.0000
  C   C39       1.0  0.47181  0.21551  0.11554  1.0000
  C   C40       1.0  0.20815  0.35372  0.49503  1.0000
  H   H30       1.0  0.45860  0.29865  0.33340  1.0000
  C   C41       1.0  0.51532  0.03362  0.47089  1.0000
  H   H31       1.0  0.40982  0.22783  0.41257  1.0000
  C   C42       1.0  0.41487  0.28502  0.49247  1.0000
  H   H32       1.0  0.47626  0.21381  0.23498  1.0000
  C   C43       1.0  0.43308  0.24536  0.41580  1.0000
  C   C44       1.0  0.50724  0.08121  0.06532  1.0000
  S   S7        1.0  0.50642  0.34726  0.26260  1.0000
  H   H33       1.0  0.10754  0.34879  0.43260  1.0000
  H   H34       1.0  0.40432  0.14593  0.49678  1.0000
  H   H35       1.0  0.44078  0.06432  0.03026  1.0000
  C   C45       1.0  0.45306  0.31662  0.33443  1.0000
  H   H36       1.0  0.41137  0.20218  0.06553  1.0000
  C   C46       1.0  0.52312  0.35156  0.37161  1.0000
  H   H37       1.0  0.42790  0.27903  0.38946  1.0000
  C   C47       1.0  0.44356  0.27436  0.40240  1.0000
  H   H38       1.0  0.06743  0.35308  0.33674  1.0000
  H   H39       1.0  0.47813  0.18760  0.28625  1.0000
  C   C48       1.0  0.48273  0.26122  0.43710  1.0000
  C   C49       1.0  0.43805  0.06001  0.48907  1.0000
  H   H40       1.0  0.44439  0.21650  0.44399  1.0000
  H   H41       1.0  0.42996  0.30373  0.28739  1.0000
  H   H42       1.0  0.39495  0.27772  0.44374  1.0000
  H   H43       1.0  0.44146  0.34131  0.43153  1.0000
  C   C50       1.0  0.50989  0.06718  0.09407  1.0000
  H   H44       1.0  0.20971  0.34080  0.47421  1.0000
  H   H45       1.0  0.41904  0.34610  0.28715  1.0000
  H   H46       1.0  0.09456  0.33898  0.09224  1.0000
  H   H47       1.0  0.42295  0.34336  0.17237  1.0000
  H   H48       1.0  0.10988  0.32838  0.49690  1.0000
  H   H49       1.0  0.51856  0.30834  0.35732  1.0000
  Fe  Fe5       1.0  0.52034  0.20221  0.43569  1.0000
  C   C51       1.0  0.52110  0.23996  0.36093  1.0000
  H   H50       1.0  0.17567  0.35255  0.33493  1.0000
  H   H51       1.0  0.41504  0.02614  0.45116  1.0000
  H   H52       1.0  0.50652  0.28345  0.05384  1.0000
  C   C52       1.0  0.37526  0.30560  0.51129  1.0000
  C   C53       1.0  0.50165  0.02341  0.06104  1.0000
  H   H53       1.0  0.51376  0.07851  0.11805  1.0000
  H   H54       1.0  0.41065  0.10135  0.50697  1.0000
  H   H55       1.0  0.52558  0.02785  0.41952  1.0000
  Fe  Fe6       1.0  0.48060  0.35152  0.21975  1.0000
  C   C54       1.0  0.52410  0.23559  0.22519  1.0000
  H   H56       1.0  0.10205  0.35123  0.15278  1.0000
  C   C55       1.0  0.46269  0.35336  0.44446  1.0000
  C   C56       1.0  0.49410  0.02070  0.49717  1.0000
  H   H57       1.0  0.40626  0.34189  0.01708  1.0000
  C   C57       1.0  0.52623  0.20619  0.28330  1.0000
  S   S8        1.0  0.52622  0.30868  0.21158  1.0000
  Fe  Fe7       1.0  0.47908  0.16657  0.01570  1.0000
  C   C58       1.0  0.41043  0.18571  0.01554  1.0000
  C   C59       1.0  0.52238  0.08744  0.93154  1.0000
  C   C60       1.0  0.38793  0.24142  0.62432  1.0000
  C   C61       1.0  0.35725  0.05066  0.91711  1.0000
  H   H58       1.0  0.47937  0.33608  0.55396  1.0000
  H   H59       1.0  0.43026  0.29437  0.54313  1.0000
  H   H60       1.0  0.41356  0.17634  0.96341  1.0000
  C   C62       1.0  0.39231  0.29657  0.64289  1.0000
  H   H61       1.0  0.45421  0.26751  0.56169  1.0000
  C   C63       1.0  0.46542  0.31001  0.88405  1.0000
  H   H62       1.0  0.41962  0.31300  0.97748  1.0000
  C   C64       1.0  0.51050  0.16473  0.61700  1.0000
  H   H63       1.0  0.44983  0.33543  0.61631  1.0000
  H   H64       1.0  0.49887  0.07689  0.01229  1.0000
  C   C65       1.0  0.39442  0.30432  0.53523  1.0000
  H   H65       1.0  0.45356  0.14547  0.69078  1.0000
  H   H66       1.0  0.42759  0.17236  0.65992  1.0000
  C   C66       1.0  0.34849  0.06477  0.94163  1.0000
  C   C67       1.0  0.40539  0.15688  0.54914  1.0000
  H   H67       1.0  0.47699  0.20317  0.63416  1.0000
  H   H68       1.0  0.40300  0.02994  0.90699  1.0000
  S   S9        1.0  0.46520  0.22825  0.51915  1.0000
  C   C68       1.0  0.30814  0.30038  0.58937  1.0000
  C   C69       1.0  0.36246  0.32150  0.58686  1.0000
  H   H69       1.0  0.50428  0.09091  0.92318  1.0000
  H   H70       1.0  0.49282  0.02592  0.00860  1.0000
  H   H71       1.0  0.39812  0.18371  0.70036  1.0000
  H   H72       1.0  0.36841  0.05955  0.60341  1.0000
  H   H73       1.0  0.50781  0.17939  0.69984  1.0000
  C   C70       1.0  0.41798  0.19365  0.98189  1.0000
  C   C71       1.0  0.39197  0.28959  0.60876  1.0000
  C   C72       1.0  0.52064  0.17705  0.64871  1.0000
  P   P2        1.0  0.39452  0.31671  0.57778  1.0000
  C   C73       1.0  0.37853  0.06870  0.89243  1.0000
  H   H74       1.0  0.40885  0.11434  0.87484  1.0000
  H   H75       1.0  0.51273  0.34484  0.99981  1.0000
  C   C74       1.0  0.41482  0.29481  0.52528  1.0000
  H   H76       1.0  0.38712  0.25451  0.57382  1.0000
  S   S10       1.0  0.46083  0.23825  0.67679  1.0000
  H   H77       1.0  0.45857  0.08758  0.53231  1.0000
  H   H78       1.0  0.44692  0.08458  0.66336  1.0000
  H   H79       1.0  0.43408  0.03091  0.66493  1.0000
  H   H80       1.0  0.49258  0.04125  0.94669  1.0000
  H   H81       1.0  0.34976  0.14211  0.72349  1.0000
  C   C75       1.0  0.35246  0.10703  0.69563  1.0000
  S   S11       1.0  0.50946  0.20276  0.97882  1.0000
  C   C76       1.0  0.45873  0.13917  0.63781  1.0000
  C   C77       1.0  0.50107  0.31653  0.52471  1.0000
  H   H82       1.0  0.39178  0.28222  0.69370  1.0000
  H   H83       1.0  0.39402  0.13871  0.91884  1.0000
  C   C78       1.0  0.41972  0.03733  0.65183  1.0000
  C   C79       1.0  0.38938  0.24908  0.65816  1.0000
  C   C80       1.0  0.42972  0.31825  0.00194  1.0000
  C   C81       1.0  0.34112  0.35139  0.60924  1.0000
  C   C82       1.0  0.38356  0.11418  0.91831  1.0000
  H   H84       1.0  0.51211  0.12516  0.54973  1.0000
  S   S12       1.0  0.51798  0.31183  0.71765  1.0000
  H   H85       1.0  0.38482  0.05858  0.87231  1.0000
  H   H86       1.0  0.40340  0.17681  0.54455  1.0000
  C   C83       1.0  0.45009  0.28977  0.94047  1.0000
  H   H87       1.0  0.48301  0.32399  0.86611  1.0000
  H   H88       1.0  0.24178  0.35026  0.52353  1.0000
  C   C84       1.0  0.39190  0.10035  0.89338  1.0000
  H   H89       1.0  0.28561  0.28167  0.58519  1.0000
  C   C85       1.0  0.49909  0.29871  0.98493  1.0000
  C   C86       1.0  0.50000  0.16989  0.67521  1.0000
  C   C87       1.0  0.43277  0.03989  0.54557  1.0000
  C   C88       1.0  0.42008  0.27318  0.92992  1.0000
  H   H90       1.0  0.39391  0.31781  0.65064  1.0000
  C   C89       1.0  0.39100  0.27638  0.66743  1.0000
  H   H91       1.0  0.38979  0.26179  0.88848  1.0000
  C   C90       1.0  0.36182  0.09642  0.94240  1.0000
  S   S13       1.0  0.41283  0.33621  0.73517  1.0000
  H   H92       1.0  0.38660  0.22017  0.61721  1.0000
  C   C91       1.0  0.41301  0.10697  0.56061  1.0000
  C   C92       1.0  0.41202  0.12398  0.58797  1.0000
  C   C93       1.0  0.40841  0.14918  0.58189  1.0000
  P   P3        1.0  0.41890  0.11571  0.62995  1.0000
  C   C94       1.0  0.39673  0.12383  0.65960  1.0000
  C   C95       1.0  0.40872  0.07620  0.63309  1.0000
  C   C96       1.0  0.38284  0.05365  0.61719  1.0000
  C   C97       1.0  0.43872  0.24696  0.99580  1.0000
  C   C98       1.0  0.47272  0.30829  0.91727  1.0000
  H   H93       1.0  0.29278  0.32991  0.60952  1.0000
  C   C99       1.0  0.42695  0.06776  0.65074  1.0000
  C   C100      1.0  0.36934  0.10043  0.67270  1.0000
  C   C101      1.0  0.36276  0.13699  0.70565  1.0000
  C   C102      1.0  0.38989  0.16040  0.69263  1.0000
  C   C103      1.0  0.40670  0.15386  0.66966  1.0000
  C   C104      1.0  0.41290  0.27488  0.89661  1.0000
  C   C105      1.0  0.43222  0.22409  0.97205  1.0000
  H   H94       1.0  0.47224  0.13604  0.58712  1.0000
  H   H95       1.0  0.51432  0.24505  0.90511  1.0000
  H   H96       1.0  0.38938  0.23394  0.67721  1.0000
  H   H97       1.0  0.41677  0.08807  0.56428  1.0000
  H   H98       1.0  0.40868  0.16349  0.60213  1.0000
  H   H99       1.0  0.52647  0.17013  0.59642  1.0000
  H   H100      1.0  0.33140  0.05132  0.96024  1.0000
  H   H101      1.0  0.49399  0.25592  0.96743  1.0000
  Fe  Fe8       1.0  0.51345  0.35058  0.69835  1.0000
  S   S14       1.0  0.44512  0.06351  0.95708  1.0000
  C   C106      1.0  0.47226  0.21742  0.61838  1.0000
  C   C107      1.0  0.38886  0.26139  0.59968  1.0000
  H   H102      1.0  0.43749  0.04386  0.57199  1.0000
  H   H103      1.0  0.43016  0.29428  0.84773  1.0000
  C   C108      1.0  0.45001  0.30868  0.01136  1.0000
  H   H104      1.0  0.32982  0.27601  0.57137  1.0000
  C   C109      1.0  0.47970  0.14564  0.61167  1.0000
  P   P4        1.0  0.45939  0.28643  0.98316  1.0000
  S   S15       1.0  0.48873  0.16250  0.52211  1.0000
  Fe  Fe9       1.0  0.46709  0.11396  0.96893  1.0000
  S   S16       1.0  0.49623  0.14610  0.92815  1.0000
  C   C110      1.0  0.46916  0.15078  0.66991  1.0000
  C   C111      1.0  0.49992  0.33547  0.54945  1.0000
  C   C112      1.0  0.42974  0.03449  0.98788  1.0000
  Fe  Fe10      1.0  0.47478  0.17415  0.94084  1.0000
  S   S17       1.0  0.45475  0.18993  0.90041  1.0000
  S   S18       1.0  0.44275  0.13979  0.97855  1.0000
  Fe  Fe11      1.0  0.49732  0.31640  0.76573  1.0000
  S   S19       1.0  0.44978  0.28470  0.75004  1.0000
  S   S20       1.0  0.51809  0.31250  0.81440  1.0000
  C   C113      1.0  0.33321  0.29731  0.58146  1.0000
  Fe  Fe12      1.0  0.45128  0.32647  0.72846  1.0000
  C   C114      1.0  0.40971  0.11455  0.52794  1.0000
  Fe  Fe13      1.0  0.47060  0.28247  0.70088  1.0000
  C   C115      1.0  0.50954  0.27892  0.97517  1.0000
  C   C116      1.0  0.43559  0.29321  0.87366  1.0000
  C   C117      1.0  0.46654  0.23279  0.56290  1.0000
  C   C118      1.0  0.45976  0.25389  0.57745  1.0000
  C   C119      1.0  0.45959  0.25702  0.61242  1.0000
  C   C120      1.0  0.46505  0.23816  0.63299  1.0000
  H   H105      1.0  0.33137  0.08889  0.70566  1.0000
  C   C121      1.0  0.47334  0.21495  0.58347  1.0000
  H   H106      1.0  0.45408  0.27314  0.62347  1.0000
  H   H107      1.0  0.47843  0.19852  0.57254  1.0000
  C   C122      1.0  0.47327  0.22430  0.87709  1.0000
  C   C123      1.0  0.45798  0.22818  0.85036  1.0000
  C   C124      1.0  0.47154  0.25494  0.83098  1.0000
  C   C125      1.0  0.50051  0.27839  0.83831  1.0000
  C   C126      1.0  0.51581  0.27470  0.86530  1.0000
  C   C127      1.0  0.50234  0.24770  0.88452  1.0000
  H   H108      1.0  0.43546  0.21032  0.84451  1.0000
  H   H109      1.0  0.45940  0.25745  0.81051  1.0000
  H   H110      1.0  0.43885  0.22969  0.94598  1.0000
  H   H111      1.0  0.49607  0.32118  0.92449  1.0000
  S   S21       1.0  0.46739  0.32079  0.67787  1.0000
  H   H112      1.0  0.40229  0.25870  0.94738  1.0000
  H   H113      1.0  0.36087  0.07708  0.66537  1.0000
  H   H114      1.0  0.51062  0.23869  0.79287  1.0000
  C   C128      1.0  0.52529  0.35351  0.56860  1.0000
  C   C129      1.0  0.51585  0.05938  0.94469  1.0000
  C   C130      1.0  0.44475  0.06474  0.52315  1.0000
  C   C131      1.0  0.42930  0.35233  0.58189  1.0000
  C   C132      1.0  0.31211  0.32748  0.60316  1.0000
  H   H115      1.0  0.49667  0.03288  0.52025  1.0000
  H   H116      1.0  0.36747  0.03405  0.98130  1.0000
  C   C133      1.0  0.36617  0.34837  0.60134  1.0000
  H   H117      1.0  0.35538  0.10723  0.96171  1.0000
  C   C134      1.0  0.37587  0.02332  0.61811  1.0000
  S   S22       1.0  0.50101  0.13790  0.00901  1.0000
  H   H118      1.0  0.52612  0.02148  0.56432  1.0000
  C   C135      1.0  0.52009  0.32881  0.99336  1.0000
  H   H119      1.0  0.36015  0.31401  0.51784  1.0000
  C   C136      1.0  0.40607  0.13960  0.52218  1.0000
  C   C137      1.0  0.52538  0.11405  0.54757  1.0000
  C   C138      1.0  0.47761  0.43062  0.13579  1.0000
  C   C139      1.0  0.18875  0.36576  0.49375  1.0000
  H   H120      1.0  0.27088  0.42272  0.48890  1.0000
  S   S23       1.0  0.45872  0.38046  0.22861  1.0000
  S   S24       1.0  0.33911  0.46682  0.01646  1.0000
  Fe  Fe14      1.0  0.40614  0.50547  0.11901  1.0000
  S   S25       1.0  0.38146  0.47531  0.16303  1.0000
  Fe  Fe15      1.0  0.35359  0.47145  0.07091  1.0000
  S   S26       1.0  0.32507  0.43789  0.11082  1.0000
  C   C140      1.0  0.15488  0.42593  0.24168  1.0000
  Fe  Fe16      1.0  0.34176  0.47862  0.14444  1.0000
  S   S27       1.0  0.30879  0.48842  0.17278  1.0000
  Fe  Fe17      1.0  0.36710  0.43724  0.12579  1.0000
  S   S28       1.0  0.36846  0.39336  0.13116  1.0000
  S   S29       1.0  0.36805  0.51242  0.10342  1.0000
  S   S30       1.0  0.39412  0.46733  0.08302  1.0000
  S   S31       1.0  0.20430  0.65283  0.39020  1.0000
  Fe  Fe18      1.0  0.22069  0.48251  0.41497  1.0000
  S   S32       1.0  0.20674  0.43788  0.39010  1.0000
  S   S33       1.0  0.23292  0.49358  0.47004  1.0000
  Fe  Fe19      1.0  0.21578  0.51065  0.35016  1.0000
  S   S34       1.0  0.20193  0.46828  0.32030  1.0000
  S   S35       1.0  0.22218  0.55094  0.32023  1.0000
  Fe  Fe20      1.0  0.17136  0.44405  0.36413  1.0000
  S   S36       1.0  0.12568  0.40174  0.35526  1.0000
  Fe  Fe21      1.0  0.23800  0.46545  0.34809  1.0000
  S   S37       1.0  0.26980  0.45147  0.32463  1.0000
  S   S38       1.0  0.18271  0.48688  0.39231  1.0000
  S   S39       1.0  0.25454  0.50989  0.37463  1.0000
  C   C141      1.0  0.08875  0.42711  0.35020  1.0000
  C   C142      1.0  0.09128  0.40104  0.34749  1.0000
  H   H121      1.0  0.10815  0.44845  0.35706  1.0000
  C   C143      1.0  0.20864  0.62416  0.37066  1.0000
  C   C144      1.0  0.21387  0.62492  0.33613  1.0000
  C   C145      1.0  0.21756  0.60202  0.32094  1.0000
  C   C146      1.0  0.21627  0.57841  0.34018  1.0000
  C   C147      1.0  0.21088  0.57747  0.37471  1.0000
  C   C148      1.0  0.20712  0.60039  0.38993  1.0000
  H   H122      1.0  0.21526  0.64325  0.32114  1.0000
  H   H123      1.0  0.22127  0.60249  0.29418  1.0000
  H   H124      1.0  0.20983  0.55925  0.38964  1.0000
  H   H125      1.0  0.20280  0.59957  0.41659  1.0000
  C   C149      1.0  0.07102  0.65107  0.33786  1.0000
  C   C150      1.0  0.07678  0.65010  0.37184  1.0000
  C   C151      1.0  0.29908  0.47842  0.21523  1.0000
  C   C152      1.0  0.30937  0.46177  0.23296  1.0000
  C   C153      1.0  0.30032  0.45363  0.26658  1.0000
  C   C154      1.0  0.28135  0.46246  0.28271  1.0000
  C   C155      1.0  0.27159  0.47960  0.26513  1.0000
  C   C156      1.0  0.28021  0.48730  0.23143  1.0000
  H   H126      1.0  0.32391  0.45482  0.22063  1.0000
  H   H127      1.0  0.30792  0.44032  0.28005  1.0000
  H   H128      1.0  0.25705  0.48651  0.27740  1.0000
  H   H129      1.0  0.27218  0.50010  0.21776  1.0000
  H   H130      1.0  0.44923  0.64162  0.10462  1.0000
  C   C157      1.0  0.28894  0.65813  0.26873  1.0000
  C   C158      1.0  0.29937  0.60730  0.21939  1.0000
  H   H131      1.0  0.03446  0.55927  0.38102  1.0000
  C   C159      1.0  0.28058  0.58359  0.19810  1.0000
  C   C160      1.0  0.25480  0.45404  0.47985  1.0000
  H   H132      1.0  0.17410  0.66806  0.45510  1.0000
  C   C161      1.0  0.30606  0.67527  0.49996  1.0000
  H   H133      1.0  0.24630  0.44518  0.45528  1.0000
  C   C162      1.0  0.18761  0.36042  0.35825  1.0000
  C   C163      1.0  0.39443  0.39050  0.15753  1.0000
  C   C164      1.0  0.40990  0.41218  0.18217  1.0000
  H   H134      1.0  0.39890  0.48066  0.27785  1.0000
  H   H135      1.0  0.40631  0.43130  0.18480  1.0000
  C   C165      1.0  0.41397  0.53032  0.35156  1.0000
  H   H136      1.0  0.42088  0.56385  0.15285  1.0000
  C   C166      1.0  0.49460  0.65839  0.08631  1.0000
  C   C167      1.0  0.25056  0.41511  0.05006  1.0000
  C   C168      1.0  0.49065  0.38141  0.49306  1.0000
  H   H137      1.0  0.04190  0.50209  0.31561  1.0000
  H   H138      1.0  0.43731  0.54790  0.35348  1.0000
  C   C169      1.0  0.44427  0.57798  0.15944  1.0000
  C   C170      1.0  0.39869  0.51397  0.38040  1.0000
  H   H139      1.0  0.24572  0.44850  0.10900  1.0000
  C   C171      1.0  0.34703  0.55764  0.25957  1.0000
  C   C172      1.0  0.30699  0.49714  0.02202  1.0000
  C   C173      1.0  0.14433  0.52400  0.25428  1.0000
  C   C174      1.0  0.14868  0.52424  0.28876  1.0000
  C   C175      1.0  0.14726  0.49899  0.30427  1.0000
  C   C176      1.0  0.14213  0.47370  0.28530  1.0000
  C   C177      1.0  0.13887  0.47367  0.25045  1.0000
  C   C178      1.0  0.13910  0.49869  0.23520  1.0000
  H   H140      1.0  0.08644  0.38259  0.42639  1.0000
  H   H141      1.0  0.14511  0.54351  0.24241  1.0000
  H   H142      1.0  0.15334  0.54405  0.30354  1.0000
  H   H143      1.0  0.15068  0.49926  0.33101  1.0000
  H   H144      1.0  0.14066  0.45423  0.29801  1.0000
  H   H145      1.0  0.13516  0.49873  0.20867  1.0000
  C   C179      1.0  0.21852  0.38199  0.41835  1.0000
  C   C180      1.0  0.18128  0.66234  0.47802  1.0000
  C   C181      1.0  0.36760  0.55062  0.20759  1.0000
  C   C182      1.0  0.29759  0.62829  0.34347  1.0000
  C   C183      1.0  0.26214  0.55439  0.21102  1.0000
  C   C184      1.0  0.18307  0.43426  0.22682  1.0000
  H   H146      1.0  0.09730  0.41328  0.16439  1.0000
  H   H147      1.0  0.49891  0.56707  0.06413  1.0000
  H   H148      1.0  0.51760  0.65895  0.32298  1.0000
  H   H149      1.0  0.18981  0.60527  0.51035  1.0000
  H   H150      1.0  0.32487  0.57603  0.38116  1.0000
  H   H151      1.0  0.09974  0.66002  0.38019  1.0000
  C   C185      1.0  0.28944  0.61738  0.37628  1.0000
  H   H152      1.0  0.26922  0.54172  0.09876  1.0000
  C   C186      1.0  0.12580  0.43995  0.12373  1.0000
  C   C187      1.0  0.11881  0.43273  0.15768  1.0000
  C   C188      1.0  0.22026  0.39947  0.06053  1.0000
  H   H153      1.0  0.25887  0.40146  0.38754  1.0000
  C   C189      1.0  0.17519  0.67639  0.05100  1.0000
  H   H154      1.0  0.27960  0.62660  0.49454  1.0000
  H   H155      1.0  0.19427  0.67519  0.06049  1.0000
  C   C190      1.0  0.40237  0.63964  0.23942  1.0000
  C   C191      1.0  0.16700  0.47576  0.17248  1.0000
  H   H156      1.0  0.28124  0.56742  0.29280  1.0000
  C   C192      1.0  0.18478  0.41687  0.01723  1.0000
  C   C193      1.0  0.31606  0.62077  0.32406  1.0000
  H   H157      1.0  0.24743  0.53601  0.19466  1.0000
  C   C194      1.0  0.45300  0.60281  0.18100  1.0000
  H   H158      1.0  0.03751  0.45764  0.28561  1.0000
  C   C195      1.0  0.22510  0.35524  0.07287  1.0000
  C   C196      1.0  0.43450  0.38403  0.20019  1.0000
  C   C197      1.0  0.15264  0.65142  0.03397  1.0000
  C   C198      1.0  0.52544  0.67666  0.09303  1.0000
  H   H159      1.0  0.20155  0.47486  0.03579  1.0000
  C   C199      1.0  0.17402  0.48276  0.13851  1.0000
  C   C200      1.0  0.19167  0.40473  0.26813  1.0000
  H   H160      1.0  0.02939  0.58692  0.27635  1.0000
  H   H161      1.0  0.22304  0.43021  0.22857  1.0000
  C   C201      1.0  0.25899  0.64919  0.47006  1.0000
  H   H162      1.0  0.40857  0.63076  0.21786  1.0000
  H   H163      1.0  0.23160  0.38207  0.33451  1.0000
  C   C202      1.0  0.25528  0.37107  0.06252  1.0000
  H   H164      1.0  0.07802  0.44284  0.25187  1.0000
  C   C203      1.0  0.39084  0.55094  0.26026  1.0000
  C   C204      1.0  0.38960  0.54814  0.22529  1.0000
  C   C205      1.0  0.36955  0.55606  0.27728  1.0000
  H   H165      1.0  0.34009  0.59572  0.32350  1.0000
  H   H166      1.0  0.05966  0.56064  0.27702  1.0000
  H   H167      1.0  0.41604  0.45297  0.24173  1.0000
  C   C206      1.0  0.18031  0.63441  0.48013  1.0000
  H   H168      1.0  0.40500  0.54318  0.21159  1.0000
  H   H169      1.0  0.19544  0.50207  0.13104  1.0000
  C   C207      1.0  0.29930  0.59861  0.38985  1.0000
  C   C208      1.0  0.34612  0.55502  0.22472  1.0000
  C   C209      1.0  0.36846  0.49121  0.37876  1.0000
  H   H170      1.0  0.24359  0.67777  0.44855  1.0000
  H   H171      1.0  0.44131  0.42542  0.22284  1.0000
  H   H172      1.0  0.43676  0.38339  0.33348  1.0000
  H   H173      1.0  0.23182  0.52776  0.05346  1.0000
  H   H174      1.0  0.51373  0.43508  0.16611  1.0000
  C   C210      1.0  0.52304  0.45754  0.23598  1.0000
  H   H175      1.0  0.24000  0.62837  0.46107  1.0000
  H   H176      1.0  0.05910  0.44574  0.34707  1.0000
  C   C211      1.0  0.07130  0.41962  0.24544  1.0000
  C   C212      1.0  0.04101  0.63816  0.32759  1.0000
  C   C213      1.0  0.09524  0.58908  0.31033  1.0000
  C   C214      1.0  0.14526  0.40647  0.26962  1.0000
  H   H177      1.0  0.32974  0.55993  0.27291  1.0000
  C   C215      1.0  0.48334  0.62117  0.18937  1.0000
  C   C216      1.0  0.25164  0.47797  0.49270  1.0000
  C   C217      1.0  0.47747  0.58409  0.30222  1.0000
  C   C218      1.0  0.47076  0.63516  0.30945  1.0000
  H   H178      1.0  0.48191  0.53660  0.19535  1.0000
  C   C219      1.0  0.26882  0.44143  0.49892  1.0000
  C   C220      1.0  0.36874  0.50079  0.31938  1.0000
  H   H179      1.0  0.11233  0.59816  0.29069  1.0000
  H   H180      1.0  0.41023  0.51903  0.40411  1.0000
  C   C221      1.0  0.25526  0.51817  0.09165  1.0000
  H   H181      1.0  0.32811  0.55522  0.21101  1.0000
  C   C222      1.0  0.50345  0.44705  0.15491  1.0000
  C   C223      1.0  0.15346  0.46482  0.11414  1.0000
  C   C224      1.0  0.21692  0.48005  0.05628  1.0000
  H   H182      1.0  0.46511  0.56501  0.23147  1.0000
  C   C225      1.0  0.32637  0.60236  0.33816  1.0000
  C   C226      1.0  0.45052  0.49307  0.21669  1.0000
  H   H183      1.0  0.24761  0.52653  0.25557  1.0000
  C   C227      1.0  0.45468  0.54062  0.23456  1.0000
  H   H184      1.0  0.51296  0.58486  0.14458  1.0000
  C   C228      1.0  0.52236  0.43746  0.26030  1.0000
  C   C229      1.0  0.06086  0.42546  0.34463  1.0000
  C   C230      1.0  0.15394  0.43299  0.45961  1.0000
  C   C231      1.0  0.51143  0.58728  0.04876  1.0000
  C   C232      1.0  0.14923  0.38309  0.45479  1.0000
  C   C233      1.0  0.13956  0.45033  0.18235  1.0000
  C   C234      1.0  0.51670  0.38294  0.47955  1.0000
  P   P5        1.0  0.13134  0.44048  0.22631  1.0000
  C   C235      1.0  0.20121  0.42349  0.23989  1.0000
  C   C236      1.0  0.26249  0.54892  0.24521  1.0000
  C   C237      1.0  0.37237  0.63219  0.24459  1.0000
  C   C238      1.0  0.05267  0.63602  0.39507  1.0000
  C   C239      1.0  0.51556  0.47842  0.15978  1.0000
  C   C240      1.0  0.06535  0.56804  0.30269  1.0000
  C   C241      1.0  0.49622  0.58995  0.15459  1.0000
  C   C242      1.0  0.12505  0.42158  0.44684  1.0000
  H   H185      1.0  0.36628  0.54755  0.18065  1.0000
  H   H186      1.0  0.12617  0.61559  0.34910  1.0000
  C   C243      1.0  0.25918  0.49575  0.10694  1.0000
  C   C244      1.0  0.41634  0.66918  0.29038  1.0000
  C   C245      1.0  0.42962  0.40878  0.20361  1.0000
  C   C246      1.0  0.13914  0.37424  0.07777  1.0000
  C   C247      1.0  0.23410  0.51031  0.06635  1.0000
  H   H187      1.0  0.18309  0.49004  0.19111  1.0000
  C   C248      1.0  0.50143  0.49302  0.14486  1.0000
  S   S40       1.0  0.17884  0.67201  0.30326  1.0000
  C   C249      1.0  0.41748  0.49338  0.26059  1.0000
  C   C250      1.0  0.28136  0.64827  0.48881  1.0000
  C   C251      1.0  0.31855  0.66392  0.27285  1.0000
  H   H188      1.0  0.31329  0.62990  0.20911  1.0000
  H   H189      1.0  0.13582  0.36765  0.05165  1.0000
  S   S41       1.0  0.51918  0.36605  0.18346  1.0000
  H   H190      1.0  0.15892  0.47023  0.08782  1.0000
  H   H191      1.0  0.36967  0.55771  0.30433  1.0000
  H   H192      1.0  0.18905  0.42354  0.47190  1.0000
  C   C252      1.0  0.50187  0.61181  0.31211  1.0000
  H   H193      1.0  0.35653  0.47872  0.40114  1.0000
  H   H194      1.0  0.23096  0.39168  0.44103  1.0000
  C   C253      1.0  0.16612  0.41392  0.46334  1.0000
  H   H195      1.0  0.45752  0.48062  0.20022  1.0000
  H   H196      1.0  0.15117  0.39277  0.17252  1.0000
  H   H197      1.0  0.16737  0.45691  0.46543  1.0000
  C   C254      1.0  0.30026  0.60183  0.25371  1.0000
  C   C255      1.0  0.10307  0.59896  0.34326  1.0000
  C   C256      1.0  0.05101  0.56709  0.36094  1.0000
  C   C257      1.0  0.14766  0.38790  0.14601  1.0000
  P   P6        1.0  0.19794  0.41798  0.05934  1.0000
  C   C258      1.0  0.24194  0.46543  0.09709  1.0000
  C   C259      1.0  0.50493  0.61470  0.17614  1.0000
  C   C260      1.0  0.22051  0.45728  0.07176  1.0000
  C   C261      1.0  0.49852  0.63734  0.31573  1.0000
  H   H198      1.0  0.27609  0.50189  0.12599  1.0000
  C   C262      1.0  0.09225  0.41184  0.23260  1.0000
  C   C263      1.0  0.45703  0.36158  0.36059  1.0000
  C   C264      1.0  0.04288  0.55703  0.32788  1.0000
  C   C265      1.0  0.46589  0.57149  0.14638  1.0000
  H   H199      1.0  0.14677  0.42196  0.03267  1.0000
  C   C266      1.0  0.42717  0.47750  0.24002  1.0000
  C   C267      1.0  0.06569  0.37339  0.33890  1.0000
  C   C268      1.0  0.44950  0.58175  0.29563  1.0000
  H   H200      1.0  0.36510  0.65618  0.39038  1.0000
  C   C269      1.0  0.44630  0.60749  0.29939  1.0000
  C   C270      1.0  0.35354  0.48459  0.34824  1.0000
  C   C271      1.0  0.46427  0.52462  0.21397  1.0000
  H   H201      1.0  0.08703  0.59581  0.39399  1.0000
  H   H202      1.0  0.43627  0.60777  0.19115  1.0000
  H   H203      1.0  0.15630  0.38202  0.30515  1.0000
  H   H204      1.0  0.05725  0.63499  0.42120  1.0000
  C   C272      1.0  0.39901  0.52398  0.32084  1.0000
  P   P7        1.0  0.41789  0.54566  0.28355  1.0000
  H   H205      1.0  0.19150  0.44917  0.20541  1.0000
  H   H206      1.0  0.42507  0.60633  0.29441  1.0000
  C   C273      1.0  0.10827  0.39106  0.43781  1.0000
  H   H207      1.0  0.50274  0.45855  0.23147  1.0000
  H   H208      1.0  0.29125  0.41301  0.04270  1.0000
  C   C274      1.0  0.08100  0.58779  0.36855  1.0000
  H   H209      1.0  0.35673  0.49529  0.29595  1.0000
  H   H210      1.0  0.48047  0.56453  0.29967  1.0000
  C   C275      1.0  0.47530  0.47636  0.12620  1.0000
  C   C276      1.0  0.46337  0.44519  0.12169  1.0000
  C   C277      1.0  0.43139  0.52513  0.25831  1.0000
  H   H211      1.0  0.19222  0.42269  0.13223  1.0000
  H   H212      1.0  0.46408  0.48756  0.11539  1.0000
  H   H213      1.0  0.46813  0.40637  0.13262  1.0000
  H   H214      1.0  0.44277  0.43223  0.10773  1.0000
  S   S42       1.0  0.49400  0.65220  0.21620  1.0000
  S   S43       1.0  0.45564  0.54030  0.12002  1.0000
  C   C278      1.0  0.18686  0.36523  0.41884  1.0000
  H   H215      1.0  0.33005  0.46699  0.34691  1.0000
  H   H216      1.0  0.28015  0.58790  0.17163  1.0000
  C   C279      1.0  0.39933  0.36573  0.15405  1.0000
  H   H217      1.0  0.11605  0.43660  0.44280  1.0000
  H   H218      1.0  0.52356  0.61369  0.31660  1.0000
  C   C280      1.0  0.46362  0.36654  0.47560  1.0000
  H   H219      1.0  0.29190  0.58913  0.41477  1.0000
  C   C281      1.0  0.17153  0.35490  0.38848  1.0000
  H   H220      1.0  0.10983  0.42608  0.10482  1.0000
  C   C282      1.0  0.20756  0.36928  0.07174  1.0000
  H   H221      1.0  0.46566  0.37875  0.37989  1.0000
  H   H222      1.0  0.46848  0.65511  0.31198  1.0000
  H   H223      1.0  0.51010  0.51711  0.14777  1.0000
  H   H224      1.0  0.09848  0.37479  0.21558  1.0000
  H   H225      1.0  0.26902  0.36035  0.06355  1.0000
  C   C283      1.0  0.03775  0.37172  0.33333  1.0000
  C   C284      1.0  0.28165  0.57242  0.26643  1.0000
  C   C285      1.0  0.19052  0.62691  0.50884  1.0000
  C   C286      1.0  0.08264  0.38131  0.22518  1.0000
  H   H226      1.0  0.50177  0.42337  0.27441  1.0000
  C   C287      1.0  0.31787  0.59122  0.37085  1.0000
  H   H227      1.0  0.35590  0.61759  0.22662  1.0000
  C   C288      1.0  0.36402  0.64305  0.27285  1.0000
  H   H228      1.0  0.38032  0.67001  0.31783  1.0000
  S   S44       1.0  0.10043  0.66910  0.30754  1.0000
  C   C289      1.0  0.17090  0.40494  0.12298  1.0000
  C   C290      1.0  0.26788  0.40086  0.05088  1.0000
  H   H229      1.0  0.27011  0.63514  0.27020  1.0000
  H   H230      1.0  0.20633  0.39745  0.27898  1.0000
  H   H231      1.0  0.31835  0.50588  0.04551  1.0000
  C   C291      1.0  0.12470  0.67793  0.02788  1.0000
  P   P8        1.0  0.32509  0.63264  0.28074  1.0000
  C   C292      1.0  0.12753  0.65231  0.02215  1.0000
  Fe  Fe22      1.0  0.19842  0.68393  0.35471  1.0000
  H   H232      1.0  0.28256  0.52137  0.02498  1.0000
  H   H233      1.0  0.41811  0.67096  0.40238  1.0000
  H   H234      1.0  0.08961  0.67002  0.46269  1.0000
  H   H235      1.0  0.44332  0.36493  0.48636  1.0000
  C   C293      1.0  0.16671  0.39852  0.08856  1.0000
  H   H236      1.0  0.10501  0.67843  0.01913  1.0000
  C   C294      1.0  0.47294  0.65666  0.10927  1.0000
  H   H237      1.0  0.15452  0.63130  0.03008  1.0000
  C   C295      1.0  0.44087  0.36445  0.33423  1.0000
  H   H238      1.0  0.18421  0.35648  0.07969  1.0000
  C   C296      1.0  0.16360  0.39604  0.28281  1.0000
  C   C297      1.0  0.38627  0.66153  0.29579  1.0000
  H   H239      1.0  0.26078  0.43828  0.04111  1.0000
  H   H240      1.0  0.44756  0.66374  0.25796  1.0000
  C   C298      1.0  0.04126  0.39716  0.25081  1.0000
  C   C299      1.0  0.21908  0.37686  0.35801  1.0000
  C   C300      1.0  0.03190  0.36685  0.24354  1.0000
  C   C301      1.0  0.12039  0.37193  0.44140  1.0000
  C   C302      1.0  0.11579  0.35760  0.10081  1.0000
  C   C303      1.0  0.42436  0.65821  0.26218  1.0000
  C   C304      1.0  0.12003  0.36443  0.13492  1.0000
  C   C305      1.0  0.51581  0.36971  0.44848  1.0000
  H   H241      1.0  0.12388  0.39995  0.28196  1.0000
  H   H242      1.0  0.28855  0.64172  0.33329  1.0000
  H   H243      1.0  0.27442  0.62252  0.39068  1.0000
  H   H244      1.0  0.48723  0.64511  0.06357  1.0000
  C   C306      1.0  0.26102  0.67703  0.46297  1.0000
  H   H245      1.0  0.17212  0.61888  0.45909  1.0000
  C   C307      1.0  0.48190  0.67380  0.13859  1.0000
  C   C308      1.0  0.41949  0.36260  0.17511  1.0000
  C   C309      1.0  0.23451  0.38768  0.38802  1.0000
  H   H246      1.0  0.42830  0.35412  0.07379  1.0000
  H   H247      1.0  0.43341  0.68346  0.30812  1.0000
  H   H248      1.0  0.03648  0.63924  0.30148  1.0000
  C   C310      1.0  0.05257  0.35892  0.23067  1.0000
  P   P9        1.0  0.16564  0.35886  0.45743  1.0000
  H   H249      1.0  0.46518  0.67178  0.15686  1.0000
  H   H250      1.0  0.32316  0.67400  0.51433  1.0000
  C   C311      1.0  0.48888  0.35523  0.43048  1.0000
  C   C312      1.0  0.52313  0.61599  0.06326  1.0000
  H   H251      1.0  0.51957  0.61753  0.08986  1.0000
  C   C313      1.0  0.03517  0.39777  0.33636  1.0000
  H   H252      1.0  0.26041  0.67755  0.26040  1.0000
  C   C314      1.0  0.38232  0.67998  0.39098  1.0000
  C   C315      1.0  0.28334  0.68202  0.26317  1.0000
  C   C316      1.0  0.19214  0.68285  0.50486  1.0000
  H   H253      1.0  0.13116  0.67321  0.49637  1.0000
  H   H254      1.0  0.11009  0.63302  0.00884  1.0000
  C   C317      1.0  0.19186  0.47324  0.72340  1.0000
  C   C318      1.0  0.06236  0.52634  0.76251  1.0000
  H   H255      1.0  0.30253  0.45113  0.95773  1.0000
  H   H256      1.0  0.46304  0.42567  0.55419  1.0000
  H   H257      1.0  0.26088  0.50801  0.53473  1.0000
  C   C319      1.0  0.37744  0.59491  0.88442  1.0000
  H   H258      1.0  0.15837  0.67833  0.94899  1.0000
  C   C320      1.0  0.19059  0.41391  0.95700  1.0000
  Fe  Fe23      1.0  0.37534  0.50868  0.63732  1.0000
  S   S45       1.0  0.37774  0.48051  0.67903  1.0000
  S   S46       1.0  0.40480  0.55947  0.63041  1.0000
  Fe  Fe24      1.0  0.32525  0.45429  0.60110  1.0000
  S   S47       1.0  0.32356  0.42139  0.64008  1.0000
  S   S48       1.0  0.29717  0.43563  0.55396  1.0000
  Fe  Fe25      1.0  0.32718  0.45627  0.67764  1.0000
  S   S49       1.0  0.30089  0.44017  0.72647  1.0000
  Fe  Fe26      1.0  0.37404  0.44794  0.63884  1.0000
  S   S50       1.0  0.40579  0.42899  0.63443  1.0000
  S   S51       1.0  0.32477  0.48699  0.63891  1.0000
  S   S52       1.0  0.37570  0.47813  0.59685  1.0000
  S   S53       1.0  0.19783  0.65268  0.77133  1.0000
  Fe  Fe27      1.0  0.22039  0.49753  0.91857  1.0000
  S   S54       1.0  0.20323  0.46173  0.87810  1.0000
  S   S55       1.0  0.24513  0.50543  0.96780  1.0000
  Fe  Fe28      1.0  0.19254  0.53228  0.88612  1.0000
  S   S56       1.0  0.17327  0.49995  0.84317  1.0000
  S   S57       1.0  0.18742  0.57295  0.89731  1.0000
  Fe  Fe29      1.0  0.15967  0.46322  0.88172  1.0000
  S   S58       1.0  0.11201  0.42378  0.89040  1.0000
  Fe  Fe30      1.0  0.21794  0.50124  0.84238  1.0000
  S   S59       1.0  0.24433  0.51421  0.79340  1.0000
  S   S60       1.0  0.17592  0.49574  0.92483  1.0000
  S   S61       1.0  0.23809  0.53664  0.88249  1.0000
  H   H259      1.0  0.49609  0.38471  0.62304  1.0000
  C   C321      1.0  0.08113  0.41384  0.86352  1.0000
  C   C322      1.0  0.17694  0.44831  0.56694  1.0000
  C   C323      1.0  0.19419  0.63015  0.80628  1.0000
  C   C324      1.0  0.19231  0.60189  0.80173  1.0000
  C   C325      1.0  0.19007  0.58403  0.82956  1.0000
  C   C326      1.0  0.18924  0.59422  0.86196  1.0000
  C   C327      1.0  0.19046  0.62213  0.86643  1.0000
  C   C328      1.0  0.19339  0.64029  0.83871  1.0000
  H   H260      1.0  0.19303  0.59402  0.77670  1.0000
  H   H261      1.0  0.18923  0.56255  0.82594  1.0000
  H   H262      1.0  0.18954  0.62989  0.89141  1.0000
  H   H263      1.0  0.19539  0.66227  0.84254  1.0000
  C   C329      1.0  0.03280  0.64979  0.80148  1.0000
  H   H264      1.0  0.10646  0.56342  0.74926  1.0000
  C   C330      1.0  0.28627  0.46153  0.74560  1.0000
  C   C331      1.0  0.29077  0.48854  0.73131  1.0000
  C   C332      1.0  0.27838  0.50479  0.74680  1.0000
  C   C333      1.0  0.26108  0.49398  0.77636  1.0000
  C   C334      1.0  0.25679  0.46710  0.79088  1.0000
  C   C335      1.0  0.26946  0.45098  0.77555  1.0000
  H   H265      1.0  0.30362  0.49681  0.70825  1.0000
  H   H266      1.0  0.28199  0.52569  0.73567  1.0000
  H   H267      1.0  0.24353  0.45861  0.81370  1.0000
  H   H268      1.0  0.26595  0.43008  0.78674  1.0000
  C   C336      1.0  0.27132  0.49437  0.98016  1.0000
  H   H269      1.0  0.12420  0.58452  0.92510  1.0000
  C   C337      1.0  0.27758  0.47714  0.54348  1.0000
  C   C338      1.0  0.45235  0.35482  0.60253  1.0000
  H   H270      1.0  0.31238  0.47398  0.89250  1.0000
  C   C339      1.0  0.27712  0.47460  0.96117  1.0000
  H   H271      1.0  0.34031  0.47279  0.78940  1.0000
  H   H272      1.0  0.28650  0.48633  0.56784  1.0000
  C   C340      1.0  0.31806  0.49154  0.87383  1.0000
  H   H273      1.0  0.26527  0.46539  0.93806  1.0000
  C   C341      1.0  0.36261  0.47665  0.78312  1.0000
  C   C342      1.0  0.40778  0.40446  0.66424  1.0000
  C   C343      1.0  0.38659  0.39100  0.69026  1.0000
  S   S62       1.0  0.49743  0.35872  0.74795  1.0000
  C   C344      1.0  0.38988  0.60316  0.74034  1.0000
  H   H274      1.0  0.36871  0.39634  0.69334  1.0000
  C   C345      1.0  0.26303  0.48939  0.52463  1.0000
  C   C346      1.0  0.47409  0.61270  0.71082  1.0000
  C   C347      1.0  0.47353  0.62723  0.68142  1.0000
  C   C348      1.0  0.45246  0.61061  0.65655  1.0000
  C   C349      1.0  0.43230  0.57943  0.66084  1.0000
  C   C350      1.0  0.43384  0.56484  0.68968  1.0000
  C   C351      1.0  0.45448  0.58146  0.71466  1.0000
  H   H275      1.0  0.48858  0.65139  0.67837  1.0000
  H   H276      1.0  0.45148  0.62198  0.63417  1.0000
  H   H277      1.0  0.41867  0.54091  0.69320  1.0000
  H   H278      1.0  0.45515  0.57004  0.73705  1.0000
  C   C352      1.0  0.33223  0.53635  0.82529  1.0000
  C   C353      1.0  0.30685  0.52684  0.84605  1.0000
  C   C354      1.0  0.29980  0.50455  0.87037  1.0000
  H   H279      1.0  0.40034  0.60040  0.79156  1.0000
  H   H280      1.0  0.39851  0.62741  0.74119  1.0000
  H   H281      1.0  0.33672  0.55324  0.80629  1.0000
  H   H282      1.0  0.29223  0.53635  0.84281  1.0000
  H   H283      1.0  0.27994  0.49711  0.88620  1.0000
  H   H284      1.0  0.32284  0.55437  0.65089  1.0000
  C   C355      1.0  0.26636  0.63751  0.81882  1.0000
  H   H285      1.0  0.44972  0.37040  0.67823  1.0000
  H   H286      1.0  0.49112  0.49563  0.76719  1.0000
  C   C356      1.0  0.22607  0.35867  0.52303  1.0000
  C   C357      1.0  0.14877  0.41835  0.97928  1.0000
  C   C358      1.0  0.27448  0.64086  0.85249  1.0000
  P   P10       1.0  0.29561  0.67385  0.91192  1.0000
  H   H287      1.0  0.52113  0.46678  0.68003  1.0000
  C   C359      1.0  0.29949  0.64232  0.92644  1.0000
  C   C360      1.0  0.27360  0.61459  0.93460  1.0000
  C   C361      1.0  0.27622  0.58996  0.94570  1.0000
  H   H288      1.0  0.46288  0.44251  0.78689  1.0000
  C   C362      1.0  0.20591  0.50318  0.56538  1.0000
  C   C363      1.0  0.47064  0.54144  0.63289  1.0000
  H   H289      1.0  0.04042  0.60053  0.77308  1.0000
  H   H290      1.0  0.49100  0.54429  0.74022  1.0000
  H   H291      1.0  0.21081  0.64210  0.55715  1.0000
  C   C364      1.0  0.06048  0.41364  0.80900  1.0000
  H   H292      1.0  0.15692  0.62906  0.95855  1.0000
  C   C365      1.0  0.50440  0.68474  0.91928  1.0000
  H   H293      1.0  0.46572  0.66763  0.74828  1.0000
  C   C366      1.0  0.50706  0.53053  0.67606  1.0000
  C   C367      1.0  0.38027  0.61502  0.85902  1.0000
  C   C368      1.0  0.04178  0.55963  0.88926  1.0000
  H   H294      1.0  0.12100  0.51121  0.82663  1.0000
  H   H295      1.0  0.25584  0.61520  0.80742  1.0000
  C   C369      1.0  0.22426  0.37508  0.55023  1.0000
  H   H296      1.0  0.34824  0.66581  0.92271  1.0000
  C   C370      1.0  0.28740  0.66956  0.86770  1.0000
  H   H297      1.0  0.26985  0.62079  0.86653  1.0000
  H   H298      1.0  0.25127  0.61172  0.93190  1.0000
  C   C371      1.0  0.16446  0.41546  0.95194  1.0000
  H   H299      1.0  0.35800  0.54373  0.68632  1.0000
  H   H300      1.0  0.49088  0.61124  0.87770  1.0000
  C   C372      1.0  0.14261  0.63075  0.94006  1.0000
  H   H301      1.0  0.20113  0.67749  0.98480  1.0000
  C   C373      1.0  0.50881  0.46193  0.70360  1.0000
  H   H302      1.0  0.22217  0.53054  0.69479  1.0000
  H   H303      1.0  0.25410  0.38916  0.66654  1.0000
  C   C374      1.0  0.47593  0.44807  0.76376  1.0000
  H   H304      1.0  0.03524  0.57664  0.82802  1.0000
  S   S63       1.0  0.49650  0.63326  0.74476  1.0000
  H   H305      1.0  0.51542  0.68059  0.83524  1.0000
  C   C375      1.0  0.12597  0.66067  0.90969  1.0000
  H   H306      1.0  0.31704  0.59252  0.68439  1.0000
  C   C376      1.0  0.24400  0.53524  0.68534  1.0000
  C   C377      1.0  0.37799  0.58728  0.71061  1.0000
  H   H307      1.0  0.05290  0.54111  0.76455  1.0000
  H   H308      1.0  0.18277  0.47537  0.52306  1.0000
  C   C378      1.0  0.13170  0.44256  0.70403  1.0000
  H   H309      1.0  0.20334  0.39940  0.57063  1.0000
  C   C379      1.0  0.29756  0.57058  0.67933  1.0000
  H   H310      1.0  0.50137  0.58303  0.78329  1.0000
  C   C380      1.0  0.36691  0.55601  0.70943  1.0000
  C   C381      1.0  0.46031  0.40573  0.56716  1.0000
  H   H311      1.0  0.40898  0.65790  0.83505  1.0000
  C   C382      1.0  0.05851  0.47706  0.76732  1.0000
  C   C383      1.0  0.34346  0.50093  0.85306  1.0000
  C   C384      1.0  0.46391  0.51172  0.63947  1.0000
  C   C385      1.0  0.39122  0.58783  0.76870  1.0000
  C   C386      1.0  0.35103  0.52376  0.82890  1.0000
  C   C387      1.0  0.22664  0.44795  0.66131  1.0000
  C   C388      1.0  0.24024  0.44248  0.63333  1.0000
  C   C389      1.0  0.24984  0.42117  0.63515  1.0000
  C   C390      1.0  0.24575  0.40494  0.66473  1.0000
  C   C391      1.0  0.23206  0.41004  0.69256  1.0000
  C   C392      1.0  0.22277  0.43160  0.69103  1.0000
  C   C393      1.0  0.49178  0.47815  0.75232  1.0000
  H   H312      1.0  0.04737  0.47649  0.83187  1.0000
  H   H313      1.0  0.24413  0.45512  0.61026  1.0000
  H   H314      1.0  0.26127  0.41788  0.61393  1.0000
  C   C394      1.0  0.46529  0.67554  0.80134  1.0000
  H   H315      1.0  0.10831  0.43035  0.69663  1.0000
  H   H316      1.0  0.02855  0.51211  0.88331  1.0000
  C   C395      1.0  0.09364  0.50611  0.90579  1.0000
  C   C396      1.0  0.10619  0.49971  0.87785  1.0000
  C   C397      1.0  0.11090  0.51595  0.84813  1.0000
  C   C398      1.0  0.10298  0.53856  0.84624  1.0000
  C   C399      1.0  0.09015  0.54509  0.87414  1.0000
  C   C400      1.0  0.08559  0.52863  0.90398  1.0000
  P   P11       1.0  0.07966  0.57430  0.87245  1.0000
  C   C401      1.0  0.10530  0.60716  0.89652  1.0000
  C   C402      1.0  0.08202  0.58837  0.83036  1.0000
  C   C403      1.0  0.11012  0.60384  0.81383  1.0000
  C   C404      1.0  0.11279  0.61716  0.78248  1.0000
  C   C405      1.0  0.08763  0.61575  0.76769  1.0000
  C   C406      1.0  0.23854  0.66932  0.98751  1.0000
  C   C407      1.0  0.47055  0.59735  0.86370  1.0000
  C   C408      1.0  0.12375  0.60529  0.92097  1.0000
  H   H317      1.0  0.23001  0.39830  0.71591  1.0000
  H   H318      1.0  0.09957  0.47602  0.75857  1.0000
  C   C409      1.0  0.10701  0.63525  0.89067  1.0000
  H   H319      1.0  0.21502  0.48454  0.73144  1.0000
  H   H320      1.0  0.34534  0.43106  0.76481  1.0000
  H   H321      1.0  0.27881  0.50432  0.63993  1.0000
  C   C410      1.0  0.30457  0.59257  0.94827  1.0000
  C   C411      1.0  0.06292  0.66890  0.81070  1.0000
  H   H322      1.0  0.11246  0.48228  0.87935  1.0000
  C   C412      1.0  0.42900  0.62921  0.90059  1.0000
  H   H323      1.0  0.44747  0.63420  0.91704  1.0000
  H   H324      1.0  0.07593  0.53335  0.92592  1.0000
  H   H325      1.0  0.13015  0.60632  0.82561  1.0000
  H   H326      1.0  0.13465  0.62959  0.77020  1.0000
  H   H327      1.0  0.09010  0.62743  0.74419  1.0000
  H   H328      1.0  0.44654  0.56803  0.90543  1.0000
  C   C413      1.0  0.13880  0.44851  0.73791  1.0000
  H   H329      1.0  0.41618  0.37649  0.54770  1.0000
  C   C414      1.0  0.30087  0.54907  0.66065  1.0000
  C   C415      1.0  0.14351  0.65837  0.93463  1.0000
  H   H330      1.0  0.09391  0.63770  0.87114  1.0000
  H   H331      1.0  0.22783  0.52528  0.61071  1.0000
  C   C416      1.0  0.26911  0.56372  0.69151  1.0000
  C   C417      1.0  0.49564  0.56578  0.64760  1.0000
  H   H332      1.0  0.13019  0.53126  0.74653  1.0000
  C   C418      1.0  0.27583  0.52054  0.65464  1.0000
  H   H333      1.0  0.43660  0.53179  0.77985  1.0000
  H   H334      1.0  0.44721  0.40778  0.64064  1.0000
  H   H335      1.0  0.39945  0.58643  0.92502  1.0000
  C   C419      1.0  0.10636  0.52111  0.75247  1.0000
  H   H336      1.0  0.50327  0.42984  0.59156  1.0000
  C   C420      1.0  0.43065  0.39712  0.66040  1.0000
  C   C421      1.0  0.46946  0.60340  0.82986  1.0000
  C   C422      1.0  0.09295  0.53922  0.75402  1.0000
  H   H337      1.0  0.35710  0.49026  0.85578  1.0000
  H   H338      1.0  0.26245  0.65954  0.77474  1.0000
  H   H339      1.0  0.04804  0.38683  0.90129  1.0000
  H   H340      1.0  0.35242  0.62189  0.94186  1.0000
  H   H341      1.0  0.10708  0.55076  0.82299  1.0000
  C   C423      1.0  0.40173  0.60208  0.90528  1.0000
  H   H342      1.0  0.37777  0.59917  0.68826  1.0000
  C   C424      1.0  0.41657  0.50982  0.77734  1.0000
  H   H343      1.0  0.21470  0.52421  0.55140  1.0000
  C   C425      1.0  0.38144  0.55662  0.76718  1.0000
  C   C426      1.0  0.20299  0.47627  0.61675  1.0000
  P   P12       1.0  0.38464  0.53685  0.80305  1.0000
  C   C427      1.0  0.08913  0.49004  0.75917  1.0000
  C   C428      1.0  0.41913  0.48612  0.76267  1.0000
  C   C429      1.0  0.24730  0.51317  0.66742  1.0000
  H   H344      1.0  0.36130  0.60948  0.84299  1.0000
  C   C430      1.0  0.43213  0.64952  0.87501  1.0000
  H   H345      1.0  0.16296  0.42697  0.55438  1.0000
  P   P13       1.0  0.21511  0.47626  0.65906  1.0000
  H   H346      1.0  0.52443  0.36786  0.58823  1.0000
  C   C431      1.0  0.38826  0.50528  0.78766  1.0000
  H   H347      1.0  0.40053  0.53641  0.87379  1.0000
  H   H348      1.0  0.12102  0.44072  0.75676  1.0000
  C   C432      1.0  0.49871  0.68337  0.88479  1.0000
  C   C433      1.0  0.26153  0.66807  0.96946  1.0000
  C   C434      1.0  0.49367  0.43210  0.71560  1.0000
  C   C435      1.0  0.15470  0.45175  0.67979  1.0000
  C   C436      1.0  0.39355  0.45763  0.75855  1.0000
  C   C437      1.0  0.18505  0.46712  0.68933  1.0000
  C   C438      1.0  0.18454  0.44860  0.60050  1.0000
  C   C439      1.0  0.05964  0.60061  0.78403  1.0000
  C   C440      1.0  0.36859  0.54069  0.73755  1.0000
  C   C441      1.0  0.48194  0.50617  0.66102  1.0000
  C   C442      1.0  0.41110  0.36259  0.70782  1.0000
  H   H349      1.0  0.50047  0.58881  0.64304  1.0000
  C   C443      1.0  0.05681  0.58704  0.81527  1.0000
  C   C444      1.0  0.47892  0.38267  0.60592  1.0000
  C   C445      1.0  0.48296  0.40812  0.58822  1.0000
  H   H350      1.0  0.45616  0.54558  0.61683  1.0000
  C   C446      1.0  0.16891  0.46406  0.74754  1.0000
  C   C447      1.0  0.20229  0.64764  0.53520  1.0000
  C   C448      1.0  0.20079  0.41469  0.98948  1.0000
  H   H351      1.0  0.17649  0.42726  0.61365  1.0000
  C   C449      1.0  0.47693  0.42507  0.74545  1.0000
  H   H352      1.0  0.06415  0.42017  0.78291  1.0000
  C   C450      1.0  0.51384  0.56041  0.66901  1.0000
  H   H353      1.0  0.44431  0.49292  0.62827  1.0000
  H   H354      1.0  0.23865  0.37938  0.57155  1.0000
  C   C451      1.0  0.41936  0.55517  0.86115  1.0000
  C   C452      1.0  0.03158  0.57960  0.89920  1.0000
  H   H355      1.0  0.14862  0.44647  0.65383  1.0000
  H   H356      1.0  0.25613  0.56857  0.95185  1.0000
  C   C453      1.0  0.41782  0.56138  0.82720  1.0000
  C   C454      1.0  0.29809  0.46644  0.97245  1.0000
  C   C455      1.0  0.40741  0.64231  0.85444  1.0000
  H   H357      1.0  0.26651  0.58033  0.70609  1.0000
  H   H358      1.0  0.37186  0.35971  0.73211  1.0000
  H   H359      1.0  0.47572  0.48284  0.66620  1.0000
  C   C456      1.0  0.32798  0.64484  0.92910  1.0000
  C   C457      1.0  0.33046  0.61999  0.93993  1.0000
  H   H360      1.0  0.17463  0.46861  0.77380  1.0000
  H   H361      1.0  0.45525  0.65166  0.80739  1.0000
  C   C458      1.0  0.08542  0.42364  0.83019  1.0000
  H   H362      1.0  0.20618  0.68601  0.92341  1.0000
  S   S64       1.0  0.15565  0.68427  0.82494  1.0000
  C   C459      1.0  0.36535  0.45290  0.76891  1.0000
  H   H363      1.0  0.39543  0.43941  0.74660  1.0000
  H   H364      1.0  0.09034  0.49365  0.92889  1.0000
  H   H365      1.0  0.20311  0.41240  0.93568  1.0000
  C   C460      1.0  0.18786  0.47557  0.54933  1.0000
  H   H366      1.0  0.10802  0.43807  0.82051  1.0000
  H   H367      1.0  0.04586  0.60391  0.89681  1.0000
  H   H368      1.0  0.21332  0.43575  0.71342  1.0000
  C   C461      1.0  0.44558  0.57309  0.87928  1.0000
  C   C462      1.0  0.44341  0.58532  0.81161  1.0000
  H   H369      1.0  0.36016  0.51650  0.73578  1.0000
  H   H370      1.0  0.44080  0.48995  0.75373  1.0000
  H   H371      1.0  0.46461  0.40173  0.75426  1.0000
  H   H372      1.0  0.48900  0.62182  0.81746  1.0000
  H   H373      1.0  0.12759  0.68240  0.90459  1.0000
  H   H374      1.0  0.35639  0.57379  0.88807  1.0000
  C   C463      1.0  0.05160  0.39467  0.87559  1.0000
  H   H375      1.0  0.44352  0.58998  0.78520  1.0000
  C   C464      1.0  0.50824  0.48528  0.72204  1.0000
  H   H376      1.0  0.30628  0.57316  0.95656  1.0000
  C   C465      1.0  0.31300  0.47757  0.00300  1.0000
  C   C466      1.0  0.21341  0.50362  0.59900  1.0000
  H   H377      1.0  0.22133  0.41391  0.99262  1.0000
  C   C467      1.0  0.04644  0.66245  0.86904  1.0000
  C   C468      1.0  0.51314  0.55621  0.75126  1.0000
  H   H378      1.0  0.05178  0.66806  0.89514  1.0000
  C   C469      1.0  0.22166  0.68120  0.93651  1.0000
  C   C470      1.0  0.43372  0.37787  0.56369  1.0000
  C   C471      1.0  0.28039  0.45295  0.53075  1.0000
  C   C472      1.0  0.04475  0.49500  0.76896  1.0000
  C   C473      1.0  0.28651  0.50571  0.01044  1.0000
  C   C474      1.0  0.43217  0.37609  0.68180  1.0000
  C   C475      1.0  0.27021  0.66252  0.80035  1.0000
  C   C476      1.0  0.20441  0.38642  0.54959  1.0000
  H   H379      1.0  0.04555  0.45308  0.77335  1.0000
  H   H380      1.0  0.15646  0.41470  0.92677  1.0000
  C   C477      1.0  0.51885  0.57804  0.77582  1.0000
  H   H381      1.0  0.24562  0.68336  0.89162  1.0000
  C   C478      1.0  0.06974  0.67456  0.84468  1.0000
  C   C479      1.0  0.03091  0.39458  0.82106  1.0000
  C   C480      1.0  0.24440  0.67977  0.91840  1.0000
  H   H382      1.0  0.12884  0.42012  0.97497  1.0000
  C   C481      1.0  0.15894  0.41922  0.01182  1.0000
  H   H383      1.0  0.03883  0.45089  0.88591  1.0000
  H   H384      1.0  0.34434  0.37229  0.62046  1.0000
  C   C482      1.0  0.51869  0.68111  0.86201  1.0000
  H   H385      1.0  0.38825  0.36699  0.60711  1.0000
  C   C483      1.0  0.21880  0.67620  0.97103  1.0000
  H   H386      1.0  0.49472  0.41432  0.70157  1.0000
  C   C484      1.0  0.38832  0.37016  0.71206  1.0000
  C   C485      1.0  0.20341  0.67567  0.53310  1.0000
  H   H387      1.0  0.48951  0.68678  0.93733  1.0000
  H   H388      1.0  0.50649  0.56225  0.00345  1.0000
  H   H389      1.0  0.27687  0.66298  0.98255  1.0000
  C   C486      1.0  0.26483  0.67366  0.93477  1.0000
  H   H390      1.0  0.17076  0.38986  0.52191  1.0000
  C   C487      1.0  0.18640  0.38145  0.52163  1.0000
  C   C488      1.0  0.47135  0.68451  0.76775  1.0000
  S   S65       1.0  0.09092  0.68706  0.77902  1.0000
  P   P14       1.0  0.46660  0.68564  0.87026  1.0000
  H   H391      1.0  0.23615  0.66510  0.01426  1.0000
  H   H392      1.0  0.49139  0.39145  0.51726  1.0000
  H   H393      1.0  0.02736  0.64536  0.77526  1.0000
  C   C489      1.0  0.51564  0.58459  0.01456  1.0000
  Fe  Fe31      1.0  0.35662  0.90693  0.05627  1.0000
  S   S66       1.0  0.35726  0.87167  0.09006  1.0000
  S   S67       1.0  0.38707  0.95753  0.06585  1.0000
  H   H394      1.0  0.47402  0.74999  0.34756  1.0000
  S   S68       1.0  0.29748  0.82044  0.04893  1.0000
  C   C490      1.0  0.11715  0.71313  0.43835  1.0000
  Fe  Fe32      1.0  0.30692  0.85088  0.09364  1.0000
  S   S69       1.0  0.27916  0.83885  0.14214  1.0000
  Fe  Fe33      1.0  0.34791  0.84379  0.04310  1.0000
  H   H395      1.0  0.23096  0.72543  0.01934  1.0000
  S   S70       1.0  0.30687  0.88801  0.06297  1.0000
  C   C491      1.0  0.30860  0.70344  0.49226  1.0000
  C   C492      1.0  0.23099  0.74232  0.48089  1.0000
  Fe  Fe34      1.0  0.20342  0.74608  0.35330  1.0000
  S   S71       1.0  0.23594  0.73015  0.33994  1.0000
  S   S72       1.0  0.21307  0.78604  0.38643  1.0000
  C   C493      1.0  0.50288  0.73559  0.24157  1.0000
  C   C494      1.0  0.43433  0.71904  0.39884  1.0000
  H   H396      1.0  0.09894  0.71140  0.42329  1.0000
  C   C495      1.0  0.44359  0.85323  0.37332  1.0000
  Fe  Fe35      1.0  0.21412  0.71999  0.28934  1.0000
  S   S73       1.0  0.24420  0.72883  0.24319  1.0000
  S   S74       1.0  0.18390  0.73916  0.30169  1.0000
  C   C496      1.0  0.45840  0.78803  0.44159  1.0000
  C   C497      1.0  0.25475  0.76044  0.21633  1.0000
  C   C498      1.0  0.24017  0.77750  0.21792  1.0000
  C   C499      1.0  0.24805  0.80148  0.19513  1.0000
  C   C500      1.0  0.27082  0.80897  0.17078  1.0000
  C   C501      1.0  0.28610  0.79258  0.16988  1.0000
  C   C502      1.0  0.27777  0.76811  0.19221  1.0000
  H   H397      1.0  0.22249  0.77194  0.23637  1.0000
  H   H398      1.0  0.23633  0.81425  0.19629  1.0000
  H   H399      1.0  0.30412  0.79865  0.15177  1.0000
  H   H400      1.0  0.28929  0.75517  0.19089  1.0000
  C   C503      1.0  0.30859  0.84565  0.42639  1.0000
  C   C504      1.0  0.30434  0.83262  0.39441  1.0000
  C   C505      1.0  0.27514  0.81402  0.38208  1.0000
  C   C506      1.0  0.25000  0.80893  0.40138  1.0000
  C   C507      1.0  0.25426  0.82250  0.43305  1.0000
  C   C508      1.0  0.28345  0.84049  0.44573  1.0000
  H   H401      1.0  0.32369  0.83662  0.37930  1.0000
  H   H402      1.0  0.27207  0.80395  0.35750  1.0000
  H   H403      1.0  0.23494  0.81878  0.44803  1.0000
  H   H404      1.0  0.28649  0.85039  0.47041  1.0000
  H   H405      1.0  0.16451  0.78464  0.34232  1.0000
  C   C509      1.0  0.46716  0.87737  0.47650  1.0000
  C   C510      1.0  0.42690  0.74169  0.39260  1.0000
  C   C511      1.0  0.44972  0.96849  0.10426  1.0000
  C   C512      1.0  0.30725  0.71184  0.26124  1.0000
  C   C513      1.0  0.48426  0.98936  0.43671  1.0000
  C   C514      1.0  0.40854  0.00522  0.49981  1.0000
  H   H406      1.0  0.46371  0.88169  0.45093  1.0000
  C   C515      1.0  0.47063  0.96132  0.08996  1.0000
  C   C516      1.0  0.49106  0.79030  0.37853  1.0000
  C   C517      1.0  0.40378  0.98669  0.03533  1.0000
  H   H407      1.0  0.42236  0.85930  0.33017  1.0000
  H   H408      1.0  0.34996  0.76793  0.38430  1.0000
  S   S75       1.0  0.36812  0.81464  0.02826  1.0000
  H   H409      1.0  0.07799  0.70574  0.35920  1.0000
  P   P15       1.0  0.45511  0.78130  0.39700  1.0000
  C   C518      1.0  0.43789  0.79413  0.45879  1.0000
  C   C519      1.0  0.44457  0.80593  0.37589  1.0000
  C   C520      1.0  0.43062  0.79779  0.34456  1.0000
  C   C521      1.0  0.42250  0.81692  0.32822  1.0000
  C   C522      1.0  0.35288  0.76557  0.46963  1.0000
  H   H410      1.0  0.42604  0.77671  0.33275  1.0000
  H   H411      1.0  0.41141  0.81045  0.30423  1.0000
  H   H412      1.0  0.48007  0.97745  0.41309  1.0000
  C   C523      1.0  0.38679  0.72598  0.48505  1.0000
  C   C524      1.0  0.32837  0.96523  0.01931  1.0000
  H   H413      1.0  0.49626  0.78051  0.44719  1.0000
  C   C525      1.0  0.09713  0.78026  0.36024  1.0000
  C   C526      1.0  0.36943  0.80712  0.41625  1.0000
  C   C527      1.0  0.49191  0.87394  0.48430  1.0000
  C   C528      1.0  0.12232  0.74312  0.34953  1.0000
  C   C529      1.0  0.34252  0.69399  0.27074  1.0000
  C   C530      1.0  0.20480  0.80325  0.02234  1.0000
  H   H414      1.0  0.36557  0.69917  0.27335  1.0000
  H   H415      1.0  0.41102  0.95384  0.13687  1.0000
  C   C531      1.0  0.46850  0.99211  0.49341  1.0000
  C   C532      1.0  0.51517  0.77776  0.19036  1.0000
  H   H416      1.0  0.19145  0.76096  0.45282  1.0000
  C   C533      1.0  0.14582  0.73880  0.43584  1.0000
  H   H417      1.0  0.40953  0.87841  0.03642  1.0000
  C   C534      1.0  0.14706  0.70280  0.04517  1.0000
  H   H418      1.0  0.52402  0.76243  0.32511  1.0000
  H   H419      1.0  0.39447  0.98239  0.49057  1.0000
  H   H420      1.0  0.47077  0.70244  0.20797  1.0000
  C   C535      1.0  0.28871  0.75395  0.09122  1.0000
  C   C536      1.0  0.42195  0.86776  0.02710  1.0000
  H   H421      1.0  0.21506  0.72381  0.43150  1.0000
  H   H422      1.0  0.42066  0.79597  0.44543  1.0000
  C   C537      1.0  0.09161  0.73015  0.35688  1.0000
  C   C538      1.0  0.27543  0.73647  0.03432  1.0000
  H   H423      1.0  0.14228  0.81767  0.35191  1.0000
  C   C539      1.0  0.40938  0.71881  0.49095  1.0000
  H   H424      1.0  0.13199  0.72864  0.34576  1.0000
  C   C540      1.0  0.35534  0.77599  0.40981  1.0000
  H   H425      1.0  0.42460  0.80411  0.50655  1.0000
  C   C541      1.0  0.52099  0.82823  0.27708  1.0000
  C   C542      1.0  0.17288  0.70254  0.05604  1.0000
  H   H426      1.0  0.16951  0.71304  0.21718  1.0000
  C   C543      1.0  0.37455  0.70236  0.38569  1.0000
  C   C544      1.0  0.17472  0.71633  0.19056  1.0000
  P   P16       1.0  0.03975  0.73110  0.37530  1.0000
  P   P17       1.0  0.34164  0.73867  0.50402  1.0000
  H   H427      1.0  0.15000  0.75715  0.41887  1.0000
  H   H428      1.0  0.35528  0.74100  0.26310  1.0000
  H   H429      1.0  0.51655  0.88591  0.31544  1.0000
  H   H430      1.0  0.25438  0.75574  0.12089  1.0000
  H   H431      1.0  0.39001  0.75005  0.38387  1.0000
  S   S76       1.0  0.51658  0.87541  0.45231  1.0000
  C   C545      1.0  0.37577  0.81758  0.44913  1.0000
  C   C546      1.0  0.14055  0.77463  0.34755  1.0000
  S   S77       1.0  0.34553  0.86728  0.44176  1.0000
  H   H432      1.0  0.14411  0.72215  0.05014  1.0000
  C   C547      1.0  0.33683  0.71782  0.26492  1.0000
  H   H433      1.0  0.44461  0.89184  0.12653  1.0000
  Fe  Fe36      1.0  0.15028  0.69199  0.32012  1.0000
  H   H434      1.0  0.42138  0.71576  0.47014  1.0000
  H   H435      1.0  0.30905  0.78953  0.43689  1.0000
  C   C548      1.0  0.46864  0.93352  0.09836  1.0000
  C   C549      1.0  0.44645  0.91354  0.12087  1.0000
  C   C550      1.0  0.39666  0.73309  0.38689  1.0000
  C   C551      1.0  0.07864  0.74851  0.36173  1.0000
  H   H436      1.0  0.48350  0.92661  0.08699  1.0000
  C   C552      1.0  0.45174  0.83419  0.38966  1.0000
  H   H437      1.0  0.49901  0.71904  0.26087  1.0000
  C   C553      1.0  0.42878  0.84453  0.34272  1.0000
  P   P18       1.0  0.19486  0.71951  0.50120  1.0000
  H   H438      1.0  0.21058  0.69858  0.13002  1.0000
  H   H439      1.0  0.30530  0.76317  0.11081  1.0000
  C   C554      1.0  0.22526  0.82394  0.07659  1.0000
  C   C555      1.0  0.21926  0.79526  0.08723  1.0000
  C   C556      1.0  0.20573  0.77025  0.06563  1.0000
  C   C557      1.0  0.06014  0.72783  0.47316  1.0000
  H   H440      1.0  0.46425  0.90942  0.02529  1.0000
  C   C558      1.0  0.23839  0.73835  0.07149  1.0000
  P   P19       1.0  0.20171  0.73442  0.07862  1.0000
  C   C559      1.0  0.48711  0.72620  0.21164  1.0000
  H   H441      1.0  0.32627  0.95472  0.04355  1.0000
  H   H442      1.0  0.51087  0.80388  0.27884  1.0000
  C   C560      1.0  0.16625  0.73384  0.17163  1.0000
  C   C561      1.0  0.17392  0.73893  0.13754  1.0000
  C   C562      1.0  0.48308  0.96987  0.01800  1.0000
  C   C563      1.0  0.40720  0.83652  0.02141  1.0000
  H   H443      1.0  0.22365  0.85038  0.03548  1.0000
  H   H444      1.0  0.51861  0.94301  0.04398  1.0000
  H   H445      1.0  0.31925  0.75164  0.05528  1.0000
  C   C564      1.0  0.41218  0.68832  0.39763  1.0000
  H   H446      1.0  0.42763  0.87761  0.49559  1.0000
  H   H447      1.0  0.38132  0.72805  0.45952  1.0000
  H   H448      1.0  0.35126  0.69586  0.38111  1.0000
  H   H449      1.0  0.37260  0.80605  0.50077  1.0000
  C   C565      1.0  0.24659  0.73246  0.03983  1.0000
  H   H450      1.0  0.23632  0.84320  0.09332  1.0000
  C   C566      1.0  0.23427  0.73900  0.44641  1.0000
  H   H451      1.0  0.22586  0.79280  0.11215  1.0000
  H   H452      1.0  0.19749  0.69043  0.19028  1.0000
  H   H453      1.0  0.38625  0.84174  0.45416  1.0000
  H   H454      1.0  0.30271  0.73026  0.25680  1.0000
  C   C567      1.0  0.44681  0.87523  0.50179  1.0000
  H   H455      1.0  0.15418  0.74389  0.18357  1.0000
  H   H456      1.0  0.16720  0.75263  0.12335  1.0000
  H   H457      1.0  0.51552  0.83318  0.40458  1.0000
  C   C568      1.0  0.46355  0.97647  0.46319  1.0000
  C   C569      1.0  0.51251  0.69268  0.14496  1.0000
  H   H458      1.0  0.33644  0.73127  0.43076  1.0000
  H   H459      1.0  0.45720  0.72514  0.40509  1.0000
  C   C570      1.0  0.25982  0.74962  0.09691  1.0000
  H   H460      1.0  0.26477  0.75375  0.40399  1.0000
  H   H461      1.0  0.46376  0.84166  0.41298  1.0000
  H   H462      1.0  0.44929  0.98875  0.09690  1.0000
  Fe  Fe37      1.0  0.35194  0.87979  0.49674  1.0000
  C   C571      1.0  0.42770  0.94855  0.12694  1.0000
  C   C572      1.0  0.28747  0.77576  0.44924  1.0000
  P   P20       1.0  0.49758  0.98597  0.05856  1.0000
  H   H463      1.0  0.37483  0.82321  0.39594  1.0000
  C   C573      1.0  0.16469  0.71674  0.47596  1.0000
  H   H464      1.0  0.50595  0.94835  0.45494  1.0000
  C   C574      1.0  0.42602  0.92109  0.13522  1.0000
  H   H465      1.0  0.49362  0.83000  0.31763  1.0000
  C   C575      1.0  0.04202  0.69718  0.48155  1.0000
  C   C576      1.0  0.49357  0.77088  0.35516  1.0000
  C   C577      1.0  0.16944  0.74078  0.45487  1.0000
  C   C578      1.0  0.45293  0.88539  0.02071  1.0000
  H   H466      1.0  0.44884  0.87481  0.38446  1.0000
  H   H467      1.0  0.44335  0.95460  0.46012  1.0000
  C   C579      1.0  0.28561  0.70397  0.47415  1.0000
  C   C580      1.0  0.48182  0.78926  0.49452  1.0000
  C   C581      1.0  0.37163  0.73065  0.51198  1.0000
  C   C582      1.0  0.34742  0.75529  0.43631  1.0000
  C   C583      1.0  0.29653  0.74739  0.05992  1.0000
  C   C584      1.0  0.12796  0.79321  0.35294  1.0000
  H   H468      1.0  0.48160  0.73988  0.16244  1.0000
  H   H469      1.0  0.08811  0.79512  0.36532  1.0000
  C   C585      1.0  0.19058  0.72690  0.12229  1.0000
  C   C586      1.0  0.46158  0.79572  0.51137  1.0000
  C   C587      1.0  0.48024  0.78534  0.45976  1.0000
  C   C588      1.0  0.05891  0.73799  0.44104  1.0000
  C   C589      1.0  0.36762  0.79701  0.47569  1.0000
  H   H470      1.0  0.28688  0.72524  0.46828  1.0000
  H   H471      1.0  0.40830  0.90530  0.15199  1.0000
  C   C590      1.0  0.26246  0.75566  0.43072  1.0000
  S   S78       1.0  0.16752  0.70056  0.37245  1.0000
  H   H472      1.0  0.04814  0.70726  0.31018  1.0000
  C   C591      1.0  0.03947  0.71755  0.41707  1.0000
  H   H473      1.0  0.45201  0.98236  0.51365  1.0000
  C   C592      1.0  0.49331  0.74725  0.18600  1.0000
  H   H474      1.0  0.50776  0.96584  0.51275  1.0000
  C   C593      1.0  0.51691  0.81771  0.38685  1.0000
  H   H475      1.0  0.43636  0.95247  0.03248  1.0000
  H   H476      1.0  0.35979  0.01007  0.03668  1.0000
  C   C594      1.0  0.25653  0.76163  0.49958  1.0000
  C   C595      1.0  0.19050  0.70353  0.17533  1.0000
  S   S79       1.0  0.39873  0.91357  0.51344  1.0000
  H   H477      1.0  0.30396  0.79409  0.49788  1.0000
  C   C596      1.0  0.19915  0.77460  0.03279  1.0000
  C   C597      1.0  0.19816  0.70852  0.14126  1.0000
  H   H478      1.0  0.07538  0.74367  0.49144  1.0000
  H   H479      1.0  0.49915  0.78793  0.50840  1.0000
  H   H480      1.0  0.51982  0.79344  0.16991  1.0000
  H   H481      1.0  0.51949  0.70547  0.16804  1.0000
  Fe  Fe38      1.0  0.30211  0.85935  0.01813  1.0000
  C   C598      1.0  0.43971  0.79827  0.49350  1.0000
  C   C599      1.0  0.51106  0.84297  0.29918  1.0000
  H   H482      1.0  0.07339  0.76175  0.43475  1.0000
  C   C600      1.0  0.21808  0.82796  0.04412  1.0000
  C   C601      1.0  0.51004  0.01783  0.44050  1.0000
  C   C602      1.0  0.41809  0.01717  0.04567  1.0000
  C   C603      1.0  0.28454  0.77854  0.48365  1.0000
  C   C604      1.0  0.52503  0.76599  0.24581  1.0000
  C   C605      1.0  0.52175  0.77822  0.34155  1.0000
  C   C606      1.0  0.52405  0.87452  0.29801  1.0000
  C   C607      1.0  0.02708  0.75845  0.37565  1.0000
  C   C608      1.0  0.52606  0.95553  0.46946  1.0000
  C   C609      1.0  0.02828  0.77361  0.34586  1.0000
  H   H483      1.0  0.03720  0.76928  0.32300  1.0000
  C   C610      1.0  0.11195  0.68967  0.46037  1.0000
  C   C611      1.0  0.13558  0.69151  0.47929  1.0000
  H   H484      1.0  0.04304  0.68921  0.50635  1.0000
  H   H485      1.0  0.52572  0.71769  0.05144  1.0000
  C   C612      1.0  0.34732  0.99651  0.01542  1.0000
  Fe  Fe39      1.0  0.37558  0.92923  0.54978  1.0000
  S   S80       1.0  0.37141  0.89661  0.59081  1.0000
  S   S81       1.0  0.39853  0.97960  0.56343  1.0000
  H   H486      1.0  0.43588  0.96226  0.59984  1.0000
  C   C613      1.0  0.24588  0.98097  0.87162  1.0000
  H   H487      1.0  0.35213  0.70672  0.87335  1.0000
  Fe  Fe40      1.0  0.32661  0.86379  0.56861  1.0000
  S   S82       1.0  0.28406  0.82527  0.59329  1.0000
  Fe  Fe41      1.0  0.39143  0.87910  0.55254  1.0000
  S   S83       1.0  0.42546  0.86556  0.56692  1.0000
  C   C614      1.0  0.20533  0.76668  0.54495  1.0000
  H   H488      1.0  0.43059  0.01190  0.87153  1.0000
  C   C615      1.0  0.47580  0.86610  0.54267  1.0000
  Fe  Fe42      1.0  0.19024  0.73044  0.84285  1.0000
  S   S84       1.0  0.22575  0.73528  0.80586  1.0000
  S   S85       1.0  0.19826  0.73252  0.89856  1.0000
  C   C616      1.0  0.49027  0.74060  0.90466  1.0000
  H   H489      1.0  0.45101  0.92941  0.93327  1.0000
  H   H490      1.0  0.36884  0.95383  0.93738  1.0000
  H   H491      1.0  0.29854  0.92312  0.99480  1.0000
  Fe  Fe43      1.0  0.20659  0.75660  0.77194  1.0000
  S   S86       1.0  0.24029  0.80142  0.74649  1.0000
  C   C617      1.0  0.38216  0.76636  0.92728  1.0000
  S   S87       1.0  0.17311  0.75490  0.81105  1.0000
  H   H492      1.0  0.47906  0.86143  0.56821  1.0000
  C   C618      1.0  0.25348  0.80705  0.70420  1.0000
  C   C619      1.0  0.24192  0.78353  0.68072  1.0000
  C   C620      1.0  0.25220  0.78939  0.64712  1.0000
  C   C621      1.0  0.27418  0.81870  0.63657  1.0000
  C   C622      1.0  0.28637  0.84202  0.66023  1.0000
  C   C623      1.0  0.27592  0.83624  0.69379  1.0000
  H   H493      1.0  0.22476  0.76096  0.68835  1.0000
  H   H494      1.0  0.24290  0.77112  0.62911  1.0000
  H   H495      1.0  0.30315  0.86470  0.65247  1.0000
  H   H496      1.0  0.28489  0.85463  0.71168  1.0000
  C   C624      1.0  0.25521  0.82275  0.95219  1.0000
  C   C625      1.0  0.24608  0.82265  0.91920  1.0000
  C   C626      1.0  0.22942  0.79513  0.90191  1.0000
  C   C627      1.0  0.22102  0.76762  0.91805  1.0000
  C   C628      1.0  0.23015  0.76776  0.95099  1.0000
  C   C629      1.0  0.24791  0.79528  0.96769  1.0000
  H   H497      1.0  0.25164  0.84386  0.90710  1.0000
  H   H498      1.0  0.22230  0.79514  0.87653  1.0000
  H   H499      1.0  0.22352  0.74651  0.96357  1.0000
  H   H500      1.0  0.27839  0.98505  0.94641  1.0000
  C   C630      1.0  0.40286  0.98023  0.00119  1.0000
  H   H501      1.0  0.41006  0.90816  0.88815  1.0000
  C   C631      1.0  0.50261  0.97182  0.99184  1.0000
  H   H502      1.0  0.31897  0.84332  0.75243  1.0000
  C   C632      1.0  0.34325  0.97012  0.86994  1.0000
  H   H503      1.0  0.22402  0.97420  0.86115  1.0000
  H   H504      1.0  0.15915  0.71317  0.61848  1.0000
  H   H505      1.0  0.28351  0.82827  0.80062  1.0000
  C   C633      1.0  0.46941  0.87219  0.00845  1.0000
  C   C634      1.0  0.41436  0.01002  0.53406  1.0000
  C   C635      1.0  0.45189  0.95438  0.01266  1.0000
  H   H506      1.0  0.49124  0.72219  0.73326  1.0000
  H   H507      1.0  0.52295  0.69916  0.57253  1.0000
  C   C636      1.0  0.18667  0.75950  0.60220  1.0000
  S   S88       1.0  0.27374  0.85721  0.97430  1.0000
  H   H508      1.0  0.27264  0.74153  0.89490  1.0000
  C   C637      1.0  0.46065  0.75680  0.93746  1.0000
  C   C638      1.0  0.37864  0.72688  0.54487  1.0000
  H   H509      1.0  0.44740  0.92074  0.60655  1.0000
  H   H510      1.0  0.36049  0.76997  0.97230  1.0000
  H   H511      1.0  0.31637  0.85842  0.91857  1.0000
  C   C639      1.0  0.35130  0.01008  0.98397  1.0000
  H   H512      1.0  0.41276  0.72623  0.93830  1.0000
  H   H513      1.0  0.31217  0.78483  0.86350  1.0000
  H   H514      1.0  0.39169  0.86355  0.81912  1.0000
  H   H515      1.0  0.41395  0.95499  0.91203  1.0000
  C   C640      1.0  0.35896  0.95967  0.85012  1.0000
  Fe  Fe44      1.0  0.14101  0.70855  0.79018  1.0000
  C   C641      1.0  0.46395  0.71390  0.89557  1.0000
  H   H516      1.0  0.31485  0.72045  0.96518  1.0000
  C   C642      1.0  0.33510  0.99258  0.95644  1.0000
  H   H517      1.0  0.34667  0.93949  0.83496  1.0000
  C   C643      1.0  0.17208  0.72804  0.59790  1.0000
  P   P21       1.0  0.33897  0.00965  0.91578  1.0000
  C   C644      1.0  0.33356  0.75484  0.54058  1.0000
  C   C645      1.0  0.35733  0.77756  0.55913  1.0000
  C   C646      1.0  0.35136  0.79126  0.58633  1.0000
  C   C647      1.0  0.32165  0.78244  0.59533  1.0000
  C   C648      1.0  0.29787  0.75982  0.57721  1.0000
  C   C649      1.0  0.30372  0.74596  0.54999  1.0000
  H   H518      1.0  0.06135  0.72552  0.81027  1.0000
  H   H519      1.0  0.39799  0.75665  0.88117  1.0000
  C   C650      1.0  0.45110  0.86953  0.53492  1.0000
  H   H520      1.0  0.21493  0.80322  0.57921  1.0000
  C   C651      1.0  0.32991  0.70963  0.91865  1.0000
  H   H521      1.0  0.51087  0.74056  0.56669  1.0000
  C   C652      1.0  0.41625  0.00406  0.97762  1.0000
  C   C653      1.0  0.06402  0.74062  0.86121  1.0000
  H   H522      1.0  0.39172  0.95686  0.99313  1.0000
  H   H523      1.0  0.21331  0.69182  0.55333  1.0000
  H   H524      1.0  0.50578  0.76105  0.77783  1.0000
  C   C654      1.0  0.31617  0.96109  0.96049  1.0000
  C   C655      1.0  0.30239  0.99801  0.89868  1.0000
  C   C656      1.0  0.48062  0.99468  0.58241  1.0000
  H   H525      1.0  0.46754  0.83043  0.99385  1.0000
  H   H526      1.0  0.34792  0.83225  0.95659  1.0000
  H   H527      1.0  0.38059  0.78541  0.55214  1.0000
  H   H528      1.0  0.36983  0.80947  0.59979  1.0000
  H   H529      1.0  0.31705  0.79369  0.61586  1.0000
  H   H530      1.0  0.27493  0.75370  0.58395  1.0000
  H   H531      1.0  0.30946  0.78780  0.98762  1.0000
  H   H532      1.0  0.26936  0.99507  0.82412  1.0000
  C   C657      1.0  0.46491  0.94294  0.59808  1.0000
  H   H533      1.0  0.41584  0.99893  0.95131  1.0000
  H   H534      1.0  0.49765  0.92895  0.59280  1.0000
  H   H535      1.0  0.41623  0.92709  0.97872  1.0000
  C   C658      1.0  0.49393  0.73714  0.78436  1.0000
  C   C659      1.0  0.31292  0.94748  0.99180  1.0000
  H   H536      1.0  0.47513  0.01251  0.57879  1.0000
  H   H537      1.0  0.28490  0.72887  0.53609  1.0000
  H   H538      1.0  0.51222  0.74501  0.89575  1.0000
  H   H539      1.0  0.52674  0.98372  0.99522  1.0000
  H   H540      1.0  0.30395  0.94701  0.93945  1.0000
  C   C660      1.0  0.19176  0.73509  0.54083  1.0000
  H   H541      1.0  0.50899  0.78241  0.93231  1.0000
  S   S89       1.0  0.32868  0.89770  0.53037  1.0000
  H   H542      1.0  0.28472  0.71018  0.80121  1.0000
  H   H543      1.0  0.36647  0.72904  0.56612  1.0000
  C   C661      1.0  0.48760  0.72826  0.81798  1.0000
  H   H544      1.0  0.22882  0.96941  0.92226  1.0000
  C   C662      1.0  0.28972  0.76096  0.90830  1.0000
  C   C663      1.0  0.39275  0.93381  0.91329  1.0000
  H   H545      1.0  0.49473  0.74570  0.83688  1.0000
  C   C664      1.0  0.44038  0.93997  0.98210  1.0000
  C   C665      1.0  0.33185  0.81247  0.94279  1.0000
  C   C666      1.0  0.39429  0.01517  0.63540  1.0000
  H   H546      1.0  0.30044  0.71682  0.86029  1.0000
  H   H547      1.0  0.40695  0.71741  0.57612  1.0000
  C   C667      1.0  0.45838  0.96633  0.59421  1.0000
  C   C668      1.0  0.17439  0.71582  0.56724  1.0000
  H   H548      1.0  0.08786  0.74829  0.86304  1.0000
  C   C669      1.0  0.40621  0.00032  0.87074  1.0000
  C   C670      1.0  0.28892  0.76149  0.94322  1.0000
  H   H549      1.0  0.27130  0.74231  0.95670  1.0000
  C   C671      1.0  0.27142  0.99268  0.85076  1.0000
  C   C672      1.0  0.35868  0.75593  0.95086  1.0000
  H   H550      1.0  0.37322  0.86152  0.76179  1.0000
  Fe  Fe45      1.0  0.18978  0.69107  0.78534  1.0000
  C   C673      1.0  0.43434  0.73031  0.92859  1.0000
  H   H551      1.0  0.31885  0.95758  0.87005  1.0000
  C   C674      1.0  0.04903  0.72770  0.83145  1.0000
  C   C675      1.0  0.50944  0.99964  0.57437  1.0000
  C   C676      1.0  0.42980  0.82901  0.86792  1.0000
  C   C677      1.0  0.44879  0.84365  0.89482  1.0000
  C   C678      1.0  0.44050  0.85817  0.91901  1.0000
  C   C679      1.0  0.41348  0.85849  0.91610  1.0000
  C   C680      1.0  0.39505  0.84526  0.88818  1.0000
  C   C681      1.0  0.40279  0.82941  0.86485  1.0000
  P   P22       1.0  0.35995  0.84538  0.88495  1.0000
  C   C682      1.0  0.36325  0.87955  0.90278  1.0000
  C   C683      1.0  0.34759  0.84521  0.84273  1.0000
  C   C684      1.0  0.31729  0.83654  0.83724  1.0000
  C   C685      1.0  0.30710  0.83575  0.80479  1.0000
  C   C686      1.0  0.32717  0.84435  0.77760  1.0000
  C   C687      1.0  0.35765  0.85438  0.78294  1.0000
  C   C688      1.0  0.36794  0.85513  0.81544  1.0000
  C   C689      1.0  0.33789  0.87927  0.91700  1.0000
  C   C690      1.0  0.34004  0.90609  0.92920  1.0000
  C   C691      1.0  0.39054  0.90717  0.90026  1.0000
  C   C692      1.0  0.33243  0.81229  0.90766  1.0000
  C   C693      1.0  0.24858  0.97822  0.90604  1.0000
  S   S90       1.0  0.34693  0.84424  0.53311  1.0000
  H   H552      1.0  0.40216  0.78833  0.93069  1.0000
  H   H553      1.0  0.45955  0.77337  0.95378  1.0000
  C   C694      1.0  0.31180  0.78598  0.89055  1.0000
  H   H554      1.0  0.43600  0.81726  0.84952  1.0000
  H   H555      1.0  0.46975  0.84340  0.89728  1.0000
  H   H556      1.0  0.45495  0.86903  0.94023  1.0000
  H   H557      1.0  0.40700  0.86893  0.93582  1.0000
  H   H558      1.0  0.38794  0.81729  0.84437  1.0000
  H   H559      1.0  0.30131  0.83001  0.85800  1.0000
  S   S91       1.0  0.50731  0.89641  0.99699  1.0000
  C   C695      1.0  0.49102  0.95736  0.96134  1.0000
  H   H560      1.0  0.32044  0.90576  0.94016  1.0000
  H   H561      1.0  0.43454  0.71071  0.52830  1.0000
  C   C696      1.0  0.48856  0.76190  0.92545  1.0000
  H   H562      1.0  0.25505  0.76395  0.52639  1.0000
  C   C697      1.0  0.36743  0.93325  0.92764  1.0000
  C   C698      1.0  0.45992  0.94128  0.95654  1.0000
  H   H563      1.0  0.18548  0.76903  0.62617  1.0000
  S   S92       1.0  0.17305  0.71230  0.74845  1.0000
  H   H564      1.0  0.46335  0.79956  0.53817  1.0000
  C   C699      1.0  0.49369  0.94780  0.59022  1.0000
  C   C700      1.0  0.20321  0.77879  0.57571  1.0000
  H   H565      1.0  0.21794  0.78209  0.52461  1.0000
  H   H566      1.0  0.51481  0.86505  0.52359  1.0000
  C   C701      1.0  0.31013  0.78712  0.96050  1.0000
  H   H567      1.0  0.38912  0.99169  0.63535  1.0000
  C   C702      1.0  0.51639  0.97635  0.57867  1.0000
  C   C703      1.0  0.27675  0.98690  0.91961  1.0000
  H   H568      1.0  0.16262  0.69141  0.56420  1.0000
  H   H569      1.0  0.50612  0.95780  0.94184  1.0000
  H   H570      1.0  0.05992  0.75368  0.91152  1.0000
  H   H571      1.0  0.28184  0.73187  0.01006  1.0000
  C   C704      1.0  0.33271  0.72769  0.94666  1.0000
  H   H572      1.0  0.25487  0.79518  0.99307  1.0000
  C   C705      1.0  0.35376  0.72021  0.89516  1.0000
  C   C706      1.0  0.43590  0.70897  0.90760  1.0000
  C   C707      1.0  0.37973  0.74850  0.89945  1.0000
  C   C708      1.0  0.48577  0.71528  0.75926  1.0000
  H   H573      1.0  0.31930  0.01074  0.84786  1.0000
  C   C709      1.0  0.29963  0.00139  0.86425  1.0000
  H   H574      1.0  0.20024  0.80669  0.99678  1.0000
  H   H575      1.0  0.41525  0.68859  0.90122  1.0000
  C   C710      1.0  0.40138  0.71990  0.55068  1.0000
  H   H576      1.0  0.35662  0.00610  0.60466  1.0000
  H   H577      1.0  0.19058  0.75628  0.01481  1.0000
  H   H578      1.0  0.41237  0.79870  0.00560  1.0000
  C   C711      1.0  0.04823  0.74351  0.88851  1.0000
  C   C712      1.0  0.47308  0.69734  0.82676  1.0000
  S   S93       1.0  0.35199  0.88083  0.00908  1.0000
  C   C713      1.0  0.49624  0.86845  0.51746  1.0000
  C   C714      1.0  0.35901  0.99633  0.88955  1.0000
  C   C715      1.0  0.45491  0.84077  0.00337  1.0000
  C   C716      1.0  0.39044  0.97499  0.85020  1.0000
  H   H579      1.0  0.40257  0.96684  0.83487  1.0000
  H   H580      1.0  0.09281  0.68937  0.85207  1.0000
  C   C717      1.0  0.39052  0.01065  0.89071  1.0000
  C   C718      1.0  0.41683  0.71599  0.52374  1.0000
  C   C719      1.0  0.28272  0.69108  0.81535  1.0000
  C   C720      1.0  0.42371  0.82292  0.00980  1.0000
  C   C721      1.0  0.29149  0.69467  0.84883  1.0000
  C   C722      1.0  0.81222  0.21209  0.26590  1.0000
  Fe  Fe46      1.0  0.69056  0.17258  0.06758  1.0000
  H   H581      1.0  0.75204  0.21025  0.23345  1.0000
  S   S94       1.0  0.64926  0.17587  0.08090  1.0000
  Fe  Fe47      1.0  0.75224  0.19089  0.09738  1.0000
  S   S95       1.0  0.76403  0.16820  0.05525  1.0000
  S   S96       1.0  0.77074  0.21476  0.14748  1.0000
  H   H582      1.0  0.81605  0.23072  0.34845  1.0000
  C   C723      1.0  0.78305  0.30388  0.40144  1.0000
  Fe  Fe48      1.0  0.71578  0.12914  0.05996  1.0000
  S   S97       1.0  0.69735  0.07797  0.06707  1.0000
  S   S98       1.0  0.73581  0.21406  0.06260  1.0000
  S   S99       1.0  0.70593  0.15046  0.10437  1.0000
  Fe  Fe49      1.0  0.90615  0.32012  0.26305  1.0000
  S   S100      1.0  0.92177  0.31154  0.31254  1.0000
  S   S101      1.0  0.89941  0.29287  0.21518  1.0000
  H   H583      1.0  0.59484  0.17430  0.18894  1.0000
  C   C724      1.0  0.62509  0.34023  0.05964  1.0000
  H   H584      1.0  0.61255  0.02593  0.45456  1.0000
  C   C725      1.0  0.69447  0.26014  0.03950  1.0000
  Fe  Fe50      1.0  0.88619  0.32046  0.33520  1.0000
  S   S102      1.0  0.84588  0.29373  0.36998  1.0000
  C   C726      1.0  0.60781  0.24493  0.08903  1.0000
  S   S103      1.0  0.86938  0.32624  0.28558  1.0000
  C   C727      1.0  0.58878  0.32601  0.48575  1.0000
  C   C728      1.0  0.60012  0.17348  0.05203  1.0000
  C   C729      1.0  0.82965  0.23174  0.46049  1.0000
  C   C730      1.0  0.80618  0.23439  0.44668  1.0000
  C   C731      1.0  0.81151  0.25257  0.41819  1.0000
  C   C732      1.0  0.84038  0.26879  0.40356  1.0000
  C   C733      1.0  0.86387  0.26587  0.41700  1.0000
  C   C734      1.0  0.85846  0.24728  0.44537  1.0000
  H   H585      1.0  0.78389  0.22241  0.45792  1.0000
  H   H586      1.0  0.79311  0.25408  0.40746  1.0000
  H   H587      1.0  0.88622  0.27825  0.40594  1.0000
  H   H588      1.0  0.87671  0.24525  0.45590  1.0000
  C   C735      1.0  0.86386  0.27246  0.19545  1.0000
  C   C736      1.0  0.83791  0.27060  0.20974  1.0000
  C   C737      1.0  0.80988  0.25333  0.19427  1.0000
  C   C738      1.0  0.80726  0.23771  0.16423  1.0000
  C   C739      1.0  0.83329  0.24017  0.14933  1.0000
  C   C740      1.0  0.86144  0.25738  0.16498  1.0000
  H   H589      1.0  0.83928  0.28197  0.23309  1.0000
  H   H590      1.0  0.79012  0.25192  0.20593  1.0000
  H   H591      1.0  0.83168  0.22828  0.12623  1.0000
  H   H592      1.0  0.88138  0.25870  0.15364  1.0000
  H   H593      1.0  0.64296  0.07788  0.01931  1.0000
  H   H594      1.0  0.56506  0.33087  0.32292  1.0000
  C   C741      1.0  0.60390  0.25940  0.06127  1.0000
  H   H595      1.0  0.65973  0.07337  0.46751  1.0000
  C   C742      1.0  0.64543  0.33906  0.29127  1.0000
  C   C743      1.0  0.72493  0.19513  0.39805  1.0000
  H   H596      1.0  0.59020  0.16832  0.07691  1.0000
  Fe  Fe51      1.0  0.74420  0.18911  0.02106  1.0000
  C   C744      1.0  0.76086  0.29634  0.28919  1.0000
  C   C745      1.0  0.60626  0.18702  0.49129  1.0000
  P   P23       1.0  0.83469  0.34612  0.48311  1.0000
  C   C746      1.0  0.81643  0.29055  0.02594  1.0000
  C   C747      1.0  0.78790  0.29776  0.29759  1.0000
  H   H597      1.0  0.69034  0.10305  0.27021  1.0000
  H   H598      1.0  0.59311  0.34969  0.14535  1.0000
  C   C748      1.0  0.75336  0.34223  0.11597  1.0000
  C   C749      1.0  0.55487  0.20671  0.08840  1.0000
  C   C750      1.0  0.81056  0.27279  0.05468  1.0000
  C   C751      1.0  0.54451  0.09347  0.44033  1.0000
  H   H599      1.0  0.72742  0.16984  0.43963  1.0000
  H   H600      1.0  0.00868  0.34950  0.24836  1.0000
  C   C752      1.0  0.60973  0.09826  0.48002  1.0000
  C   C753      1.0  0.55081  0.22130  0.06117  1.0000
  C   C754      1.0  0.64007  0.32441  0.06804  1.0000
  C   C755      1.0  0.62697  0.08280  0.03187  1.0000
  H   H601      1.0  0.74282  0.28506  0.03459  1.0000
  H   H602      1.0  0.80805  0.31957  0.30128  1.0000
  H   H603      1.0  0.55635  0.03291  0.08613  1.0000
  H   H604      1.0  0.66769  0.25919  0.15292  1.0000
  H   H605      1.0  0.52760  0.29994  0.50061  1.0000
  C   C756      1.0  0.75490  0.27536  0.45045  1.0000
  H   H606      1.0  0.81111  0.25174  0.05339  1.0000
  H   H607      1.0  0.72656  0.21895  0.35340  1.0000
  H   H608      1.0  0.56207  0.31543  0.09999  1.0000
  H   H609      1.0  0.66832  0.32001  0.10474  1.0000
  C   C757      1.0  0.63635  0.29595  0.25682  1.0000
  C   C758      1.0  0.78904  0.27104  0.30180  1.0000
  C   C759      1.0  0.76312  0.24262  0.29746  1.0000
  C   C760      1.0  0.76071  0.28673  0.14430  1.0000
  H   H610      1.0  0.77516  0.16969  0.35038  1.0000
  C   C761      1.0  0.73596  0.24136  0.28914  1.0000
  C   C762      1.0  0.60557  0.19881  0.18705  1.0000
  C   C763      1.0  0.73485  0.26814  0.28508  1.0000
  H   H611      1.0  0.71557  0.21965  0.28627  1.0000
  H   H612      1.0  0.71380  0.26700  0.27889  1.0000
  C   C764      1.0  0.73775  0.26614  0.12337  1.0000
  C   C765      1.0  0.71355  0.23954  0.13651  1.0000
  C   C766      1.0  0.71212  0.23320  0.17068  1.0000
  C   C767      1.0  0.73458  0.25377  0.19181  1.0000
  C   C768      1.0  0.75879  0.28047  0.17877  1.0000
  H   H613      1.0  0.57732  0.34981  0.41031  1.0000
  H   H614      1.0  0.73903  0.27013  0.09670  1.0000
  C   C769      1.0  0.61176  0.09881  0.08208  1.0000
  H   H615      1.0  0.69955  0.33889  0.04017  1.0000
  H   H616      1.0  0.56509  0.08983  0.01833  1.0000
  H   H617      1.0  0.84840  0.31540  0.12951  1.0000
  H   H618      1.0  0.68957  0.11728  0.21094  1.0000
  C   C770      1.0  0.58531  0.32562  0.14692  1.0000
  H   H619      1.0  0.01822  0.35030  0.32691  1.0000
  H   H620      1.0  0.69656  0.22325  0.11994  1.0000
  H   H621      1.0  0.69413  0.21192  0.18056  1.0000
  H   H622      1.0  0.73395  0.24841  0.21804  1.0000
  H   H623      1.0  0.57413  0.22951  0.27544  1.0000
  H   H624      1.0  0.81014  0.27274  0.30881  1.0000
  H   H625      1.0  0.72216  0.14203  0.31109  1.0000
  H   H626      1.0  0.57984  0.31257  0.24938  1.0000
  C   C771      1.0  0.80489  0.31941  0.45662  1.0000
  C   C772      1.0  0.61169  0.04619  0.46134  1.0000
  H   H627      1.0  0.69139  0.03806  0.47366  1.0000
  H   H628      1.0  0.72060  0.17099  0.19283  1.0000
  C   C773      1.0  0.59292  0.30215  0.47428  1.0000
  C   C774      1.0  0.53910  0.12755  0.38837  1.0000
  H   H629      1.0  0.88641  0.23933  0.28198  1.0000
  C   C775      1.0  0.58327  0.08939  0.03123  1.0000
  C   C776      1.0  0.59076  0.29518  0.44013  1.0000
  H   H630      1.0  0.79715  0.20368  0.24493  1.0000
  H   H631      1.0  0.91096  0.34082  0.41133  1.0000
  H   H632      1.0  0.64319  0.20315  0.15767  1.0000
  C   C777      1.0  0.64659  0.24666  0.16670  1.0000
  H   H633      1.0  0.61588  0.10643  0.10784  1.0000
  H   H634      1.0  0.56026  0.27054  0.33149  1.0000
  C   C778      1.0  0.63123  0.09112  0.06560  1.0000
  C   C779      1.0  0.58787  0.09806  0.06486  1.0000
  S   S104      1.0  0.82350  0.20933  0.49666  1.0000
  C   C780      1.0  0.87179  0.34044  0.17284  1.0000
  S   S105      1.0  0.69707  0.14881  0.02374  1.0000
  C   C781      1.0  0.72167  0.14880  0.28556  1.0000
  C   C782      1.0  0.86288  0.23217  0.28660  1.0000
  H   H635      1.0  0.85009  0.21809  0.23571  1.0000
  C   C783      1.0  0.80366  0.28195  0.08503  1.0000
  H   H636      1.0  0.58255  0.30611  0.39083  1.0000
  H   H637      1.0  0.63509  0.18508  0.45259  1.0000
  C   C784      1.0  0.60986  0.29415  0.24479  1.0000
  H   H638      1.0  0.58755  0.15372  0.38880  1.0000
  C   C785      1.0  0.57032  0.11774  0.42551  1.0000
  H   H639      1.0  0.76009  0.31712  0.28619  1.0000
  C   C786      1.0  0.80231  0.21578  0.29767  1.0000
  C   C787      1.0  0.73419  0.17681  0.41387  1.0000
  C   C788      1.0  0.75233  0.16776  0.39661  1.0000
  C   C789      1.0  0.76115  0.17698  0.36340  1.0000
  C   C790      1.0  0.75237  0.19588  0.34742  1.0000
  C   C791      1.0  0.73390  0.20462  0.36495  1.0000
  P   P24       1.0  0.76407  0.20798  0.30451  1.0000
  C   C792      1.0  0.73926  0.17925  0.27547  1.0000
  C   C793      1.0  0.73826  0.18709  0.24200  1.0000
  C   C794      1.0  0.72037  0.16483  0.21888  1.0000
  C   C795      1.0  0.70303  0.13457  0.22906  1.0000
  C   C796      1.0  0.70357  0.12658  0.26241  1.0000
  C   C797      1.0  0.82299  0.22729  0.32389  1.0000
  C   C798      1.0  0.57495  0.24791  0.04812  1.0000
  S   S106      1.0  0.68509  0.18664  0.48561  1.0000
  H   H640      1.0  0.86901  0.24515  0.33864  1.0000
  S   S107      1.0  0.54181  0.22995  0.38818  1.0000
  H   H641      1.0  0.59031  0.18695  0.47387  1.0000
  C   C799      1.0  0.58023  0.28230  0.17809  1.0000
  P   P25       1.0  0.54735  0.07155  0.47427  1.0000
  C   C800      1.0  0.85313  0.23551  0.31837  1.0000
  P   P26       1.0  0.63564  0.29269  0.04309  1.0000
  C   C801      1.0  0.75705  0.27978  0.41576  1.0000
  C   C802      1.0  0.68503  0.03527  0.49993  1.0000
  H   H642      1.0  0.73493  0.25637  0.46156  1.0000
  C   C803      1.0  0.56758  0.13468  0.39966  1.0000
  C   C804      1.0  0.84237  0.22019  0.26050  1.0000
  H   H643      1.0  0.64655  0.24103  0.04192  1.0000
  H   H644      1.0  0.62980  0.25362  0.09992  1.0000
  C   C805      1.0  0.55854  0.34553  0.33582  1.0000
  C   C806      1.0  0.63170  0.18606  0.47927  1.0000
  C   C807      1.0  0.66962  0.29023  0.04296  1.0000
  H   H645      1.0  0.67451  0.31979  0.28915  1.0000
  C   C808      1.0  0.58414  0.17637  0.02540  1.0000
  C   C809      1.0  0.65789  0.33292  0.09681  1.0000
  H   H646      1.0  0.71092  0.20207  0.41176  1.0000
  C   C810      1.0  0.69790  0.31679  0.04068  1.0000
  C   C811      1.0  0.80684  0.32371  0.42177  1.0000
  H   H647      1.0  0.59261  0.12405  0.43393  1.0000
  H   H648      1.0  0.65798  0.11964  0.48403  1.0000
  C   C812      1.0  0.63734  0.09893  0.47805  1.0000
  C   C813      1.0  0.56794  0.30636  0.12128  1.0000
  C   C814      1.0  0.65293  0.18679  0.50159  1.0000
  C   C815      1.0  0.63293  0.21510  0.16958  1.0000
  H   H649      1.0  0.60572  0.32947  0.19410  1.0000
  C   C816      1.0  0.77861  0.29525  0.47086  1.0000
  H   H650      1.0  0.64333  0.28006  0.24862  1.0000
  H   H651      1.0  0.78518  0.30683  0.37449  1.0000
  C   C817      1.0  0.78346  0.34928  0.11897  1.0000
  C   C818      1.0  0.60519  0.24569  0.19852  1.0000
  C   C819      1.0  0.58281  0.07164  0.47213  1.0000
  C   C820      1.0  0.62894  0.17743  0.04662  1.0000
  H   H652      1.0  0.60354  0.03287  0.09657  1.0000
  C   C821      1.0  0.72251  0.28663  0.03729  1.0000
  C   C822      1.0  0.53614  0.26062  0.33459  1.0000
  C   C823      1.0  0.84802  0.32900  0.15023  1.0000
  H   H653      1.0  0.77643  0.29535  0.19553  1.0000
  H   H654      1.0  0.80863  0.34806  0.05860  1.0000
  H   H655      1.0  0.55386  0.23886  0.15372  1.0000
  C   C824      1.0  0.81575  0.31768  0.02764  1.0000
  C   C825      1.0  0.80896  0.32698  0.05803  1.0000
  H   H656      1.0  0.75981  0.15387  0.40917  1.0000
  C   C826      1.0  0.58335  0.21864  0.10248  1.0000
  H   H657      1.0  0.57357  0.10525  0.07729  1.0000
  C   C827      1.0  0.82407  0.33472  0.15499  1.0000
  C   C828      1.0  0.82418  0.35178  0.18287  1.0000
  C   C829      1.0  0.59198  0.31381  0.17496  1.0000
  H   H658      1.0  0.53156  0.28288  0.29070  1.0000
  C   C830      1.0  0.55196  0.24013  0.23632  1.0000
  C   C831      1.0  0.80258  0.30898  0.08696  1.0000
  H   H659      1.0  0.56377  0.02434  0.45781  1.0000
  H   H660      1.0  0.54321  0.26025  0.10414  1.0000
  H   H661      1.0  0.82763  0.28582  0.49301  1.0000
  H   H662      1.0  0.73883  0.26421  0.39997  1.0000
  H   H663      1.0  0.65011  0.09226  0.07876  1.0000
  C   C832      1.0  0.58400  0.04546  0.46314  1.0000
  S   S108      1.0  0.53395  0.22740  0.48448  1.0000
  C   C833      1.0  0.61876  0.33692  0.27997  1.0000
  C   C834      1.0  0.58492  0.31218  0.41715  1.0000
  H   H664      1.0  0.53585  0.18616  0.09843  1.0000
  C   C835      1.0  0.56322  0.26320  0.15191  1.0000
  H   H665      1.0  0.82682  0.34219  0.41015  1.0000
  H   H666      1.0  0.60946  0.11861  0.48780  1.0000
  H   H667      1.0  0.58651  0.20712  0.12337  1.0000
  H   H668      1.0  0.57000  0.20071  0.21382  1.0000
  C   C836      1.0  0.63269  0.26190  0.18090  1.0000
  C   C837      1.0  0.53224  0.33281  0.35553  1.0000
  H   H669      1.0  0.59282  0.27599  0.43151  1.0000
  H   H670      1.0  0.56219  0.17382  0.02996  1.0000
  H   H671      1.0  0.79905  0.26783  0.10700  1.0000
  C   C838      1.0  0.59161  0.21397  0.20131  1.0000
  C   C839      1.0  0.60066  0.31410  0.25751  1.0000
  P   P27       1.0  0.79288  0.31993  0.12640  1.0000
  C   C840      1.0  0.55721  0.27524  0.12365  1.0000
  H   H672      1.0  0.64313  0.28628  0.17785  1.0000
  C   C841      1.0  0.68070  0.04525  0.04078  1.0000
  P   P28       1.0  0.58675  0.26569  0.21464  1.0000
  C   C842      1.0  0.65406  0.31838  0.27997  1.0000
  C   C843      1.0  0.63833  0.07291  0.46869  1.0000
  H   H673      1.0  0.57085  0.25915  0.02761  1.0000
  H   H674      1.0  0.73506  0.31911  0.11866  1.0000
  H   H675      1.0  0.53693  0.14112  0.36892  1.0000
  C   C844      1.0  0.55284  0.22556  0.26575  1.0000
  C   C845      1.0  0.87792  0.34366  0.44266  1.0000
  H   H676      1.0  0.70998  0.08343  0.51003  1.0000
  H   H677      1.0  0.89002  0.33558  0.16940  1.0000
  C   C846      1.0  0.72424  0.31496  0.03794  1.0000
  C   C847      1.0  0.58342  0.34335  0.46240  1.0000
  H   H678      1.0  0.86140  0.31999  0.43937  1.0000
  C   C848      1.0  0.66809  0.26187  0.04182  1.0000
  Fe  Fe52      1.0  0.53687  0.18774  0.50415  1.0000
  H   H679      1.0  0.59688  0.28819  0.49157  1.0000
  C   C849      1.0  0.58169  0.33656  0.42822  1.0000
  H   H680      1.0  0.52883  0.21194  0.05019  1.0000
  C   C850      1.0  0.54507  0.08789  0.51369  1.0000
  H   H681      1.0  0.69312  0.23815  0.03873  1.0000
  H   H682      1.0  0.60978  0.33298  0.03883  1.0000
  H   H683      1.0  0.74599  0.33548  0.03573  1.0000
  S   S109      1.0  0.73465  0.15313  0.50787  1.0000
  H   H684      1.0  0.61221  0.35316  0.28822  1.0000
  H   H685      1.0  0.52706  0.19566  0.30652  1.0000
  H   H686      1.0  0.77636  0.29166  0.49771  1.0000
  S   S110      1.0  0.52795  0.16470  0.45433  1.0000
  S   S111      1.0  0.57786  0.18849  0.95980  1.0000
  S   S112      1.0  0.76118  0.22348  0.53560  1.0000
  C   C851      1.0  0.84499  0.29802  0.57544  1.0000
  C   C852      1.0  0.62538  0.08136  0.58963  1.0000
  Fe  Fe53      1.0  0.75239  0.20377  0.58769  1.0000
  S   S113      1.0  0.77299  0.17449  0.57759  1.0000
  S   S114      1.0  0.76074  0.23309  0.63429  1.0000
  C   C853      1.0  0.54832  0.30012  0.63914  1.0000
  S   S115      1.0  0.75658  0.21282  0.97020  1.0000
  Fe  Fe54      1.0  0.72667  0.13834  0.56170  1.0000
  C   C854      1.0  0.83379  0.13908  0.58496  1.0000
  C   C855      1.0  0.54787  0.23373  0.80902  1.0000
  S   S116      1.0  0.70538  0.16639  0.57575  1.0000
  Fe  Fe55      1.0  0.89160  0.30272  0.76931  1.0000
  S   S117      1.0  0.92340  0.30045  0.80614  1.0000
  S   S118      1.0  0.87680  0.27241  0.72305  1.0000
  C   C856      1.0  0.59697  0.18341  0.99324  1.0000
  C   C857      1.0  0.84874  0.15585  0.55626  1.0000
  H   H687      1.0  0.57321  0.03392  0.91231  1.0000
  C   C858      1.0  0.62300  0.18910  0.54807  1.0000
  Fe  Fe56      1.0  0.89429  0.30592  0.84547  1.0000
  S   S119      1.0  0.88289  0.27707  0.89272  1.0000
  C   C859      1.0  0.58865  0.03377  0.96249  1.0000
  S   S120      1.0  0.86097  0.30498  0.80864  1.0000
  C   C860      1.0  0.63813  0.30841  0.71936  1.0000
  C   C861      1.0  0.74632  0.10800  0.75362  1.0000
  C   C862      1.0  0.79262  0.23262  0.95075  1.0000
  C   C863      1.0  0.81728  0.23108  0.96286  1.0000
  C   C864      1.0  0.84485  0.24510  0.94492  1.0000
  C   C865      1.0  0.84812  0.26099  0.91497  1.0000
  C   C866      1.0  0.82361  0.26306  0.90324  1.0000
  C   C867      1.0  0.79603  0.24899  0.92114  1.0000
  C   C868      1.0  0.55703  0.25092  0.57716  1.0000
  H   H688      1.0  0.86374  0.24345  0.95417  1.0000
  H   H689      1.0  0.82582  0.27520  0.88023  1.0000
  H   H690      1.0  0.77712  0.25048  0.91180  1.0000
  C   C869      1.0  0.84540  0.26412  0.69788  1.0000
  C   C870      1.0  0.82264  0.27004  0.70846  1.0000
  C   C871      1.0  0.79707  0.26103  0.68844  1.0000
  C   C872      1.0  0.79407  0.24608  0.65775  1.0000
  C   C873      1.0  0.81718  0.24093  0.64687  1.0000
  C   C874      1.0  0.84266  0.24984  0.66688  1.0000
  H   H691      1.0  0.82453  0.28104  0.73228  1.0000
  H   H692      1.0  0.77928  0.26512  0.69700  1.0000
  H   H693      1.0  0.81521  0.22979  0.62316  1.0000
  H   H694      1.0  0.86034  0.24553  0.65842  1.0000
  C   C875      1.0  0.76746  0.08363  0.60924  1.0000
  H   H695      1.0  0.85241  0.14476  0.53492  1.0000
  H   H696      1.0  0.86612  0.21071  0.74487  1.0000
  C   C876      1.0  0.87228  0.21900  0.82935  1.0000
  C   C877      1.0  0.68105  0.04706  0.00576  1.0000
  C   C878      1.0  0.76495  0.03860  0.65130  1.0000
  H   H697      1.0  0.66381  0.02568  0.59422  1.0000
  H   H698      1.0  0.61684  0.30390  0.90478  1.0000
  C   C879      1.0  0.84695  0.34235  0.55036  1.0000
  C   C880      1.0  0.53913  0.05503  0.95605  1.0000
  C   C881      1.0  0.78478  0.09206  0.63844  1.0000
  H   H699      1.0  0.84166  0.13491  0.76509  1.0000
  C   C882      1.0  0.62578  0.18724  0.98777  1.0000
  C   C883      1.0  0.85354  0.20123  0.58198  1.0000
  H   H700      1.0  0.64651  0.08052  0.54308  1.0000
  H   H701      1.0  0.61974  0.28498  0.67255  1.0000
  H   H702      1.0  0.61981  0.19047  0.57472  1.0000
  C   C884      1.0  0.82864  0.19358  0.77984  1.0000
  H   H703      1.0  0.81497  0.21857  0.98561  1.0000
  H   H704      1.0  0.81226  0.18534  0.76012  1.0000
  C   C885      1.0  0.56059  0.08637  0.54168  1.0000
  H   H705      1.0  0.82155  0.28327  0.00236  1.0000
  H   H706      1.0  0.57162  0.09874  0.59334  1.0000
  C   C886      1.0  0.55804  0.27540  0.56014  1.0000
  H   H707      1.0  0.55952  0.25698  0.69544  1.0000
  C   C887      1.0  0.56103  0.31855  0.98408  1.0000
  H   H708      1.0  0.75175  0.09154  0.74325  1.0000
  H   H709      1.0  0.82665  0.11514  0.58567  1.0000
  C   C888      1.0  0.78330  0.06926  0.65951  1.0000
  H   H710      1.0  0.88921  0.23004  0.84846  1.0000
  P   P29       1.0  0.59879  0.07281  0.97027  1.0000
  C   C889      1.0  0.56923  0.07869  0.95405  1.0000
  C   C890      1.0  0.61605  0.34544  0.75301  1.0000
  C   C891      1.0  0.55897  0.09921  0.57213  1.0000
  H   H711      1.0  0.78354  0.12697  0.78745  1.0000
  H   H712      1.0  0.66331  0.33119  0.76368  1.0000
  H   H713      1.0  0.78336  0.31114  0.73552  1.0000
  C   C892      1.0  0.60199  0.18881  0.52573  1.0000
  H   H714      1.0  0.60002  0.07522  0.63522  1.0000
  C   C893      1.0  0.75908  0.12402  0.92602  1.0000
  C   C894      1.0  0.71406  0.13015  0.75533  1.0000
  H   H715      1.0  0.69478  0.13113  0.74606  1.0000
  C   C895      1.0  0.60130  0.06498  0.61186  1.0000
  C   C896      1.0  0.63498  0.09794  0.95089  1.0000
  C   C897      1.0  0.64966  0.08664  0.93033  1.0000
  C   C898      1.0  0.67845  0.10632  0.91717  1.0000
  C   C899      1.0  0.69276  0.13732  0.92443  1.0000
  C   C900      1.0  0.67822  0.14874  0.94458  1.0000
  C   C901      1.0  0.64965  0.12908  0.95812  1.0000
  H   H716      1.0  0.66473  0.18881  0.55341  1.0000
  H   H717      1.0  0.75398  0.11225  0.94992  1.0000
  C   C902      1.0  0.58241  0.27910  0.76151  1.0000
  H   H718      1.0  0.76917  0.33744  0.69358  1.0000
  H   H719      1.0  0.59821  0.12592  0.93967  1.0000
  H   H720      1.0  0.57985  0.32702  0.79029  1.0000
  C   C903      1.0  0.83693  0.28313  0.54464  1.0000
  H   H721      1.0  0.60596  0.24816  0.98997  1.0000
  C   C904      1.0  0.60540  0.03825  0.55211  1.0000
  H   H722      1.0  0.86074  0.22520  0.58053  1.0000
  H   H723      1.0  0.64292  0.10420  0.59566  1.0000
  C   C905      1.0  0.58263  0.30619  0.69592  1.0000
  H   H724      1.0  0.82058  0.33149  0.00530  1.0000
  H   H725      1.0  0.77937  0.16835  0.94839  1.0000
  C   C906      1.0  0.55216  0.11119  0.92973  1.0000
  H   H726      1.0  0.84751  0.28668  0.59703  1.0000
  H   H727      1.0  0.68990  0.09742  0.90191  1.0000
  H   H728      1.0  0.71543  0.15249  0.91528  1.0000
  H   H729      1.0  0.68970  0.17268  0.95095  1.0000
  H   H730      1.0  0.63933  0.13802  0.97507  1.0000
  H   H731      1.0  0.72572  0.16625  0.79033  1.0000
  H   H732      1.0  0.58279  0.23314  0.60013  1.0000
  H   H733      1.0  0.83576  0.20457  0.86435  1.0000
  C   C907      1.0  0.64165  0.18402  0.01437  1.0000
  C   C908      1.0  0.81958  0.19110  0.81365  1.0000
  C   C909      1.0  0.55334  0.33397  0.53802  1.0000
  P   P30       1.0  0.78014  0.17504  0.82469  1.0000
  C   C910      1.0  0.77226  0.20588  0.82819  1.0000
  C   C911      1.0  0.75708  0.14930  0.79220  1.0000
  P   P31       1.0  0.60475  0.30967  0.73229  1.0000
  C   C912      1.0  0.73180  0.15015  0.78040  1.0000
  C   C913      1.0  0.74925  0.20341  0.84982  1.0000
  C   C914      1.0  0.74288  0.22711  0.85222  1.0000
  C   C915      1.0  0.75920  0.25331  0.83278  1.0000
  C   C916      1.0  0.78168  0.25567  0.81066  1.0000
  C   C917      1.0  0.78827  0.23211  0.80836  1.0000
  C   C918      1.0  0.77212  0.15479  0.86423  1.0000
  C   C919      1.0  0.75763  0.12289  0.86535  1.0000
  C   C920      1.0  0.75127  0.10764  0.89612  1.0000
  C   C921      1.0  0.58582  0.30179  0.55371  1.0000
  C   C922      1.0  0.77347  0.15566  0.92516  1.0000
  C   C923      1.0  0.78004  0.17099  0.89447  1.0000
  C   C924      1.0  0.85922  0.20804  0.77103  1.0000
  C   C925      1.0  0.74785  0.03049  0.62218  1.0000
  H   H734      1.0  0.53357  0.03336  0.96687  1.0000
  C   C926      1.0  0.83343  0.29762  0.51680  1.0000
  H   H735      1.0  0.57415  0.07552  0.54000  1.0000
  H   H736      1.0  0.85697  0.33931  0.60207  1.0000
  H   H737      1.0  0.73634  0.18330  0.86502  1.0000
  H   H738      1.0  0.72563  0.22535  0.86964  1.0000
  H   H739      1.0  0.75460  0.27188  0.83506  1.0000
  H   H740      1.0  0.79436  0.27597  0.79558  1.0000
  H   H741      1.0  0.80602  0.23462  0.79127  1.0000
  H   H742      1.0  0.75108  0.10956  0.84272  1.0000
  H   H743      1.0  0.74019  0.08306  0.89690  1.0000
  H   H744      1.0  0.76785  0.10072  0.59270  1.0000
  C   C927      1.0  0.68828  0.05778  0.55464  1.0000
  H   H745      1.0  0.79119  0.19554  0.89440  1.0000
  C   C928      1.0  0.69560  0.06106  0.52050  1.0000
  H   H746      1.0  0.54821  0.27336  0.96734  1.0000
  H   H747      1.0  0.61956  0.27386  0.77865  1.0000
  H   H748      1.0  0.86925  0.19967  0.53207  1.0000
  C   C929      1.0  0.55091  0.33856  0.99329  1.0000
  C   C930      1.0  0.57857  0.24371  0.80482  1.0000
  P   P32       1.0  0.80781  0.13179  0.64900  1.0000
  C   C931      1.0  0.83522  0.13712  0.68027  1.0000
  C   C932      1.0  0.82795  0.15321  0.61211  1.0000
  H   H749      1.0  0.79632  0.07499  0.68214  1.0000
  H   H750      1.0  0.53568  0.23031  0.58125  1.0000
  C   C933      1.0  0.62058  0.30193  0.93108  1.0000
  H   H751      1.0  0.54070  0.27870  0.75179  1.0000
  H   H752      1.0  0.79744  0.35112  0.53675  1.0000
  C   C934      1.0  0.82676  0.13230  0.71430  1.0000
  C   C935      1.0  0.84816  0.13804  0.73881  1.0000
  C   C936      1.0  0.87814  0.14834  0.72951  1.0000
  C   C937      1.0  0.88667  0.15270  0.69567  1.0000
  C   C938      1.0  0.86532  0.14708  0.67110  1.0000
  C   C939      1.0  0.78429  0.14649  0.66496  1.0000
  C   C940      1.0  0.75460  0.13461  0.65391  1.0000
  C   C941      1.0  0.73726  0.14742  0.66448  1.0000
  C   C942      1.0  0.74914  0.17175  0.68681  1.0000
  C   C943      1.0  0.77830  0.18316  0.69872  1.0000
  C   C944      1.0  0.79605  0.17105  0.68736  1.0000
  C   C945      1.0  0.56244  0.27729  0.68326  1.0000
  C   C946      1.0  0.58362  0.25255  0.58791  1.0000
  H   H753      1.0  0.70776  0.09391  0.72218  1.0000
  H   H754      1.0  0.87253  0.15091  0.64507  1.0000
  H   H755      1.0  0.80557  0.33640  0.78942  1.0000
  H   H756      1.0  0.58902  0.23411  0.82020  1.0000
  H   H757      1.0  0.90473  0.23287  0.78880  1.0000
  H   H758      1.0  0.70968  0.30473  0.69262  1.0000
  H   H759      1.0  0.83486  0.19592  0.63148  1.0000
  H   H760      1.0  0.80372  0.12466  0.72183  1.0000
  H   H761      1.0  0.58487  0.32620  0.98358  1.0000
  H   H762      1.0  0.60368  0.02587  0.01013  1.0000
  C   C947      1.0  0.83859  0.18451  0.61069  1.0000
  C   C948      1.0  0.74913  0.05301  0.60119  1.0000
  H   H763      1.0  0.74492  0.11618  0.63621  1.0000
  H   H764      1.0  0.71493  0.13901  0.65448  1.0000
  H   H765      1.0  0.73612  0.18242  0.69403  1.0000
  H   H766      1.0  0.78774  0.20254  0.71537  1.0000
  H   H767      1.0  0.81925  0.18165  0.69525  1.0000
  H   H768      1.0  0.63196  0.27927  0.58864  1.0000
  C   C949      1.0  0.72135  0.10915  0.74188  1.0000
  C   C950      1.0  0.66354  0.32084  0.73996  1.0000
  S   S121      1.0  0.57122  0.19166  0.54155  1.0000
  H   H769      1.0  0.63588  0.19282  0.96296  1.0000
  Fe  Fe57      1.0  0.52847  0.17186  0.96919  1.0000
  C   C951      1.0  0.54528  0.27433  0.65513  1.0000
  C   C952      1.0  0.84173  0.20441  0.83829  1.0000
  H   H770      1.0  0.66516  0.28292  0.65594  1.0000
  C   C953      1.0  0.59997  0.34693  0.78110  1.0000
  H   H771      1.0  0.90995  0.16079  0.68846  1.0000
  C   C954      1.0  0.79807  0.34722  0.77162  1.0000
  C   C955      1.0  0.88103  0.22069  0.79577  1.0000
  C   C956      1.0  0.61411  0.27060  0.97946  1.0000
  Fe  Fe58      1.0  0.71625  0.18351  0.52282  1.0000
  C   C957      1.0  0.61248  0.30305  0.56420  1.0000
  H   H772      1.0  0.55710  0.13316  0.92014  1.0000
  C   C958      1.0  0.61133  0.27855  0.58135  1.0000
  H   H773      1.0  0.83341  0.26031  0.54223  1.0000
  C   C959      1.0  0.64840  0.18806  0.53605  1.0000
  C   C960      1.0  0.62734  0.06801  0.55979  1.0000
  H   H774      1.0  0.89482  0.15311  0.74852  1.0000
  H   H775      1.0  0.59707  0.25287  0.93063  1.0000
  C   C961      1.0  0.57553  0.10692  0.94094  1.0000
  S   S122      1.0  0.70270  0.08971  0.58162  1.0000
  C   C962      1.0  0.76421  0.12806  0.77859  1.0000
  H   H776      1.0  0.63943  0.06264  0.92503  1.0000
  H   H777      1.0  0.53711  0.27323  0.55154  1.0000
  H   H778      1.0  0.66396  0.18722  0.01003  1.0000
  H   H779      1.0  0.73571  0.04680  0.57870  1.0000
  H   H780      1.0  0.67081  0.02201  0.95927  1.0000
  C   C963      1.0  0.78579  0.33315  0.74119  1.0000
  C   C964      1.0  0.59581  0.26630  0.78116  1.0000
  C   C965      1.0  0.83754  0.32702  0.51970  1.0000
  C   C966      1.0  0.57918  0.03525  0.60420  1.0000
  C   C967      1.0  0.63720  0.32799  0.95035  1.0000
  C   C968      1.0  0.64185  0.32537  0.98436  1.0000
  C   C969      1.0  0.85842  0.18685  0.55469  1.0000
  H   H781      1.0  0.53819  0.29274  0.87126  1.0000
  H   H782      1.0  0.63423  0.32265  0.55847  1.0000
  C   C970      1.0  0.62925  0.29659  0.99947  1.0000
  C   C971      1.0  0.60931  0.27324  0.94559  1.0000
  C   C972      1.0  0.54038  0.28878  0.97495  1.0000
  C   C973      1.0  0.66473  0.29362  0.67935  1.0000
  H   H783      1.0  0.60808  0.02831  0.52931  1.0000
  H   H784      1.0  0.70877  0.32906  0.74637  1.0000
  C   C974      1.0  0.63894  0.29481  0.68893  1.0000
  H   H785      1.0  0.53426  0.29771  0.61799  1.0000
  C   C975      1.0  0.68931  0.31965  0.73027  1.0000
  C   C976      1.0  0.55195  0.35293  0.56284  1.0000
  C   C977      1.0  0.77778  0.34801  0.71760  1.0000
  C   C978      1.0  0.56891  0.32896  0.65103  1.0000
  C   C979      1.0  0.55152  0.26878  0.76589  1.0000
  H   H786      1.0  0.54448  0.19203  0.65270  1.0000
  H   H787      1.0  0.69111  0.06906  0.99369  1.0000
  C   C980      1.0  0.53436  0.24614  0.78938  1.0000
  C   C981      1.0  0.68987  0.30598  0.70001  1.0000
  Fe  Fe59      1.0  0.77897  0.19196  0.52455  1.0000
  H   H788      1.0  0.53454  0.21663  0.82772  1.0000
  C   C982      1.0  0.66967  0.02843  0.56784  1.0000
  Fe  Fe60      1.0  0.95002  0.35161  0.80454  1.0000
  C   C983      1.0  0.58610  0.33207  0.67923  1.0000
  C   C984      1.0  0.85020  0.32769  0.57826  1.0000
  H   H789      1.0  0.57080  0.34895  0.63911  1.0000
  S   S123      1.0  0.92047  0.35310  0.76437  1.0000
  P   P33       1.0  0.58764  0.33294  0.53009  1.0000
  H   H790      1.0  0.65534  0.34577  0.99870  1.0000
  C   C985      1.0  0.52715  0.10154  0.51697  1.0000
  C   C986      1.0  0.54147  0.11317  0.57503  1.0000
  H   H791      1.0  0.54065  0.12367  0.59838  1.0000
  H   H792      1.0  0.64661  0.35024  0.93887  1.0000
  H   H793      1.0  0.76395  0.02106  0.66750  1.0000
  C   C987      1.0  0.57673  0.02084  0.93124  1.0000
  H   H794      1.0  0.56092  0.02264  0.62195  1.0000
  C   C988      1.0  0.58103  0.02163  0.57420  1.0000
  H   H795      1.0  0.52909  0.25199  0.64617  1.0000
  C   C989      1.0  0.52754  0.31553  0.51921  1.0000
  C   C990      1.0  0.60275  0.08155  0.01446  1.0000
  Fe  Fe61      1.0  0.74968  0.55805  0.19294  1.0000
  S   S124      1.0  0.75124  0.52961  0.15082  1.0000
  S   S125      1.0  0.75779  0.54810  0.24585  1.0000
  Fe  Fe62      1.0  0.72583  0.59029  0.14860  1.0000
  S   S126      1.0  0.72632  0.56439  0.10254  1.0000
  S   S127      1.0  0.71055  0.62554  0.14331  1.0000
  Fe  Fe63      1.0  0.70657  0.52382  0.13693  1.0000
  S   S128      1.0  0.66855  0.47825  0.12078  1.0000
  Fe  Fe64      1.0  0.77127  0.57231  0.11990  1.0000
  S   S129      1.0  0.81436  0.58336  0.09087  1.0000
  S   S130      1.0  0.70292  0.54891  0.18142  1.0000
  S   S131      1.0  0.77279  0.60161  0.16354  1.0000
  S   S132      1.0  0.59163  0.38874  0.23859  1.0000
  Fe  Fe65      1.0  0.89268  0.57871  0.35855  1.0000
  S   S133      1.0  0.85577  0.54597  0.39329  1.0000
  S   S134      1.0  0.88735  0.59545  0.30783  1.0000
  Fe  Fe66      1.0  0.94338  0.58557  0.40399  1.0000
  S   S135      1.0  0.91028  0.55341  0.44239  1.0000
  S   S136      1.0  0.99325  0.60592  0.41515  1.0000
  Fe  Fe67      1.0  0.88518  0.52481  0.39823  1.0000
  S   S137      1.0  0.86732  0.47410  0.40056  1.0000
  Fe  Fe68      1.0  0.88382  0.57717  0.43455  1.0000
  S   S138      1.0  0.86779  0.59677  0.47624  1.0000
  S   S139      1.0  0.92010  0.55526  0.36062  1.0000
  S   S140      1.0  0.91893  0.61172  0.39934  1.0000
  S   S141      1.0  0.89503  0.41319  0.27607  1.0000
  H   H796      1.0  0.67602  0.36473  0.13775  1.0000
  C   C991      1.0  0.88700  0.42975  0.31070  1.0000
  C   C992      1.0  0.89035  0.45871  0.30748  1.0000
  C   C993      1.0  0.88489  0.47267  0.33507  1.0000
  C   C994      1.0  0.87502  0.45735  0.36571  1.0000
  C   C995      1.0  0.87087  0.42800  0.36861  1.0000
  C   C996      1.0  0.87713  0.41434  0.34131  1.0000
  H   H797      1.0  0.89765  0.47059  0.28377  1.0000
  H   H798      1.0  0.88813  0.49520  0.33253  1.0000
  H   H799      1.0  0.86316  0.41590  0.39210  1.0000
  H   H800      1.0  0.87391  0.39174  0.34388  1.0000
  C   C997      1.0  0.80704  0.60595  0.35015  1.0000
  H   H801      1.0  0.65707  0.67950  0.17808  1.0000
  H   H802      1.0  0.99389  0.61442  0.34247  1.0000
  C   C998      1.0  0.81847  0.57858  0.04735  1.0000
  C   C999      1.0  0.84905  0.57477  0.16946  1.0000
  H   H803      1.0  0.63592  0.58968  0.37863  1.0000
  H   H804      1.0  0.63515  0.38620  0.49287  1.0000
  H   H805      1.0  0.95743  0.63996  0.28683  1.0000
  C   C1000     1.0  0.74856  0.64874  0.21854  1.0000
  H   H806      1.0  0.57945  0.42015  0.34330  1.0000
  H   H807      1.0  0.82909  0.53170  0.48995  1.0000
  H   H808      1.0  0.00550  0.61193  0.24769  1.0000
  H   H809      1.0  0.84545  0.40138  0.44822  1.0000
  C   C1001     1.0  0.79404  0.56151  0.26234  1.0000
  C   C1002     1.0  0.82011  0.58260  0.24516  1.0000
  C   C1003     1.0  0.84859  0.59282  0.25933  1.0000
  C   C1004     1.0  0.85117  0.58230  0.29091  1.0000
  C   C1005     1.0  0.82503  0.56135  0.30812  1.0000
  C   C1006     1.0  0.79662  0.55090  0.29381  1.0000
  H   H810      1.0  0.81829  0.59112  0.22105  1.0000
  H   H811      1.0  0.86868  0.60900  0.24579  1.0000
  H   H812      1.0  0.82660  0.55324  0.33253  1.0000
  H   H813      1.0  0.77653  0.53478  0.30738  1.0000
  C   C1007     1.0  0.64729  0.45392  0.15388  1.0000
  C   C1008     1.0  0.61975  0.42787  0.14703  1.0000
  C   C1009     1.0  0.60256  0.40788  0.17296  1.0000
  C   C1010     1.0  0.61307  0.41351  0.20579  1.0000
  C   C1011     1.0  0.64091  0.43926  0.21258  1.0000
  C   C1012     1.0  0.65778  0.45971  0.18675  1.0000
  H   H814      1.0  0.61153  0.42331  0.12166  1.0000
  H   H815      1.0  0.58128  0.38799  0.16744  1.0000
  H   H816      1.0  0.64925  0.44363  0.23789  1.0000
  H   H817      1.0  0.67906  0.47977  0.19216  1.0000
  C   C1013     1.0  0.68536  0.63110  0.16976  1.0000
  C   C1014     1.0  0.67990  0.65506  0.16270  1.0000
  C   C1015     1.0  0.02265  0.62306  0.38473  1.0000
  C   C1016     1.0  0.70027  0.54180  0.29224  1.0000
  C   C1017     1.0  0.65153  0.61812  0.21817  1.0000
  C   C1018     1.0  0.67097  0.61260  0.19763  1.0000
  C   C1019     1.0  0.94149  0.48581  0.40880  1.0000
  P   P34       1.0  0.00418  0.53041  0.31717  1.0000
  H   H818      1.0  0.64049  0.60373  0.23964  1.0000
  H   H819      1.0  0.67505  0.59421  0.20339  1.0000
  H   H820      1.0  0.73229  0.57606  0.36683  1.0000
  C   C1020     1.0  0.87654  0.44687  0.16529  1.0000
  C   C1021     1.0  0.76981  0.39513  0.10460  1.0000
  C   C1022     1.0  0.97467  0.53057  0.37617  1.0000
  C   C1023     1.0  0.96296  0.66385  0.33307  1.0000
  H   H821      1.0  0.74661  0.60913  0.24002  1.0000
  P   P35       1.0  0.54948  0.49968  0.18387  1.0000
  C   C1024     1.0  0.54997  0.53307  0.20090  1.0000
  C   C1025     1.0  0.54934  0.47525  0.21685  1.0000
  C   C1026     1.0  0.83241  0.39891  0.47077  1.0000
  C   C1027     1.0  0.97731  0.45894  0.25266  1.0000
  C   C1028     1.0  0.54029  0.38315  0.36708  1.0000
  C   C1029     1.0  0.57375  0.45160  0.24612  1.0000
  C   C1030     1.0  0.57479  0.47217  0.22223  1.0000
  C   C1031     1.0  0.72269  0.63406  0.36564  1.0000
  H   H822      1.0  0.98438  0.55474  0.37190  1.0000
  C   C1032     1.0  0.88039  0.59047  0.17197  1.0000
  C   C1033     1.0  0.95599  0.53673  0.29599  1.0000
  H   H823      1.0  0.53206  0.51361  0.24990  1.0000
  C   C1034     1.0  0.58212  0.51016  0.15725  1.0000
  C   C1035     1.0  0.58169  0.48946  0.13349  1.0000
  C   C1036     1.0  0.60766  0.49630  0.11485  1.0000
  C   C1037     1.0  0.63416  0.52387  0.11956  1.0000
  C   C1038     1.0  0.63486  0.54451  0.14322  1.0000
  C   C1039     1.0  0.60913  0.53757  0.16239  1.0000
  C   C1040     1.0  0.87105  0.36226  0.46247  1.0000
  C   C1041     1.0  0.64856  0.37476  0.10597  1.0000
  C   C1042     1.0  0.54755  0.43421  0.26507  1.0000
  H   H824      1.0  0.81773  0.42554  0.10406  1.0000
  H   H825      1.0  0.65190  0.39434  0.12045  1.0000
  H   H826      1.0  0.87543  0.43008  0.21502  1.0000
  H   H827      1.0  0.59295  0.44841  0.24930  1.0000
  H   H828      1.0  0.59522  0.48484  0.20744  1.0000
  C   C1043     1.0  0.59482  0.66742  0.09461  1.0000
  C   C1044     1.0  0.74663  0.36515  0.10890  1.0000
  H   H829      1.0  0.77460  0.57034  0.03350  1.0000
  P   P36       1.0  0.72219  0.60311  0.30781  1.0000
  C   C1045     1.0  0.86863  0.46423  0.14527  1.0000
  H   H830      1.0  0.56163  0.46768  0.12992  1.0000
  H   H831      1.0  0.60757  0.47996  0.09724  1.0000
  H   H832      1.0  0.65436  0.52898  0.10534  1.0000
  H   H833      1.0  0.65559  0.56571  0.14698  1.0000
  H   H834      1.0  0.61066  0.55347  0.18148  1.0000
  C   C1046     1.0  0.67312  0.56496  0.26896  1.0000
  C   C1047     1.0  0.55038  0.58493  0.22645  1.0000
  H   H835      1.0  0.92548  0.47531  0.42929  1.0000
  C   C1048     1.0  0.01688  0.62421  0.35082  1.0000
  C   C1049     1.0  0.73132  0.63124  0.27542  1.0000
  H   H836      1.0  0.72363  0.65842  0.41035  1.0000
  H   H837      1.0  0.74695  0.64681  0.36219  1.0000
  Fe  Fe69      1.0  0.60484  0.68205  0.23331  1.0000
  H   H838      1.0  0.91922  0.58872  0.18877  1.0000
  H   H839      1.0  0.93866  0.42795  0.45566  1.0000
  H   H840      1.0  0.59536  0.38680  0.31524  1.0000
  C   C1050     1.0  0.98740  0.54922  0.29504  1.0000
  C   C1051     1.0  0.92162  0.40443  0.45194  1.0000
  C   C1052     1.0  0.83746  0.57596  0.50479  1.0000
  C   C1053     1.0  0.94252  0.55113  0.27972  1.0000
  H   H841      1.0  0.68515  0.49579  0.27689  1.0000
  H   H842      1.0  0.63651  0.53672  0.23641  1.0000
  C   C1054     1.0  0.65815  0.51291  0.25547  1.0000
  H   H843      1.0  0.57947  0.64357  0.09037  1.0000
  H   H844      1.0  0.94196  0.51606  0.30986  1.0000
  H   H845      1.0  0.02528  0.40307  0.26148  1.0000
  S   S142      1.0  0.62260  0.64892  0.23888  1.0000
  Fe  Fe70      1.0  0.54446  0.67955  0.22192  1.0000
  C   C1055     1.0  0.84580  0.58160  0.03525  1.0000
  S   S143      1.0  0.00067  0.39736  0.33028  1.0000
  C   C1056     1.0  0.80589  0.41723  0.50582  1.0000
  C   C1057     1.0  0.82362  0.42042  0.47752  1.0000
  C   C1058     1.0  0.70464  0.61114  0.34295  1.0000
  H   H846      1.0  0.84736  0.37506  0.22775  1.0000
  H   H847      1.0  0.89329  0.61344  0.16232  1.0000
  C   C1059     1.0  0.70955  0.64076  0.39289  1.0000
  H   H848      1.0  0.87563  0.46819  0.11915  1.0000
  H   H849      1.0  0.76463  0.41280  0.09858  1.0000
  C   C1060     1.0  0.78347  0.61959  0.30656  1.0000
  C   C1061     1.0  0.75552  0.60371  0.32339  1.0000
  H   H850      1.0  0.01220  0.66811  0.27242  1.0000
  H   H851      1.0  0.95072  0.53104  0.42061  1.0000
  C   C1062     1.0  0.80662  0.37956  0.11496  1.0000
  C   C1063     1.0  0.96712  0.48136  0.35950  1.0000
  C   C1064     1.0  0.94734  0.46794  0.38668  1.0000
  H   H852      1.0  0.53599  0.37034  0.43887  1.0000
  H   H853      1.0  0.82689  0.60653  0.36019  1.0000
  S   S144      1.0  0.91798  0.37051  0.34115  1.0000
  C   C1065     1.0  0.97966  0.48420  0.26953  1.0000
  H   H854      1.0  0.69097  0.66959  0.14129  1.0000
  H   H855      1.0  0.53264  0.55920  0.27193  1.0000
  H   H856      1.0  0.66813  0.63002  0.41869  1.0000
  C   C1066     1.0  0.99160  0.59075  0.26091  1.0000
  Fe  Fe71      1.0  0.90377  0.37533  0.29012  1.0000
  H   H857      1.0  0.93256  0.60300  0.49687  1.0000
  C   C1067     1.0  0.80907  0.62066  0.31995  1.0000
  H   H858      1.0  0.83776  0.58556  0.15784  1.0000
  P   P37       1.0  0.55324  0.67929  0.06288  1.0000
  C   C1068     1.0  0.57561  0.37701  0.33156  1.0000
  H   H859      1.0  0.94987  0.58973  0.25042  1.0000
  C   C1069     1.0  0.75362  0.58862  0.35353  1.0000
  H   H860      1.0  0.79901  0.43390  0.51086  1.0000
  Fe  Fe72      1.0  0.54307  0.35746  0.22481  1.0000
  H   H861      1.0  0.56870  0.60529  0.17845  1.0000
  H   H862      1.0  0.97072  0.46675  0.34254  1.0000
  H   H863      1.0  0.93586  0.44351  0.38993  1.0000
  C   C1070     1.0  0.89338  0.39260  0.46779  1.0000
  H   H864      1.0  0.83003  0.38548  0.11689  1.0000
  H   H865      1.0  0.83046  0.63241  0.30654  1.0000
  H   H866      1.0  0.96230  0.49012  0.26607  1.0000
  H   H867      1.0  0.95837  0.44581  0.23642  1.0000
  C   C1071     1.0  0.68121  0.51481  0.27544  1.0000
  H   H868      1.0  0.91830  0.54161  0.28130  1.0000
  H   H869      1.0  0.88952  0.43718  0.15477  1.0000
  C   C1072     1.0  0.79574  0.57277  0.02455  1.0000
  C   C1073     1.0  0.79977  0.40233  0.10769  1.0000
  H   H870      1.0  0.88914  0.40711  0.48420  1.0000
  H   H871      1.0  0.88973  0.36549  0.21842  1.0000
  C   C1074     1.0  0.82235  0.54423  0.50652  1.0000
  C   C1075     1.0  0.77930  0.58981  0.36686  1.0000
  C   C1076     1.0  0.96033  0.57826  0.26235  1.0000
  C   C1077     1.0  0.53994  0.53322  0.23382  1.0000
  H   H872      1.0  0.71870  0.54311  0.30645  1.0000
  H   H873      1.0  0.00711  0.67023  0.40738  1.0000
  C   C1078     1.0  0.66225  0.35813  0.11558  1.0000
  S   S145      1.0  0.56435  0.67008  0.26624  1.0000
  H   H874      1.0  0.55118  0.60521  0.23643  1.0000
  H   H875      1.0  0.86348  0.58604  0.05269  1.0000
  C   C1079     1.0  0.67830  0.62475  0.39760  1.0000
  C   C1080     1.0  0.99848  0.44974  0.25797  1.0000
  C   C1081     1.0  0.62174  0.67587  0.11120  1.0000
  C   C1082     1.0  0.54013  0.55906  0.24647  1.0000
  C   C1083     1.0  0.66060  0.66069  0.18338  1.0000
  C   C1084     1.0  0.98099  0.51289  0.35402  1.0000
  C   C1085     1.0  0.00334  0.50049  0.29183  1.0000
  C   C1086     1.0  0.64637  0.64229  0.21131  1.0000
  C   C1087     1.0  0.65397  0.53793  0.25241  1.0000
  C   C1088     1.0  0.97336  0.65727  0.30349  1.0000
  H   H876      1.0  0.78584  0.63116  0.28316  1.0000
  H   H877      1.0  0.53748  0.39398  0.49346  1.0000
  C   C1089     1.0  0.62970  0.36558  0.07825  1.0000
  C   C1090     1.0  0.00512  0.57634  0.27720  1.0000
  C   C1091     1.0  0.89492  0.57651  0.18683  1.0000
  H   H878      1.0  0.77775  0.57813  0.39009  1.0000
  H   H879      1.0  0.83037  0.43944  0.46051  1.0000
  C   C1092     1.0  0.73747  0.47146  0.20651  1.0000
  C   C1093     1.0  0.72697  0.45340  0.17792  1.0000
  C   C1094     1.0  0.74609  0.44622  0.15968  1.0000
  C   C1095     1.0  0.77578  0.45716  0.16994  1.0000
  C   C1096     1.0  0.78647  0.47539  0.19862  1.0000
  C   C1097     1.0  0.76711  0.48255  0.21673  1.0000
  P   P38       1.0  0.82527  0.49199  0.21116  1.0000
  C   C1098     1.0  0.82503  0.48898  0.25617  1.0000
  C   C1099     1.0  0.84372  0.47267  0.19310  1.0000
  C   C1100     1.0  0.85203  0.45538  0.21311  1.0000
  C   C1101     1.0  0.86840  0.44263  0.19920  1.0000
  H   H880      1.0  0.64408  0.49239  0.24164  1.0000
  H   H881      1.0  0.93902  0.65185  0.33890  1.0000
  C   C1102     1.0  0.85235  0.47715  0.15910  1.0000
  C   C1103     1.0  0.80403  0.46172  0.27203  1.0000
  C   C1104     1.0  0.80417  0.45871  0.30682  1.0000
  C   C1105     1.0  0.82511  0.48292  0.32598  1.0000
  C   C1106     1.0  0.84593  0.51003  0.31030  1.0000
  C   C1107     1.0  0.84593  0.51315  0.27561  1.0000
  C   C1108     1.0  0.84653  0.53094  0.19691  1.0000
  C   C1109     1.0  0.87811  0.54677  0.19902  1.0000
  H   H882      1.0  0.75715  0.64609  0.19457  1.0000
  C   C1110     1.0  0.83213  0.54519  0.18197  1.0000
  H   H883      1.0  0.72306  0.47795  0.22013  1.0000
  H   H884      1.0  0.70428  0.44573  0.16940  1.0000
  H   H885      1.0  0.73803  0.43286  0.13710  1.0000
  H   H886      1.0  0.79036  0.45181  0.15519  1.0000
  H   H887      1.0  0.77516  0.49748  0.23826  1.0000
  H   H888      1.0  0.84677  0.45226  0.23965  1.0000
  H   H889      1.0  0.67011  0.58443  0.26576  1.0000
  H   H890      1.0  0.84704  0.49121  0.14347  1.0000
  H   H891      1.0  0.78776  0.44272  0.25745  1.0000
  H   H892      1.0  0.78821  0.43763  0.31902  1.0000
  H   H893      1.0  0.82545  0.48064  0.35294  1.0000
  H   H894      1.0  0.86210  0.52888  0.32500  1.0000
  H   H895      1.0  0.86204  0.53463  0.26440  1.0000
  H   H896      1.0  0.88970  0.53612  0.21016  1.0000
  H   H897      1.0  0.80791  0.53375  0.17979  1.0000
  H   H898      1.0  0.61833  0.37796  0.07156  1.0000
  C   C1111     1.0  0.69648  0.56716  0.28889  1.0000
  C   C1112     1.0  0.74264  0.62796  0.24438  1.0000
  C   C1113     1.0  0.66016  0.60200  0.37506  1.0000
  C   C1114     1.0  0.95538  0.51714  0.40369  1.0000
  C   C1115     1.0  0.00410  0.67308  0.29546  1.0000
  H   H899      1.0  0.62686  0.65867  0.11951  1.0000
  H   H900      1.0  0.65872  0.57745  0.33078  1.0000
  C   C1116     1.0  0.56027  0.58496  0.19368  1.0000
  S   S146      1.0  0.93972  0.37020  0.26340  1.0000
  H   H901      1.0  0.56737  0.55952  0.15523  1.0000
  C   C1117     1.0  0.82414  0.37437  0.49272  1.0000
  C   C1118     1.0  0.56657  0.39582  0.34732  1.0000
  C   C1119     1.0  0.55984  0.55911  0.18082  1.0000
  H   H902      1.0  0.52831  0.62862  0.18267  1.0000
  H   H903      1.0  0.99616  0.42971  0.24554  1.0000
  C   C1120     1.0  0.67324  0.59515  0.34783  1.0000
  C   C1121     1.0  0.92793  0.38589  0.43136  1.0000
  H   H904      1.0  0.94969  0.39501  0.41883  1.0000
  C   C1122     1.0  0.53906  0.64237  0.04361  1.0000
  H   H905      1.0  0.58002  0.36176  0.47077  1.0000
  H   H906      1.0  0.54651  0.41760  0.28278  1.0000
  H   H907      1.0  0.72346  0.35966  0.10638  1.0000
  C   C1123     1.0  0.72490  0.65494  0.27968  1.0000
  H   H908      1.0  0.71511  0.65750  0.30278  1.0000
  H   H909      1.0  0.53284  0.39792  0.37795  1.0000
  H   H910      1.0  0.00893  0.65284  0.46411  1.0000
  C   C1124     1.0  0.74215  0.67222  0.22295  1.0000
  C   C1125     1.0  0.73017  0.67523  0.25344  1.0000
  H   H911      1.0  0.65935  0.35671  0.30881  1.0000
  H   H912      1.0  0.67732  0.43500  0.51176  1.0000
  Fe  Fe73      1.0  0.95271  0.36272  0.31456  1.0000
  C   C1126     1.0  0.84768  0.36263  0.20575  1.0000
  C   C1127     1.0  0.87157  0.35715  0.20060  1.0000
  C   C1128     1.0  0.02277  0.67670  0.45778  1.0000
  H   H913      1.0  0.80582  0.35622  0.18729  1.0000
  C   C1129     1.0  0.90614  0.35541  0.42702  1.0000
  C   C1130     1.0  0.02434  0.49087  0.29730  1.0000
  C   C1131     1.0  0.02193  0.46564  0.28034  1.0000
  C   C1132     1.0  0.98328  0.68584  0.35499  1.0000
  C   C1133     1.0  0.02161  0.68674  0.42556  1.0000
  Fe  Fe74      1.0  0.76236  0.58083  0.68641  1.0000
  S   S147      1.0  0.75024  0.53333  0.67300  1.0000
  S   S148      1.0  0.79821  0.60985  0.72322  1.0000
  Fe  Fe75      1.0  0.71138  0.57893  0.64695  1.0000
  S   S149      1.0  0.69512  0.53094  0.62940  1.0000
  S   S150      1.0  0.68836  0.60561  0.63200  1.0000
  Fe  Fe76      1.0  0.70252  0.52190  0.68239  1.0000
  S   S151      1.0  0.67283  0.48190  0.71588  1.0000
  Fe  Fe77      1.0  0.74427  0.54581  0.62083  1.0000
  S   S152      1.0  0.75876  0.52417  0.57971  1.0000
  S   S153      1.0  0.71512  0.56847  0.70051  1.0000
  S   S154      1.0  0.76012  0.59474  0.63365  1.0000
  C   C1134     1.0  0.91187  0.56996  0.53654  1.0000
  Fe  Fe78      1.0  0.88657  0.56153  0.83540  1.0000
  S   S155      1.0  0.85641  0.52904  0.87495  1.0000
  S   S156      1.0  0.87404  0.55400  0.78088  1.0000
  Fe  Fe79      1.0  0.93810  0.59674  0.88345  1.0000
  S   S157      1.0  0.91138  0.56763  0.92761  1.0000
  S   S158      1.0  0.98749  0.63196  0.89097  1.0000
  Fe  Fe80      1.0  0.89773  0.52874  0.89194  1.0000
  S   S159      1.0  0.89810  0.48660  0.90877  1.0000
  Fe  Fe81      1.0  0.87203  0.57046  0.90744  1.0000
  S   S160      1.0  0.83404  0.57409  0.93387  1.0000
  S   S161      1.0  0.92664  0.55755  0.84951  1.0000
  S   S162      1.0  0.89991  0.60328  0.86616  1.0000
  S   S163      1.0  0.87777  0.39017  0.79719  1.0000
  C   C1135     1.0  0.98516  0.51326  0.81487  1.0000
  C   C1136     1.0  0.88745  0.41801  0.82819  1.0000
  C   C1137     1.0  0.88718  0.41102  0.86202  1.0000
  C   C1138     1.0  0.89160  0.43270  0.88659  1.0000
  C   C1139     1.0  0.89616  0.46131  0.87738  1.0000
  C   C1140     1.0  0.89776  0.46874  0.84344  1.0000
  C   C1141     1.0  0.89354  0.44710  0.81893  1.0000
  H   H914      1.0  0.88251  0.38858  0.86933  1.0000
  H   H915      1.0  0.89047  0.42692  0.91282  1.0000
  H   H916      1.0  0.90130  0.49073  0.83610  1.0000
  H   H917      1.0  0.89395  0.45249  0.79275  1.0000
  C   C1142     1.0  0.00964  0.63680  0.82593  1.0000
  H   H918      1.0  0.56724  0.56196  0.65039  1.0000
  H   H919      1.0  0.98660  0.62215  0.81853  1.0000
  C   C1143     1.0  0.01990  0.44925  0.87239  1.0000
  C   C1144     1.0  0.87703  0.62033  0.67143  1.0000
  H   H920      1.0  0.61561  0.57032  0.62685  1.0000
  H   H921      1.0  0.60470  0.44551  0.82551  1.0000
  H   H922      1.0  0.64058  0.54399  0.65098  1.0000
  H   H923      1.0  0.93947  0.64612  0.53204  1.0000
  C   C1145     1.0  0.96640  0.42988  0.86812  1.0000
  H   H924      1.0  0.59669  0.37539  0.81901  1.0000
  H   H925      1.0  0.88838  0.61653  0.69178  1.0000
  C   C1146     1.0  0.99022  0.43597  0.72920  1.0000
  C   C1147     1.0  0.81753  0.59276  0.74011  1.0000
  C   C1148     1.0  0.82150  0.57160  0.72155  1.0000
  C   C1149     1.0  0.83843  0.55939  0.73460  1.0000
  C   C1150     1.0  0.85126  0.56812  0.76634  1.0000
  C   C1151     1.0  0.84675  0.58877  0.78524  1.0000
  C   C1152     1.0  0.83021  0.60139  0.77192  1.0000
  H   H926      1.0  0.81239  0.56545  0.69667  1.0000
  H   H927      1.0  0.84157  0.54321  0.71999  1.0000
  H   H928      1.0  0.85656  0.59556  0.80977  1.0000
  H   H929      1.0  0.82722  0.61782  0.78629  1.0000
  C   C1153     1.0  0.63727  0.45555  0.70021  1.0000
  C   C1154     1.0  0.61518  0.43451  0.72216  1.0000
  C   C1155     1.0  0.58692  0.41262  0.71025  1.0000
  C   C1156     1.0  0.58053  0.41200  0.67627  1.0000
  C   C1157     1.0  0.60252  0.43310  0.65426  1.0000
  C   C1158     1.0  0.63087  0.45483  0.66620  1.0000
  H   H930      1.0  0.61979  0.43534  0.74851  1.0000
  H   H931      1.0  0.57002  0.39641  0.72738  1.0000
  H   H932      1.0  0.59763  0.43269  0.62793  1.0000
  H   H933      1.0  0.64778  0.47082  0.64903  1.0000
  C   C1159     1.0  0.67197  0.61886  0.66247  1.0000
  C   C1160     1.0  0.65985  0.63705  0.65247  1.0000
  C   C1161     1.0  0.64670  0.64787  0.67616  1.0000
  C   C1162     1.0  0.64551  0.64045  0.71009  1.0000
  C   C1163     1.0  0.65701  0.62175  0.71987  1.0000
  C   C1164     1.0  0.67024  0.61109  0.69631  1.0000
  H   H934      1.0  0.66086  0.64297  0.62632  1.0000
  H   H935      1.0  0.63782  0.66218  0.66829  1.0000
  C   C1165     1.0  0.54981  0.68247  0.90786  1.0000
  H   H936      1.0  0.67894  0.59677  0.70440  1.0000
  H   H937      1.0  0.94114  0.45280  0.76939  1.0000
  H   H938      1.0  0.53282  0.57961  0.68067  1.0000
  H   H939      1.0  0.89125  0.56473  0.70229  1.0000
  H   H940      1.0  0.55538  0.65919  0.99338  1.0000
  H   H941      1.0  0.99992  0.51608  0.73112  1.0000
  C   C1166     1.0  0.82842  0.59191  0.52652  1.0000
  C   C1167     1.0  0.56427  0.53040  0.68869  1.0000
  C   C1168     1.0  0.65084  0.39973  0.75784  1.0000
  C   C1169     1.0  0.57911  0.51616  0.70276  1.0000
  C   C1170     1.0  0.60634  0.52077  0.68896  1.0000
  H   H942      1.0  0.70031  0.57079  0.95145  1.0000
  C   C1171     1.0  0.82818  0.57432  0.97785  1.0000
  Fe  Fe82      1.0  0.89231  0.35558  0.80625  1.0000
  H   H943      1.0  0.90665  0.62244  0.74773  1.0000
  H   H944      1.0  0.61212  0.35757  0.59598  1.0000
  H   H945      1.0  0.61765  0.50962  0.69971  1.0000
  C   C1172     1.0  0.64131  0.37219  0.74120  1.0000
  H   H946      1.0  0.57002  0.68299  0.91651  1.0000
  H   H947      1.0  0.97020  0.54053  0.84056  1.0000
  H   H948      1.0  0.94387  0.41709  0.87873  1.0000
  C   C1173     1.0  0.93728  0.58726  0.71734  1.0000
  C   C1174     1.0  0.99086  0.43267  0.88596  1.0000
  C   C1175     1.0  0.91950  0.61869  0.57627  1.0000
  C   C1176     1.0  0.80068  0.57082  0.98999  1.0000
  C   C1177     1.0  0.95117  0.61197  0.65271  1.0000
  H   H949      1.0  0.64249  0.42224  0.79887  1.0000
  H   H950      1.0  0.85193  0.36562  0.55271  1.0000
  C   C1178     1.0  0.97636  0.53516  0.81649  1.0000
  H   H951      1.0  0.56972  0.50152  0.72447  1.0000
  C   C1179     1.0  0.62616  0.37424  0.57732  1.0000
  H   H952      1.0  0.92454  0.39044  0.68917  1.0000
  C   C1180     1.0  0.93738  0.63609  0.78871  1.0000
  C   C1181     1.0  0.57045  0.58895  0.77884  1.0000
  H   H953      1.0  0.98500  0.61354  0.72614  1.0000
  H   H954      1.0  0.94096  0.61689  0.78627  1.0000
  C   C1182     1.0  0.97415  0.61960  0.67583  1.0000
  H   H955      1.0  0.79733  0.58886  0.56574  1.0000
  H   H956      1.0  0.96956  0.56755  0.78902  1.0000
  H   H957      1.0  0.90629  0.41493  0.72984  1.0000
  H   H958      1.0  0.97801  0.40330  0.68941  1.0000
  H   H959      1.0  0.78309  0.56660  0.97258  1.0000
  H   H960      1.0  0.98475  0.50170  0.83758  1.0000
  H   H961      1.0  0.85685  0.60156  0.59007  1.0000
  C   C1183     1.0  0.91174  0.66283  0.77162  1.0000
  H   H962      1.0  0.83261  0.44811  0.88122  1.0000
  C   C1184     1.0  0.99344  0.52138  0.75507  1.0000
  C   C1185     1.0  0.00231  0.56829  0.91193  1.0000
  H   H963      1.0  0.66983  0.42055  0.74823  1.0000
  C   C1186     1.0  0.99267  0.51696  0.90478  1.0000
  C   C1187     1.0  0.98460  0.54338  0.75673  1.0000
  C   C1188     1.0  0.60956  0.37449  0.79767  1.0000
  H   H964      1.0  0.90839  0.55107  0.52083  1.0000
  C   C1189     1.0  0.86153  0.54355  0.63667  1.0000
  C   C1190     1.0  0.86832  0.52150  0.64803  1.0000
  C   C1191     1.0  0.84590  0.49091  0.64965  1.0000
  C   C1192     1.0  0.81673  0.48196  0.63921  1.0000
  C   C1193     1.0  0.63887  0.39022  0.51943  1.0000
  P   P39       1.0  0.89094  0.58285  0.63256  1.0000
  C   C1194     1.0  0.91789  0.63915  0.76710  1.0000
  H   H965      1.0  0.53493  0.60851  0.96829  1.0000
  C   C1195     1.0  0.97075  0.44266  0.83615  1.0000
  C   C1196     1.0  0.92563  0.59925  0.52303  1.0000
  S   S164      1.0  0.57556  0.67735  0.69344  1.0000
  H   H966      1.0  0.97732  0.49267  0.90655  1.0000
  C   C1197     1.0  0.95115  0.65699  0.81450  1.0000
  C   C1198     1.0  0.54324  0.63946  0.00921  1.0000
  C   C1199     1.0  0.94018  0.40765  0.70608  1.0000
  C   C1200     1.0  0.56490  0.56724  0.75415  1.0000
  C   C1201     1.0  0.96721  0.60730  0.70815  1.0000
  H   H967      1.0  0.89100  0.52780  0.65517  1.0000
  H   H968      1.0  0.85125  0.47410  0.65865  1.0000
  H   H969      1.0  0.79936  0.45827  0.64022  1.0000
  H   H970      1.0  0.86782  0.65072  0.92012  1.0000
  H   H971      1.0  0.83991  0.61644  0.52530  1.0000
  H   H972      1.0  0.65340  0.37181  0.71890  1.0000
  C   C1202     1.0  0.80987  0.50365  0.62752  1.0000
  C   C1203     1.0  0.80549  0.37075  0.52051  1.0000
  C   C1204     1.0  0.85906  0.61180  0.61448  1.0000
  H   H973      1.0  0.89562  0.66438  0.75568  1.0000
  C   C1205     1.0  0.98292  0.53703  0.91485  1.0000
  C   C1206     1.0  0.53159  0.61066  0.99480  1.0000
  H   H974      1.0  0.96021  0.52837  0.92465  1.0000
  H   H975      1.0  0.99456  0.58382  0.91943  1.0000
  C   C1207     1.0  0.73331  0.42980  0.71463  1.0000
  C   C1208     1.0  0.74628  0.45917  0.70146  1.0000
  C   C1209     1.0  0.77696  0.47946  0.70575  1.0000
  C   C1210     1.0  0.79473  0.47048  0.72315  1.0000
  C   C1211     1.0  0.78194  0.44092  0.73623  1.0000
  C   C1212     1.0  0.75096  0.42076  0.73223  1.0000
  P   P40       1.0  0.80404  0.43039  0.76198  1.0000
  C   C1213     1.0  0.79430  0.39126  0.75509  1.0000
  C   C1214     1.0  0.84339  0.45343  0.75016  1.0000
  C   C1215     1.0  0.86155  0.48150  0.76570  1.0000
  C   C1216     1.0  0.89192  0.49936  0.75643  1.0000
  C   C1217     1.0  0.90436  0.48949  0.73142  1.0000
  C   C1218     1.0  0.88644  0.46168  0.71566  1.0000
  C   C1219     1.0  0.85610  0.44369  0.72495  1.0000
  C   C1220     1.0  0.80229  0.37608  0.77858  1.0000
  S   S165      1.0  0.54528  0.38509  0.66075  1.0000
  H   H976      1.0  0.75434  0.59972  0.96635  1.0000
  H   H977      1.0  0.68674  0.44579  0.57227  1.0000
  H   H978      1.0  0.98446  0.55512  0.73422  1.0000
  C   C1221     1.0  0.79869  0.43732  0.80546  1.0000
  C   C1222     1.0  0.81900  0.43897  0.82969  1.0000
  C   C1223     1.0  0.81629  0.44619  0.86290  1.0000
  C   C1224     1.0  0.79312  0.45173  0.87233  1.0000
  C   C1225     1.0  0.77252  0.44986  0.84855  1.0000
  C   C1226     1.0  0.77529  0.44277  0.81524  1.0000
  H   H979      1.0  0.70945  0.41430  0.71162  1.0000
  H   H980      1.0  0.73246  0.46638  0.68837  1.0000
  H   H981      1.0  0.78694  0.50240  0.69594  1.0000
  H   H982      1.0  0.81827  0.48689  0.72686  1.0000
  H   H983      1.0  0.74035  0.39828  0.74330  1.0000
  H   H984      1.0  0.85237  0.48963  0.78515  1.0000
  H   H985      1.0  0.90583  0.52072  0.76905  1.0000
  H   H986      1.0  0.92792  0.50320  0.72452  1.0000
  H   H987      1.0  0.89619  0.45386  0.69653  1.0000
  H   H988      1.0  0.84279  0.42211  0.71261  1.0000
  H   H989      1.0  0.81307  0.38681  0.80173  1.0000
  H   H990      1.0  0.58337  0.56423  0.74548  1.0000
  S   S166      1.0  0.00037  0.38302  0.79316  1.0000
  C   C1227     1.0  0.99412  0.50642  0.78428  1.0000
  H   H991      1.0  0.77721  0.38866  0.70506  1.0000
  C   C1228     1.0  0.78216  0.37699  0.72438  1.0000
  C   C1229     1.0  0.90175  0.56491  0.56988  1.0000
  H   H992      1.0  0.79149  0.45797  0.89797  1.0000
  H   H993      1.0  0.75478  0.45455  0.85583  1.0000
  H   H994      1.0  0.75943  0.44222  0.79731  1.0000
  C   C1230     1.0  0.83209  0.53429  0.62630  1.0000
  H   H995      1.0  0.65573  0.61553  0.74590  1.0000
  H   H996      1.0  0.55993  0.67992  0.85575  1.0000
  P   P41       1.0  0.52889  0.52394  0.70669  1.0000
  H   H997      1.0  0.83310  0.63279  0.60074  1.0000
  H   H998      1.0  0.92232  0.63778  0.59116  1.0000
  H   H999      1.0  0.78730  0.49683  0.61918  1.0000
  H   H1000     1.0  0.78234  0.38948  0.54870  1.0000
  C   C1231     1.0  0.53618  0.55076  0.74007  1.0000
  H   H1001     1.0  0.00400  0.37056  0.86419  1.0000
  S   S167      1.0  0.57305  0.67350  0.77521  1.0000
  C   C1232     1.0  0.80439  0.57637  0.54956  1.0000
  H   H1002     1.0  0.93169  0.57778  0.74243  1.0000
  S   S168      1.0  0.63068  0.65428  0.74158  1.0000
  C   C1233     1.0  0.02188  0.52816  0.89179  1.0000
  C   C1234     1.0  0.60498  0.55474  0.64766  1.0000
  H   H1003     1.0  0.95131  0.43951  0.82257  1.0000
  C   C1235     1.0  0.94012  0.68469  0.88965  1.0000
  C   C1236     1.0  0.79665  0.39229  0.52719  1.0000
  C   C1237     1.0  0.63851  0.48618  0.80088  1.0000
  C   C1238     1.0  0.62670  0.46566  0.82758  1.0000
  C   C1239     1.0  0.64356  0.47085  0.85660  1.0000
  C   C1240     1.0  0.67203  0.49682  0.85911  1.0000
  C   C1241     1.0  0.68344  0.51818  0.83293  1.0000
  C   C1242     1.0  0.66686  0.51217  0.80337  1.0000
  P   P42       1.0  0.72075  0.55093  0.83502  1.0000
  C   C1243     1.0  0.72137  0.58110  0.81075  1.0000
  C   C1244     1.0  0.73116  0.56639  0.87669  1.0000
  C   C1245     1.0  0.70905  0.56231  0.90062  1.0000
  C   C1246     1.0  0.71740  0.57430  0.93286  1.0000
  C   C1247     1.0  0.74784  0.59082  0.94123  1.0000
  C   C1248     1.0  0.76998  0.59590  0.91717  1.0000
  C   C1249     1.0  0.76172  0.58424  0.88486  1.0000
  C   C1250     1.0  0.69748  0.58709  0.81402  1.0000
  C   C1251     1.0  0.69742  0.61017  0.79512  1.0000
  C   C1252     1.0  0.72123  0.62747  0.77291  1.0000
  C   C1253     1.0  0.74546  0.62217  0.77023  1.0000
  C   C1254     1.0  0.74570  0.59923  0.78927  1.0000
  C   C1255     1.0  0.74532  0.53814  0.81794  1.0000
  C   C1256     1.0  0.76296  0.53127  0.83892  1.0000
  C   C1257     1.0  0.78140  0.52081  0.82528  1.0000
  C   C1258     1.0  0.78141  0.51587  0.79087  1.0000
  C   C1259     1.0  0.76309  0.52157  0.77004  1.0000
  C   C1260     1.0  0.74514  0.53268  0.78344  1.0000
  H   H1004     1.0  0.62597  0.48185  0.77792  1.0000
  C   C1261     1.0  0.90515  0.58922  0.58989  1.0000
  H   H1005     1.0  0.63463  0.45466  0.87707  1.0000
  H   H1006     1.0  0.68517  0.50016  0.88136  1.0000
  H   H1007     1.0  0.67592  0.52731  0.78194  1.0000
  H   H1008     1.0  0.68540  0.55003  0.89445  1.0000
  H   H1009     1.0  0.56691  0.36174  0.00012  1.0000
  C   C1262     1.0  0.54749  0.59438  0.78964  1.0000
  H   H1010     1.0  0.79362  0.60857  0.92369  1.0000
  H   H1011     1.0  0.77926  0.58890  0.86642  1.0000
  H   H1012     1.0  0.67878  0.57381  0.83101  1.0000
  H   H1013     1.0  0.67886  0.61460  0.79754  1.0000
  H   H1014     1.0  0.72089  0.64496  0.75773  1.0000
  H   H1015     1.0  0.76396  0.63564  0.75304  1.0000
  H   H1016     1.0  0.76477  0.59562  0.78692  1.0000
  H   H1017     1.0  0.76269  0.53397  0.86580  1.0000
  H   H1018     1.0  0.79597  0.51685  0.84138  1.0000
  H   H1019     1.0  0.79607  0.50820  0.78035  1.0000
  H   H1020     1.0  0.76322  0.51814  0.74333  1.0000
  H   H1021     1.0  0.73121  0.53708  0.76678  1.0000
  C   C1263     1.0  0.57761  0.55002  0.66122  1.0000
  C   C1264     1.0  0.98018  0.45015  0.75220  1.0000
  C   C1265     1.0  0.92551  0.68379  0.79746  1.0000
  C   C1266     1.0  0.97029  0.41483  0.70631  1.0000
  C   C1267     1.0  0.85055  0.57919  0.00074  1.0000
  C   C1268     1.0  0.66835  0.42403  0.56416  1.0000
  H   H1022     1.0  0.78676  0.50417  0.53077  1.0000
  C   C1269     1.0  0.92950  0.62360  0.54290  1.0000
  H   H1023     1.0  0.94362  0.64655  0.95797  1.0000
  H   H1024     1.0  0.83735  0.43530  0.82280  1.0000
  H   H1025     1.0  0.95709  0.62194  0.62793  1.0000
  H   H1026     1.0  0.89070  0.54196  0.57957  1.0000
  C   C1270     1.0  0.92099  0.59197  0.66182  1.0000
  H   H1027     1.0  0.96526  0.65376  0.83201  1.0000
  H   H1028     1.0  0.83657  0.65556  0.65674  1.0000
  C   C1271     1.0  0.97614  0.55033  0.78750  1.0000
  Fe  Fe83      1.0  0.54312  0.67268  0.73467  1.0000
  C   C1272     1.0  0.92993  0.42152  0.72887  1.0000
  C   C1273     1.0  0.99991  0.45965  0.82231  1.0000
  C   C1274     1.0  0.78927  0.54468  0.55127  1.0000
  C   C1275     1.0  0.61923  0.54001  0.66139  1.0000
  C   C1276     1.0  0.94980  0.44272  0.75171  1.0000
  C   C1277     1.0  0.54407  0.68061  0.87359  1.0000
  H   H1029     1.0  0.87174  0.58173  0.99185  1.0000
  C   C1278     1.0  0.66293  0.41797  0.53001  1.0000
  H   H1030     1.0  0.59297  0.60247  0.78865  1.0000
  C   C1279     1.0  0.62003  0.36823  0.54304  1.0000
  C   C1280     1.0  0.64999  0.40213  0.58781  1.0000
  C   C1281     1.0  0.84783  0.64264  0.65177  1.0000
  C   C1282     1.0  0.84565  0.62957  0.62036  1.0000
  C   C1283     1.0  0.86379  0.63830  0.67713  1.0000
  H   H1031     1.0  0.98724  0.42162  0.91010  1.0000
  H   H1032     1.0  0.82611  0.55042  0.61665  1.0000
  H   H1033     1.0  0.99737  0.63529  0.66876  1.0000
  C   C1284     1.0  0.91428  0.57981  0.69440  1.0000
  H   H1034     1.0  0.65403  0.40699  0.61431  1.0000
  C   C1285     1.0  0.87463  0.60678  0.64008  1.0000
  H   H1035     1.0  0.86472  0.64785  0.70169  1.0000
  C   C1286     1.0  0.79839  0.52869  0.52969  1.0000
  H   H1036     1.0  0.55218  0.61186  0.80803  1.0000
  C   C1287     1.0  0.63522  0.40078  0.78633  1.0000
  C   C1288     1.0  0.01624  0.64394  0.85976  1.0000
  H   H1037     1.0  0.97528  0.67860  0.91149  1.0000
  C   C1289     1.0  0.52991  0.68441  0.93072  1.0000
  P   P43       1.0  0.00550  0.47802  0.78184  1.0000
  C   C1290     1.0  0.93427  0.65541  0.94000  1.0000
  C   C1291     1.0  0.90400  0.64755  0.94259  1.0000
  H   H1038     1.0  0.88990  0.63286  0.96270  1.0000
  C   C1292     1.0  0.95226  0.67382  0.91359  1.0000
  Fe  Fe84      1.0  0.60684  0.68154  0.73450  1.0000
  C   C1293     1.0  0.94588  0.68136  0.81861  1.0000
  H   H1039     1.0  0.57114  0.36727  0.57805  1.0000
  C   C1294     1.0  0.89159  0.65783  0.91859  1.0000
  S   S169      1.0  0.92320  0.35704  0.84641  1.0000
  H   H1040     1.0  0.01315  0.44057  0.72896  1.0000
  C   C1295     1.0  0.90951  0.67622  0.89210  1.0000
  H   H1041     1.0  0.53454  0.68632  0.95726  1.0000
  H   H1042     1.0  0.89933  0.68328  0.87317  1.0000
  C   C1296     1.0  0.02658  0.38529  0.85458  1.0000
  C   C1297     1.0  0.02452  0.46321  0.84108  1.0000
  H   H1043     1.0  0.60123  0.35468  0.68840  1.0000
  Fe  Fe85      1.0  0.55852  0.87776  0.47268  1.0000
  H   H1044     1.0  0.55728  0.91592  0.27397  1.0000
  Fe  Fe86      1.0  0.60854  0.86295  0.45845  1.0000
  C   C1298     1.0  0.55212  0.85517  0.17117  1.0000
  S   S170      1.0  0.62975  0.84666  0.41880  1.0000
  H   H1045     1.0  0.59376  0.79460  0.51303  1.0000
  C   C1299     1.0  0.65528  0.98962  0.03649  1.0000
  Fe  Fe87      1.0  0.57160  0.84731  0.02128  1.0000
  C   C1300     1.0  0.53122  0.78738  0.22038  1.0000
  H   H1046     1.0  0.59300  0.79547  0.21315  1.0000
  S   S171      1.0  0.60175  0.90159  0.44348  1.0000
  S   S172      1.0  0.57592  0.89326  0.03043  1.0000
  C   C1301     1.0  0.66683  0.00590  0.51308  1.0000
  Fe  Fe88      1.0  0.58456  0.71962  0.27805  1.0000
  S   S173      1.0  0.62729  0.73136  0.24888  1.0000
  S   S174      1.0  0.56939  0.72669  0.32992  1.0000
  Fe  Fe89      1.0  0.60334  0.73631  0.20403  1.0000
  S   S175      1.0  0.62738  0.77572  0.16733  1.0000
  H   H1047     1.0  0.53738  0.77052  0.11787  1.0000
  H   H1048     1.0  0.62703  0.87123  0.12804  1.0000
  S   S176      1.0  0.56304  0.72852  0.23441  1.0000
  C   C1302     1.0  0.59101  0.82770  0.24727  1.0000
  C   C1303     1.0  0.57779  0.80206  0.09097  1.0000
  C   C1304     1.0  0.60912  0.81500  0.08914  1.0000
  C   C1305     1.0  0.62404  0.80673  0.11269  1.0000
  C   C1306     1.0  0.60782  0.78543  0.13812  1.0000
  C   C1307     1.0  0.57654  0.77259  0.13993  1.0000
  C   C1308     1.0  0.56161  0.78069  0.11633  1.0000
  H   H1049     1.0  0.62182  0.83143  0.06974  1.0000
  H   H1050     1.0  0.64829  0.81688  0.11122  1.0000
  H   H1051     1.0  0.56390  0.75662  0.15969  1.0000
  C   C1309     1.0  0.61274  0.72515  0.40404  1.0000
  C   C1310     1.0  0.61248  0.81281  0.39494  1.0000
  C   C1311     1.0  0.62814  0.81036  0.36697  1.0000
  C   C1312     1.0  0.61518  0.78422  0.34675  1.0000
  C   C1313     1.0  0.58651  0.76011  0.35451  1.0000
  C   C1314     1.0  0.57115  0.76215  0.38305  1.0000
  C   C1315     1.0  0.58399  0.78844  0.40314  1.0000
  H   H1052     1.0  0.65041  0.82890  0.36082  1.0000
  H   H1053     1.0  0.62748  0.78250  0.32540  1.0000
  C   C1316     1.0  0.62787  0.81095  0.24963  1.0000
  H   H1054     1.0  0.57187  0.78991  0.42482  1.0000
  C   C1317     1.0  0.61805  0.74355  0.47120  1.0000
  H   H1055     1.0  0.55778  0.70873  0.12796  1.0000
  H   H1056     1.0  0.63910  0.86090  0.31232  1.0000
  C   C1318     1.0  0.58761  0.98816  0.07667  1.0000
  H   H1057     1.0  0.61055  0.71862  0.37788  1.0000
  H   H1058     1.0  0.53802  0.77271  0.26854  1.0000
  H   H1059     1.0  0.60842  0.98826  0.08142  1.0000
  C   C1319     1.0  0.58800  0.68965  0.08408  1.0000
  C   C1320     1.0  0.64366  0.75498  0.45015  1.0000
  C   C1321     1.0  0.57665  0.97071  0.50806  1.0000
  H   H1060     1.0  0.56496  0.84612  0.37984  1.0000
  H   H1061     1.0  0.64955  0.71794  0.49964  1.0000
  C   C1322     1.0  0.65115  0.81541  0.49029  1.0000
  H   H1062     1.0  0.97473  0.69067  0.37780  1.0000
  C   C1323     1.0  0.53423  0.69414  0.12231  1.0000
  S   S177      1.0  0.63329  0.88644  0.50568  1.0000
  H   H1063     1.0  0.56587  0.94351  0.05480  1.0000
  H   H1064     1.0  0.59554  0.85990  0.28595  1.0000
  S   S178      1.0  0.56315  0.83704  0.48383  1.0000
  C   C1324     1.0  0.64195  0.70649  0.11751  1.0000
  C   C1325     1.0  0.58724  0.71328  0.42494  1.0000
  H   H1065     1.0  0.66568  0.77122  0.45947  1.0000
  C   C1326     1.0  0.59810  0.85255  0.17146  1.0000
  C   C1327     1.0  0.54493  0.82527  0.37263  1.0000
  C   C1328     1.0  0.63523  0.72868  0.10734  1.0000
  H   H1066     1.0  0.63555  0.80700  0.46966  1.0000
  H   H1067     1.0  0.72433  0.69289  0.25642  1.0000
  C   C1329     1.0  0.55781  0.01312  0.07931  1.0000
  C   C1330     1.0  0.52716  0.96533  0.50246  1.0000
  C   C1331     1.0  0.55709  0.87677  0.25264  1.0000
  C   C1332     1.0  0.57087  0.84641  0.18718  1.0000
  C   C1333     1.0  0.64093  0.74598  0.41663  1.0000
  H   H1068     1.0  0.64594  0.96771  0.04862  1.0000
  H   H1069     1.0  0.56923  0.81108  0.33966  1.0000
  C   C1334     1.0  0.54733  0.80557  0.34992  1.0000
  C   C1335     1.0  0.01460  0.76371  0.40473  1.0000
  C   C1336     1.0  0.56364  0.96293  0.06186  1.0000
  C   C1337     1.0  0.60279  0.80982  0.23482  1.0000
  H   H1070     1.0  0.60337  0.73796  0.08379  1.0000
  C   C1338     1.0  0.56024  0.86935  0.13977  1.0000
  C   C1339     1.0  0.56070  0.70882  0.03278  1.0000
  C   C1340     1.0  0.57563  0.96136  0.47492  1.0000
  S   S179      1.0  0.65575  0.97452  0.48581  1.0000
  S   S180      1.0  0.55752  0.81153  0.06247  1.0000
  C   C1341     1.0  0.54414  0.84504  0.25363  1.0000
  C   C1342     1.0  0.53340  0.98766  0.06472  1.0000
  H   H1071     1.0  0.63718  0.79751  0.23939  1.0000
  C   C1343     1.0  0.02453  0.69520  0.31724  1.0000
  C   C1344     1.0  0.60627  0.86705  0.14029  1.0000
  C   C1345     1.0  0.60839  0.72037  0.09074  1.0000
  H   H1072     1.0  0.56539  0.69754  0.41481  1.0000
  C   C1346     1.0  0.66756  0.01636  0.05589  1.0000
  C   C1347     1.0  0.55029  0.95363  0.45567  1.0000
  H   H1073     1.0  0.57543  0.89029  0.23529  1.0000
  C   C1348     1.0  0.00585  0.79981  0.37450  1.0000
  C   C1349     1.0  0.01430  0.70144  0.34749  1.0000
  H   H1074     1.0  0.66050  0.83033  0.28884  1.0000
  H   H1075     1.0  0.61305  0.84597  0.18266  1.0000
  H   H1076     1.0  0.65056  0.75238  0.11300  1.0000
  H   H1077     1.0  0.59335  0.88562  0.09973  1.0000
  C   C1350     1.0  0.53676  0.96271  0.05580  1.0000
  C   C1351     1.0  0.60421  0.84610  0.27543  1.0000
  C   C1352     1.0  0.58983  0.72233  0.45846  1.0000
  H   H1078     1.0  0.59416  0.95919  0.46452  1.0000
  H   H1079     1.0  0.99447  0.78838  0.42660  1.0000
  C   C1353     1.0  0.00416  0.78444  0.40413  1.0000
  C   C1354     1.0  0.67268  0.84629  0.49125  1.0000
  H   H1080     1.0  0.74560  0.68746  0.20230  1.0000
  H   H1081     1.0  0.99762  0.81575  0.37404  1.0000
  H   H1082     1.0  0.66741  0.01468  0.08290  1.0000
  H   H1083     1.0  0.66059  0.75549  0.40023  1.0000
  C   C1355     1.0  0.58729  0.87522  0.12433  1.0000
  H   H1084     1.0  0.67355  0.86132  0.47151  1.0000
  H   H1085     1.0  0.54901  0.94506  0.43049  1.0000
  C   C1356     1.0  0.62909  0.84688  0.29044  1.0000
  C   C1357     1.0  0.54375  0.72368  0.03331  1.0000
  H   H1086     1.0  0.66265  0.71304  0.13067  1.0000
  P   P44       1.0  0.55922  0.82674  0.22703  1.0000
  S   S181      1.0  0.58297  0.68761  0.18736  1.0000
  H   H1087     1.0  0.01248  0.75162  0.42776  1.0000
  Fe  Fe90      1.0  0.62329  0.92365  0.49216  1.0000
  C   C1358     1.0  0.58477  0.01328  0.08524  1.0000
  C   C1359     1.0  0.54699  0.89141  0.27467  1.0000
  H   H1088     1.0  0.54911  0.74341  0.38952  1.0000
  C   C1360     1.0  0.64110  0.82956  0.27733  1.0000
  H   H1089     1.0  0.56977  0.71306  0.47414  1.0000
  C   C1361     1.0  0.01785  0.79434  0.34536  1.0000
  H   H1090     1.0  0.54538  0.87533  0.12703  1.0000
  H   H1091     1.0  0.53090  0.85042  0.18261  1.0000
  H   H1092     1.0  0.01887  0.80600  0.32229  1.0000
  P   P45       1.0  0.62175  0.75580  0.51429  1.0000
  Fe  Fe91      1.0  0.53965  0.87879  0.99241  1.0000
  H   H1093     1.0  0.00550  0.73583  0.90742  1.0000
  Fe  Fe92      1.0  0.56766  0.85105  0.94534  1.0000
  S   S182      1.0  0.60696  0.86427  0.97953  1.0000
  S   S183      1.0  0.55634  0.83011  0.89315  1.0000
  H   H1094     1.0  0.66488  0.79135  0.95108  1.0000
  S   S184      1.0  0.56970  0.84049  0.58106  1.0000
  Fe  Fe93      1.0  0.60805  0.90947  0.98640  1.0000
  S   S185      1.0  0.64543  0.95857  0.97607  1.0000
  H   H1095     1.0  0.65700  0.68843  0.59785  1.0000
  S   S186      1.0  0.57155  0.89686  0.94896  1.0000
  C   C1362     1.0  0.94843  0.77837  0.86996  1.0000
  C   C1363     1.0  0.95865  0.79459  0.83990  1.0000
  Fe  Fe94      1.0  0.59102  0.72355  0.77713  1.0000
  S   S187      1.0  0.62773  0.73213  0.73963  1.0000
  S   S188      1.0  0.59991  0.74303  0.82997  1.0000
  Fe  Fe95      1.0  0.59411  0.72781  0.70088  1.0000
  S   S189      1.0  0.61466  0.76059  0.65693  1.0000
  H   H1096     1.0  0.73354  0.00677  0.61580  1.0000
  C   C1364     1.0  0.53825  0.71974  0.55900  1.0000
  S   S190      1.0  0.55871  0.72269  0.73901  1.0000
  C   C1365     1.0  0.57429  0.97397  0.94798  1.0000
  C   C1366     1.0  0.58234  0.81824  0.60182  1.0000
  C   C1367     1.0  0.60902  0.81891  0.59221  1.0000
  C   C1368     1.0  0.61857  0.80130  0.60970  1.0000
  C   C1369     1.0  0.60142  0.78248  0.63651  1.0000
  C   C1370     1.0  0.57468  0.78172  0.64612  1.0000
  C   C1371     1.0  0.56531  0.79971  0.62894  1.0000
  H   H1097     1.0  0.62245  0.83321  0.57156  1.0000
  H   H1098     1.0  0.63950  0.80240  0.60264  1.0000
  H   H1099     1.0  0.56134  0.76739  0.66677  1.0000
  H   H1100     1.0  0.57977  0.77521  0.97100  1.0000
  C   C1372     1.0  0.56718  0.80463  0.87639  1.0000
  C   C1373     1.0  0.56015  0.79485  0.84307  1.0000
  C   C1374     1.0  0.56919  0.77523  0.82869  1.0000
  C   C1375     1.0  0.58557  0.76542  0.84754  1.0000
  C   C1376     1.0  0.59194  0.77465  0.88107  1.0000
  C   C1377     1.0  0.58275  0.79413  0.89544  1.0000
  H   H1101     1.0  0.54807  0.80289  0.82813  1.0000
  H   H1102     1.0  0.56419  0.76831  0.80284  1.0000
  H   H1103     1.0  0.60460  0.76716  0.89579  1.0000
  H   H1104     1.0  0.58825  0.80165  0.92099  1.0000
  C   C1378     1.0  0.65884  0.00257  0.54713  1.0000
  H   H1105     1.0  0.58587  0.90406  0.63169  1.0000
  C   C1379     1.0  0.63296  0.73421  0.54040  1.0000
  C   C1380     1.0  0.00190  0.71911  0.85677  1.0000
  P   P46       1.0  0.55313  0.98255  0.56578  1.0000
  C   C1381     1.0  0.62910  0.85337  0.75554  1.0000
  C   C1382     1.0  0.62157  0.82343  0.74865  1.0000
  C   C1383     1.0  0.62845  0.80728  0.77168  1.0000
  C   C1384     1.0  0.64292  0.82093  0.80151  1.0000
  C   C1385     1.0  0.65058  0.85098  0.80871  1.0000
  C   C1386     1.0  0.64363  0.86714  0.78536  1.0000
  P   P47       1.0  0.67177  0.87004  0.84572  1.0000
  C   C1387     1.0  0.66771  0.84372  0.87853  1.0000
  C   C1388     1.0  0.71145  0.89158  0.83504  1.0000
  C   C1389     1.0  0.73300  0.90017  0.86032  1.0000
  C   C1390     1.0  0.76377  0.91638  0.85231  1.0000
  C   C1391     1.0  0.77328  0.92403  0.81901  1.0000
  C   C1392     1.0  0.75203  0.91552  0.79370  1.0000
  C   C1393     1.0  0.72123  0.89937  0.80163  1.0000
  C   C1394     1.0  0.65369  0.84309  0.90931  1.0000
  C   C1395     1.0  0.65276  0.82431  0.93538  1.0000
  C   C1396     1.0  0.59138  0.74197  0.98719  1.0000
  C   C1397     1.0  0.67961  0.80637  0.90040  1.0000
  C   C1398     1.0  0.68095  0.82542  0.87446  1.0000
  C   C1399     1.0  0.65871  0.89477  0.86201  1.0000
  C   C1400     1.0  0.62809  0.88602  0.85999  1.0000
  C   C1401     1.0  0.61731  0.90390  0.87453  1.0000
  C   C1402     1.0  0.63686  0.93037  0.89169  1.0000
  C   C1403     1.0  0.66729  0.93911  0.89414  1.0000
  C   C1404     1.0  0.67827  0.92147  0.87927  1.0000
  H   H1106     1.0  0.62383  0.86591  0.73760  1.0000
  H   H1107     1.0  0.61052  0.81270  0.72545  1.0000
  H   H1108     1.0  0.62239  0.78399  0.76656  1.0000
  H   H1109     1.0  0.64767  0.80764  0.81880  1.0000
  H   H1110     1.0  0.64974  0.89052  0.79003  1.0000
  H   H1111     1.0  0.72602  0.89430  0.88626  1.0000
  H   H1112     1.0  0.78024  0.92288  0.87194  1.0000
  H   H1113     1.0  0.79714  0.93643  0.81280  1.0000
  H   H1114     1.0  0.75940  0.92122  0.76784  1.0000
  H   H1115     1.0  0.70527  0.89281  0.78153  1.0000
  H   H1116     1.0  0.64331  0.85692  0.91343  1.0000
  H   H1117     1.0  0.64192  0.82402  0.95902  1.0000
  C   C1405     1.0  0.58653  0.96955  0.61137  1.0000
  C   C1406     1.0  0.65457  0.70145  0.54708  1.0000
  H   H1118     1.0  0.69241  0.82594  0.85123  1.0000
  H   H1119     1.0  0.61229  0.86491  0.84804  1.0000
  H   H1120     1.0  0.59350  0.89658  0.87345  1.0000
  H   H1121     1.0  0.62832  0.94371  0.90393  1.0000
  H   H1122     1.0  0.68211  0.95913  0.90848  1.0000
  H   H1123     1.0  0.70177  0.92839  0.88212  1.0000
  C   C1407     1.0  0.96019  0.74058  0.84850  1.0000
  C   C1408     1.0  0.57928  0.91910  0.62010  1.0000
  C   C1409     1.0  0.65029  0.70113  0.58179  1.0000
  H   H1124     1.0  0.98013  0.74957  0.79872  1.0000
  C   C1410     1.0  0.55125  0.76953  0.53841  1.0000
  H   H1125     1.0  0.68948  0.79200  0.89683  1.0000
  C   C1411     1.0  0.57847  0.77342  0.52542  1.0000
  C   C1412     1.0  0.62883  0.73378  0.57530  1.0000
  H   H1126     1.0  0.64482  0.98009  0.55758  1.0000
  C   C1413     1.0  0.55254  0.97302  0.52205  1.0000
  C   C1414     1.0  0.66564  0.80591  0.93090  1.0000
  C   C1415     1.0  0.01813  0.71704  0.82915  1.0000
  C   C1416     1.0  0.97098  0.75730  0.81863  1.0000
  H   H1127     1.0  0.59129  0.97371  0.99674  1.0000
  H   H1128     1.0  0.60993  0.74926  0.96944  1.0000
  H   H1129     1.0  0.94185  0.73965  0.89810  1.0000
  C   C1417     1.0  0.66949  0.02030  0.98629  1.0000
  C   C1418     1.0  0.94935  0.75154  0.87439  1.0000
  C   C1419     1.0  0.57433  0.75651  0.98787  1.0000
  C   C1420     1.0  0.58598  0.75055  0.52950  1.0000
  H   H1130     1.0  0.56017  0.98107  0.90007  1.0000
  H   H1131     1.0  0.61331  0.95934  0.64432  1.0000
  H   H1132     1.0  0.95795  0.81538  0.83653  1.0000
  C   C1421     1.0  0.67038  0.80749  0.54203  1.0000
  C   C1422     1.0  0.58680  0.98683  0.97875  1.0000
  C   C1423     1.0  0.56287  0.95789  0.58834  1.0000
  H   H1133     1.0  0.56856  0.95084  0.94259  1.0000
  H   H1134     1.0  0.57024  0.70515  0.54878  1.0000
  C   C1424     1.0  0.97003  0.78412  0.81429  1.0000
  S   S191      1.0  0.57929  0.90229  0.52013  1.0000
  H   H1135     1.0  0.54469  0.79915  0.63657  1.0000
  C   C1425     1.0  0.59395  0.01661  0.98612  1.0000
  Fe  Fe96      1.0  0.58705  0.86306  0.53011  1.0000
  C   C1426     1.0  0.63743  0.71731  0.59587  1.0000
  C   C1427     1.0  0.59469  0.95018  0.62711  1.0000
  H   H1136     1.0  0.00718  0.70726  0.80574  1.0000
  H   H1137     1.0  0.54616  0.78774  0.53633  1.0000
  C   C1428     1.0  0.56945  0.99101  0.92412  1.0000
  C   C1429     1.0  0.55576  0.90737  0.59731  1.0000
  H   H1138     1.0  0.61899  0.74625  0.58673  1.0000
  C   C1430     1.0  0.56529  0.72337  0.54574  1.0000
  H   H1139     1.0  0.66463  0.68893  0.53627  1.0000
  H   H1140     1.0  0.97825  0.79685  0.79110  1.0000
  H   H1141     1.0  0.63416  0.71727  0.62282  1.0000
  H   H1142     1.0  0.93990  0.78665  0.88996  1.0000
  C   C1431     1.0  0.69277  0.85788  0.51776  1.0000
  P   P48       1.0  0.96215  0.70639  0.85381  1.0000
  H   H1143     1.0  0.53811  0.75950  0.01226  1.0000
  H   H1144     1.0  0.91967  0.70135  0.80125  1.0000
  H   H1145     1.0  0.67008  0.79298  0.56193  1.0000
  C   C1432     1.0  0.54793  0.92672  0.58110  1.0000
  H   H1146     1.0  0.59927  0.99357  0.61673  1.0000
  H   H1147     1.0  0.59894  0.70810  0.00986  1.0000
  C   C1433     1.0  0.58489  0.71849  0.00987  1.0000
  C   C1434     1.0  0.01736  0.73315  0.88618  1.0000
  H   H1148     1.0  0.70717  0.84744  0.56376  1.0000
  C   C1435     1.0  0.64597  0.71794  0.52640  1.0000
  H   H1149     1.0  0.59604  0.97545  0.52295  1.0000
  H   H1150     1.0  0.54432  0.88336  0.59125  1.0000
  S   S192      1.0  0.53248  0.83197  0.98619  1.0000
  C   C1436     1.0  0.65672  0.99141  0.00152  1.0000
  C   C1437     1.0  0.69165  0.83847  0.54312  1.0000
  C   C1438     1.0  0.53135  0.74293  0.55558  1.0000
  C   C1439     1.0  0.55064  0.74747  0.01099  1.0000
  H   H1151     1.0  0.53064  0.91746  0.56228  1.0000
  H   H1152     1.0  0.70911  0.88192  0.51864  1.0000
  C   C1440     1.0  0.64972  0.79573  0.51577  1.0000
