data_image0
_chemical_formula_structural       FeCSPFeS2FeS2FeSFeCS2FeS2FeS2FeSFeS3C3HC7H4C6H3C5H2C6H4CHCHC2H3CH4C3HC3HC3HC7H2CH2CHC6PHC7H2CHC2SC3H11CH2CH2CH3CPC2HC2HC8HC2HCH9CHCH3CH6SCH2CHCH2CHCHC2HCHCH4CH5CHC11PC15HC2HCH14SH3C3PC11HC2HCH3C3H3CFeS2CFeS2FeS2FeSFeHS2FeS2FeS2FeSFeS3C3HC7H4C6H3C2H2CH2C6H6CH2CH2C10PC2H2CH2C5H2CH2CH5C2H2CH5CH3C4HC3PC18H18C6PC7H11C5PC7H2C4HC2H11C2HC6H4CHCH3CH2C2HC2SH2C3H4CH2CHCH2C3HSC2SH2CHC2PCHCHC2FeS2FeS2FeSFeS3FeS2FeS2FeSFeS3FeS2HCFeHCFeC2FeSFeS2C3H2C8H4C6H4C6H2CHC6H4C6H6CHC3H4C2H2C3H2CH2CHSC9HCH2CPCHCHPCHC2HSH2CH2CHC8H6C6PHCHC4H2C2HC6H2CH2C2H4C2SHC2H3PCSC7HCHCH5C2H2CH5C3HC2H2CH2C2HC3H2C3H2PC3HC5HCH2CHCHCH3C2H2CH4CHCHC5HSC2H5C3HC4H2C6H2C3HC4HC2FeHCH3CHCHC3H2PH3CH3C2H2C3H2CH3FeS2FeS2FeSFeS3FeS2FeS2FeSFeS3HS2CHFeH2FeC4FeS2H3C2H2C6H4C6H4C6H4C6H4C6H4C3H2CH3CHC6PC3HC3H4C5HCH5C2H4C2HCH2C5H5CH2C3FeCHCSC5H2C7H3C2H2C3H2CH2C2H9C5PH2CH2C3HCFeHCH2C7H3C2HCHCH5CPC2HPHC3SC2H3CH2C2HC2H2C2HCHC2HCHC2HC3HC4HCH3C9PC5H3CH3SC3S2PH5CHCHC2FeC4HCH4C5HCFeSPFeS2FeS2FeSFeCS2FeS2FeS2FeSFeS3C4HC6H4C6H4C4HC6H5C2H2C3HC5H2CPH3C2HCHC4HCH4CH2CH2C3H5CHC6HC2H5CHC3H3C2PCH3CHCSC2HC2HC2HC3PC2HCHCH2CHCHC3HC4H2CHPH3CHC2H5C9H4CH3C3HCH2CH3C2H2CHCHCHCH2C2HCHC3HC4HC2H6CH4C4PC2H6CHSC4HFeSHFeS2FeS2FeSFeHS2FeS2FeS2FeSFeS3CHCH2C6H4C6H4CHC2HC6H5C2H6C4PCH2C3HC2SC6H3CHC2H2C4HC2SCH5CHC2HCH3C6HCHC3H3C7PC6H9CHCHCHC3H2C3HC2HC3HCHC3HCHC2HC4PCHC3H2CH2CHCH2CH3C4HCHCH3CH3C2H6C2SHC2HC3SC3H3CHC2HPHC2H2C3H2C4HCSCFeSCFeS2CSCFeSFeSHSFeS2FeS2FeSFeS3CH2C7H3C7H7SHC6H4C4HCHCH2CH2C3H3CPC5HCHC4HC4HCH2CH9CPHCHC2HCHC3HCH2C8PC3H2C3HC2HC6H5CH4CH7C4HFeC4H2C2HC3HC3HC3PCHC6HC2HC2H2C3SHCH2CHCHC2H2CH2CH7CHCH2CHC2H2CH5C2HC2HC3HC2SCH4CHFeSCFeS2HSHFeSFeSHSFeS2FeS2FeSFeS3C2HC7H4C6H6CHC7H5SC3HCHSPC3SHC3HC4HC2H3C3HCHC3PH2CH3SH2CH2C2H4CH2C4HC3PC7H3C5H4CHCH6CPHC2HCHCHC6PC8H2C5HC2H15C2HCHC2H2C2H2C2HCHC2HC2HC4HCHSCHC3H4C3HC2H2C2H2C3H2CH3FeHCHC3H3CHCHC5HC3HCHCHCHCHC2H2CFeSFeS2FeS2C2FeSCFeS2FeSCFeSFeS3FeS2FeS2FeSFeHS2C6SH3C6H4C6H2CHCHC7H4C6H5CSC3H2C3H2C5H8SC3H3CHFeHC2SHCHCHCH3CHCFeHC3H2CH5C4HCHCH3CH2CH3PHC2H3CHCHSCH2CH3CH3CH4CHC3HC2HC3PC2H5C2HCSC7HCHCH6CHC6PC14H3CH8SCHCH2C2H2C5H2C3HC2HC3H2C2H2C3HSC2H2SFeS2FeS2FeHFeSCFeS2FeSHFeSFeS3FeS2FeS2FeSFeHS3H3CHCH3C6H4C6H2CH2C8H4C6H4C6H2C3H2FeCPH3CHC2PC5HC6HCH2CH3C2HCHC2HC4PC9HC9HC2H7FeHCH2CH3CHC3HPC2HCHC2H5CHC3H4CHC2HCHPC2H3C2HC2HC5H2CH3CH2CH2C2HCHCHCH2CHC2H2C2HCHCHC2HPC4H5C5SC2H2CHSC2HCHC2H5CHCH4C5H4CHPC3HSC4HC10H3CH2C4HPC5HSH3C3HCHC2H2C2H2C2H2CHC2HC2HC3FeHSCFeS2FeS2FeSFeS3FeS2FeSHFeSFeSHSCHCH2C6HCH2C6H4CHCHC7H6C3HC5H3C2HC2H2CHCSCHCH2C4H2C4PC7HC7H2CH5CH3CHCHC2HSH4CH2CHCHCH2CHC6PC12H2C2HCH6CHCH2CH4CHCHC2H2C7HCH3CHSCHCH3CHCH2C2H2C4HPH3C5HC2H2CH5PHCHCHC2H3C3HC2HC2HC2HC2H3CHCPCHCFeHSCFeS2FeS2FeSFeS3FeS2FeSCFeSFeS3HCPCHC6H2CHC6H4C2H3C6H5CHC4H4C2HC2HC5H2CHCPHC8H2C4HCH3C2PH3CH4CHCHC6HCH2CHC6PC13H3C2H2C2H12CH4C2HC2HC3H2CH3CPHCHC3HC2H5CH6C2HCHC6H4CSHC6H5C4HC3H3CH3C4H2CHC3HC4H4CH2SHFeHSCFeS2FeS2FeSFeS3FeS2HSPFeSFeS2HC5HCH2C7H4C6H4PC3HC7H5CHC3HC7H3C4H3CHC3H4CH2CHCH4C3H3SHC2PHCH2C3HFeHC2H2CHC3HC6PC2SH2C9HC2H7C2H2CH2CH2C7PC10HC4H10CHC2H4CH2CHC4H2C2H5C2H3C6H3CH2CSHC2HCH2C3H5CHCHCH3CH3CH2SH2FeHSCFeS2FeS2FeSFeS3FeS2FeSHFeSFeS2C4HC5HC6H3C7H4C3PHC7H4C2H3SCH2C6HCH2C3H5CHC3H2C2H2C4HCH2C2HC2SC2HC2HC2HCH5C2HC4H2PH2C2H4CH2CH3CHCH3C4HCHC7PC18H20CPC9HC2H5CH6CHC4H2PC3HC2H5CHC2H2CHC2HCHC2H2C2HC3SH3CHCFeS2FeS2HCFeCSFeS2FeSFeCS2FeSHFeS2FeSFeS3FeCSHPCHSC3HCHPH3C4HC6H4C6H4C5H4C7H4C6H4CHCHC2HC9PC9SC8H9C2H7C8H6CHCPC5FeC3H2C7H2SCH2CH6CHC7HCH3CHC4HCPHC2H2CH4CH2CHFeCH2SHCH2CHPCH2CHCH2C2H2C2H7C2SH5C2HC3HC3H2C5H2CHCPC2H2CHC2HCH2CHCHC5HCHC2HCHCHC2H2CHCHC4HSHSHCHC3H2CH4C2HSCH2FeHC2H2C6FeS2FeS2C2FeCSFeS2FeSCS3FeSCFeS2FeSFeS2HFeCSC2FeS2CHCHFeCPH2C2SC2HC6H4C6H4C5H2SH2C6H4C6H4SCSC9HC4HC2HCHSHC4H4C2H3C2PCHC2H3C9HC2H4C6H4C4PHCH4C2HPCPC7H2CH2C7H2C2HCH3C2HC6PC18H20CHC2PHC6H9CHCHCH3C2H4FeH4CH5CSHC7FeHCH4CHCH2C4H3CHCHC2HCH2C5HCHC2HCHCH3CH5CH2C2HC3HCHCFeSHFeCSFeS2FeHFeS3FeS2FeS2FeSFeS3C4H2CHCH2C6H4C6H4C4HC6H7CHC2HCH2C3H2CH2CHCH2C3HCHCH2SC3H3C7PCH3C2H2CH4PC2H4C6PC8SC8PH16C5HC2HC2HCHC2SHC3SCHCH2CH3CH2C4HC5H6CHCH2C2HC2H2C12HC2HCHPC4HC4HC2HC6PC3HC6HC2H4C2H3CH7C3H2C3H3C2H5SC3H2CH2CHCHC2H2C7HFeSCFeS2FeS2FeHFeS3FeS2FeS2FeSFeS3C3H3C3H2C7H3C6H4CH2C8H4C8PC18H20C6PC18H19C2H2CH4C2SHC2HCPH3CHC2H2CHPC3HC5HC2HC4HC3PHCH2C3HCH2CHCHCH2C5H3CH6CH2CH2CH2SCHC2H3C2H5CHC4HC3HCH2CHSC2H3CHC4HC5HFeSHFeS2FeS2FeSFeS3FeS2FeS2FeSFeS3C2H3C3H2C6H4C6H4CH3C6H5CHPCH2CHC8H2C2H2CH5C10PC2HCHC9H5C3H8C2H2C2H5CHC2H6CHCHCHCHCH7CHC2HCHC2PC2HC5H3C2HCH3C6HC2HC2HCHC3SC3HCPHCH2PC2H2CHC2HC3HC2H2CH2C5HCHC2HC3HCHC2HCHCHCSCH2CH3C2H2CHCFeSHFeS2FeS2FeCFeS3FeS2FeS2FeSFeS3C3H2C2H3C6H4C6H4C3HC6H2CHC3HSCHPCHC3HCHC2H2C2HCPC2HC2H3C2H5C3HCHCH4CH3C3HC8H2C6PC18H8CH11C6PC18H20C3PCH7C3HCHC5HCHC2SCHCHCHCHCHC3HCH3C2SHC3H6CH4CHPCSHCHC2FeHFeCFeS2FeS2FeS2FeSFeS3FeS2FeS2FeSFeS3FeS2HCFeSC2HCHC2HC2H2C7H4C6H4C6H4C6H4C6H4CHCH4C2H2C2HSC2HC2H2CHC2HC3PC5HC4H2C2HC3HSH2CHCH3CHCH3CH2C3HCPC2H2C5HC6H2CH7C2H7C5H3C7PC11H13CH2C3HSHPH3CHC3H6CH2C3SC4PC5HC13HC2H3CH9CHC4H2CH3C2H2C4HC2HSCH3CFeCH2C2HCH2C5FeCFeHFeS2FeS2FeS2FeSFeS3FeS2FeS2FeSFeS3FeS2CHCHC5H3C3H2C6H4C6HCH2C6H4C6H3C7H7C3HPCHCH4C8H2C3HCHCH8CH3C2HCHC6SHCHCHCHC2H2PH3C8PC18H18C2H4C5HC2H5CH2C3SHC2HCSH3C2PSCHCHCH2CH3C2H2CH2C2HCHCFeCH2PC14H4C5H5CHCHCH2C4PCHPC5HFeHC9H5CH2CHC5H6CFeCSHFeS2FeS2FeSFeS3FeS2FeS2FeSFeS3C2H2CHCPHC6H4C6H5C3HC6H7C6PC13H2C2H15CH2C7HCH4C2H7C6PC3HC3HC3HSHCH6CHC2H6CHC2SH6CHC2HCHC2H4CHCHC2H2CHC6PC18H6C5HCHCH2C2HC3HCHCHCHCHCSH2CHCHCH3CH3C2HCFeHSCFeS2FeS2FeSFeS3FeS2FeS2FeHFeS3H4C3H2C6H4C6H4C4HC6HCHCHC4HC3PC8HC3HC2HC2HCPH7C3H3CSH4C3H2C2HC2H2C2H2C2HC2HC2H2C3HC3H4CHC4PC18H19C4H3C3H3CHCH2CHCHCH3C7HC3H2CH4C2SHCH4C3H2C2H5C3HCH3C2HSCHC2HCHC2HPHCHCH2C2
_chemical_formula_sum              "Fe256 C3840 S512 P128 H3072"
_cell_length_a       78.4671
_cell_length_b       78.5378
_cell_length_c       43.8445
_cell_angle_alpha    89.65
_cell_angle_beta     89.6377
_cell_angle_gamma    89.0567

_space_group_name_H-M_alt    "P 1"
_space_group_IT_number       1

loop_
  _space_group_symop_operation_xyz
  'x, y, z'

loop_
  _atom_site_type_symbol
  _atom_site_label
  _atom_site_symmetry_multiplicity
  _atom_site_fract_x
  _atom_site_fract_y
  _atom_site_fract_z
  _atom_site_occupancy
  Fe  Fe1       1.0  0.14644  0.31206  0.04570  1.0000
  C   C1        1.0  0.16277  0.31131  0.17255  1.0000
  S   S1        1.0  0.13396  0.28594  0.05200  1.0000
  P   P1        1.0  0.22736  0.21682  0.06741  1.0000
  Fe  Fe2       1.0  0.15453  0.18079  0.04262  1.0000
  S   S2        1.0  0.16931  0.16271  0.01213  1.0000
  S   S3        1.0  0.16133  0.20898  0.03441  1.0000
  Fe  Fe3       1.0  0.13971  0.15042  0.07868  1.0000
  S   S4        1.0  0.15388  0.13082  0.05036  1.0000
  S   S5        1.0  0.12063  0.14544  0.11767  1.0000
  Fe  Fe4       1.0  0.17640  0.14857  0.05524  1.0000
  S   S6        1.0  0.20443  0.13992  0.06269  1.0000
  Fe  Fe5       1.0  0.14564  0.14662  0.00929  1.0000
  C   C2        1.0  0.22175  0.25034  0.14930  1.0000
  S   S7        1.0  0.16259  0.16707  0.08574  1.0000
  S   S8        1.0  0.13049  0.16565  0.03765  1.0000
  Fe  Fe6       1.0  0.08899  0.07932  0.32583  1.0000
  S   S9        1.0  0.08101  0.09706  0.28730  1.0000
  S   S10       1.0  0.09580  0.08932  0.37457  1.0000
  Fe  Fe7       1.0  0.08128  0.04712  0.28583  1.0000
  S   S11       1.0  0.07348  0.06319  0.24574  1.0000
  S   S12       1.0  0.07778  0.01785  0.28538  1.0000
  Fe  Fe8       1.0  0.09600  0.07960  0.25633  1.0000
  S   S13       1.0  0.11593  0.08711  0.22010  1.0000
  Fe  Fe9       1.0  0.05887  0.07941  0.27935  1.0000
  S   S14       1.0  0.03272  0.09017  0.26442  1.0000
  S   S15       1.0  0.10502  0.06237  0.29492  1.0000
  S   S16       1.0  0.06565  0.06279  0.31957  1.0000
  C   C3        1.0  0.08826  0.00488  0.22870  1.0000
  C   C4        1.0  0.08108  0.00154  0.25734  1.0000
  C   C5        1.0  0.04413  0.06516  0.15959  1.0000
  H   H1        1.0  0.09161  0.01772  0.22283  1.0000
  C   C6        1.0  0.23122  0.12978  0.18902  1.0000
  C   C7        1.0  0.11625  0.10309  0.19103  1.0000
  C   C8        1.0  0.10494  0.11703  0.19076  1.0000
  C   C9        1.0  0.10646  0.12981  0.16811  1.0000
  C   C10       1.0  0.11924  0.12881  0.14541  1.0000
  C   C11       1.0  0.13026  0.11463  0.14529  1.0000
  C   C12       1.0  0.12867  0.10186  0.16784  1.0000
  H   H2        1.0  0.09519  0.11811  0.20824  1.0000
  H   H3        1.0  0.09772  0.14061  0.16825  1.0000
  H   H4        1.0  0.13992  0.11346  0.12767  1.0000
  H   H5        1.0  0.13705  0.09087  0.16732  1.0000
  C   C13       1.0  0.13194  0.11658  0.44336  1.0000
  C   C14       1.0  0.13761  0.11236  0.41364  1.0000
  C   C15       1.0  0.12690  0.10409  0.39250  1.0000
  C   C16       1.0  0.11016  0.09977  0.40052  1.0000
  C   C17       1.0  0.10450  0.10393  0.43027  1.0000
  C   C18       1.0  0.11521  0.11221  0.45143  1.0000
  H   H6        1.0  0.15044  0.11558  0.40685  1.0000
  H   H7        1.0  0.13169  0.10096  0.37003  1.0000
  H   H8        1.0  0.09166  0.10076  0.43704  1.0000
  C   C19       1.0  0.20409  0.24841  0.15112  1.0000
  C   C20       1.0  0.22124  0.14588  0.08793  1.0000
  C   C21       1.0  0.12670  0.28326  0.22381  1.0000
  C   C22       1.0  0.23232  0.16077  0.13224  1.0000
  C   C23       1.0  0.21867  0.15698  0.11250  1.0000
  H   H9        1.0  0.23006  0.16909  0.15143  1.0000
  H   H10       1.0  0.20613  0.16248  0.11654  1.0000
  C   C24       1.0  0.14188  0.26465  0.04685  1.0000
  C   C25       1.0  0.15796  0.26104  0.03418  1.0000
  C   C26       1.0  0.16364  0.24397  0.03071  1.0000
  C   C27       1.0  0.15334  0.23023  0.03958  1.0000
  C   C28       1.0  0.13731  0.23384  0.05241  1.0000
  C   C29       1.0  0.13165  0.25091  0.05597  1.0000
  H   H11       1.0  0.16596  0.27140  0.02686  1.0000
  H   H12       1.0  0.17604  0.24138  0.02068  1.0000
  H   H13       1.0  0.12920  0.22348  0.05933  1.0000
  H   H14       1.0  0.11919  0.25349  0.06575  1.0000
  C   C30       1.0  0.20759  0.11213  0.17393  1.0000
  H   H15       1.0  0.21451  0.09122  0.14399  1.0000
  C   C31       1.0  0.07817  0.02150  0.07256  1.0000
  H   H16       1.0  0.22852  0.24591  0.12916  1.0000
  C   C32       1.0  0.01158  0.08283  0.27110  1.0000
  C   C33       1.0  0.00827  0.06784  0.28738  1.0000
  H   H17       1.0  0.23994  0.13031  0.06445  1.0000
  H   H18       1.0  0.01876  0.06049  0.29685  1.0000
  H   H19       1.0  0.22757  0.22408  0.00099  1.0000
  C   C34       1.0  0.10081  0.32151  0.16382  1.0000
  H   H20       1.0  0.03812  0.01201  0.28856  1.0000
  H   H21       1.0  0.11138  0.27413  0.26127  1.0000
  H   H22       1.0  0.00006  0.10382  0.24640  1.0000
  H   H23       1.0  0.17911  0.19541  0.15680  1.0000
  C   C35       1.0  0.22383  0.21107  0.00468  1.0000
  C   C36       1.0  0.02665  0.00665  0.27900  1.0000
  C   C37       1.0  0.01204  0.01920  0.19502  1.0000
  H   H24       1.0  0.10155  0.20710  0.30229  1.0000
  C   C38       1.0  0.21756  0.20554  0.12573  1.0000
  C   C39       1.0  0.19388  0.07903  0.21113  1.0000
  C   C40       1.0  0.20384  0.26146  0.20098  1.0000
  H   H25       1.0  0.13655  0.30399  0.44727  1.0000
  C   C41       1.0  0.04531  0.07865  0.18009  1.0000
  C   C42       1.0  0.00128  0.04612  0.21422  1.0000
  C   C43       1.0  0.23772  0.13891  0.08330  1.0000
  H   H26       1.0  0.01066  0.02804  0.29153  1.0000
  C   C44       1.0  0.20563  0.20025  0.14752  1.0000
  C   C45       1.0  0.18831  0.19995  0.14025  1.0000
  C   C46       1.0  0.19514  0.25399  0.17692  1.0000
  C   C47       1.0  0.18001  0.30618  0.17364  1.0000
  C   C48       1.0  0.21350  0.17742  0.01237  1.0000
  C   C49       1.0  0.10855  0.30919  0.11510  1.0000
  C   C50       1.0  0.15467  0.29344  0.23713  1.0000
  H   H27       1.0  0.20937  0.16442  0.01536  1.0000
  H   H28       1.0  0.20647  0.07960  0.20103  1.0000
  C   C51       1.0  0.21221  0.21077  0.09658  1.0000
  H   H29       1.0  0.08582  0.15611  0.44755  1.0000
  H   H30       1.0  0.11722  0.15550  0.45397  1.0000
  C   C52       1.0  0.08754  0.00605  0.11751  1.0000
  H   H31       1.0  0.17158  0.05510  0.26224  1.0000
  C   C53       1.0  0.04519  0.12435  0.31028  1.0000
  C   C54       1.0  0.04325  0.11200  0.33307  1.0000
  C   C55       1.0  0.05481  0.11106  0.35715  1.0000
  C   C56       1.0  0.06822  0.12253  0.35861  1.0000
  C   C57       1.0  0.07014  0.13509  0.33600  1.0000
  C   C58       1.0  0.05872  0.13568  0.31146  1.0000
  P   P2        1.0  0.08850  0.14861  0.33573  1.0000
  H   H32       1.0  0.05604  0.16809  0.33649  1.0000
  C   C59       1.0  0.10327  0.13898  0.30897  1.0000
  C   C60       1.0  0.10498  0.14538  0.27913  1.0000
  C   C61       1.0  0.11595  0.13728  0.25830  1.0000
  C   C62       1.0  0.12498  0.12255  0.26690  1.0000
  C   C63       1.0  0.12301  0.11588  0.29631  1.0000
  C   C64       1.0  0.11215  0.12402  0.31721  1.0000
  C   C65       1.0  0.18293  0.20500  0.11122  1.0000
  H   H33       1.0  0.19689  0.26576  0.22101  1.0000
  H   H34       1.0  0.14983  0.15842  0.15095  1.0000
  C   C66       1.0  0.21038  0.24861  0.06349  1.0000
  H   H35       1.0  0.09743  0.99432  0.18617  1.0000
  C   C67       1.0  0.08290  0.17024  0.32542  1.0000
  C   C68       1.0  0.06603  0.17632  0.32831  1.0000
  S   S17       1.0  0.16424  0.31953  0.00763  1.0000
  C   C69       1.0  0.20879  0.26564  0.05411  1.0000
  C   C70       1.0  0.09160  0.19848  0.30928  1.0000
  C   C71       1.0  0.09571  0.18153  0.31649  1.0000
  H   H36       1.0  0.03655  0.12462  0.29108  1.0000
  H   H37       1.0  0.03312  0.10283  0.33145  1.0000
  H   H38       1.0  0.05378  0.10105  0.37418  1.0000
  H   H39       1.0  0.07737  0.12112  0.37685  1.0000
  H   H40       1.0  0.06050  0.14462  0.29287  1.0000
  H   H41       1.0  0.09756  0.15633  0.27161  1.0000
  H   H42       1.0  0.11707  0.14207  0.23514  1.0000
  H   H43       1.0  0.13305  0.11599  0.25046  1.0000
  H   H44       1.0  0.12948  0.10409  0.30267  1.0000
  H   H45       1.0  0.11028  0.11840  0.33958  1.0000
  H   H46       1.0  0.19966  0.24285  0.07484  1.0000
  C   C72       1.0  0.21901  0.10197  0.15683  1.0000
  H   H47       1.0  0.19438  0.11806  0.11289  1.0000
  H   H48       1.0  0.12397  0.14884  0.35774  1.0000
  C   C73       1.0  0.22211  0.27343  0.03842  1.0000
  H   H49       1.0  0.13609  0.15199  0.40916  1.0000
  H   H50       1.0  0.03405  0.08348  0.19188  1.0000
  C   C74       1.0  0.21452  0.18448  0.98315  1.0000
  H   H51       1.0  0.10889  0.17723  0.31531  1.0000
  H   H52       1.0  0.99334  0.00175  0.17932  1.0000
  H   H53       1.0  0.07154  0.21746  0.30591  1.0000
  C   C75       1.0  0.12679  0.30442  0.15901  1.0000
  P   P3        1.0  0.14616  0.29570  0.17528  1.0000
  C   C76       1.0  0.14231  0.29032  0.21487  1.0000
  C   C77       1.0  0.15141  0.28961  0.26780  1.0000
  H   H54       1.0  0.02264  0.01052  0.19085  1.0000
  C   C78       1.0  0.18593  0.10734  0.11111  1.0000
  C   C79       1.0  0.12603  0.30102  0.46244  1.0000
  H   H55       1.0  0.13743  0.27751  0.47844  1.0000
  C   C80       1.0  0.15207  0.27666  0.15442  1.0000
  C   C81       1.0  0.16252  0.27781  0.12839  1.0000
  C   C82       1.0  0.16627  0.26334  0.11108  1.0000
  C   C83       1.0  0.15945  0.24765  0.11920  1.0000
  C   C84       1.0  0.14900  0.24635  0.14497  1.0000
  C   C85       1.0  0.14531  0.26078  0.16257  1.0000
  C   C86       1.0  0.11562  0.31451  0.17671  1.0000
  C   C87       1.0  0.09727  0.31885  0.13301  1.0000
  H   H56       1.0  0.15530  0.06942  0.10301  1.0000
  C   C88       1.0  0.22543  0.23924  0.05740  1.0000
  C   C89       1.0  0.13584  0.28263  0.27649  1.0000
  H   H57       1.0  0.11045  0.11534  0.47393  1.0000
  C   C90       1.0  0.19285  0.31832  0.17246  1.0000
  H   H58       1.0  0.18353  0.29284  0.17543  1.0000
  H   H59       1.0  0.16727  0.28998  0.12069  1.0000
  H   H60       1.0  0.17385  0.26447  0.09053  1.0000
  H   H61       1.0  0.16180  0.23664  0.10488  1.0000
  H   H62       1.0  0.14336  0.23424  0.15075  1.0000
  H   H63       1.0  0.13684  0.25953  0.18192  1.0000
  H   H64       1.0  0.03184  0.05963  0.15520  1.0000
  H   H65       1.0  0.08332  0.31586  0.42590  1.0000
  H   H66       1.0  0.19711  0.27280  0.05842  1.0000
  C   C91       1.0  0.19045  0.06616  0.23244  1.0000
  H   H67       1.0  0.13188  0.29478  0.11366  1.0000
  C   C92       1.0  0.23635  0.10574  0.15582  1.0000
  H   H68       1.0  0.08952  0.99408  0.12964  1.0000
  H   H69       1.0  0.11844  0.31719  0.20033  1.0000
  H   H70       1.0  0.20537  0.13429  0.20307  1.0000
  C   C93       1.0  0.99540  0.01435  0.18822  1.0000
  H   H71       1.0  0.10606  0.30731  0.09103  1.0000
  H   H72       1.0  0.16959  0.20436  0.10506  1.0000
  H   H73       1.0  0.16340  0.07922  0.15417  1.0000
  H   H74       1.0  0.16753  0.13356  0.13727  1.0000
  H   H75       1.0  0.15465  0.09839  0.21022  1.0000
  H   H76       1.0  0.15262  0.05206  0.17568  1.0000
  S   S18       1.0  0.16306  0.32219  0.08301  1.0000
  C   C94       1.0  0.21384  0.12610  0.19003  1.0000
  H   H77       1.0  0.04890  0.19785  0.32315  1.0000
  H   H78       1.0  0.17583  0.12304  0.23297  1.0000
  C   C95       1.0  0.12239  0.15244  0.40603  1.0000
  H   H79       1.0  0.21621  0.18147  0.06027  1.0000
  C   C96       1.0  0.19484  0.21032  0.08951  1.0000
  H   H80       1.0  0.20988  0.19590  0.16975  1.0000
  H   H81       1.0  0.20036  0.05705  0.23867  1.0000
  C   C97       1.0  0.21748  0.18718  0.03783  1.0000
  H   H82       1.0  0.16693  0.08357  0.05680  1.0000
  C   C98       1.0  0.06196  0.19327  0.32105  1.0000
  H   H83       1.0  0.22074  0.28662  0.03111  1.0000
  C   C99       1.0  0.22154  0.26330  0.19934  1.0000
  C   C100      1.0  0.09768  0.15032  0.37323  1.0000
  H   H84       1.0  0.15778  0.14796  0.24611  1.0000
  C   C101      1.0  0.01119  0.01568  0.28070  1.0000
  H   H85       1.0  0.18147  0.25246  0.17831  1.0000
  C   C102      1.0  0.12326  0.30205  0.12803  1.0000
  H   H86       1.0  0.14461  0.16564  0.20510  1.0000
  H   H87       1.0  0.11694  0.28084  0.20708  1.0000
  H   H88       1.0  0.07286  0.02153  0.04979  1.0000
  H   H89       1.0  0.18676  0.10759  0.06202  1.0000
  C   C103      1.0  0.17425  0.06503  0.24570  1.0000
  H   H90       1.0  0.02783  0.03876  0.21381  1.0000
  H   H91       1.0  0.07760  0.99416  0.07740  1.0000
  H   H92       1.0  0.20614  0.31434  0.17292  1.0000
  H   H93       1.0  0.19059  0.21374  0.06682  1.0000
  H   H94       1.0  0.23094  0.20497  0.13143  1.0000
  C   C104      1.0  0.22277  0.20409  0.03424  1.0000
  H   H95       1.0  0.22802  0.26902  0.21833  1.0000
  C   C105      1.0  0.08080  0.00609  0.08810  1.0000
  C   C106      1.0  0.23063  0.25779  0.17343  1.0000
  C   C107      1.0  0.07472  0.20432  0.31141  1.0000
  C   C108      1.0  0.11544  0.15041  0.37702  1.0000
  C   C109      1.0  0.01498  0.03510  0.20797  1.0000
  C   C110      1.0  0.23876  0.24722  0.04150  1.0000
  C   C111      1.0  0.11227  0.31243  0.46518  1.0000
  C   C112      1.0  0.11172  0.15445  0.43141  1.0000
  C   C113      1.0  0.08236  0.03689  0.08636  1.0000
  C   C114      1.0  0.08943  0.03695  0.11571  1.0000
  C   C115      1.0  0.09177  0.02140  0.13135  1.0000
  P   P4        1.0  0.09410  0.05695  0.13387  1.0000
  C   C116      1.0  0.10970  0.05291  0.16334  1.0000
  C   C117      1.0  0.10307  0.07151  0.10603  1.0000
  C   C118      1.0  0.11365  0.06521  0.08251  1.0000
  C   C119      1.0  0.12090  0.07635  0.06122  1.0000
  C   C120      1.0  0.11772  0.09386  0.06327  1.0000
  C   C121      1.0  0.10728  0.10023  0.08658  1.0000
  C   C122      1.0  0.10003  0.08916  0.10795  1.0000
  C   C123      1.0  0.10437  0.04712  0.19213  1.0000
  C   C124      1.0  0.11631  0.04318  0.21475  1.0000
  C   C125      1.0  0.13368  0.04490  0.20875  1.0000
  C   C126      1.0  0.13915  0.05064  0.18015  1.0000
  C   C127      1.0  0.12721  0.05464  0.15749  1.0000
  C   C128      1.0  0.07483  0.06566  0.15115  1.0000
  C   C129      1.0  0.05880  0.05871  0.14506  1.0000
  C   C130      1.0  0.08703  0.15278  0.39875  1.0000
  H   H96       1.0  0.16090  0.29226  0.28493  1.0000
  C   C131      1.0  0.06114  0.08574  0.18595  1.0000
  C   C132      1.0  0.07584  0.07913  0.17188  1.0000
  H   H97       1.0  0.14879  0.07580  0.24756  1.0000
  C   C133      1.0  0.09405  0.15465  0.42778  1.0000
  H   H98       1.0  0.19734  0.24250  0.13261  1.0000
  H   H99       1.0  0.08004  0.04874  0.07418  1.0000
  H   H100      1.0  0.09685  0.02100  0.15421  1.0000
  H   H101      1.0  0.11642  0.05170  0.08075  1.0000
  H   H102      1.0  0.12898  0.07144  0.04306  1.0000
  H   H103      1.0  0.12334  0.10255  0.04686  1.0000
  H   H104      1.0  0.10498  0.11386  0.08835  1.0000
  H   H105      1.0  0.09226  0.09457  0.12596  1.0000
  H   H106      1.0  0.09097  0.04551  0.19700  1.0000
  H   H107      1.0  0.11206  0.03894  0.23709  1.0000
  H   H108      1.0  0.14286  0.04194  0.22641  1.0000
  H   H109      1.0  0.16674  0.29903  0.23106  1.0000
  H   H110      1.0  0.13170  0.05911  0.13562  1.0000
  H   H111      1.0  0.05755  0.04820  0.12950  1.0000
  S   S19       1.0  0.14607  0.12775  0.46873  1.0000
  H   H112      1.0  0.07331  0.15309  0.39628  1.0000
  H   H113      1.0  0.06210  0.09599  0.20231  1.0000
  H   H114      1.0  0.08805  0.08435  0.17757  1.0000
  C   C134      1.0  0.16144  0.07672  0.23756  1.0000
  C   C135      1.0  0.18113  0.09097  0.20314  1.0000
  C   C136      1.0  0.16482  0.08956  0.21629  1.0000
  P   P5        1.0  0.18514  0.10721  0.17466  1.0000
  C   C137      1.0  0.17290  0.12621  0.18412  1.0000
  C   C138      1.0  0.16575  0.13655  0.16114  1.0000
  C   C139      1.0  0.15571  0.15078  0.16881  1.0000
  C   C140      1.0  0.15274  0.15483  0.19937  1.0000
  C   C141      1.0  0.16010  0.14484  0.22239  1.0000
  C   C142      1.0  0.17024  0.13066  0.21483  1.0000
  C   C143      1.0  0.17934  0.09952  0.13742  1.0000
  C   C144      1.0  0.16846  0.08562  0.13432  1.0000
  C   C145      1.0  0.16392  0.07994  0.10534  1.0000
  C   C146      1.0  0.17048  0.08787  0.07928  1.0000
  C   C147      1.0  0.18162  0.10143  0.08221  1.0000
  H   H115      1.0  0.13329  0.27982  0.30032  1.0000
  C   C148      1.0  0.23708  0.26421  0.03207  1.0000
  C   C149      1.0  0.12350  0.27943  0.25450  1.0000
  H   H116      1.0  0.00351  0.05833  0.22475  1.0000
  C   C150      1.0  0.24246  0.11959  0.17200  1.0000
  H   H117      1.0  0.23603  0.14080  0.20079  1.0000
  H   H118      1.0  0.24140  0.22424  0.16788  1.0000
  H   H119      1.0  0.23502  0.28093  0.12661  1.0000
  C   C151      1.0  0.99724  0.99296  0.25383  1.0000
  C   C152      1.0  0.99769  0.09222  0.25904  1.0000
  C   C153      1.0  0.99647  0.00880  0.26833  1.0000
  H   H120      1.0  0.06765  0.29141  0.47511  1.0000
  H   H121      1.0  0.08597  0.32454  0.12285  1.0000
  H   H122      1.0  0.11239  0.32411  0.45196  1.0000
  C   C154      1.0  0.12660  0.28620  0.48020  1.0000
  Fe  Fe10      1.0  0.15457  0.30311  0.54285  1.0000
  S   S20       1.0  0.13550  0.13881  0.96117  1.0000
  S   S21       1.0  0.15945  0.27487  0.53038  1.0000
  C   C155      1.0  0.04262  0.29089  0.49513  1.0000
  Fe  Fe11      1.0  0.14899  0.17195  0.55768  1.0000
  S   S22       1.0  0.16681  0.16394  0.51985  1.0000
  S   S23       1.0  0.13752  0.19875  0.56620  1.0000
  Fe  Fe12      1.0  0.15026  0.13626  0.58734  1.0000
  S   S24       1.0  0.16864  0.12635  0.55116  1.0000
  S   S25       1.0  0.14482  0.11806  0.62770  1.0000
  Fe  Fe13      1.0  0.18248  0.15111  0.55699  1.0000
  S   S26       1.0  0.21146  0.15632  0.55694  1.0000
  Fe  Fe14      1.0  0.15145  0.13966  0.51671  1.0000
  H   H123      1.0  0.02573  0.99243  0.57756  1.0000
  S   S27       1.0  0.16520  0.16020  0.59480  1.0000
  S   S28       1.0  0.13252  0.14850  0.55283  1.0000
  Fe  Fe15      1.0  0.08366  0.07961  0.82662  1.0000
  S   S29       1.0  0.06405  0.09517  0.80055  1.0000
  S   S30       1.0  0.09645  0.08589  0.87327  1.0000
  Fe  Fe16      1.0  0.07993  0.04925  0.78087  1.0000
  S   S31       1.0  0.06076  0.06325  0.75192  1.0000
  S   S32       1.0  0.08868  0.02141  0.77459  1.0000
  Fe  Fe17      1.0  0.07782  0.08593  0.75785  1.0000
  S   S33       1.0  0.08170  0.10457  0.71795  1.0000
  Fe  Fe18      1.0  0.04844  0.07140  0.79602  1.0000
  S   S34       1.0  0.02021  0.06699  0.80813  1.0000
  S   S35       1.0  0.09798  0.07141  0.78396  1.0000
  S   S36       1.0  0.06701  0.05634  0.82504  1.0000
  C   C156      1.0  0.07199  0.00955  0.72286  1.0000
  C   C157      1.0  0.08255  0.00572  0.74766  1.0000
  C   C158      1.0  0.00718  0.18194  0.83961  1.0000
  H   H124      1.0  0.06697  0.02236  0.72007  1.0000
  C   C159      1.0  0.22281  0.20368  0.57610  1.0000
  C   C160      1.0  0.09957  0.10819  0.69353  1.0000
  C   C161      1.0  0.09802  0.12043  0.67004  1.0000
  C   C162      1.0  0.11170  0.12370  0.64983  1.0000
  C   C163      1.0  0.12716  0.11473  0.65281  1.0000
  C   C164      1.0  0.12874  0.10256  0.67645  1.0000
  C   C165      1.0  0.11506  0.09929  0.69667  1.0000
  H   H125      1.0  0.08614  0.12743  0.66736  1.0000
  H   H126      1.0  0.11026  0.13312  0.63187  1.0000
  H   H127      1.0  0.14065  0.09561  0.67910  1.0000
  H   H128      1.0  0.11649  0.08984  0.71458  1.0000
  C   C166      1.0  0.12420  0.12397  0.93751  1.0000
  C   C167      1.0  0.11933  0.12891  0.90771  1.0000
  C   C168      1.0  0.11070  0.11765  0.88804  1.0000
  C   C169      1.0  0.10695  0.10103  0.89750  1.0000
  C   C170      1.0  0.11176  0.09611  0.92731  1.0000
  C   C171      1.0  0.12019  0.10743  0.94715  1.0000
  H   H129      1.0  0.12223  0.14161  0.89977  1.0000
  H   H130      1.0  0.10700  0.12184  0.86550  1.0000
  H   H131      1.0  0.10896  0.08338  0.93519  1.0000
  C   C172      1.0  0.11355  0.28295  0.50118  1.0000
  C   C173      1.0  0.22798  0.15223  0.58426  1.0000
  H   H132      1.0  0.17627  0.16951  0.84236  1.0000
  H   H133      1.0  0.99409  0.11844  0.87354  1.0000
  C   C174      1.0  0.22545  0.14209  0.61019  1.0000
  H   H134      1.0  0.24084  0.19701  0.50645  1.0000
  H   H135      1.0  0.21303  0.13678  0.61454  1.0000
  C   C175      1.0  0.15324  0.25386  0.54118  1.0000
  C   C176      1.0  0.13959  0.25077  0.56104  1.0000
  C   C177      1.0  0.13506  0.23388  0.56845  1.0000
  C   C178      1.0  0.14413  0.21979  0.55633  1.0000
  C   C179      1.0  0.15793  0.22289  0.53677  1.0000
  C   C180      1.0  0.16236  0.23979  0.52916  1.0000
  H   H136      1.0  0.13240  0.26138  0.57048  1.0000
  H   H137      1.0  0.12439  0.23168  0.58363  1.0000
  H   H138      1.0  0.16505  0.21226  0.52721  1.0000
  H   H139      1.0  0.01515  0.02733  0.73812  1.0000
  H   H140      1.0  0.24038  0.14309  0.51135  1.0000
  H   H141      1.0  0.16825  0.14319  0.67751  1.0000
  C   C181      1.0  0.23478  0.29406  0.65467  1.0000
  H   H142      1.0  0.18786  0.13546  0.71983  1.0000
  H   H143      1.0  0.16471  0.29706  0.69642  1.0000
  C   C182      1.0  0.01841  0.17162  0.88769  1.0000
  H   H144      1.0  0.23157  0.09599  0.55819  1.0000
  H   H145      1.0  0.00889  0.08348  0.75081  1.0000
  C   C183      1.0  0.15437  0.07469  0.78216  1.0000
  C   C184      1.0  0.02101  0.00329  0.79567  1.0000
  C   C185      1.0  0.00788  0.02326  0.71857  1.0000
  C   C186      1.0  0.14453  0.06655  0.80437  1.0000
  C   C187      1.0  0.03812  0.11666  0.74630  1.0000
  C   C188      1.0  0.04689  0.13102  0.73636  1.0000
  C   C189      1.0  0.04690  0.14567  0.75426  1.0000
  C   C190      1.0  0.03806  0.14602  0.78208  1.0000
  C   C191      1.0  0.02887  0.13177  0.79185  1.0000
  C   C192      1.0  0.02918  0.11700  0.77398  1.0000
  P   P6        1.0  0.01843  0.13131  0.82862  1.0000
  C   C193      1.0  0.03160  0.11741  0.85179  1.0000
  C   C194      1.0  0.01623  0.15231  0.84481  1.0000
  H   H146      1.0  0.17451  0.31857  0.89292  1.0000
  H   H147      1.0  0.10941  0.11382  0.76782  1.0000
  C   C195      1.0  0.15332  0.09240  0.77869  1.0000
  H   H148      1.0  0.16024  0.12906  0.90173  1.0000
  H   H149      1.0  0.03999  0.27826  0.48674  1.0000
  C   C196      1.0  0.02681  0.10056  0.85766  1.0000
  C   C197      1.0  0.03757  0.08956  0.87407  1.0000
  C   C198      1.0  0.05320  0.09527  0.88467  1.0000
  C   C199      1.0  0.05823  0.11192  0.87844  1.0000
  C   C200      1.0  0.04757  0.12291  0.86177  1.0000
  H   H150      1.0  0.17528  0.15619  0.89386  1.0000
  H   H151      1.0  0.08919  0.31079  0.81817  1.0000
  C   C201      1.0  0.02046  0.15532  0.87538  1.0000
  H   H152      1.0  0.11445  0.27177  0.51576  1.0000
  H   H153      1.0  0.12576  0.06985  0.84008  1.0000
  C   C202      1.0  0.09229  0.00044  0.63609  1.0000
  H   H154      1.0  0.03879  0.10506  0.73304  1.0000
  H   H155      1.0  0.05414  0.13059  0.71521  1.0000
  H   H156      1.0  0.05410  0.15661  0.74682  1.0000
  H   H157      1.0  0.03877  0.15728  0.79606  1.0000
  H   H158      1.0  0.22048  0.12222  0.53321  1.0000
  C   C203      1.0  0.99981  0.07180  0.79219  1.0000
  C   C204      1.0  0.01185  0.18495  0.86978  1.0000
  H   H159      1.0  0.20621  0.23871  0.67389  1.0000
  H   H160      1.0  0.01026  0.19757  0.87940  1.0000
  C   C205      1.0  0.09891  0.30909  0.48568  1.0000
  H   H161      1.0  0.02517  0.14513  0.88993  1.0000
  H   H162      1.0  0.03399  0.07643  0.87775  1.0000
  H   H163      1.0  0.06167  0.08664  0.89697  1.0000
  H   H164      1.0  0.07064  0.11608  0.88589  1.0000
  H   H165      1.0  0.05189  0.13560  0.85633  1.0000
  C   C206      1.0  0.23411  0.11961  0.53370  1.0000
  H   H166      1.0  0.16107  0.09834  0.76132  1.0000
  H   H167      1.0  0.99486  0.12874  0.77669  1.0000
  H   H168      1.0  0.19036  0.28102  0.67939  1.0000
  C   C207      1.0  0.05835  0.29832  0.48882  1.0000
  C   C208      1.0  0.13356  0.07612  0.82299  1.0000
  C   C209      1.0  0.16479  0.29074  0.67452  1.0000
  C   C210      1.0  0.06196  0.31456  0.50009  1.0000
  H   H169      1.0  0.05737  0.00697  0.59183  1.0000
  C   C211      1.0  0.09639  0.01737  0.64195  1.0000
  C   C212      1.0  0.08635  0.03075  0.62985  1.0000
  C   C213      1.0  0.07233  0.02687  0.61149  1.0000
  P   P7        1.0  0.09019  0.05266  0.64002  1.0000
  C   C214      1.0  0.10640  0.05308  0.66912  1.0000
  C   C215      1.0  0.09695  0.06523  0.60737  1.0000
  C   C216      1.0  0.09597  0.05884  0.57755  1.0000
  C   C217      1.0  0.10169  0.06855  0.55272  1.0000
  C   C218      1.0  0.10857  0.08461  0.55743  1.0000
  C   C219      1.0  0.10972  0.09100  0.58696  1.0000
  C   C220      1.0  0.10393  0.08140  0.61178  1.0000
  C   C221      1.0  0.12341  0.05666  0.66152  1.0000
  C   C222      1.0  0.13598  0.05636  0.68398  1.0000
  C   C223      1.0  0.13178  0.05201  0.71400  1.0000
  C   C224      1.0  0.11502  0.04797  0.72156  1.0000
  C   C225      1.0  0.10232  0.04865  0.69934  1.0000
  C   C226      1.0  0.07060  0.06124  0.65632  1.0000
  C   C227      1.0  0.05853  0.05025  0.66933  1.0000
  C   C228      1.0  0.04336  0.05677  0.68183  1.0000
  C   C229      1.0  0.04021  0.07433  0.68202  1.0000
  C   C230      1.0  0.05224  0.08536  0.66963  1.0000
  C   C231      1.0  0.06735  0.07887  0.65683  1.0000
  H   H170      1.0  0.22027  0.20681  0.95662  1.0000
  H   H171      1.0  0.10711  0.01986  0.65658  1.0000
  H   H172      1.0  0.06428  0.03699  0.60234  1.0000
  H   H173      1.0  0.09106  0.04634  0.57322  1.0000
  H   H174      1.0  0.10096  0.06357  0.52977  1.0000
  H   H175      1.0  0.11319  0.09206  0.53824  1.0000
  H   H176      1.0  0.11535  0.10335  0.59069  1.0000
  H   H177      1.0  0.10526  0.08647  0.63452  1.0000
  H   H178      1.0  0.12710  0.05965  0.63830  1.0000
  H   H179      1.0  0.14899  0.05949  0.67803  1.0000
  H   H180      1.0  0.14151  0.05162  0.73138  1.0000
  H   H181      1.0  0.11186  0.04419  0.74467  1.0000
  H   H182      1.0  0.08943  0.04539  0.70576  1.0000
  H   H183      1.0  0.06089  0.03665  0.67034  1.0000
  H   H184      1.0  0.03430  0.04822  0.69219  1.0000
  H   H185      1.0  0.02867  0.07941  0.69243  1.0000
  H   H186      1.0  0.05015  0.09901  0.67063  1.0000
  H   H187      1.0  0.07655  0.08776  0.64809  1.0000
  C   C232      1.0  0.20246  0.28597  0.53987  1.0000
  C   C233      1.0  0.20675  0.27265  0.52018  1.0000
  C   C234      1.0  0.20857  0.25606  0.53157  1.0000
  C   C235      1.0  0.20590  0.25277  0.56261  1.0000
  C   C236      1.0  0.20096  0.26602  0.58235  1.0000
  C   C237      1.0  0.19959  0.28269  0.57082  1.0000
  P   P8        1.0  0.19822  0.26224  0.62273  1.0000
  C   C238      1.0  0.17274  0.32252  0.84424  1.0000
  C   C239      1.0  0.19324  0.24019  0.63042  1.0000
  C   C240      1.0  0.18236  0.23149  0.61071  1.0000
  C   C241      1.0  0.17826  0.21451  0.61643  1.0000
  C   C242      1.0  0.18469  0.20615  0.64220  1.0000
  C   C243      1.0  0.19490  0.21491  0.66267  1.0000
  C   C244      1.0  0.19893  0.23196  0.65710  1.0000
  H   H188      1.0  0.09016  0.29205  0.52133  1.0000
  H   H189      1.0  0.20102  0.29886  0.53111  1.0000
  H   H190      1.0  0.18414  0.31508  0.83917  1.0000
  H   H191      1.0  0.21183  0.24572  0.51628  1.0000
  H   H192      1.0  0.20766  0.23989  0.57097  1.0000
  H   H193      1.0  0.19621  0.29322  0.58560  1.0000
  H   H194      1.0  0.17690  0.23783  0.59096  1.0000
  H   H195      1.0  0.16992  0.20786  0.60101  1.0000
  H   H196      1.0  0.18145  0.19297  0.64651  1.0000
  H   H197      1.0  0.16485  0.26851  0.59586  1.0000
  H   H198      1.0  0.03478  0.00383  0.79767  1.0000
  C   C245      1.0  0.08566  0.14364  0.80552  1.0000
  C   C246      1.0  0.09853  0.15151  0.82182  1.0000
  C   C247      1.0  0.11547  0.14601  0.81840  1.0000
  C   C248      1.0  0.11960  0.13226  0.79915  1.0000
  C   C249      1.0  0.10655  0.12436  0.78300  1.0000
  P   P9        1.0  0.14147  0.12512  0.79440  1.0000
  C   C250      1.0  0.14236  0.10213  0.79744  1.0000
  C   C251      1.0  0.14989  0.13178  0.75772  1.0000
  C   C252      1.0  0.16761  0.13166  0.75260  1.0000
  C   C253      1.0  0.17422  0.13587  0.72385  1.0000
  C   C254      1.0  0.16323  0.14031  0.70005  1.0000
  C   C255      1.0  0.14565  0.14075  0.70507  1.0000
  C   C256      1.0  0.13896  0.13641  0.73367  1.0000
  H   H199      1.0  0.12374  0.10328  0.96982  1.0000
  H   H200      1.0  0.20973  0.29663  0.63588  1.0000
  C   C257      1.0  0.17964  0.27395  0.63592  1.0000
  C   C258      1.0  0.15365  0.13407  0.82520  1.0000
  C   C259      1.0  0.15325  0.12665  0.85447  1.0000
  C   C260      1.0  0.16109  0.13460  0.87901  1.0000
  H   H201      1.0  0.02182  0.17391  0.91123  1.0000
  C   C261      1.0  0.00923  0.16566  0.82722  1.0000
  C   C262      1.0  0.16199  0.14964  0.82106  1.0000
  H   H202      1.0  0.01507  0.99714  0.72427  1.0000
  H   H203      1.0  0.07256  0.14792  0.80806  1.0000
  H   H204      1.0  0.09543  0.16190  0.83714  1.0000
  H   H205      1.0  0.12518  0.15241  0.83120  1.0000
  H   H206      1.0  0.23695  0.27738  0.57103  1.0000
  H   H207      1.0  0.17629  0.12795  0.77067  1.0000
  H   H208      1.0  0.23642  0.30770  0.65668  1.0000
  H   H209      1.0  0.20844  0.27520  0.49606  1.0000
  H   H210      1.0  0.13716  0.14407  0.68645  1.0000
  H   H211      1.0  0.12527  0.13647  0.73649  1.0000
  H   H212      1.0  0.07978  0.12439  0.77272  1.0000
  C   C263      1.0  0.99855  0.03523  0.70160  1.0000
  C   C264      1.0  0.21746  0.27004  0.63995  1.0000
  H   H213      1.0  0.14645  0.11505  0.85888  1.0000
  C   C265      1.0  0.16999  0.15745  0.84562  1.0000
  C   C266      1.0  0.00780  0.00605  0.71053  1.0000
  C   C267      1.0  0.16948  0.14996  0.87461  1.0000
  C   C268      1.0  0.15032  0.29162  0.65608  1.0000
  C   C269      1.0  0.08971  0.13024  0.78586  1.0000
  C   C270      1.0  0.23099  0.25894  0.64774  1.0000
  H   H214      1.0  0.01692  0.02918  0.81035  1.0000
  H   H215      1.0  0.13911  0.29880  0.66335  1.0000
  H   H216      1.0  0.23021  0.24541  0.64371  1.0000
  H   H217      1.0  0.21106  0.20130  0.58845  1.0000
  C   C271      1.0  0.09981  0.29442  0.50414  1.0000
  H   H218      1.0  0.19948  0.20853  0.68308  1.0000
  C   C272      1.0  0.13227  0.09377  0.81921  1.0000
  H   H219      1.0  0.13918  0.28410  0.61354  1.0000
  H   H220      1.0  0.12342  0.10088  0.83347  1.0000
  H   H221      1.0  0.14527  0.05284  0.80707  1.0000
  C   C273      1.0  0.99777  0.08002  0.76399  1.0000
  H   H222      1.0  0.21387  0.19230  0.53477  1.0000
  H   H223      1.0  0.01504  0.09565  0.84878  1.0000
  C   C274      1.0  0.16495  0.27458  0.61792  1.0000
  C   C275      1.0  0.23908  0.13855  0.63036  1.0000
  H   H224      1.0  0.23690  0.13059  0.65018  1.0000
  C   C276      1.0  0.01095  0.01759  0.80270  1.0000
  C   C277      1.0  0.21963  0.28769  0.64297  1.0000
  S   S37       1.0  0.16489  0.31498  0.58534  1.0000
  H   H225      1.0  0.11860  0.31793  0.80290  1.0000
  H   H226      1.0  0.23496  0.21530  0.61416  1.0000
  C   C278      1.0  0.23644  0.21143  0.59061  1.0000
  C   C279      1.0  0.99687  0.12387  0.82531  1.0000
  C   C280      1.0  0.07825  0.99671  0.61805  1.0000
  H   H227      1.0  0.99846  0.04852  0.70818  1.0000
  H   H228      1.0  0.24058  0.24622  0.57438  1.0000
  H   H229      1.0  0.16192  0.15602  0.79911  1.0000
  H   H230      1.0  0.02393  0.32315  0.53535  1.0000
  C   C281      1.0  0.15033  0.28334  0.62799  1.0000
  H   H231      1.0  0.17294  0.24198  0.51377  1.0000
  H   H232      1.0  0.16288  0.06730  0.76767  1.0000
  C   C282      1.0  0.17937  0.28178  0.66465  1.0000
  H   H233      1.0  0.12669  0.32383  0.69600  1.0000
  C   C283      1.0  0.22440  0.19859  0.54575  1.0000
  H   H234      1.0  0.02294  0.10558  0.78198  1.0000
  H   H235      1.0  0.00926  0.99940  0.62381  1.0000
  C   C284      1.0  0.21969  0.20129  0.97929  1.0000
  C   C285      1.0  0.24038  0.10485  0.54785  1.0000
  C   C286      1.0  0.03358  0.31617  0.52252  1.0000
  H   H236      1.0  0.00535  0.16345  0.80392  1.0000
  S   S38       1.0  0.16922  0.32073  0.51211  1.0000
  C   C287      1.0  0.06833  0.00992  0.60559  1.0000
  C   C288      1.0  0.23965  0.20117  0.52988  1.0000
  S   S39       1.0  0.13141  0.32056  0.54131  1.0000
  H   H237      1.0  0.00190  0.19223  0.82585  1.0000
  H   H238      1.0  0.21109  0.17694  0.96357  1.0000
  C   C289      1.0  0.06818  0.99684  0.70137  1.0000
  H   H239      1.0  0.06030  0.00006  0.68196  1.0000
  C   C290      1.0  0.09293  0.32399  0.81674  1.0000
  C   C291      1.0  0.99838  0.00060  0.68533  1.0000
  P   P10       1.0  0.08187  0.32455  0.49084  1.0000
  C   C292      1.0  0.04930  0.32362  0.51626  1.0000
  H   H240      1.0  0.07737  0.32278  0.55770  1.0000
  C   C293      1.0  0.03028  0.29977  0.51212  1.0000
  H   H241      1.0  0.01810  0.29400  0.51701  1.0000
  C   C294      1.0  0.16733  0.32445  0.87451  1.0000
  C   C295      1.0  0.99322  0.01697  0.80004  1.0000
  Fe  Fe19      1.0  0.04999  0.41197  0.28621  1.0000
  S   S40       1.0  0.06458  0.42729  0.32025  1.0000
  S   S41       1.0  0.02211  0.41364  0.27057  1.0000
  Fe  Fe20      1.0  0.08308  0.39895  0.25515  1.0000
  S   S42       1.0  0.10003  0.41376  0.28692  1.0000
  S   S43       1.0  0.08643  0.38101  0.21422  1.0000
  Fe  Fe21      1.0  0.08272  0.40442  0.32497  1.0000
  S   S44       1.0  0.09158  0.39692  0.37427  1.0000
  Fe  Fe22      1.0  0.08098  0.43567  0.28065  1.0000
  S   S45       1.0  0.08608  0.46452  0.27659  1.0000
  S   S46       1.0  0.06665  0.38860  0.29332  1.0000
  S   S47       1.0  0.06570  0.42147  0.24682  1.0000
  Fe  Fe23      1.0  0.08059  0.55067  0.17044  1.0000
  S   S48       1.0  0.07238  0.56717  0.20954  1.0000
  S   S49       1.0  0.07821  0.52134  0.17095  1.0000
  Fe  Fe24      1.0  0.08824  0.58244  0.12812  1.0000
  S   S50       1.0  0.07989  0.60063  0.16553  1.0000
  S   S51       1.0  0.09601  0.58873  0.07751  1.0000
  Fe  Fe25      1.0  0.09483  0.58363  0.19771  1.0000
  S   S52       1.0  0.11493  0.59072  0.23335  1.0000
  Fe  Fe26      1.0  0.05787  0.58271  0.17467  1.0000
  S   S53       1.0  0.03062  0.59225  0.18621  1.0000
  S   S54       1.0  0.10412  0.56597  0.16013  1.0000
  S   S55       1.0  0.06520  0.56569  0.13574  1.0000
  Fe  Fe27      1.0  0.14873  0.34707  0.07647  1.0000
  S   S56       1.0  0.16684  0.35636  0.03997  1.0000
  S   S57       1.0  0.14570  0.36548  0.11683  1.0000
  H   H242      1.0  0.07077  0.54118  0.05700  1.0000
  C   C296      1.0  0.23667  0.61989  0.26336  1.0000
  Fe  Fe28      1.0  0.14929  0.34458  0.00542  1.0000
  H   H243      1.0  0.20358  0.57265  0.26396  1.0000
  C   C297      1.0  0.07914  0.58143  0.31411  1.0000
  Fe  Fe29      1.0  0.14624  0.63841  0.44410  1.0000
  C   C298      1.0  0.07600  0.48020  0.10057  1.0000
  C   C299      1.0  0.23929  0.59648  0.29917  1.0000
  Fe  Fe30      1.0  0.17746  0.64572  0.40047  1.0000
  S   S58       1.0  0.20577  0.63804  0.39597  1.0000
  Fe  Fe31      1.0  0.14106  0.64954  0.37715  1.0000
  S   S59       1.0  0.12255  0.64735  0.33707  1.0000
  S   S60       1.0  0.15535  0.62764  0.39885  1.0000
  C   C300      1.0  0.22195  0.64200  0.36796  1.0000
  C   C301      1.0  0.06967  0.41043  0.15558  1.0000
  C   C302      1.0  0.07769  0.46287  0.10784  1.0000
  H   H244      1.0  0.16587  0.61149  0.98929  1.0000
  H   H245      1.0  0.16805  0.35419  0.16765  1.0000
  C   C303      1.0  0.17818  0.61556  0.98081  1.0000
  C   C304      1.0  0.99549  0.35998  0.35746  1.0000
  C   C305      1.0  0.11615  0.60637  0.26263  1.0000
  C   C306      1.0  0.12925  0.60483  0.28429  1.0000
  C   C307      1.0  0.13142  0.61715  0.30718  1.0000
  C   C308      1.0  0.12035  0.63125  0.30889  1.0000
  C   C309      1.0  0.10704  0.63270  0.28752  1.0000
  C   C310      1.0  0.10493  0.62036  0.26454  1.0000
  H   H246      1.0  0.13779  0.59400  0.28328  1.0000
  H   H247      1.0  0.14158  0.61569  0.32358  1.0000
  H   H248      1.0  0.09836  0.64352  0.28862  1.0000
  H   H249      1.0  0.09480  0.62182  0.24809  1.0000
  C   C311      1.0  0.10793  0.60308  0.05314  1.0000
  C   C312      1.0  0.11710  0.61689  0.06432  1.0000
  C   C313      1.0  0.12623  0.62773  0.04412  1.0000
  C   C314      1.0  0.12646  0.62515  0.01223  1.0000
  C   C315      1.0  0.11725  0.61136  0.00105  1.0000
  C   C316      1.0  0.10811  0.60051  0.02123  1.0000
  H   H250      1.0  0.11721  0.61922  0.08859  1.0000
  H   H251      1.0  0.13320  0.63827  0.05337  1.0000
  H   H252      1.0  0.17204  0.63130  0.32413  1.0000
  H   H253      1.0  0.10112  0.59000  0.01201  1.0000
  C   C317      1.0  0.10502  0.38370  0.39856  1.0000
  C   C318      1.0  0.11430  0.36946  0.38794  1.0000
  C   C319      1.0  0.12412  0.35918  0.40833  1.0000
  C   C320      1.0  0.12501  0.36285  0.43979  1.0000
  C   C321      1.0  0.11588  0.37720  0.45030  1.0000
  C   C322      1.0  0.10598  0.38740  0.42999  1.0000
  H   H254      1.0  0.11381  0.36627  0.36402  1.0000
  H   H255      1.0  0.13106  0.34822  0.39961  1.0000
  C   C323      1.0  0.00279  0.47748  0.27077  1.0000
  H   H256      1.0  0.09900  0.39832  0.43875  1.0000
  C   C324      1.0  0.10320  0.37700  0.18757  1.0000
  C   C325      1.0  0.10027  0.36576  0.16332  1.0000
  C   C326      1.0  0.11317  0.36186  0.14178  1.0000
  C   C327      1.0  0.12917  0.36931  0.14404  1.0000
  C   C328      1.0  0.13206  0.38069  0.16811  1.0000
  C   C329      1.0  0.11918  0.38451  0.18978  1.0000
  H   H257      1.0  0.08789  0.36006  0.16113  1.0000
  H   H258      1.0  0.11070  0.35328  0.12319  1.0000
  H   H259      1.0  0.14434  0.38664  0.16997  1.0000
  H   H260      1.0  0.12161  0.39322  0.20821  1.0000
  C   C330      1.0  0.08247  0.48021  0.24740  1.0000
  C   C331      1.0  0.08467  0.49756  0.25415  1.0000
  C   C332      1.0  0.08280  0.51031  0.23143  1.0000
  C   C333      1.0  0.07913  0.50592  0.20132  1.0000
  C   C334      1.0  0.07630  0.48863  0.19485  1.0000
  C   C335      1.0  0.07782  0.47591  0.21770  1.0000
  H   H261      1.0  0.08801  0.50115  0.27709  1.0000
  H   H262      1.0  0.08436  0.52351  0.23713  1.0000
  H   H263      1.0  0.07304  0.48500  0.17194  1.0000
  H   H264      1.0  0.07568  0.46275  0.21232  1.0000
  H   H265      1.0  0.04319  0.38301  0.23824  1.0000
  H   H266      1.0  0.05609  0.56781  0.04159  1.0000
  C   C336      1.0  0.23156  0.33462  0.12810  1.0000
  H   H267      1.0  0.01299  0.40592  0.33451  1.0000
  C   C337      1.0  0.19060  0.60370  0.34849  1.0000
  C   C338      1.0  0.01420  0.34642  0.21167  1.0000
  C   C339      1.0  0.01003  0.58365  0.17882  1.0000
  H   H268      1.0  0.03027  0.53053  0.12040  1.0000
  H   H269      1.0  0.05269  0.39168  0.17373  1.0000
  H   H270      1.0  0.01905  0.55969  0.16115  1.0000
  H   H271      1.0  0.06942  0.63188  0.11291  1.0000
  C   C340      1.0  0.03816  0.59982  0.07700  1.0000
  C   C341      1.0  0.10161  0.48595  0.12891  1.0000
  H   H272      1.0  0.14427  0.42929  0.22732  1.0000
  H   H273      1.0  0.10027  0.42285  0.02519  1.0000
  C   C342      1.0  0.21828  0.36145  0.00632  1.0000
  C   C343      1.0  0.17813  0.62530  0.27694  1.0000
  C   C344      1.0  0.21922  0.33253  0.10515  1.0000
  H   H274      1.0  0.16140  0.58214  0.30734  1.0000
  H   H275      1.0  0.21139  0.62784  0.25161  1.0000
  C   C345      1.0  0.16832  0.58670  0.32675  1.0000
  H   H276      1.0  0.18273  0.35912  0.11155  1.0000
  H   H277      1.0  0.08577  0.58004  0.26621  1.0000
  C   C346      1.0  0.06721  0.51626  0.35754  1.0000
  H   H278      1.0  0.20055  0.36208  0.06562  1.0000
  S   S61       1.0  0.13045  0.33649  0.04198  1.0000
  C   C347      1.0  0.16093  0.65607  0.26359  1.0000
  C   C348      1.0  0.06158  0.43983  0.16493  1.0000
  C   C349      1.0  0.19223  0.36898  0.11053  1.0000
  C   C350      1.0  0.19437  0.37988  0.13522  1.0000
  C   C351      1.0  0.20674  0.39247  0.13388  1.0000
  C   C352      1.0  0.21664  0.39446  0.10749  1.0000
  C   C353      1.0  0.21415  0.38390  0.08221  1.0000
  C   C354      1.0  0.20223  0.37083  0.08428  1.0000
  C   C355      1.0  0.23155  0.65077  0.31726  1.0000
  H   H279      1.0  0.03226  0.56438  0.23361  1.0000
  C   C356      1.0  0.16824  0.64647  0.24005  1.0000
  H   H280      1.0  0.18643  0.37855  0.15537  1.0000
  H   H281      1.0  0.20858  0.40073  0.15324  1.0000
  C   C357      1.0  0.24182  0.32774  0.06847  1.0000
  P   P11       1.0  0.18823  0.60490  0.28504  1.0000
  C   C358      1.0  0.21119  0.60652  0.28331  1.0000
  H   H282      1.0  0.18225  0.62377  0.22812  1.0000
  C   C359      1.0  0.00792  0.56746  0.16632  1.0000
  H   H283      1.0  0.05381  0.60251  0.03631  1.0000
  P   P12       1.0  0.09440  0.56531  0.32668  1.0000
  C   C360      1.0  0.03423  0.56400  0.07112  1.0000
  H   H284      1.0  0.07860  0.40082  0.14754  1.0000
  C   C361      1.0  0.04746  0.61623  0.12043  1.0000
  C   C362      1.0  0.05835  0.54431  0.06660  1.0000
  H   H285      1.0  0.15177  0.42350  0.17318  1.0000
  S   S62       1.0  0.13845  0.63942  0.98779  1.0000
  H   H286      1.0  0.11400  0.46457  0.15015  1.0000
  H   H287      1.0  0.20378  0.65004  0.98152  1.0000
  C   C363      1.0  0.07769  0.58590  0.28320  1.0000
  H   H288      1.0  0.22854  0.65572  0.29484  1.0000
  H   H289      1.0  0.01980  0.61416  0.02236  1.0000
  C   C364      1.0  0.07297  0.35405  0.45826  1.0000
  H   H290      1.0  0.23063  0.45883  0.02809  1.0000
  C   C365      1.0  0.13779  0.55557  0.27647  1.0000
  C   C366      1.0  0.13145  0.54770  0.25051  1.0000
  C   C367      1.0  0.11395  0.54532  0.24755  1.0000
  C   C368      1.0  0.10277  0.55074  0.27061  1.0000
  C   C369      1.0  0.10897  0.55903  0.29648  1.0000
  C   C370      1.0  0.12660  0.56126  0.29938  1.0000
  C   C371      1.0  0.10974  0.59190  0.35724  1.0000
  C   C372      1.0  0.11839  0.59932  0.38140  1.0000
  H   H291      1.0  0.15135  0.55750  0.27852  1.0000
  H   H292      1.0  0.14003  0.54362  0.23248  1.0000
  H   H293      1.0  0.10908  0.53948  0.22711  1.0000
  H   H294      1.0  0.13173  0.56753  0.31905  1.0000
  H   H295      1.0  0.10578  0.59986  0.33821  1.0000
  H   H296      1.0  0.12095  0.61286  0.38081  1.0000
  C   C373      1.0  0.03864  0.49907  0.15232  1.0000
  C   C374      1.0  0.02881  0.48701  0.13753  1.0000
  C   C375      1.0  0.03508  0.37280  0.23074  1.0000
  C   C376      1.0  0.00958  0.48629  0.18094  1.0000
  C   C377      1.0  0.01922  0.49865  0.19565  1.0000
  C   C378      1.0  0.03387  0.50493  0.18124  1.0000
  P   P13       1.0  0.01370  0.50469  0.23408  1.0000
  H   H297      1.0  0.00728  0.43361  0.21331  1.0000
  C   C379      1.0  0.01663  0.48542  0.25632  1.0000
  H   H298      1.0  0.20094  0.61261  0.34607  1.0000
  C   C380      1.0  0.00885  0.35393  0.33909  1.0000
  C   C381      1.0  0.02177  0.45551  0.29060  1.0000
  C   C382      1.0  0.03541  0.46279  0.27495  1.0000
  C   C383      1.0  0.03282  0.47753  0.25747  1.0000
  H   H299      1.0  0.19633  0.62086  0.45354  1.0000
  H   H300      1.0  0.01170  0.42873  0.15772  1.0000
  C   C384      1.0  0.99532  0.59341  0.18595  1.0000
  C   C385      1.0  0.03652  0.60438  0.10776  1.0000
  H   H301      1.0  0.00466  0.61258  0.08914  1.0000
  C   C386      1.0  0.02711  0.52183  0.24637  1.0000
  C   C387      1.0  0.02451  0.53818  0.23385  1.0000
  C   C388      1.0  0.03435  0.55180  0.24343  1.0000
  C   C389      1.0  0.04698  0.54918  0.26532  1.0000
  C   C390      1.0  0.04985  0.53293  0.27754  1.0000
  C   C391      1.0  0.03983  0.51933  0.26845  1.0000
  H   H302      1.0  0.05015  0.50378  0.14169  1.0000
  H   H303      1.0  0.03259  0.48248  0.11516  1.0000
  C   C392      1.0  0.16100  0.57924  0.22074  1.0000
  H   H304      1.0  0.19660  0.39929  0.01157  1.0000
  H   H305      1.0  0.04190  0.51406  0.19239  1.0000
  C   C393      1.0  0.10164  0.41790  0.04819  1.0000
  C   C394      1.0  0.00842  0.35755  0.23462  1.0000
  H   H306      1.0  0.02386  0.44417  0.30439  1.0000
  H   H307      1.0  0.04804  0.45700  0.27639  1.0000
  H   H308      1.0  0.04353  0.48288  0.24522  1.0000
  H   H309      1.0  0.14549  0.33316  0.16917  1.0000
  C   C395      1.0  0.07810  0.33686  0.45653  1.0000
  C   C396      1.0  0.00020  0.43507  0.16582  1.0000
  S   S63       1.0  0.20923  0.32583  0.04540  1.0000
  H   H310      1.0  0.01475  0.37940  0.26168  1.0000
  C   C397      1.0  0.04089  0.36149  0.20837  1.0000
  C   C398      1.0  0.02369  0.57260  0.00092  1.0000
  H   H311      1.0  0.05464  0.55972  0.27254  1.0000
  H   H312      1.0  0.05990  0.53081  0.29396  1.0000
  H   H313      1.0  0.04218  0.50704  0.27885  1.0000
  P   P14       1.0  0.09313  0.43460  0.13588  1.0000
  C   C399      1.0  0.10926  0.43203  0.16491  1.0000
  S   S64       1.0  0.13741  0.34900  0.46479  1.0000
  C   C400      1.0  0.10516  0.43519  0.19559  1.0000
  C   C401      1.0  0.11780  0.43443  0.21788  1.0000
  C   C402      1.0  0.13457  0.43012  0.20987  1.0000
  C   C403      1.0  0.13878  0.42690  0.17940  1.0000
  C   C404      1.0  0.12623  0.42806  0.15691  1.0000
  C   C405      1.0  0.09875  0.42162  0.10311  1.0000
  C   C406      1.0  0.02301  0.58677  0.02028  1.0000
  H   H314      1.0  0.22753  0.33745  0.15116  1.0000
  C   C407      1.0  0.21493  0.43827  0.04382  1.0000
  H   H315      1.0  0.20418  0.44651  0.04958  1.0000
  C   C408      1.0  0.10533  0.40503  0.10737  1.0000
  H   H316      1.0  0.05796  0.52242  0.09637  1.0000
  H   H317      1.0  0.12393  0.56432  0.42649  1.0000
  H   H318      1.0  0.08925  0.54868  0.26811  1.0000
  H   H319      1.0  0.09226  0.43840  0.20242  1.0000
  H   H320      1.0  0.11455  0.43728  0.24140  1.0000
  C   C409      1.0  0.08793  0.49173  0.11122  1.0000
  C   C410      1.0  0.04999  0.55942  0.05790  1.0000
  H   H321      1.0  0.12985  0.42588  0.13338  1.0000
  H   H322      1.0  0.04996  0.60986  0.34305  1.0000
  C   C411      1.0  0.10600  0.57447  0.35787  1.0000
  H   H323      1.0  0.10710  0.39987  0.13010  1.0000
  H   H324      1.0  0.07115  0.36366  0.38254  1.0000
  H   H325      1.0  0.18470  0.59171  0.45360  1.0000
  H   H326      1.0  0.02105  0.35067  0.34920  1.0000
  H   H327      1.0  0.07059  0.58775  0.35983  1.0000
  C   C412      1.0  0.04682  0.43449  0.18001  1.0000
  C   C413      1.0  0.06916  0.59034  0.33568  1.0000
  C   C414      1.0  0.09141  0.45694  0.12566  1.0000
  H   H328      1.0  0.15787  0.60234  0.24573  1.0000
  C   C415      1.0  0.05751  0.60297  0.32629  1.0000
  C   C416      1.0  0.06596  0.59843  0.27383  1.0000
  H   H329      1.0  0.01705  0.34744  0.29389  1.0000
  H   H330      1.0  0.00639  0.33608  0.20403  1.0000
  C   C417      1.0  0.03040  0.34839  0.19865  1.0000
  H   H331      1.0  0.06418  0.45330  0.16408  1.0000
  H   H332      1.0  0.99476  0.45649  0.29923  1.0000
  C   C418      1.0  0.17689  0.63120  0.24668  1.0000
  C   C419      1.0  0.09701  0.42799  0.07322  1.0000
  H   H333      1.0  0.06824  0.45408  0.09981  1.0000
  C   C420      1.0  0.07260  0.35602  0.40311  1.0000
  C   C421      1.0  0.17207  0.58738  0.38153  1.0000
  C   C422      1.0  0.17123  0.56487  0.21515  1.0000
  H   H334      1.0  0.05359  0.36285  0.19881  1.0000
  H   H335      1.0  0.11531  0.38232  0.08578  1.0000
  C   C423      1.0  0.19170  0.57470  0.25201  1.0000
  C   C424      1.0  0.03557  0.53833  0.10235  1.0000
  C   C425      1.0  0.05583  0.60692  0.29534  1.0000
  H   H336      1.0  0.21595  0.58553  0.31468  1.0000
  H   H337      1.0  0.10433  0.52901  0.32538  1.0000
  P   P15       1.0  0.22619  0.38714  0.04749  1.0000
  C   C426      1.0  0.07718  0.33880  0.40118  1.0000
  C   C427      1.0  0.07035  0.36360  0.43161  1.0000
  C   C428      1.0  0.11136  0.56449  0.38281  1.0000
  H   H338      1.0  0.11186  0.39363  0.03336  1.0000
  C   C429      1.0  0.22770  0.40986  0.04110  1.0000
  C   C430      1.0  0.05114  0.53375  0.08879  1.0000
  C   C431      1.0  0.06754  0.54704  0.35305  1.0000
  C   C432      1.0  0.08379  0.54619  0.33945  1.0000
  C   C433      1.0  0.18577  0.59834  0.37770  1.0000
  H   H339      1.0  0.03837  0.44378  0.19066  1.0000
  C   C434      1.0  0.10342  0.46863  0.13603  1.0000
  H   H340      1.0  0.99862  0.48085  0.19230  1.0000
  H   H341      1.0  0.04676  0.53288  0.37248  1.0000
  C   C435      1.0  0.00266  0.58618  0.07538  1.0000
  H   H342      1.0  0.06496  0.60176  0.24984  1.0000
  C   C436      1.0  0.04351  0.41712  0.18293  1.0000
  H   H343      1.0  0.06108  0.55911  0.35663  1.0000
  C   C437      1.0  0.09173  0.53015  0.33546  1.0000
  H   H344      1.0  0.06080  0.50469  0.36431  1.0000
  H   H345      1.0  0.19242  0.60313  0.39739  1.0000
  H   H346      1.0  0.20222  0.41556  0.05799  1.0000
  C   C438      1.0  0.05932  0.53213  0.36207  1.0000
  C   C439      1.0  0.05155  0.60657  0.05955  1.0000
  H   H347      1.0  0.03256  0.41289  0.19598  1.0000
  H   H348      1.0  0.06712  0.37705  0.43292  1.0000
  C   C440      1.0  0.11003  0.39503  0.08230  1.0000
  H   H349      1.0  0.04690  0.61677  0.28800  1.0000
  H   H350      1.0  0.10872  0.55101  0.38378  1.0000
  H   H351      1.0  0.08950  0.50293  0.34061  1.0000
  H   H352      1.0  0.24199  0.63231  0.39702  1.0000
  C   C441      1.0  0.17122  0.63533  0.30054  1.0000
  H   H353      1.0  0.12997  0.59527  0.42533  1.0000
  C   C442      1.0  0.08341  0.51528  0.34425  1.0000
  H   H354      1.0  0.08647  0.50524  0.10638  1.0000
  C   C443      1.0  0.10815  0.40143  0.05273  1.0000
  C   C444      1.0  0.12005  0.57196  0.40700  1.0000
  C   C445      1.0  0.22155  0.59522  0.30029  1.0000
  C   C446      1.0  0.21387  0.42070  0.04854  1.0000
  C   C447      1.0  0.21444  0.37803  0.01628  1.0000
  H   H355      1.0  0.16723  0.55552  0.19870  1.0000
  S   S65       1.0  0.16951  0.65478  0.44709  1.0000
  C   C448      1.0  0.12349  0.58939  0.40637  1.0000
  C   C449      1.0  0.07316  0.42783  0.15254  1.0000
  H   H356      1.0  0.09227  0.44075  0.06894  1.0000
  H   H357      1.0  0.01486  0.54049  0.21667  1.0000
  H   H358      1.0  0.16804  0.58363  0.40423  1.0000
  H   H359      1.0  0.06539  0.48472  0.08693  1.0000
  H   H360      1.0  0.11056  0.49501  0.13782  1.0000
  C   C450      1.0  0.01425  0.48064  0.15182  1.0000
  C   C451      1.0  0.05488  0.40514  0.17056  1.0000
  C   C452      1.0  0.18159  0.58930  0.25749  1.0000
  H   H361      1.0  0.14898  0.58098  0.20887  1.0000
  C   C453      1.0  0.00240  0.41116  0.29024  1.0000
  C   C454      1.0  0.18857  0.33564  0.17051  1.0000
  C   C455      1.0  0.07974  0.32919  0.42779  1.0000
  C   C456      1.0  0.16611  0.59138  0.24181  1.0000
  H   H362      1.0  0.19446  0.55139  0.22661  1.0000
  H   H363      1.0  0.15254  0.57331  0.35915  1.0000
  C   C457      1.0  0.20030  0.38675  0.00377  1.0000
  C   C458      1.0  0.18345  0.59953  0.47375  1.0000
  C   C459      1.0  0.21892  0.61884  0.26473  1.0000
  C   C460      1.0  0.00656  0.35229  0.30764  1.0000
  C   C461      1.0  0.16331  0.58160  0.35607  1.0000
  C   C462      1.0  0.00142  0.40727  0.32136  1.0000
  H   H364      1.0  0.21227  0.58294  0.98492  1.0000
  H   H365      1.0  0.21939  0.55459  0.00577  1.0000
  C   C463      1.0  0.18200  0.59780  0.32274  1.0000
  C   C464      1.0  0.01894  0.37080  0.24386  1.0000
  C   C465      1.0  0.18654  0.56257  0.23087  1.0000
  H   H366      1.0  0.11649  0.38054  0.47414  1.0000
  C   C466      1.0  0.22981  0.44520  0.03171  1.0000
  C   C467      1.0  0.06056  0.62315  0.10279  1.0000
  C   C468      1.0  0.18402  0.63169  0.98833  1.0000
  C   C469      1.0  0.00540  0.46261  0.28797  1.0000
  H   H367      1.0  0.09229  0.32933  0.17758  1.0000
  C   C470      1.0  0.20818  0.35373  0.98431  1.0000
  C   C471      1.0  0.06265  0.61825  0.07240  1.0000
  Fe  Fe32      1.0  0.18018  0.33088  0.04504  1.0000
  H   H368      1.0  0.01560  0.55711  0.10552  1.0000
  C   C472      1.0  0.02721  0.55345  0.09374  1.0000
  H   H369      1.0  0.02500  0.55983  0.01016  1.0000
  H   H370      1.0  0.02688  0.59864  0.12210  1.0000
  H   H371      1.0  0.04607  0.61963  0.14427  1.0000
  C   C473      1.0  0.16253  0.65057  0.29378  1.0000
  H   H372      1.0  0.17622  0.64000  0.00256  1.0000
  C   C474      1.0  0.23898  0.63758  0.37481  1.0000
  H   H373      1.0  0.23981  0.34909  0.45535  1.0000
  C   C475      1.0  0.18999  0.61595  0.47373  1.0000
  C   C476      1.0  0.21832  0.64877  0.33904  1.0000
  C   C477      1.0  0.17147  0.34080  0.16947  1.0000
  H   H374      1.0  0.19850  0.34505  0.16952  1.0000
  H   H375      1.0  0.03493  0.33966  0.18124  1.0000
  P   P16       1.0  0.02427  0.58413  0.06107  1.0000
  H   H376      1.0  0.00674  0.47117  0.14050  1.0000
  H   H377      1.0  0.99731  0.36149  0.38176  1.0000
  H   H378      1.0  0.22852  0.35406  0.01661  1.0000
  C   C478      1.0  0.99768  0.43778  0.19701  1.0000
  H   H379      1.0  0.22615  0.40430  0.10672  1.0000
  H   H380      1.0  0.15658  0.65788  0.31192  1.0000
  H   H381      1.0  0.20532  0.65214  0.33323  1.0000
  C   C479      1.0  0.99658  0.60159  0.08782  1.0000
  C   C480      1.0  0.22147  0.55719  0.98173  1.0000
  H   H382      1.0  0.20580  0.33348  0.11065  1.0000
  H   H383      1.0  0.99672  0.60592  0.19573  1.0000
  C   C481      1.0  0.22426  0.32911  0.07512  1.0000
  C   C482      1.0  0.19023  0.37898  0.98178  1.0000
  C   C483      1.0  0.02069  0.60311  0.00771  1.0000
  H   H384      1.0  0.16692  0.65069  0.21661  1.0000
  H   H385      1.0  0.07329  0.62302  0.05915  1.0000
  C   C484      1.0  0.15861  0.32873  0.17035  1.0000
  H   H386      1.0  0.99547  0.56090  0.06141  1.0000
  H   H387      1.0  0.07908  0.33302  0.37904  1.0000
  H   H388      1.0  0.07128  0.36021  0.48011  1.0000
  Fe  Fe33      1.0  0.05087  0.41081  0.77654  1.0000
  S   S66       1.0  0.06027  0.42512  0.81734  1.0000
  S   S67       1.0  0.02317  0.40955  0.75878  1.0000
  Fe  Fe34      1.0  0.08792  0.40660  0.75095  1.0000
  S   S68       1.0  0.09910  0.42112  0.79044  1.0000
  S   S69       1.0  0.10592  0.40058  0.71051  1.0000
  Fe  Fe35      1.0  0.08179  0.40531  0.82041  1.0000
  S   S70       1.0  0.08840  0.39191  0.86696  1.0000
  Fe  Fe36      1.0  0.07695  0.43962  0.78415  1.0000
  S   S71       1.0  0.07615  0.46905  0.78529  1.0000
  S   S72       1.0  0.07134  0.39010  0.78073  1.0000
  S   S73       1.0  0.06690  0.42602  0.74370  1.0000
  Fe  Fe37      1.0  0.08017  0.55452  0.67948  1.0000
  S   S74       1.0  0.05989  0.56490  0.71079  1.0000
  S   S75       1.0  0.09103  0.52723  0.68483  1.0000
  Fe  Fe38      1.0  0.08047  0.58728  0.63825  1.0000
  S   S76       1.0  0.05959  0.59914  0.66755  1.0000
  S   S77       1.0  0.08944  0.60559  0.59926  1.0000
  Fe  Fe39      1.0  0.07462  0.58937  0.70800  1.0000
  S   S78       1.0  0.07732  0.60701  0.74904  1.0000
  Fe  Fe40      1.0  0.04655  0.57384  0.66810  1.0000
  S   S79       1.0  0.01882  0.56729  0.65637  1.0000
  S   S80       1.0  0.09595  0.57861  0.67914  1.0000
  S   S81       1.0  0.06638  0.56237  0.63631  1.0000
  H   H389      1.0  0.17897  0.38548  0.97294  1.0000
  S   S82       1.0  0.15741  0.35293  0.55370  1.0000
  S   S83       1.0  0.12603  0.33701  0.62533  1.0000
  C   C485      1.0  0.11932  0.46530  0.64834  1.0000
  H   H390      1.0  0.10642  0.49294  0.81490  1.0000
  Fe  Fe41      1.0  0.14671  0.33907  0.51268  1.0000
  H   H391      1.0  0.22945  0.56657  0.89588  1.0000
  H   H392      1.0  0.19300  0.56970  0.90092  1.0000
  Fe  Fe42      1.0  0.14755  0.64739  0.93868  1.0000
  C   C486      1.0  0.16330  0.61147  0.60207  1.0000
  C   C487      1.0  0.06892  0.64130  0.69236  1.0000
  C   C488      1.0  0.04374  0.55473  0.78287  1.0000
  C   C489      1.0  0.10953  0.32809  0.80792  1.0000
  Fe  Fe43      1.0  0.14806  0.64103  0.86932  1.0000
  S   S84       1.0  0.14263  0.62247  0.83033  1.0000
  S   S85       1.0  0.16416  0.63082  0.90822  1.0000
  H   H393      1.0  0.09192  0.54794  0.88944  1.0000
  H   H394      1.0  0.16618  0.59857  0.54481  1.0000
  H   H395      1.0  0.01121  0.45904  0.77182  1.0000
  C   C490      1.0  0.08615  0.35390  0.82308  1.0000
  C   C491      1.0  0.22450  0.33470  0.58490  1.0000
  H   H396      1.0  0.20847  0.34531  0.62013  1.0000
  H   H397      1.0  0.16018  0.64127  0.72625  1.0000
  C   C492      1.0  0.09566  0.61118  0.77123  1.0000
  C   C493      1.0  0.11112  0.60242  0.76679  1.0000
  C   C494      1.0  0.12532  0.60608  0.78509  1.0000
  C   C495      1.0  0.12421  0.61839  0.80827  1.0000
  C   C496      1.0  0.10873  0.62713  0.81277  1.0000
  C   C497      1.0  0.09456  0.62351  0.79436  1.0000
  H   H398      1.0  0.11207  0.59276  0.74940  1.0000
  H   H399      1.0  0.13723  0.59928  0.78131  1.0000
  H   H400      1.0  0.10767  0.63668  0.83039  1.0000
  H   H401      1.0  0.08264  0.63033  0.79807  1.0000
  C   C498      1.0  0.10280  0.60868  0.56598  1.0000
  C   C499      1.0  0.11500  0.59662  0.55618  1.0000
  C   C500      1.0  0.12568  0.60004  0.53067  1.0000
  C   C501      1.0  0.12449  0.61557  0.51434  1.0000
  C   C502      1.0  0.11232  0.62765  0.52415  1.0000
  C   C503      1.0  0.10160  0.62421  0.54958  1.0000
  H   H402      1.0  0.11627  0.58465  0.56835  1.0000
  H   H403      1.0  0.13493  0.59051  0.52349  1.0000
  H   H404      1.0  0.15200  0.59391  0.63408  1.0000
  H   H405      1.0  0.09232  0.63373  0.55673  1.0000
  C   C504      1.0  0.10440  0.38280  0.89218  1.0000
  C   C505      1.0  0.12195  0.38407  0.88659  1.0000
  C   C506      1.0  0.13403  0.37681  0.90716  1.0000
  C   C507      1.0  0.12891  0.36811  0.93394  1.0000
  C   C508      1.0  0.11135  0.36685  0.93956  1.0000
  C   C509      1.0  0.09929  0.37411  0.91895  1.0000
  H   H406      1.0  0.12617  0.39086  0.86654  1.0000
  H   H407      1.0  0.14748  0.37801  0.90230  1.0000
  H   H408      1.0  0.15464  0.33226  0.67518  1.0000
  H   H409      1.0  0.08582  0.37297  0.92383  1.0000
  C   C510      1.0  0.11102  0.38272  0.68693  1.0000
  C   C511      1.0  0.12347  0.38455  0.66387  1.0000
  C   C512      1.0  0.12810  0.37083  0.64463  1.0000
  C   C513      1.0  0.12029  0.35505  0.64813  1.0000
  C   C514      1.0  0.10766  0.35330  0.67092  1.0000
  C   C515      1.0  0.10312  0.36698  0.69031  1.0000
  H   H410      1.0  0.12967  0.39666  0.66098  1.0000
  H   H411      1.0  0.13782  0.37244  0.62730  1.0000
  H   H412      1.0  0.10142  0.34121  0.67377  1.0000
  H   H413      1.0  0.09352  0.36534  0.70785  1.0000
  C   C516      1.0  0.07996  0.48486  0.75648  1.0000
  C   C517      1.0  0.07340  0.50152  0.76054  1.0000
  C   C518      1.0  0.07639  0.51452  0.73872  1.0000
  C   C519      1.0  0.08632  0.51115  0.71272  1.0000
  C   C520      1.0  0.09298  0.49453  0.70880  1.0000
  C   C521      1.0  0.08975  0.48147  0.73036  1.0000
  H   H414      1.0  0.06585  0.50434  0.78064  1.0000
  H   H415      1.0  0.07100  0.52712  0.74193  1.0000
  H   H416      1.0  0.10068  0.49170  0.68888  1.0000
  H   H417      1.0  0.09504  0.46884  0.72703  1.0000
  C   C522      1.0  0.20077  0.59549  0.89046  1.0000
  C   C523      1.0  0.00194  0.40803  0.77396  1.0000
  C   C524      1.0  0.99860  0.40385  0.80449  1.0000
  H   H418      1.0  0.15932  0.64931  0.66827  1.0000
  H   H419      1.0  0.00912  0.40175  0.81996  1.0000
  C   C525      1.0  0.17668  0.59398  0.84350  1.0000
  H   H420      1.0  0.03534  0.44072  0.67040  1.0000
  H   H421      1.0  0.04705  0.59736  0.79367  1.0000
  H   H422      1.0  0.00551  0.59155  0.70237  1.0000
  C   C526      1.0  0.15480  0.59884  0.71625  1.0000
  H   H423      1.0  0.17221  0.56842  0.85917  1.0000
  C   C527      1.0  0.11545  0.55366  0.73983  1.0000
  C   C528      1.0  0.13227  0.55716  0.74745  1.0000
  C   C529      1.0  0.13650  0.56031  0.77778  1.0000
  C   C530      1.0  0.12392  0.55983  0.80049  1.0000
  C   C531      1.0  0.10689  0.55666  0.79289  1.0000
  C   C532      1.0  0.10277  0.55348  0.76237  1.0000
  P   P17       1.0  0.09098  0.55425  0.82250  1.0000
  C   C533      1.0  0.08944  0.53197  0.83273  1.0000
  C   C534      1.0  0.09674  0.56720  0.85486  1.0000
  C   C535      1.0  0.09607  0.56074  0.88482  1.0000
  H   H424      1.0  0.11110  0.63964  0.51204  1.0000
  C   C536      1.0  0.10692  0.58728  0.90425  1.0000
  C   C537      1.0  0.10777  0.59374  0.87457  1.0000
  C   C538      1.0  0.10268  0.58378  0.85003  1.0000
  H   H425      1.0  0.06700  0.53571  0.86106  1.0000
  H   H426      1.0  0.15306  0.64741  0.51566  1.0000
  H   H427      1.0  0.22897  0.36680  0.54590  1.0000
  H   H428      1.0  0.03742  0.46267  0.55560  1.0000
  C   C539      1.0  0.14866  0.33982  0.82703  1.0000
  C   C540      1.0  0.07054  0.56126  0.80763  1.0000
  C   C541      1.0  0.06584  0.57859  0.80726  1.0000
  C   C542      1.0  0.05024  0.58390  0.79487  1.0000
  C   C543      1.0  0.20930  0.62677  0.95734  1.0000
  H   H429      1.0  0.23214  0.34889  0.65694  1.0000
  C   C544      1.0  0.05937  0.54939  0.79509  1.0000
  H   H430      1.0  0.11223  0.55077  0.71645  1.0000
  H   H431      1.0  0.14202  0.55717  0.72987  1.0000
  H   H432      1.0  0.14956  0.56293  0.78378  1.0000
  H   H433      1.0  0.12755  0.56180  0.82397  1.0000
  H   H434      1.0  0.08986  0.55054  0.75593  1.0000
  C   C545      1.0  0.15065  0.65790  0.65652  1.0000
  C   C546      1.0  0.00811  0.44989  0.72615  1.0000
  H   H435      1.0  0.11089  0.59504  0.92323  1.0000
  H   H436      1.0  0.11252  0.60647  0.87051  1.0000
  H   H437      1.0  0.10359  0.58896  0.82719  1.0000
  H   H438      1.0  0.11841  0.33126  0.74845  1.0000
  C   C547      1.0  0.10184  0.35740  0.56926  1.0000
  C   C548      1.0  0.19146  0.58059  0.88592  1.0000
  H   H439      1.0  0.13120  0.64256  0.76655  1.0000
  C   C549      1.0  0.02257  0.57483  0.96930  1.0000
  H   H440      1.0  0.07431  0.58818  0.81557  1.0000
  H   H441      1.0  0.18276  0.59288  0.95482  1.0000
  C   C550      1.0  0.01222  0.60703  0.61568  1.0000
  C   C551      1.0  0.11658  0.44495  0.68964  1.0000
  C   C552      1.0  0.19956  0.63729  0.97658  1.0000
  C   C553      1.0  0.09999  0.35120  0.51544  1.0000
  C   C554      1.0  0.18779  0.60508  0.96131  1.0000
  H   H442      1.0  0.05277  0.51123  0.65632  1.0000
  H   H443      1.0  0.18586  0.35625  0.95602  1.0000
  H   H444      1.0  0.18291  0.62013  0.83443  1.0000
  H   H445      1.0  0.20391  0.62162  0.87598  1.0000
  H   H446      1.0  0.10705  0.36480  0.58768  1.0000
  C   C555      1.0  0.16258  0.61405  0.72422  1.0000
  H   H447      1.0  0.07719  0.36387  0.82977  1.0000
  H   H448      1.0  0.22092  0.63168  0.94758  1.0000
  C   C556      1.0  0.00294  0.45884  0.75210  1.0000
  C   C557      1.0  0.17973  0.62005  0.52571  1.0000
  C   C558      1.0  0.17501  0.59333  0.49958  1.0000
  Fe  Fe44      1.0  0.18083  0.65363  0.89978  1.0000
  C   C559      1.0  0.13434  0.61384  0.62113  1.0000
  H   H449      1.0  0.06281  0.53601  0.79408  1.0000
  C   C560      1.0  0.23249  0.35816  0.49981  1.0000
  S   S86       1.0  0.14502  0.35915  0.95914  1.0000
  C   C561      1.0  0.23622  0.64587  0.82080  1.0000
  C   C562      1.0  0.10631  0.36108  0.53909  1.0000
  C   C563      1.0  0.07608  0.44249  0.55855  1.0000
  C   C564      1.0  0.20349  0.61057  0.94958  1.0000
  C   C565      1.0  0.06128  0.44975  0.54611  1.0000
  H   H450      1.0  0.16709  0.59361  0.82583  1.0000
  H   H451      1.0  0.09171  0.43510  0.69742  1.0000
  C   C566      1.0  0.02163  0.61077  0.58941  1.0000
  C   C567      1.0  0.23480  0.34337  0.63483  1.0000
  C   C568      1.0  0.15014  0.60540  0.62063  1.0000
  C   C569      1.0  0.16072  0.62604  0.58376  1.0000
  C   C570      1.0  0.13107  0.33434  0.74057  1.0000
  C   C571      1.0  0.09734  0.64124  0.67065  1.0000
  C   C572      1.0  0.21986  0.57670  0.93856  1.0000
  H   H452      1.0  0.12210  0.43770  0.70836  1.0000
  H   H453      1.0  0.14210  0.64539  0.57028  1.0000
  H   H454      1.0  0.13999  0.45728  0.67753  1.0000
  C   C573      1.0  0.08494  0.49715  0.84471  1.0000
  C   C574      1.0  0.99486  0.58528  0.69196  1.0000
  H   H455      1.0  0.11714  0.60905  0.97678  1.0000
  H   H456      1.0  0.10053  0.56576  0.93244  1.0000
  C   C575      1.0  0.10204  0.46353  0.64156  1.0000
  C   C576      1.0  0.19748  0.63290  0.58004  1.0000
  C   C577      1.0  0.19755  0.60974  0.87178  1.0000
  H   H457      1.0  0.07212  0.38879  0.67448  1.0000
  H   H458      1.0  0.21367  0.62857  0.54043  1.0000
  C   C578      1.0  0.13758  0.63011  0.70717  1.0000
  H   H459      1.0  0.23139  0.60367  0.86239  1.0000
  H   H460      1.0  0.04038  0.48064  0.73464  1.0000
  C   C579      1.0  0.18810  0.62620  0.49953  1.0000
  C   C580      1.0  0.13566  0.33016  0.71062  1.0000
  H   H461      1.0  0.03978  0.50855  0.70767  1.0000
  H   H462      1.0  0.05929  0.44945  0.52167  1.0000
  H   H463      1.0  0.10402  0.35378  0.49231  1.0000
  H   H464      1.0  0.03543  0.60965  0.58976  1.0000
  H   H465      1.0  0.06331  0.50501  0.87176  1.0000
  H   H466      1.0  0.12385  0.60877  0.63440  1.0000
  H   H467      1.0  0.13176  0.34879  0.86306  1.0000
  H   H468      1.0  0.08292  0.48365  0.84840  1.0000
  H   H469      1.0  0.02032  0.44320  0.72596  1.0000
  C   C581      1.0  0.07603  0.52654  0.85165  1.0000
  C   C582      1.0  0.14478  0.63441  0.58448  1.0000
  C   C583      1.0  0.09829  0.50242  0.82587  1.0000
  C   C584      1.0  0.21313  0.63046  0.56483  1.0000
  C   C585      1.0  0.04525  0.48165  0.71152  1.0000
  P   P18       1.0  0.17769  0.63339  0.55907  1.0000
  H   H470      1.0  0.16132  0.58677  0.72012  1.0000
  H   H471      1.0  0.01873  0.60295  0.63629  1.0000
  C   C586      1.0  0.18567  0.60893  0.84824  1.0000
  H   H472      1.0  0.12701  0.47406  0.63520  1.0000
  H   H473      1.0  0.21257  0.63739  0.65239  1.0000
  C   C587      1.0  0.10269  0.35809  0.81397  1.0000
  C   C588      1.0  0.11446  0.34519  0.80603  1.0000
  C   C589      1.0  0.05269  0.46739  0.69753  1.0000
  H   H474      1.0  0.11070  0.52338  0.80443  1.0000
  C   C590      1.0  0.17955  0.57983  0.86235  1.0000
  Fe  Fe45      1.0  0.17891  0.33303  0.55485  1.0000
  H   H475      1.0  0.09005  0.43684  0.59945  1.0000
  C   C591      1.0  0.16284  0.34367  0.71716  1.0000
  H   H476      1.0  0.08851  0.34043  0.59936  1.0000
  H   H477      1.0  0.08398  0.41556  0.65520  1.0000
  C   C592      1.0  0.07385  0.50920  0.85769  1.0000
  C   C593      1.0  0.13981  0.37266  0.79733  1.0000
  C   C594      1.0  0.13377  0.38271  0.77297  1.0000
  C   C595      1.0  0.13690  0.40018  0.77209  1.0000
  C   C596      1.0  0.14581  0.40781  0.79569  1.0000
  C   C597      1.0  0.15189  0.39791  0.81998  1.0000
  C   C598      1.0  0.14903  0.38038  0.82074  1.0000
  H   H478      1.0  0.06557  0.48607  0.63109  1.0000
  H   H479      1.0  0.10624  0.37136  0.81393  1.0000
  H   H480      1.0  0.10701  0.36024  0.95980  1.0000
  C   C599      1.0  0.15837  0.34774  0.74723  1.0000
  C   C600      1.0  0.24012  0.60696  0.88030  1.0000
  H   H481      1.0  0.05352  0.45558  0.71027  1.0000
  C   C601      1.0  0.05950  0.46862  0.66791  1.0000
  H   H482      1.0  0.11506  0.37126  0.53404  1.0000
  C   C602      1.0  0.13178  0.62846  0.60340  1.0000
  H   H483      1.0  0.12663  0.37707  0.75458  1.0000
  H   H484      1.0  0.13216  0.40784  0.75324  1.0000
  H   H485      1.0  0.14785  0.42141  0.79521  1.0000
  H   H486      1.0  0.15867  0.40384  0.83844  1.0000
  H   H487      1.0  0.15388  0.37304  0.83982  1.0000
  C   C603      1.0  0.08498  0.33374  0.55212  1.0000
  P   P19       1.0  0.21494  0.59739  0.92249  1.0000
  C   C604      1.0  0.12662  0.45593  0.67226  1.0000
  C   C605      1.0  0.07989  0.63854  0.66759  1.0000
  H   H488      1.0  0.02374  0.41367  0.68998  1.0000
  P   P20       1.0  0.13636  0.34998  0.79715  1.0000
  H   H489      1.0  0.17494  0.34768  0.70776  1.0000
  C   C606      1.0  0.13844  0.59921  0.70388  1.0000
  C   C607      1.0  0.22283  0.64820  0.84219  1.0000
  C   C608      1.0  0.99442  0.60810  0.61524  1.0000
  S   S87       1.0  0.13076  0.65683  0.89972  1.0000
  C   C609      1.0  0.22128  0.34129  0.61400  1.0000
  C   C610      1.0  0.19740  0.63547  0.61174  1.0000
  H   H490      1.0  0.03539  0.54553  0.77268  1.0000
  H   H491      1.0  0.04172  0.46307  0.61134  1.0000
  H   H492      1.0  0.11691  0.61456  0.69094  1.0000
  C   C611      1.0  0.99790  0.57299  0.66950  1.0000
  H   H493      1.0  0.13223  0.58742  0.69826  1.0000
  H   H494      1.0  0.05156  0.33646  0.52400  1.0000
  C   C612      1.0  0.23539  0.60575  0.91121  1.0000
  C   C613      1.0  0.08902  0.33771  0.52166  1.0000
  H   H495      1.0  0.19309  0.63897  0.49889  1.0000
  C   C614      1.0  0.10058  0.51974  0.81987  1.0000
  C   C615      1.0  0.05955  0.48456  0.65319  1.0000
  H   H496      1.0  0.17538  0.60460  0.60147  1.0000
  H   H497      1.0  0.10565  0.63867  0.65142  1.0000
  C   C616      1.0  0.05226  0.49885  0.66737  1.0000
  C   C617      1.0  0.08124  0.33691  0.82431  1.0000
  H   H498      1.0  0.01796  0.61797  0.96650  1.0000
  C   C618      1.0  0.99539  0.61682  0.56215  1.0000
  H   H499      1.0  0.02733  0.57619  0.77231  1.0000
  C   C619      1.0  0.03919  0.57199  0.78269  1.0000
  C   C620      1.0  0.02059  0.59117  0.95689  1.0000
  H   H500      1.0  0.23671  0.53821  0.91733  1.0000
  C   C621      1.0  0.07542  0.64680  0.72015  1.0000
  H   H501      1.0  0.09652  0.47106  0.62325  1.0000
  C   C622      1.0  0.23122  0.54797  0.93193  1.0000
  C   C623      1.0  0.10107  0.57079  0.90938  1.0000
  H   H502      1.0  0.17512  0.61377  0.73442  1.0000
  C   C624      1.0  0.12978  0.61474  0.69959  1.0000
  C   C625      1.0  0.07865  0.44280  0.59008  1.0000
  C   C626      1.0  0.04498  0.49737  0.69641  1.0000
  H   H503      1.0  0.04207  0.38783  0.69265  1.0000
  C   C627      1.0  0.15256  0.33393  0.88110  1.0000
  C   C628      1.0  0.15404  0.62962  0.71961  1.0000
  C   C629      1.0  0.99730  0.44909  0.70100  1.0000
  C   C630      1.0  0.09929  0.44330  0.68309  1.0000
  H   H504      1.0  0.20981  0.64581  0.83573  1.0000
  C   C631      1.0  0.14320  0.34149  0.85748  1.0000
  H   H505      1.0  0.08552  0.43649  0.54379  1.0000
  H   H506      1.0  0.11939  0.63474  0.60318  1.0000
  H   H507      1.0  0.07495  0.63387  0.64620  1.0000
  C   C632      1.0  0.09127  0.34368  0.57579  1.0000
  C   C633      1.0  0.17315  0.60353  0.52549  1.0000
  C   C634      1.0  0.10398  0.64682  0.69848  1.0000
  C   C635      1.0  0.03683  0.41419  0.68203  1.0000
  C   C636      1.0  0.04716  0.39955  0.68345  1.0000
  C   C637      1.0  0.06407  0.40012  0.67339  1.0000
  C   C638      1.0  0.07082  0.41545  0.66280  1.0000
  C   C639      1.0  0.06084  0.43046  0.66312  1.0000
  C   C640      1.0  0.04355  0.42954  0.67145  1.0000
  P   P21       1.0  0.06960  0.45037  0.65002  1.0000
  C   C641      1.0  0.09196  0.45227  0.65859  1.0000
  C   C642      1.0  0.06651  0.45058  0.60934  1.0000
  C   C643      1.0  0.05151  0.45752  0.59677  1.0000
  C   C644      1.0  0.04898  0.45722  0.56522  1.0000
  C   C645      1.0  0.01322  0.61572  0.56269  1.0000
  H   H508      1.0  0.14833  0.33549  0.90458  1.0000
  H   H509      1.0  0.05547  0.63868  0.69030  1.0000
  H   H510      1.0  0.23332  0.64160  0.79804  1.0000
  C   C646      1.0  0.22841  0.63046  0.58109  1.0000
  H   H511      1.0  0.06701  0.64826  0.73968  1.0000
  H   H512      1.0  0.21079  0.34065  0.97782  1.0000
  H   H513      1.0  0.16952  0.58077  0.49930  1.0000
  S   S88       1.0  0.13852  0.61905  0.48214  1.0000
  C   C647      1.0  0.23817  0.36341  0.52830  1.0000
  C   C648      1.0  0.22636  0.65332  0.87198  1.0000
  C   C649      1.0  0.22706  0.56401  0.91984  1.0000
  S   S89       1.0  0.21017  0.65556  0.90061  1.0000
  S   S90       1.0  0.20838  0.33365  0.55619  1.0000
  P   P22       1.0  0.12658  0.65036  0.70200  1.0000
  H   H514      1.0  0.06843  0.33380  0.83157  1.0000
  H   H515      1.0  0.00120  0.44183  0.68116  1.0000
  H   H516      1.0  0.18554  0.63745  0.62403  1.0000
  H   H517      1.0  0.02319  0.56387  0.95442  1.0000
  H   H518      1.0  0.24044  0.62854  0.56917  1.0000
  C   C650      1.0  0.09289  0.64948  0.72331  1.0000
  H   H519      1.0  0.02056  0.61855  0.54233  1.0000
  C   C651      1.0  0.21271  0.63546  0.62793  1.0000
  H   H520      1.0  0.24008  0.63294  0.62515  1.0000
  C   C652      1.0  0.22821  0.63295  0.61262  1.0000
  C   C653      1.0  0.16344  0.33017  0.82052  1.0000
  Fe  Fe46      1.0  0.14280  0.33376  0.58220  1.0000
  C   C654      1.0  0.19412  0.36246  0.97215  1.0000
  C   C655      1.0  0.22837  0.54454  0.96284  1.0000
  C   C656      1.0  0.14248  0.34302  0.75928  1.0000
  C   C657      1.0  0.17329  0.65489  0.54596  1.0000
  H   H521      1.0  0.21892  0.35759  0.49546  1.0000
  C   C658      1.0  0.24138  0.32975  0.57743  1.0000
  H   H522      1.0  0.09765  0.65325  0.74532  1.0000
  H   H523      1.0  0.01975  0.59289  0.93239  1.0000
  H   H524      1.0  0.16712  0.35497  0.76086  1.0000
  H   H525      1.0  0.23161  0.53210  0.97221  1.0000
  C   C659      1.0  0.21732  0.57327  0.96972  1.0000
  C   C660      1.0  0.15146  0.33493  0.69883  1.0000
  C   C661      1.0  0.13209  0.65619  0.76371  1.0000
  C   C662      1.0  0.16046  0.65787  0.52431  1.0000
  C   C663      1.0  0.01959  0.60530  0.97609  1.0000
  H   H526      1.0  0.16780  0.32843  0.79730  1.0000
  C   C664      1.0  0.20916  0.69192  0.40313  1.0000
  Fe  Fe47      1.0  0.15465  0.67550  0.42261  1.0000
  S   S91       1.0  0.15831  0.70183  0.44422  1.0000
  P   P23       1.0  0.20814  0.85513  0.27141  1.0000
  Fe  Fe48      1.0  0.15718  0.80605  0.41148  1.0000
  S   S92       1.0  0.17063  0.81500  0.45348  1.0000
  S   S93       1.0  0.15159  0.77887  0.39556  1.0000
  Fe  Fe49      1.0  0.15392  0.84271  0.38552  1.0000
  S   S94       1.0  0.16726  0.85380  0.42626  1.0000
  S   S95       1.0  0.14943  0.86041  0.34445  1.0000
  Fe  Fe50      1.0  0.18581  0.83161  0.42108  1.0000
  S   S96       1.0  0.21497  0.83444  0.42404  1.0000
  Fe  Fe51      1.0  0.15084  0.83655  0.45516  1.0000
  C   C665      1.0  0.03142  0.91717  0.26256  1.0000
  S   S97       1.0  0.17334  0.82157  0.37928  1.0000
  S   S98       1.0  0.13658  0.82652  0.41425  1.0000
  Fe  Fe52      1.0  0.05522  0.90638  0.17095  1.0000
  S   S99       1.0  0.07443  0.91972  0.14076  1.0000
  S   S100      1.0  0.02729  0.90908  0.15520  1.0000
  Fe  Fe53      1.0  0.08334  0.89480  0.21570  1.0000
  S   S101      1.0  0.10405  0.90769  0.18877  1.0000
  S   S102      1.0  0.08560  0.87850  0.25936  1.0000
  Fe  Fe54      1.0  0.08515  0.92983  0.18483  1.0000
  S   S103      1.0  0.09156  0.95841  0.18709  1.0000
  Fe  Fe55      1.0  0.09180  0.89665  0.14650  1.0000
  S   S104      1.0  0.10800  0.88041  0.11186  1.0000
  S   S105      1.0  0.06527  0.91758  0.21430  1.0000
  S   S106      1.0  0.07181  0.88271  0.17409  1.0000
  C   C666      1.0  0.08703  0.97462  0.21474  1.0000
  C   C667      1.0  0.06758  0.84574  0.02405  1.0000
  C   C668      1.0  0.07934  0.97128  0.24305  1.0000
  C   C669      1.0  0.10096  0.80267  0.38640  1.0000
  H   H527      1.0  0.07582  0.95839  0.24880  1.0000
  C   C670      1.0  0.13129  0.86567  0.32196  1.0000
  C   C671      1.0  0.13292  0.87787  0.29849  1.0000
  C   C672      1.0  0.11910  0.88200  0.27917  1.0000
  C   C673      1.0  0.10346  0.87397  0.28315  1.0000
  C   C674      1.0  0.10173  0.86206  0.30710  1.0000
  C   C675      1.0  0.11554  0.85796  0.32644  1.0000
  H   H528      1.0  0.14501  0.88400  0.29493  1.0000
  H   H529      1.0  0.12059  0.89130  0.26107  1.0000
  H   H530      1.0  0.08964  0.85590  0.31059  1.0000
  H   H531      1.0  0.11408  0.84878  0.34469  1.0000
  C   C676      1.0  0.12458  0.86763  0.01152  1.0000
  C   C677      1.0  0.11448  0.88225  0.01793  1.0000
  C   C678      1.0  0.10947  0.88648  0.04819  1.0000
  C   C679      1.0  0.11447  0.87615  0.07291  1.0000
  C   C680      1.0  0.12465  0.86158  0.06650  1.0000
  C   C681      1.0  0.12964  0.85735  0.03623  1.0000
  H   H532      1.0  0.11043  0.89041  0.99931  1.0000
  H   H533      1.0  0.10165  0.89770  0.05237  1.0000
  H   H534      1.0  0.12863  0.85339  0.08514  1.0000
  H   H535      1.0  0.13740  0.84610  0.03203  1.0000
  C   C682      1.0  0.21041  0.82159  0.25029  1.0000
  C   C683      1.0  0.11548  0.81307  0.04889  1.0000
  C   C684      1.0  0.22558  0.82805  0.36404  1.0000
  C   C685      1.0  0.02618  0.95270  0.17513  1.0000
  H   H536      1.0  0.21231  0.82612  0.35892  1.0000
  C   C686      1.0  0.15698  0.72309  0.42962  1.0000
  C   C687      1.0  0.15104  0.72689  0.40027  1.0000
  C   C688      1.0  0.14967  0.74399  0.39024  1.0000
  C   C689      1.0  0.15414  0.75755  0.40936  1.0000
  C   C690      1.0  0.17029  0.86440  0.20908  1.0000
  C   C691      1.0  0.20439  0.83244  0.27349  1.0000
  H   H537      1.0  0.14722  0.71667  0.38552  1.0000
  H   H538      1.0  0.14492  0.74674  0.36760  1.0000
  H   H539      1.0  0.06301  0.85175  0.40497  1.0000
  H   H540      1.0  0.16465  0.85785  0.19002  1.0000
  H   H541      1.0  0.04223  0.83753  0.01206  1.0000
  C   C692      1.0  0.00398  0.89505  0.19664  1.0000
  C   C693      1.0  0.00659  0.90539  0.17097  1.0000
  H   H542      1.0  0.18852  0.77406  0.40409  1.0000
  H   H543      1.0  0.01481  0.88916  0.20788  1.0000
  C   C694      1.0  0.21033  0.77915  0.37563  1.0000
  C   C695      1.0  0.03427  0.93677  0.30444  1.0000
  C   C696      1.0  0.03654  0.92046  0.29235  1.0000
  H   H544      1.0  0.11712  0.81036  0.07295  1.0000
  C   C697      1.0  0.22505  0.75434  0.35507  1.0000
  C   C698      1.0  0.02267  0.94685  0.25606  1.0000
  C   C699      1.0  0.02716  0.94987  0.28656  1.0000
  C   C700      1.0  0.02767  0.96486  0.19831  1.0000
  C   C701      1.0  0.13630  0.84524  0.25061  1.0000
  H   H545      1.0  0.08002  0.83059  0.43467  1.0000
  H   H546      1.0  0.15420  0.81377  0.29354  1.0000
  C   C702      1.0  0.09765  0.77437  0.21720  1.0000
  P   P24       1.0  0.21613  0.72063  0.36823  1.0000
  H   H547      1.0  0.15187  0.79212  0.33381  1.0000
  H   H548      1.0  0.03812  0.93930  0.32764  1.0000
  H   H549      1.0  0.04229  0.91035  0.30596  1.0000
  C   C703      1.0  0.21108  0.71815  0.43161  1.0000
  C   C704      1.0  0.01278  0.98386  0.25162  1.0000
  H   H550      1.0  0.07348  0.88087  0.39758  1.0000
  C   C705      1.0  0.18480  0.88144  0.25808  1.0000
  H   H551      1.0  0.09823  0.88750  0.35568  1.0000
  C   C706      1.0  0.20525  0.68315  0.43001  1.0000
  C   C707      1.0  0.15386  0.78161  0.31819  1.0000
  C   C708      1.0  0.20682  0.70937  0.45839  1.0000
  C   C709      1.0  0.08490  0.84322  0.43056  1.0000
  H   H552      1.0  0.07697  0.94708  0.36525  1.0000
  C   C710      1.0  0.17146  0.88909  0.24166  1.0000
  H   H553      1.0  0.17601  0.77230  0.34206  1.0000
  H   H554      1.0  0.02770  0.85385  0.05273  1.0000
  H   H555      1.0  0.09619  0.80521  0.40917  1.0000
  H   H556      1.0  0.09301  0.82708  0.36829  1.0000
  C   C711      1.0  0.19077  0.86502  0.25048  1.0000
  H   H557      1.0  0.12724  0.89713  0.36463  1.0000
  H   H558      1.0  0.20912  0.79287  0.37796  1.0000
  C   C712      1.0  0.22947  0.87319  0.23181  1.0000
  H   H559      1.0  0.16041  0.84225  0.27329  1.0000
  H   H560      1.0  0.19604  0.71068  0.26326  1.0000
  C   C713      1.0  0.23031  0.83189  0.39391  1.0000
  C   C714      1.0  0.14843  0.83635  0.26794  1.0000
  C   C715      1.0  0.07680  0.85596  0.04396  1.0000
  H   H561      1.0  0.11905  0.86730  0.44763  1.0000
  H   H562      1.0  0.21001  0.68488  0.38196  1.0000
  H   H563      1.0  0.13891  0.85793  0.24227  1.0000
  H   H564      1.0  0.21872  0.88169  0.22771  1.0000
  H   H565      1.0  0.10455  0.82164  0.31696  1.0000
  C   C716      1.0  0.10593  0.81187  0.33430  1.0000
  H   H566      1.0  0.19722  0.78355  0.27889  1.0000
  C   C717      1.0  0.20377  0.69190  0.45755  1.0000
  C   C718      1.0  0.04029  0.97730  0.19535  1.0000
  C   C719      1.0  0.16174  0.73664  0.44851  1.0000
  C   C720      1.0  0.10622  0.92398  0.46170  1.0000
  C   C721      1.0  0.12890  0.81285  0.27403  1.0000
  C   C722      1.0  0.22331  0.77206  0.35755  1.0000
  H   H567      1.0  0.17626  0.76930  0.98835  1.0000
  C   C723      1.0  0.19912  0.79716  0.27724  1.0000
  C   C724      1.0  0.15550  0.89869  0.43668  1.0000
  H   H568      1.0  0.08378  0.88753  0.47262  1.0000
  H   H569      1.0  0.21371  0.73159  0.43295  1.0000
  H   H570      1.0  0.15963  0.70133  0.33490  1.0000
  H   H571      1.0  0.15825  0.89770  0.35927  1.0000
  H   H572      1.0  0.19100  0.74285  0.39887  1.0000
  C   C725      1.0  0.08654  0.90886  0.33290  1.0000
  H   H573      1.0  0.18630  0.80259  0.31977  1.0000
  C   C726      1.0  0.13777  0.89839  0.43993  1.0000
  C   C727      1.0  0.07533  0.85515  0.41389  1.0000
  C   C728      1.0  0.21174  0.70957  0.40359  1.0000
  H   H574      1.0  0.20318  0.66957  0.42937  1.0000
  H   H575      1.0  0.03318  0.90453  0.25305  1.0000
  H   H576      1.0  0.02528  0.96224  0.29676  1.0000
  C   C729      1.0  0.05079  0.86439  0.07016  1.0000
  C   C730      1.0  0.08144  0.87161  0.40941  1.0000
  P   P25       1.0  0.12360  0.79246  0.29066  1.0000
  C   C731      1.0  0.04988  0.96497  0.14762  1.0000
  H   H577      1.0  0.06133  0.98660  0.16856  1.0000
  H   H578      1.0  0.23774  0.87165  0.36586  1.0000
  H   H579      1.0  0.13606  0.80850  0.98085  1.0000
  C   C732      1.0  0.19880  0.76854  0.39054  1.0000
  H   H580      1.0  0.15380  0.66766  0.25847  1.0000
  C   C733      1.0  0.18426  0.70978  0.34933  1.0000
  S   S107      1.0  0.16375  0.66713  0.37614  1.0000
  C   C734      1.0  0.09457  0.90877  0.38647  1.0000
  C   C735      1.0  0.03724  0.95275  0.15000  1.0000
  H   H581      1.0  0.09872  0.77503  0.19256  1.0000
  C   C736      1.0  0.06847  0.86518  0.06697  1.0000
  C   C737      1.0  0.11666  0.82208  0.25712  1.0000
  H   H582      1.0  0.11966  0.78968  0.22452  1.0000
  C   C738      1.0  0.08063  0.92566  0.33539  1.0000
  C   C739      1.0  0.12622  0.81218  0.99710  1.0000
  H   H583      1.0  0.02096  0.92741  0.22131  1.0000
  C   C740      1.0  0.06833  0.80042  0.99061  1.0000
  C   C741      1.0  0.08921  0.89985  0.47692  1.0000
  C   C742      1.0  0.21404  0.74356  0.37129  1.0000
  P   P26       1.0  0.07861  0.83433  0.99385  1.0000
  C   C743      1.0  0.19294  0.80786  0.30023  1.0000
  C   C744      1.0  0.20038  0.75084  0.38781  1.0000
  H   H584      1.0  0.11078  0.84545  0.23296  1.0000
  C   C745      1.0  0.20070  0.71453  0.34018  1.0000
  H   H585      1.0  0.10402  0.81714  0.25370  1.0000
  C   C746      1.0  0.19272  0.71051  0.28728  1.0000
  H   H586      1.0  0.10790  0.83859  0.45608  1.0000
  H   H587      1.0  0.99959  0.92241  0.30498  1.0000
  C   C747      1.0  0.23747  0.71367  0.35770  1.0000
  H   H588      1.0  0.18069  0.70951  0.37326  1.0000
  C   C748      1.0  0.22793  0.85905  0.25134  1.0000
  H   H589      1.0  0.03950  0.98390  0.26410  1.0000
  C   C749      1.0  0.20780  0.80403  0.25223  1.0000
  C   C750      1.0  0.09907  0.90820  0.45467  1.0000
  C   C751      1.0  0.08451  0.76515  0.23076  1.0000
  H   H590      1.0  0.08885  0.93237  0.41020  1.0000
  C   C752      1.0  0.07656  0.98462  0.26426  1.0000
  C   C753      1.0  0.19542  0.82542  0.29828  1.0000
  C   C754      1.0  0.16764  0.77040  0.32289  1.0000
  C   C755      1.0  0.05125  0.97736  0.17008  1.0000
  H   H591      1.0  0.07557  0.93224  0.31550  1.0000
  H   H592      1.0  0.09049  0.85675  0.04166  1.0000
  C   C756      1.0  0.09925  0.81498  0.36343  1.0000
  H   H593      1.0  0.21719  0.82666  0.23075  1.0000
  P   P27       1.0  0.01399  0.96362  0.23184  1.0000
  H   H594      1.0  0.13992  0.80234  0.03590  1.0000
  H   H595      1.0  0.16671  0.90164  0.24789  1.0000
  H   H596      1.0  0.04219  0.98682  0.21248  1.0000
  C   C757      1.0  0.10801  0.78210  0.26733  1.0000
  H   H597      1.0  0.15384  0.88652  0.20449  1.0000
  C   C758      1.0  0.14234  0.77886  0.29446  1.0000
  C   C759      1.0  0.17223  0.70520  0.32759  1.0000
  H   H598      1.0  0.21265  0.79572  0.23442  1.0000
  H   H599      1.0  0.08596  0.90243  0.31112  1.0000
  H   H600      1.0  0.19042  0.88840  0.27662  1.0000
  H   H601      1.0  0.17663  0.89869  0.40509  1.0000
  H   H602      1.0  0.03631  0.94294  0.13281  1.0000
  C   C760      1.0  0.18351  0.85663  0.22564  1.0000
  C   C761      1.0  0.16421  0.88058  0.21718  1.0000
  C   C762      1.0  0.20916  0.86342  0.30976  1.0000
  C   C763      1.0  0.19409  0.86618  0.32655  1.0000
  C   C764      1.0  0.19474  0.87072  0.35726  1.0000
  C   C765      1.0  0.21045  0.87276  0.37144  1.0000
  C   C766      1.0  0.22553  0.87057  0.35470  1.0000
  C   C767      1.0  0.22492  0.86591  0.32398  1.0000
  C   C768      1.0  0.14478  0.82019  0.27958  1.0000
  H   H603      1.0  0.18801  0.84410  0.21896  1.0000
  H   H604      1.0  0.18180  0.86414  0.31623  1.0000
  H   H605      1.0  0.18301  0.87206  0.37025  1.0000
  H   H606      1.0  0.21094  0.87555  0.39559  1.0000
  C   C769      1.0  0.23800  0.82716  0.34056  1.0000
  H   H607      1.0  0.11417  0.93047  0.44518  1.0000
  H   H608      1.0  0.99371  0.96929  0.17615  1.0000
  H   H609      1.0  0.21727  0.71915  0.30144  1.0000
  C   C770      1.0  0.09840  0.82502  0.00760  1.0000
  C   C771      1.0  0.10048  0.82105  0.03869  1.0000
  C   C772      1.0  0.17648  0.70544  0.29660  1.0000
  H   H610      1.0  0.18458  0.79949  0.99303  1.0000
  C   C773      1.0  0.08146  0.93400  0.36340  1.0000
  H   H611      1.0  0.05890  0.96455  0.12882  1.0000
  H   H612      1.0  0.07101  0.98178  0.28631  1.0000
  C   C774      1.0  0.20476  0.71519  0.30897  1.0000
  H   H613      1.0  0.23504  0.74914  0.34056  1.0000
  H   H614      1.0  0.13231  0.89831  0.46262  1.0000
  H   H615      1.0  0.24023  0.86438  0.44909  1.0000
  C   C775      1.0  0.16289  0.89867  0.40763  1.0000
  C   C776      1.0  0.12833  0.80859  0.02809  1.0000
  H   H616      1.0  0.22936  0.69144  0.33274  1.0000
  H   H617      1.0  0.23682  0.86356  0.31201  1.0000
  C   C777      1.0  0.04143  0.85438  0.05026  1.0000
  H   H618      1.0  0.09054  0.82402  0.05513  1.0000
  C   C778      1.0  0.12041  0.83817  0.24532  1.0000
  H   H619      1.0  0.16349  0.89871  0.45673  1.0000
  C   C779      1.0  0.15256  0.89823  0.38184  1.0000
  H   H620      1.0  0.01667  0.94290  0.17655  1.0000
  C   C780      1.0  0.10944  0.78272  0.23538  1.0000
  H   H621      1.0  0.23404  0.82430  0.31765  1.0000
  H   H622      1.0  0.16636  0.73389  0.47123  1.0000
  C   C781      1.0  0.24003  0.69891  0.34017  1.0000
  C   C782      1.0  0.02458  0.93028  0.24447  1.0000
  H   H623      1.0  0.04438  0.87159  0.08805  1.0000
  C   C783      1.0  0.04976  0.84512  0.02720  1.0000
  H   H624      1.0  0.07830  0.79739  0.00680  1.0000
  C   C784      1.0  0.11450  0.79642  0.32800  1.0000
  C   C785      1.0  0.08318  0.76422  0.26253  1.0000
  C   C786      1.0  0.09492  0.77260  0.28079  1.0000
  H   H625      1.0  0.07575  0.87298  0.08235  1.0000
  C   C787      1.0  0.14510  0.76490  0.27500  1.0000
  C   C788      1.0  0.15899  0.75376  0.27966  1.0000
  C   C789      1.0  0.17017  0.75644  0.30377  1.0000
  C   C790      1.0  0.09348  0.90045  0.35826  1.0000
  H   H626      1.0  0.16388  0.76398  0.45347  1.0000
  C   C791      1.0  0.10917  0.78717  0.38016  1.0000
  C   C792      1.0  0.11584  0.78399  0.35107  1.0000
  H   H627      1.0  0.16720  0.70166  0.27986  1.0000
  H   H628      1.0  0.07306  0.75697  0.27305  1.0000
  H   H629      1.0  0.09372  0.77160  0.30534  1.0000
  H   H630      1.0  0.13643  0.76233  0.25659  1.0000
  H   H631      1.0  0.16087  0.74285  0.26495  1.0000
  H   H632      1.0  0.18065  0.74758  0.30798  1.0000
  C   C793      1.0  0.13482  0.89786  0.38502  1.0000
  H   H633      1.0  0.11090  0.77774  0.39812  1.0000
  H   H634      1.0  0.12238  0.77196  0.34696  1.0000
  H   H635      1.0  0.07538  0.75868  0.21667  1.0000
  H   H636      1.0  0.19042  0.83333  0.31642  1.0000
  C   C794      1.0  0.10065  0.84770  0.44250  1.0000
  C   C795      1.0  0.10696  0.86404  0.43756  1.0000
  C   C796      1.0  0.09744  0.87612  0.42080  1.0000
  C   C797      1.0  0.16036  0.75375  0.43850  1.0000
  P   P28       1.0  0.10429  0.89795  0.41881  1.0000
  C   C798      1.0  0.08834  0.92560  0.38888  1.0000
  C   C799      1.0  0.12724  0.89810  0.41413  1.0000
  H   H637      1.0  0.23211  0.78034  0.34565  1.0000
  H   H638      1.0  0.06073  0.77427  0.98725  1.0000
  H   H639      1.0  0.24159  0.83785  0.27221  1.0000
  H   H640      1.0  0.20018  0.68513  0.47813  1.0000
  H   H641      1.0  0.99405  0.92065  0.13648  1.0000
  H   H642      1.0  0.20571  0.71615  0.47975  1.0000
  C   C800      1.0  0.11139  0.82046  0.98693  1.0000
  H   H643      1.0  0.08182  0.87169  0.98870  1.0000
  S   S108      1.0  0.13081  0.65961  0.42220  1.0000
  C   C801      1.0  0.09141  0.99154  0.20781  1.0000
  C   C802      1.0  0.02741  0.99076  0.26484  1.0000
  C   C803      1.0  0.24229  0.84857  0.25668  1.0000
  C   C804      1.0  0.99283  0.95727  0.22075  1.0000
  H   H644      1.0  0.16207  0.82217  0.55488  1.0000
  Fe  Fe56      1.0  0.14996  0.67799  0.89298  1.0000
  S   S109      1.0  0.14540  0.70529  0.87462  1.0000
  H   H645      1.0  0.14947  0.68321  0.59311  1.0000
  Fe  Fe57      1.0  0.15102  0.80855  0.91250  1.0000
  S   S110      1.0  0.16497  0.82471  0.94648  1.0000
  S   S111      1.0  0.14812  0.78094  0.92973  1.0000
  Fe  Fe58      1.0  0.14667  0.83907  0.86821  1.0000
  S   S112      1.0  0.16056  0.85645  0.89993  1.0000
  S   S113      1.0  0.14135  0.84888  0.81947  1.0000
  Fe  Fe59      1.0  0.17941  0.83473  0.90551  1.0000
  S   S114      1.0  0.20853  0.83794  0.90703  1.0000
  Fe  Fe60      1.0  0.14483  0.84498  0.93828  1.0000
  H   H646      1.0  0.13451  0.70524  0.75529  1.0000
  S   S115      1.0  0.16644  0.81778  0.87232  1.0000
  S   S116      1.0  0.13001  0.82844  0.90586  1.0000
  Fe  Fe61      1.0  0.04706  0.90817  0.65490  1.0000
  S   S117      1.0  0.06403  0.92539  0.62750  1.0000
  S   S118      1.0  0.01962  0.90649  0.63696  1.0000
  Fe  Fe62      1.0  0.07651  0.89940  0.69889  1.0000
  S   S119      1.0  0.09483  0.91686  0.67451  1.0000
  S   S120      1.0  0.08052  0.88472  0.74411  1.0000
  Fe  Fe63      1.0  0.07267  0.93566  0.67265  1.0000
  S   S121      1.0  0.07033  0.96489  0.67560  1.0000
  Fe  Fe64      1.0  0.08473  0.90513  0.63087  1.0000
  S   S122      1.0  0.10203  0.90007  0.58804  1.0000
  S   S123      1.0  0.05501  0.91905  0.69967  1.0000
  S   S124      1.0  0.06713  0.88710  0.65552  1.0000
  C   C805      1.0  0.07468  0.98008  0.70453  1.0000
  H   H647      1.0  0.23728  0.73076  0.91112  1.0000
  C   C806      1.0  0.08487  0.97614  0.72975  1.0000
  H   H648      1.0  0.08697  0.89067  0.94497  1.0000
  H   H649      1.0  0.09001  0.96337  0.73253  1.0000
  C   C807      1.0  0.12442  0.85979  0.80000  1.0000
  C   C808      1.0  0.10781  0.86085  0.81172  1.0000
  C   C809      1.0  0.09463  0.86853  0.79430  1.0000
  C   C810      1.0  0.09788  0.87560  0.76524  1.0000
  C   C811      1.0  0.11464  0.87514  0.75409  1.0000
  C   C812      1.0  0.12768  0.86699  0.77108  1.0000
  H   H650      1.0  0.10503  0.85533  0.83380  1.0000
  H   H651      1.0  0.08177  0.86891  0.80334  1.0000
  H   H652      1.0  0.11750  0.88091  0.73226  1.0000
  H   H653      1.0  0.14038  0.86608  0.76157  1.0000
  C   C813      1.0  0.12614  0.85851  0.52399  1.0000
  C   C814      1.0  0.12961  0.87583  0.52016  1.0000
  C   C815      1.0  0.12216  0.88820  0.53985  1.0000
  C   C816      1.0  0.11110  0.88360  0.56397  1.0000
  C   C817      1.0  0.10777  0.86623  0.56806  1.0000
  C   C818      1.0  0.11521  0.85386  0.54831  1.0000
  H   H654      1.0  0.21605  0.79484  0.91329  1.0000
  H   H655      1.0  0.12505  0.90149  0.53638  1.0000
  H   H656      1.0  0.09939  0.86231  0.58640  1.0000
  H   H657      1.0  0.11250  0.84054  0.55196  1.0000
  C   C819      1.0  0.22469  0.83494  0.87852  1.0000
  H   H658      1.0  0.09701  0.98577  0.77011  1.0000
  C   C820      1.0  0.22109  0.82936  0.84900  1.0000
  C   C821      1.0  0.08865  0.87037  0.91223  1.0000
  H   H659      1.0  0.20809  0.82660  0.84294  1.0000
  C   C822      1.0  0.14694  0.72617  0.89049  1.0000
  C   C823      1.0  0.14864  0.72899  0.92183  1.0000
  C   C824      1.0  0.14920  0.74578  0.93324  1.0000
  C   C825      1.0  0.14821  0.76005  0.91361  1.0000
  C   C826      1.0  0.14681  0.75723  0.88224  1.0000
  C   C827      1.0  0.14614  0.74044  0.87083  1.0000
  H   H660      1.0  0.14918  0.71823  0.93735  1.0000
  H   H661      1.0  0.20448  0.81209  0.95534  1.0000
  H   H662      1.0  0.14578  0.76799  0.86685  1.0000
  H   H663      1.0  0.14478  0.73850  0.84658  1.0000
  H   H664      1.0  0.11994  0.87834  0.63243  1.0000
  C   C828      1.0  0.02788  0.96568  0.58806  1.0000
  C   C829      1.0  0.99923  0.90750  0.65529  1.0000
  H   H665      1.0  0.17374  0.76822  0.78820  1.0000
  H   H666      1.0  0.00850  0.90884  0.70122  1.0000
  H   H667      1.0  0.17702  0.86633  0.76059  1.0000
  H   H668      1.0  0.11810  0.83570  0.72284  1.0000
  H   H669      1.0  0.18052  0.82519  0.72748  1.0000
  H   H670      1.0  0.13754  0.69172  0.80640  1.0000
  C   C830      1.0  0.14256  0.90656  0.86598  1.0000
  C   C831      1.0  0.18546  0.77463  0.97259  1.0000
  C   C832      1.0  0.14766  0.85141  0.60627  1.0000
  C   C833      1.0  0.13167  0.83319  0.72295  1.0000
  P   P29       1.0  0.15173  0.91031  0.82869  1.0000
  C   C834      1.0  0.18591  0.87048  0.83591  1.0000
  H   H671      1.0  0.16203  0.81868  0.77214  1.0000
  H   H672      1.0  0.03534  0.96266  0.56787  1.0000
  C   C835      1.0  0.19415  0.72909  0.90348  1.0000
  C   C836      1.0  0.21799  0.69730  0.84102  1.0000
  C   C837      1.0  0.16690  0.68791  0.52330  1.0000
  H   H673      1.0  0.09193  0.91081  0.79285  1.0000
  C   C838      1.0  0.14380  0.84055  0.63089  1.0000
  C   C839      1.0  0.09401  0.92270  0.51256  1.0000
  S   S125      1.0  0.16568  0.66967  0.93332  1.0000
  C   C840      1.0  0.15613  0.94541  0.82580  1.0000
  C   C841      1.0  0.16687  0.82727  0.72605  1.0000
  C   C842      1.0  0.16544  0.89227  0.81956  1.0000
  C   C843      1.0  0.20387  0.75237  0.83667  1.0000
  C   C844      1.0  0.14523  0.67708  0.61400  1.0000
  C   C845      1.0  0.13890  0.82627  0.74941  1.0000
  H   H674      1.0  0.09243  0.92797  0.53525  1.0000
  H   H675      1.0  0.03271  0.97466  0.69486  1.0000
  H   H676      1.0  0.18346  0.78216  0.88074  1.0000
  C   C846      1.0  0.12874  0.88273  0.64954  1.0000
  H   H677      1.0  0.16710  0.78593  0.83346  1.0000
  C   C847      1.0  0.03350  0.95528  0.72944  1.0000
  C   C848      1.0  0.15968  0.83418  0.69949  1.0000
  H   H678      1.0  0.16795  0.83755  0.68059  1.0000
  H   H679      1.0  0.12606  0.90894  0.63555  1.0000
  C   C849      1.0  0.00748  0.96493  0.70438  1.0000
  C   C850      1.0  0.02520  0.96591  0.70843  1.0000
  C   C851      1.0  0.22885  0.71430  0.78841  1.0000
  C   C852      1.0  0.16631  0.88576  0.78984  1.0000
  H   H680      1.0  0.14245  0.94637  0.82268  1.0000
  C   C853      1.0  0.13134  0.68143  0.73175  1.0000
  C   C854      1.0  0.02427  0.94335  0.74621  1.0000
  S   S126      1.0  0.13560  0.84215  0.50013  1.0000
  C   C855      1.0  0.13212  0.90010  0.65138  1.0000
  H   H681      1.0  0.15927  0.97261  0.82374  1.0000
  H   H682      1.0  0.17940  0.70643  0.90999  1.0000
  H   H683      1.0  0.19713  0.74655  0.79038  1.0000
  H   H684      1.0  0.20390  0.70898  0.77074  1.0000
  H   H685      1.0  0.13644  0.88034  0.85644  1.0000
  C   C856      1.0  0.10900  0.92071  0.75882  1.0000
  H   H686      1.0  0.19056  0.97099  0.83149  1.0000
  C   C857      1.0  0.01437  0.95661  0.63504  1.0000
  C   C858      1.0  0.02380  0.95279  0.60877  1.0000
  H   H687      1.0  0.21398  0.69006  0.86085  1.0000
  C   C859      1.0  0.14203  0.83738  0.69783  1.0000
  H   H688      1.0  0.17487  0.88924  0.86570  1.0000
  H   H689      1.0  0.04722  0.95597  0.73195  1.0000
  H   H690      1.0  0.13092  0.82370  0.76916  1.0000
  C   C860      1.0  0.18124  0.76668  0.80872  1.0000
  C   C861      1.0  0.18689  0.77456  0.86102  1.0000
  C   C862      1.0  0.18193  0.92864  0.83390  1.0000
  C   C863      1.0  0.16561  0.96033  0.82650  1.0000
  C   C864      1.0  0.21236  0.70781  0.79009  1.0000
  C   C865      1.0  0.99730  0.90846  0.68700  1.0000
  H   H691      1.0  0.14653  0.93206  0.88311  1.0000
  C   C866      1.0  0.12862  0.90009  0.92393  1.0000
  H   H692      1.0  0.11452  0.90440  0.82988  1.0000
  C   C867      1.0  0.19442  0.75451  0.80995  1.0000
  C   C868      1.0  0.23435  0.70409  0.83971  1.0000
  C   C869      1.0  0.14171  0.91951  0.88795  1.0000
  H   H693      1.0  0.13581  0.66034  0.81171  1.0000
  H   H694      1.0  0.01170  0.94635  0.65096  1.0000
  H   H695      1.0  0.02807  0.93978  0.60473  1.0000
  C   C870      1.0  0.20126  0.79875  0.95386  1.0000
  C   C871      1.0  0.08641  0.83273  0.63651  1.0000
  C   C872      1.0  0.07540  0.83999  0.65818  1.0000
  C   C873      1.0  0.08194  0.85000  0.68141  1.0000
  C   C874      1.0  0.09942  0.85300  0.68270  1.0000
  C   C875      1.0  0.11065  0.84540  0.66161  1.0000
  C   C876      1.0  0.10398  0.83531  0.63828  1.0000
  P   P30       1.0  0.13336  0.84852  0.66500  1.0000
  C   C877      1.0  0.13694  0.87108  0.66913  1.0000
  C   C878      1.0  0.14303  0.90611  0.67376  1.0000
  C   C879      1.0  0.15080  0.89469  0.69410  1.0000
  C   C880      1.0  0.14788  0.87722  0.69170  1.0000
  C   C881      1.0  0.14703  0.82297  0.62797  1.0000
  C   C882      1.0  0.15377  0.81638  0.60079  1.0000
  H   H696      1.0  0.08131  0.82518  0.61821  1.0000
  H   H697      1.0  0.06178  0.83807  0.65678  1.0000
  H   H698      1.0  0.07345  0.85583  0.69811  1.0000
  H   H699      1.0  0.10412  0.86117  0.70035  1.0000
  H   H700      1.0  0.11216  0.82960  0.62111  1.0000
  H   H701      1.0  0.15911  0.89936  0.71169  1.0000
  H   H702      1.0  0.15408  0.86868  0.70770  1.0000
  H   H703      1.0  0.14385  0.81431  0.64639  1.0000
  H   H704      1.0  0.15585  0.80278  0.59838  1.0000
  C   C883      1.0  0.20691  0.69938  0.81647  1.0000
  H   H705      1.0  0.23321  0.70066  0.92454  1.0000
  C   C884      1.0  0.12317  0.67214  0.65174  1.0000
  H   H706      1.0  0.15860  0.89124  0.77187  1.0000
  C   C885      1.0  0.17680  0.87163  0.78331  1.0000
  H   H707      1.0  0.13833  0.87964  0.50235  1.0000
  C   C886      1.0  0.00669  0.94209  0.74202  1.0000
  C   C887      1.0  0.19137  0.94359  0.83460  1.0000
  C   C888      1.0  0.15721  0.67433  0.51325  1.0000
  H   H708      1.0  0.14507  0.86494  0.60727  1.0000
  H   H709      1.0  0.14535  0.91964  0.67537  1.0000
  C   C889      1.0  0.22232  0.70874  0.91904  1.0000
  C   C890      1.0  0.15737  0.82726  0.57635  1.0000
  C   C891      1.0  0.17971  0.68509  0.54486  1.0000
  H   H710      1.0  0.03084  0.93476  0.76181  1.0000
  C   C892      1.0  0.23381  0.76628  0.89081  1.0000
  C   C893      1.0  0.23435  0.82755  0.82716  1.0000
  H   H711      1.0  0.23575  0.74717  0.79259  1.0000
  C   C894      1.0  0.13890  0.92062  0.77220  1.0000
  C   C895      1.0  0.17752  0.77670  0.83420  1.0000
  C   C896      1.0  0.19213  0.76462  0.94896  1.0000
  H   H712      1.0  0.15695  0.85313  0.55999  1.0000
  C   C897      1.0  0.99833  0.95277  0.72109  1.0000
  H   H713      1.0  0.19301  0.66676  0.57261  1.0000
  C   C898      1.0  0.12872  0.68012  0.62495  1.0000
  C   C899      1.0  0.15447  0.84476  0.57923  1.0000
  C   C900      1.0  0.13397  0.66069  0.66745  1.0000
  H   H714      1.0  0.18810  0.75158  0.94742  1.0000
  C   C901      1.0  0.13563  0.68393  0.78633  1.0000
  H   H715      1.0  0.15019  0.74774  0.95755  1.0000
  C   C902      1.0  0.08630  0.87706  0.94145  1.0000
  C   C903      1.0  0.15649  0.82347  0.75111  1.0000
  H   H716      1.0  0.21386  0.74269  0.83756  1.0000
  C   C904      1.0  0.05835  0.78723  0.97960  1.0000
  C   C905      1.0  0.08541  0.84188  0.93266  1.0000
  C   C906      1.0  0.13395  0.69152  0.75752  1.0000
  C   C907      1.0  0.02248  0.98243  0.59359  1.0000
  P   P31       1.0  0.21227  0.75899  0.89675  1.0000
  C   C908      1.0  0.21036  0.73641  0.90470  1.0000
  H   H717      1.0  0.11037  0.67482  0.66004  1.0000
  C   C909      1.0  0.01301  0.98632  0.61988  1.0000
  C   C910      1.0  0.19007  0.79165  0.97512  1.0000
  C   C911      1.0  0.16423  0.92943  0.82938  1.0000
  H   H718      1.0  0.12986  0.68755  0.70974  1.0000
  H   H719      1.0  0.18305  0.73674  0.89732  1.0000
  C   C912      1.0  0.04243  0.80744  0.94859  1.0000
  H   H720      1.0  0.08534  0.82827  0.92885  1.0000
  H   H721      1.0  0.18731  0.69565  0.55239  1.0000
  C   C913      1.0  0.12915  0.88728  0.90201  1.0000
  H   H722      1.0  0.12018  0.68867  0.61264  1.0000
  C   C914      1.0  0.20020  0.76242  0.86233  1.0000
  H   H723      1.0  0.07969  0.90032  0.52323  1.0000
  H   H724      1.0  0.23136  0.82341  0.80435  1.0000
  C   C915      1.0  0.20343  0.77164  0.92749  1.0000
  H   H725      1.0  0.13441  0.92613  0.93397  1.0000
  H   H726      1.0  0.02111  0.97711  0.78159  1.0000
  H   H727      1.0  0.12366  0.89738  0.94656  1.0000
  C   C916      1.0  0.11798  0.91002  0.80820  1.0000
  C   C917      1.0  0.22453  0.72593  0.91159  1.0000
  C   C918      1.0  0.10505  0.91376  0.78732  1.0000
  C   C919      1.0  0.13479  0.91624  0.91686  1.0000
  H   H728      1.0  0.12890  0.92952  0.72907  1.0000
  C   C920      1.0  0.13468  0.66627  0.78937  1.0000
  H   H729      1.0  0.19333  0.86440  0.85388  1.0000
  C   C921      1.0  0.08831  0.85278  0.90788  1.0000
  H   H730      1.0  0.18853  0.91656  0.83697  1.0000
  H   H731      1.0  0.23845  0.77766  0.78087  1.0000
  H   H732      1.0  0.09890  0.92325  0.74259  1.0000
  C   C922      1.0  0.12592  0.92410  0.75121  1.0000
  H   H733      1.0  0.09104  0.87878  0.89305  1.0000
  H   H734      1.0  0.19423  0.69410  0.81776  1.0000
  H   H735      1.0  0.19448  0.85289  0.80148  1.0000
  C   C923      1.0  0.01329  0.98828  0.78649  1.0000
  C   C924      1.0  0.18657  0.86399  0.80634  1.0000
  H   H736      1.0  0.16461  0.70055  0.51385  1.0000
  H   H737      1.0  0.23315  0.72017  0.76736  1.0000
  H   H738      1.0  0.09966  0.99014  0.64637  1.0000
  H   H739      1.0  0.15193  0.92358  0.76620  1.0000
  H   H740      1.0  0.09048  0.84755  0.88534  1.0000
  H   H741      1.0  0.12467  0.87467  0.90778  1.0000
  C   C925      1.0  0.17538  0.88454  0.84253  1.0000
  C   C926      1.0  0.20781  0.78886  0.92999  1.0000
  S   S127      1.0  0.16581  0.66266  0.85956  1.0000
  H   H742      1.0  0.20503  0.94288  0.83813  1.0000
  C   C927      1.0  0.13600  0.89049  0.87309  1.0000
  C   C928      1.0  0.00879  0.97341  0.64082  1.0000
  H   H743      1.0  0.03778  0.78047  0.94995  1.0000
  C   C929      1.0  0.20602  0.70183  0.91909  1.0000
  C   C930      1.0  0.13503  0.91352  0.80089  1.0000
  C   C931      1.0  0.18323  0.95942  0.83088  1.0000
  S   S128      1.0  0.13024  0.86286  0.97239  1.0000
  C   C932      1.0  0.05241  0.82065  0.95950  1.0000
  C   C933      1.0  0.08339  0.86620  0.96629  1.0000
  C   C934      1.0  0.23983  0.71293  0.81353  1.0000
  H   H744      1.0  0.99963  0.93245  0.75428  1.0000
  H   H745      1.0  0.20426  0.68855  0.92500  1.0000
  H   H746      1.0  0.23280  0.85386  0.50058  1.0000
  C   C935      1.0  0.19200  0.71192  0.91076  1.0000
  H   H747      1.0  0.10940  0.94324  0.49599  1.0000
  C   C936      1.0  0.10364  0.93121  0.49049  1.0000
  C   C937      1.0  0.08283  0.84851  0.96208  1.0000
  H   H748      1.0  0.03243  0.81016  0.93224  1.0000
  P   P32       1.0  0.99724  0.97817  0.67572  1.0000
  H   H749      1.0  0.11012  0.82317  0.96289  1.0000
  C   C938      1.0  0.08886  0.98891  0.75101  1.0000
  C   C939      1.0  0.08676  0.90708  0.50572  1.0000
  H   H750      1.0  0.04996  0.83354  0.95152  1.0000
  H   H751      1.0  0.22793  0.78096  0.84991  1.0000
  C   C940      1.0  0.04543  0.79073  0.95857  1.0000
  C   C941      1.0  0.18290  0.66865  0.55624  1.0000
  C   C942      1.0  0.24173  0.83844  0.88585  1.0000
  H   H752      1.0  0.16905  0.66392  0.62148  1.0000
  H   H753      1.0  0.14747  0.67650  0.49611  1.0000
  C   C943      1.0  0.13047  0.66365  0.73469  1.0000
  C   C944      1.0  0.23759  0.77724  0.86627  1.0000
  C   C945      1.0  0.15624  0.66613  0.62995  1.0000
  C   C946      1.0  0.06551  0.81723  0.98048  1.0000
  H   H754      1.0  0.07489  0.98354  0.61433  1.0000
  C   C947      1.0  0.99555  0.98764  0.78361  1.0000
  S   S129      1.0  0.30770  0.31660  0.18478  1.0000
  C   C948      1.0  0.30885  0.15791  0.30107  1.0000
  Fe  Fe65      1.0  0.32177  0.30564  0.14433  1.0000
  S   S130      1.0  0.32206  0.27739  0.12947  1.0000
  C   C949      1.0  0.34814  0.12479  0.45181  1.0000
  Fe  Fe66      1.0  0.42122  0.07713  0.43337  1.0000
  S   S131      1.0  0.41156  0.06410  0.39119  1.0000
  S   S132      1.0  0.44867  0.07518  0.45232  1.0000
  C   C950      1.0  0.29240  0.13301  0.42274  1.0000
  S   S133      1.0  0.37280  0.06921  0.41801  1.0000
  C   C951      1.0  0.38624  0.30950  0.16083  1.0000
  Fe  Fe67      1.0  0.39423  0.04979  0.42348  1.0000
  S   S134      1.0  0.39138  0.02061  0.42160  1.0000
  Fe  Fe68      1.0  0.39079  0.08470  0.38908  1.0000
  S   S135      1.0  0.38289  0.10140  0.34691  1.0000
  H   H755      1.0  0.32602  0.06908  0.01924  1.0000
  S   S136      1.0  0.40164  0.09873  0.42984  1.0000
  Fe  Fe69      1.0  0.32691  0.17318  0.16223  1.0000
  S   S137      1.0  0.30916  0.16109  0.19649  1.0000
  S   S138      1.0  0.33548  0.20030  0.17452  1.0000
  Fe  Fe70      1.0  0.32747  0.14083  0.12253  1.0000
  S   S139      1.0  0.30936  0.12752  0.15469  1.0000
  S   S140      1.0  0.33286  0.12590  0.07827  1.0000
  Fe  Fe71      1.0  0.29437  0.15230  0.15539  1.0000
  S   S141      1.0  0.26530  0.15822  0.15451  1.0000
  Fe  Fe72      1.0  0.32586  0.13734  0.19301  1.0000
  S   S142      1.0  0.33284  0.11818  0.23248  1.0000
  S   S143      1.0  0.31160  0.16523  0.12159  1.0000
  S   S144      1.0  0.34449  0.14976  0.16055  1.0000
  C   C952      1.0  0.26277  0.20805  0.17790  1.0000
  H   H756      1.0  0.27627  0.30624  0.26100  1.0000
  H   H757      1.0  0.26387  0.13716  0.09899  1.0000
  C   C953      1.0  0.28891  0.22208  0.19076  1.0000
  C   C954      1.0  0.38095  0.10730  0.02571  1.0000
  C   C955      1.0  0.38246  0.11843  0.05058  1.0000
  C   C956      1.0  0.36796  0.12424  0.06695  1.0000
  C   C957      1.0  0.35171  0.11894  0.05871  1.0000
  C   C958      1.0  0.35021  0.10768  0.03400  1.0000
  C   C959      1.0  0.36471  0.10191  0.01753  1.0000
  H   H758      1.0  0.39496  0.12267  0.05715  1.0000
  H   H759      1.0  0.36937  0.13288  0.08587  1.0000
  H   H760      1.0  0.33775  0.10328  0.02772  1.0000
  C   C960      1.0  0.30792  0.07284  0.46000  1.0000
  C   C961      1.0  0.36912  0.10554  0.31458  1.0000
  C   C962      1.0  0.35622  0.09445  0.30584  1.0000
  C   C963      1.0  0.34557  0.09841  0.28057  1.0000
  C   C964      1.0  0.34751  0.11351  0.26331  1.0000
  C   C965      1.0  0.36054  0.12452  0.27186  1.0000
  C   C966      1.0  0.37115  0.12059  0.29720  1.0000
  H   H761      1.0  0.35449  0.08277  0.31850  1.0000
  H   H762      1.0  0.33567  0.08969  0.27438  1.0000
  H   H763      1.0  0.36237  0.13619  0.25910  1.0000
  H   H764      1.0  0.38104  0.12933  0.30338  1.0000
  H   H765      1.0  0.31451  0.12781  0.01693  1.0000
  H   H766      1.0  0.27343  0.27560  0.27404  1.0000
  H   H767      1.0  0.30209  0.22128  0.19784  1.0000
  S   S145      1.0  0.40432  0.06208  0.46515  1.0000
  H   H768      1.0  0.43615  0.02774  0.46725  1.0000
  C   C967      1.0  0.32469  0.25607  0.14359  1.0000
  C   C968      1.0  0.32041  0.24239  0.12457  1.0000
  C   C969      1.0  0.32303  0.22527  0.13393  1.0000
  C   C970      1.0  0.33043  0.22157  0.16224  1.0000
  C   C971      1.0  0.33446  0.23525  0.18143  1.0000
  C   C972      1.0  0.33134  0.25234  0.17246  1.0000
  H   H769      1.0  0.31528  0.24503  0.10218  1.0000
  H   H770      1.0  0.31999  0.21498  0.11876  1.0000
  H   H771      1.0  0.34009  0.23260  0.20345  1.0000
  H   H772      1.0  0.33445  0.26259  0.18767  1.0000
  C   C973      1.0  0.32371  0.13385  0.32408  1.0000
  C   C974      1.0  0.47427  0.08868  0.41446  1.0000
  C   C975      1.0  0.47018  0.07966  0.44109  1.0000
  C   C976      1.0  0.48362  0.07413  0.46010  1.0000
  H   H773      1.0  0.46417  0.09312  0.39958  1.0000
  C   C977      1.0  0.37133  0.23538  0.13728  1.0000
  H   H774      1.0  0.39694  0.08074  0.07000  1.0000
  C   C978      1.0  0.36309  0.22983  0.11112  1.0000
  H   H775      1.0  0.33613  0.08932  0.39904  1.0000
  H   H776      1.0  0.30215  0.10299  0.32530  1.0000
  C   C979      1.0  0.47070  0.03742  0.40190  1.0000
  H   H777      1.0  0.34847  0.29210  0.09700  1.0000
  H   H778      1.0  0.33616  0.31171  0.05857  1.0000
  C   C980      1.0  0.37457  0.29847  0.08693  1.0000
  C   C981      1.0  0.40455  0.99313  0.01989  1.0000
  C   C982      1.0  0.27989  0.20714  0.18629  1.0000
  H   H779      1.0  0.29866  0.15479  0.00727  1.0000
  H   H780      1.0  0.32200  0.11852  0.44625  1.0000
  H   H781      1.0  0.43530  0.03323  0.03834  1.0000
  C   C983      1.0  0.31994  0.08329  0.47340  1.0000
  P   P33       1.0  0.38321  0.28460  0.11624  1.0000
  C   C984      1.0  0.43436  0.27926  0.13320  1.0000
  C   C985      1.0  0.42704  0.04348  0.04631  1.0000
  C   C986      1.0  0.48815  0.02533  0.98930  1.0000
  C   C987      1.0  0.36067  0.24097  0.08650  1.0000
  C   C988      1.0  0.36649  0.25770  0.08800  1.0000
  H   H782      1.0  0.31170  0.06445  0.44152  1.0000
  C   C989      1.0  0.33166  0.06997  0.36596  1.0000
  H   H783      1.0  0.39609  0.31485  0.14646  1.0000
  C   C990      1.0  0.25432  0.19442  0.08109  1.0000
  C   C991      1.0  0.37774  0.29475  0.15192  1.0000
  C   C992      1.0  0.36437  0.28864  0.17016  1.0000
  C   C993      1.0  0.36009  0.29670  0.19759  1.0000
  H   H784      1.0  0.37503  0.12985  0.45062  1.0000
  C   C994      1.0  0.44513  0.00605  0.08985  1.0000
  C   C995      1.0  0.38518  0.30900  0.06936  1.0000
  C   C996      1.0  0.35687  0.29961  0.08290  1.0000
  C   C997      1.0  0.31889  0.09836  0.36372  1.0000
  H   H785      1.0  0.42819  0.02968  0.39793  1.0000
  C   C998      1.0  0.41264  0.27683  0.08317  1.0000
  H   H786      1.0  0.41191  0.28501  0.15950  1.0000
  H   H787      1.0  0.28777  0.16828  0.32683  1.0000
  C   C999      1.0  0.40518  0.07009  0.06431  1.0000
  H   H788      1.0  0.27446  0.14413  0.45467  1.0000
  H   H789      1.0  0.29089  0.14794  0.36909  1.0000
  H   H790      1.0  0.35413  0.23666  0.06637  1.0000
  H   H791      1.0  0.36466  0.26601  0.06852  1.0000
  H   H792      1.0  0.44635  0.99789  0.46842  1.0000
  H   H793      1.0  0.35693  0.27797  0.16290  1.0000
  H   H794      1.0  0.34960  0.29210  0.21138  1.0000
  H   H795      1.0  0.25033  0.24018  0.03584  1.0000
  H   H796      1.0  0.29283  0.19919  0.11493  1.0000
  C   C1000     1.0  0.43273  0.06023  0.04565  1.0000
  P   P34       1.0  0.31532  0.11911  0.38029  1.0000
  H   H797      1.0  0.42596  0.08658  0.05312  1.0000
  C   C1001     1.0  0.47680  0.02094  0.40882  1.0000
  H   H798      1.0  0.27291  0.28962  0.05795  1.0000
  C   C1002     1.0  0.26756  0.30325  0.21494  1.0000
  C   C1003     1.0  0.44102  0.27509  0.10451  1.0000
  H   H799      1.0  0.40807  0.01882  0.00243  1.0000
  C   C1004     1.0  0.31288  0.13463  0.34969  1.0000
  H   H800      1.0  0.25908  0.29681  0.17031  1.0000
  C   C1005     1.0  0.34988  0.31066  0.06103  1.0000
  C   C1006     1.0  0.36023  0.04884  0.98710  1.0000
  C   C1007     1.0  0.28589  0.10464  0.40535  1.0000
  H   H801      1.0  0.47924  0.04806  0.40026  1.0000
  C   C1008     1.0  0.27025  0.19007  0.09322  1.0000
  H   H802      1.0  0.44526  0.01878  0.09928  1.0000
  H   H803      1.0  0.43854  0.00069  0.41084  1.0000
  C   C1009     1.0  0.32940  0.08622  0.37836  1.0000
  C   C1010     1.0  0.47247  0.99933  0.99927  1.0000
  C   C1011     1.0  0.27770  0.13308  0.44100  1.0000
  C   C1012     1.0  0.33397  0.12385  0.40263  1.0000
  C   C1013     1.0  0.49147  0.09243  0.40749  1.0000
  C   C1014     1.0  0.36763  0.01496  0.06605  1.0000
  C   C1015     1.0  0.37650  0.02635  0.08457  1.0000
  C   C1016     1.0  0.38647  0.01980  0.10859  1.0000
  P   P35       1.0  0.37732  0.04883  0.07508  1.0000
  C   C1017     1.0  0.39927  0.05331  0.06503  1.0000
  C   C1018     1.0  0.36463  0.05281  0.04139  1.0000
  C   C1019     1.0  0.37052  0.04708  0.01285  1.0000
  H   H804      1.0  0.43527  0.27029  0.05739  1.0000
  H   H805      1.0  0.25588  0.19636  0.17431  1.0000
  C   C1020     1.0  0.27132  0.10467  0.42395  1.0000
  C   C1021     1.0  0.34834  0.06046  0.04356  1.0000
  C   C1022     1.0  0.41043  0.04003  0.05599  1.0000
  H   H806      1.0  0.31988  0.15398  0.47729  1.0000
  C   C1023     1.0  0.36428  0.12963  0.40552  1.0000
  C   C1024     1.0  0.31038  0.09387  0.33693  1.0000
  H   H807      1.0  0.34020  0.06084  0.37685  1.0000
  C   C1025     1.0  0.36964  0.06234  0.10596  1.0000
  C   C1026     1.0  0.36573  0.05551  0.13487  1.0000
  C   C1027     1.0  0.35947  0.06605  0.15819  1.0000
  C   C1028     1.0  0.35679  0.08344  0.15281  1.0000
  C   C1029     1.0  0.36030  0.09029  0.12406  1.0000
  C   C1030     1.0  0.36668  0.07983  0.10078  1.0000
  H   H808      1.0  0.44871  0.05338  0.39319  1.0000
  H   H809      1.0  0.39879  0.30909  0.07301  1.0000
  H   H810      1.0  0.36008  0.01943  0.04698  1.0000
  H   H811      1.0  0.39383  0.02828  0.12255  1.0000
  H   H812      1.0  0.38288  0.04086  0.01050  1.0000
  C   C1031     1.0  0.25253  0.28576  0.09025  1.0000
  H   H813      1.0  0.30644  0.07440  0.30345  1.0000
  H   H814      1.0  0.44275  0.27997  0.15268  1.0000
  H   H815      1.0  0.34320  0.06464  0.06526  1.0000
  H   H816      1.0  0.40622  0.02700  0.05546  1.0000
  C   C1032     1.0  0.27506  0.21963  0.10493  1.0000
  H   H817      1.0  0.40430  0.27547  0.06375  1.0000
  H   H818      1.0  0.36717  0.04207  0.13955  1.0000
  H   H819      1.0  0.35651  0.06076  0.18044  1.0000
  H   H820      1.0  0.35179  0.09161  0.17078  1.0000
  H   H821      1.0  0.35784  0.10371  0.11970  1.0000
  H   H822      1.0  0.36882  0.08538  0.07846  1.0000
  H   H823      1.0  0.30051  0.14406  0.42260  1.0000
  C   C1033     1.0  0.41685  0.28229  0.13691  1.0000
  C   C1034     1.0  0.36355  0.12842  0.43729  1.0000
  C   C1035     1.0  0.43015  0.27380  0.07953  1.0000
  C   C1036     1.0  0.32334  0.06567  0.33905  1.0000
  H   H824      1.0  0.32540  0.05321  0.32909  1.0000
  Fe  Fe73      1.0  0.38423  0.08251  0.45838  1.0000
  C   C1037     1.0  0.46504  0.00775  0.41247  1.0000
  C   C1038     1.0  0.45327  0.04052  0.39789  1.0000
  C   C1039     1.0  0.44174  0.02723  0.40070  1.0000
  C   C1040     1.0  0.25902  0.22403  0.09325  1.0000
  H   H825      1.0  0.37291  0.22675  0.15651  1.0000
  H   H826      1.0  0.30732  0.16676  0.28216  1.0000
  C   C1041     1.0  0.27173  0.29738  0.24412  1.0000
  C   C1042     1.0  0.34431  0.05698  0.98926  1.0000
  H   H827      1.0  0.35072  0.12781  0.36368  1.0000
  C   C1043     1.0  0.29982  0.14713  0.35037  1.0000
  C   C1044     1.0  0.29652  0.11887  0.40449  1.0000
  C   C1045     1.0  0.37454  0.26346  0.11445  1.0000
  H   H828      1.0  0.39490  0.99726  0.13290  1.0000
  C   C1046     1.0  0.33838  0.06280  0.01749  1.0000
  C   C1047     1.0  0.39430  0.00550  0.45201  1.0000
  C   C1048     1.0  0.32173  0.14548  0.30002  1.0000
  H   H829      1.0  0.35833  0.21695  0.11023  1.0000
  C   C1049     1.0  0.29788  0.15873  0.32622  1.0000
  C   C1050     1.0  0.42183  0.07349  0.05474  1.0000
  C   C1051     1.0  0.28062  0.20266  0.10506  1.0000
  P   P36       1.0  0.25357  0.25965  0.17132  1.0000
  C   C1052     1.0  0.36053  0.32070  0.04303  1.0000
  H   H830      1.0  0.46917  0.99515  0.41937  1.0000
  C   C1053     1.0  0.26065  0.27445  0.19981  1.0000
  C   C1054     1.0  0.26381  0.23905  0.17740  1.0000
  C   C1055     1.0  0.28103  0.23797  0.18596  1.0000
  C   C1056     1.0  0.40591  0.28145  0.11175  1.0000
  C   C1057     1.0  0.25138  0.14281  0.10286  1.0000
  C   C1058     1.0  0.49197  0.02981  0.47370  1.0000
  H   H831      1.0  0.38368  0.25611  0.15924  1.0000
  C   C1059     1.0  0.26206  0.29187  0.19282  1.0000
  C   C1060     1.0  0.27017  0.28013  0.25140  1.0000
  H   H832      1.0  0.36333  0.09328  0.99859  1.0000
  C   C1061     1.0  0.44762  0.01085  0.40795  1.0000
  C   C1062     1.0  0.25945  0.26831  0.13455  1.0000
  H   H833      1.0  0.26880  0.31664  0.20924  1.0000
  H   H834      1.0  0.26335  0.25539  0.23548  1.0000
  C   C1063     1.0  0.26910  0.28348  0.07904  1.0000
  C   C1064     1.0  0.28088  0.27369  0.09555  1.0000
  C   C1065     1.0  0.27615  0.26623  0.12330  1.0000
  S   S146      1.0  0.39979  0.10053  0.00601  1.0000
  H   H835      1.0  0.37255  0.00690  0.36470  1.0000
  C   C1066     1.0  0.33349  0.12226  0.43458  1.0000
  H   H836      1.0  0.28843  0.24937  0.18899  1.0000
  H   H837      1.0  0.47866  0.02766  0.46897  1.0000
  C   C1067     1.0  0.37720  0.25206  0.13886  1.0000
  H   H838      1.0  0.24640  0.18431  0.07278  1.0000
  C   C1068     1.0  0.26455  0.26870  0.22941  1.0000
  H   H839      1.0  0.26312  0.09370  0.42442  1.0000
  C   C1069     1.0  0.37124  0.99317  0.36513  1.0000
  C   C1070     1.0  0.40304  0.00637  0.99793  1.0000
  H   H840      1.0  0.33307  0.08298  0.46542  1.0000
  H   H841      1.0  0.44539  0.06303  0.03718  1.0000
  C   C1071     1.0  0.48669  0.00965  0.00428  1.0000
  H   H842      1.0  0.29390  0.27231  0.08737  1.0000
  H   H843      1.0  0.28572  0.25931  0.13621  1.0000
  C   C1072     1.0  0.26721  0.11888  0.44173  1.0000
  H   H844      1.0  0.24506  0.09812  0.14209  1.0000
  H   H845      1.0  0.41067  0.99560  0.04140  1.0000
  H   H846      1.0  0.28176  0.06496  0.46032  1.0000
  H   H847      1.0  0.45457  0.27265  0.10171  1.0000
  H   H848      1.0  0.28309  0.22927  0.11462  1.0000
  H   H849      1.0  0.37636  0.13180  0.39408  1.0000
  H   H850      1.0  0.28619  0.19484  0.18924  1.0000
  C   C1073     1.0  0.38734  0.00225  0.11423  1.0000
  H   H851      1.0  0.28872  0.09352  0.39167  1.0000
  C   C1074     1.0  0.31267  0.07760  0.32460  1.0000
  H   H852      1.0  0.33006  0.14473  0.28024  1.0000
  H   H853      1.0  0.27442  0.17683  0.09403  1.0000
  C   C1075     1.0  0.25469  0.22392  0.17386  1.0000
  H   H854      1.0  0.33353  0.12408  0.32233  1.0000
  C   C1076     1.0  0.34957  0.12738  0.38824  1.0000
  C   C1077     1.0  0.31492  0.13368  0.99445  1.0000
  H   H855      1.0  0.24736  0.27024  0.01970  1.0000
  H   H856      1.0  0.25587  0.12271  0.17078  1.0000
  C   C1078     1.0  0.36891  0.99741  0.07127  1.0000
  H   H857      1.0  0.24343  0.29358  0.07782  1.0000
  H   H858      1.0  0.25584  0.11891  0.45592  1.0000
  H   H859      1.0  0.37113  0.03775  0.47739  1.0000
  H   H860      1.0  0.46473  0.01120  0.05705  1.0000
  H   H861      1.0  0.25475  0.23717  0.09450  1.0000
  C   C1079     1.0  0.36892  0.31110  0.20672  1.0000
  C   C1080     1.0  0.24877  0.15367  0.12772  1.0000
  H   H862      1.0  0.34771  0.12341  0.47641  1.0000
  C   C1081     1.0  0.45613  0.00170  0.06582  1.0000
  C   C1082     1.0  0.37816  0.31994  0.04727  1.0000
  H   H863      1.0  0.36534  0.31755  0.22768  1.0000
  C   C1083     1.0  0.24860  0.21147  0.08074  1.0000
  C   C1084     1.0  0.38190  0.31756  0.18826  1.0000
  C   C1085     1.0  0.24773  0.27834  0.11793  1.0000
  H   H864      1.0  0.42525  0.99747  0.11998  1.0000
  C   C1086     1.0  0.29108  0.07315  0.47057  1.0000
  C   C1087     1.0  0.30606  0.14895  0.98905  1.0000
  S   S147      1.0  0.30639  0.32117  0.11056  1.0000
  C   C1088     1.0  0.43382  0.99406  0.10151  1.0000
  H   H865      1.0  0.34581  0.99412  0.38367  1.0000
  H   H866      1.0  0.24591  0.32511  0.04536  1.0000
  H   H867      1.0  0.28080  0.32520  0.00948  1.0000
  H   H868      1.0  0.38823  0.13472  0.98082  1.0000
  C   C1089     1.0  0.45183  0.02644  0.53930  1.0000
  H   H869      1.0  0.36467  0.04391  0.96537  1.0000
  Fe  Fe74      1.0  0.31918  0.30190  0.65686  1.0000
  S   S148      1.0  0.31789  0.27416  0.64042  1.0000
  C   C1090     1.0  0.44418  0.03301  0.51294  1.0000
  Fe  Fe75      1.0  0.43263  0.06889  0.92418  1.0000
  S   S149      1.0  0.41384  0.05581  0.89367  1.0000
  S   S150      1.0  0.46068  0.06375  0.91091  1.0000
  H   H870      1.0  0.47141  0.08753  0.95869  1.0000
  S   S151      1.0  0.38307  0.07137  0.93598  1.0000
  H   H871      1.0  0.37181  0.30834  0.97290  1.0000
  Fe  Fe76      1.0  0.40050  0.04791  0.93726  1.0000
  S   S152      1.0  0.39147  0.02010  0.94235  1.0000
  Fe  Fe77      1.0  0.39796  0.08010  0.89441  1.0000
  S   S153      1.0  0.38855  0.09536  0.85156  1.0000
  H   H872      1.0  0.28614  0.10389  0.65014  1.0000
  S   S154      1.0  0.41762  0.09353  0.92278  1.0000
  Fe  Fe78      1.0  0.32383  0.17425  0.68423  1.0000
  S   S155      1.0  0.30739  0.15476  0.70763  1.0000
  S   S156      1.0  0.32444  0.20101  0.70477  1.0000
  Fe  Fe79      1.0  0.33725  0.14803  0.63835  1.0000
  S   S157      1.0  0.32167  0.12697  0.65867  1.0000
  S   S158      1.0  0.35627  0.14640  0.59850  1.0000
  Fe  Fe80      1.0  0.30020  0.14662  0.66017  1.0000
  S   S159      1.0  0.27213  0.13984  0.65146  1.0000
  Fe  Fe81      1.0  0.33006  0.13664  0.70486  1.0000
  S   S160      1.0  0.33580  0.11726  0.74420  1.0000
  S   S161      1.0  0.31535  0.16719  0.63712  1.0000
  S   S162      1.0  0.34693  0.15669  0.68414  1.0000
  C   C1091     1.0  0.25801  0.15534  0.59926  1.0000
  C   C1092     1.0  0.25546  0.14513  0.62514  1.0000
  H   H873      1.0  0.27050  0.16042  0.59470  1.0000
  C   C1093     1.0  0.36321  0.29336  0.60316  1.0000
  C   C1094     1.0  0.36362  0.10479  0.52527  1.0000
  C   C1095     1.0  0.35105  0.10313  0.54807  1.0000
  C   C1096     1.0  0.34856  0.11571  0.57054  1.0000
  C   C1097     1.0  0.35885  0.13007  0.57077  1.0000
  C   C1098     1.0  0.37170  0.13157  0.54835  1.0000
  C   C1099     1.0  0.37410  0.11900  0.52573  1.0000
  H   H874      1.0  0.34317  0.09203  0.54826  1.0000
  H   H875      1.0  0.33876  0.11424  0.58779  1.0000
  H   H876      1.0  0.37981  0.14258  0.54841  1.0000
  H   H877      1.0  0.48647  0.04019  0.51811  1.0000
  C   C1100     1.0  0.37363  0.10133  0.82195  1.0000
  C   C1101     1.0  0.37716  0.11533  0.80266  1.0000
  C   C1102     1.0  0.36584  0.12046  0.77901  1.0000
  C   C1103     1.0  0.35074  0.11161  0.77398  1.0000
  C   C1104     1.0  0.34718  0.09768  0.79340  1.0000
  C   C1105     1.0  0.35841  0.09264  0.81716  1.0000
  H   H878      1.0  0.38878  0.12227  0.80599  1.0000
  H   H879      1.0  0.36888  0.13122  0.76459  1.0000
  H   H880      1.0  0.33558  0.09071  0.79004  1.0000
  H   H881      1.0  0.35537  0.08188  0.83155  1.0000
  H   H882      1.0  0.44936  0.24400  0.69651  1.0000
  H   H883      1.0  0.34461  0.28723  0.76442  1.0000
  C   C1106     1.0  0.25795  0.10173  0.54928  1.0000
  H   H884      1.0  0.34872  0.06130  0.57474  1.0000
  C   C1107     1.0  0.26941  0.11344  0.53665  1.0000
  C   C1108     1.0  0.31954  0.25398  0.65895  1.0000
  C   C1109     1.0  0.31978  0.23912  0.64110  1.0000
  C   C1110     1.0  0.32094  0.22283  0.65472  1.0000
  C   C1111     1.0  0.32226  0.22118  0.68638  1.0000
  C   C1112     1.0  0.32180  0.23601  0.70424  1.0000
  C   C1113     1.0  0.32035  0.25232  0.69065  1.0000
  H   H885      1.0  0.31924  0.24019  0.61652  1.0000
  H   H886      1.0  0.32107  0.21154  0.64076  1.0000
  H   H887      1.0  0.32258  0.23487  0.72879  1.0000
  H   H888      1.0  0.31995  0.26360  0.70468  1.0000
  H   H889      1.0  0.39410  0.99335  0.58453  1.0000
  S   S163      1.0  0.34297  0.31713  0.66277  1.0000
  C   C1114     1.0  0.48087  0.07161  0.92241  1.0000
  C   C1115     1.0  0.48264  0.08290  0.94671  1.0000
  C   C1116     1.0  0.31922  0.09540  0.91952  1.0000
  H   H890      1.0  0.29143  0.25269  0.60887  1.0000
  C   C1117     1.0  0.26672  0.19853  0.63813  1.0000
  H   H891      1.0  0.35442  0.10117  0.66729  1.0000
  S   S164      1.0  0.42001  0.05969  0.96747  1.0000
  P   P37       1.0  0.29207  0.10908  0.53832  1.0000
  C   C1118     1.0  0.30358  0.12870  0.53363  1.0000
  C   C1119     1.0  0.40089  0.00490  0.62720  1.0000
  C   C1120     1.0  0.29691  0.09969  0.57503  1.0000
  S   S165      1.0  0.30528  0.31624  0.69412  1.0000
  H   H892      1.0  0.30359  0.07314  0.92265  1.0000
  C   C1121     1.0  0.40129  0.99818  0.50473  1.0000
  C   C1122     1.0  0.31364  0.08025  0.60669  1.0000
  C   C1123     1.0  0.30941  0.08680  0.57789  1.0000
  H   H893      1.0  0.45308  0.03443  0.55917  1.0000
  C   C1124     1.0  0.37624  0.07042  0.60894  1.0000
  C   C1125     1.0  0.44233  0.02264  0.48748  1.0000
  C   C1126     1.0  0.30522  0.08635  0.63271  1.0000
  C   C1127     1.0  0.28847  0.10568  0.60129  1.0000
  H   H894      1.0  0.28519  0.22565  0.70324  1.0000
  C   C1128     1.0  0.39742  0.03560  0.62958  1.0000
  C   C1129     1.0  0.32866  0.06700  0.90523  1.0000
  H   H895      1.0  0.38637  0.09348  0.58873  1.0000
  H   H896      1.0  0.32356  0.07059  0.60893  1.0000
  H   H897      1.0  0.31603  0.08193  0.55806  1.0000
  C   C1130     1.0  0.35377  0.05602  0.55381  1.0000
  C   C1131     1.0  0.27070  0.21568  0.63246  1.0000
  C   C1132     1.0  0.37742  0.04593  0.52273  1.0000
  H   H898      1.0  0.40295  0.02345  0.48497  1.0000
  C   C1133     1.0  0.31909  0.15233  0.55473  1.0000
  H   H899      1.0  0.32465  0.10220  0.50713  1.0000
  C   C1134     1.0  0.32458  0.12614  0.97112  1.0000
  C   C1135     1.0  0.41933  0.08369  0.52932  1.0000
  C   C1136     1.0  0.35153  0.28141  0.74561  1.0000
  P   P38       1.0  0.38594  0.05613  0.58137  1.0000
  H   H900      1.0  0.37279  0.11270  0.62617  1.0000
  H   H901      1.0  0.31721  0.15557  0.91499  1.0000
  C   C1137     1.0  0.30946  0.13768  0.55896  1.0000
  H   H902      1.0  0.27892  0.11579  0.59980  1.0000
  H   H903      1.0  0.35439  0.06491  0.88785  1.0000
  H   H904      1.0  0.38581  0.02035  0.56013  1.0000
  S   S166      1.0  0.36472  0.08927  0.49585  1.0000
  H   H905      1.0  0.39088  0.04322  0.51972  1.0000
  H   H906      1.0  0.27860  0.19534  0.71246  1.0000
  C   C1138     1.0  0.24437  0.15887  0.57906  1.0000
  H   H907      1.0  0.30698  0.13331  0.58200  1.0000
  H   H908      1.0  0.43958  0.04612  0.51210  1.0000
  C   C1139     1.0  0.37028  0.32080  0.96242  1.0000
  C   C1140     1.0  0.30585  0.30185  0.54268  1.0000
  H   H909      1.0  0.32354  0.19175  0.57884  1.0000
  H   H910      1.0  0.28733  0.28380  0.60609  1.0000
  H   H911      1.0  0.47034  0.03059  0.89662  1.0000
  H   H912      1.0  0.34945  0.07015  0.67071  1.0000
  C   C1141     1.0  0.26940  0.19128  0.66693  1.0000
  H   H913      1.0  0.40658  0.01990  0.66672  1.0000
  H   H914      1.0  0.33290  0.20946  0.53495  1.0000
  C   C1142     1.0  0.31725  0.31505  0.54722  1.0000
  C   C1143     1.0  0.36625  0.04277  0.49878  1.0000
  C   C1144     1.0  0.39064  0.12998  0.90394  1.0000
  C   C1145     1.0  0.25339  0.20879  0.54438  1.0000
  H   H915      1.0  0.27309  0.08407  0.50209  1.0000
  C   C1146     1.0  0.36675  0.13070  0.95150  1.0000
  C   C1147     1.0  0.36124  0.12814  0.92144  1.0000
  C   C1148     1.0  0.37337  0.12778  0.89775  1.0000
  P   P39       1.0  0.33905  0.12444  0.91302  1.0000
  C   C1149     1.0  0.32573  0.13399  0.94231  1.0000
  C   C1150     1.0  0.33464  0.13370  0.87593  1.0000
  C   C1151     1.0  0.34093  0.14984  0.86838  1.0000
  C   C1152     1.0  0.33873  0.15653  0.83898  1.0000
  C   C1153     1.0  0.33020  0.14718  0.81695  1.0000
  C   C1154     1.0  0.32369  0.13124  0.82440  1.0000
  C   C1155     1.0  0.32592  0.12447  0.85371  1.0000
  H   H916      1.0  0.33076  0.16928  0.52237  1.0000
  H   H917      1.0  0.24658  0.16665  0.55907  1.0000
  H   H918      1.0  0.35796  0.13078  0.97050  1.0000
  C   C1156     1.0  0.38403  0.13305  0.95754  1.0000
  C   C1157     1.0  0.44827  0.00575  0.48818  1.0000
  C   C1158     1.0  0.33527  0.10184  0.91156  1.0000
  C   C1159     1.0  0.34786  0.09069  0.90014  1.0000
  C   C1160     1.0  0.34457  0.07335  0.89698  1.0000
  H   H919      1.0  0.40429  0.29117  0.57827  1.0000
  H   H920      1.0  0.47618  0.04341  0.95889  1.0000
  H   H921      1.0  0.39242  0.07977  0.53097  1.0000
  H   H922      1.0  0.39992  0.12908  0.88556  1.0000
  C   C1161     1.0  0.46859  0.00552  0.87771  1.0000
  H   H923      1.0  0.40446  0.99289  0.63790  1.0000
  C   C1162     1.0  0.39304  0.28828  0.59166  1.0000
  H   H924      1.0  0.36959  0.12541  0.87445  1.0000
  H   H925      1.0  0.34792  0.15706  0.88501  1.0000
  H   H926      1.0  0.34394  0.16880  0.83301  1.0000
  H   H927      1.0  0.32890  0.15208  0.79387  1.0000
  H   H928      1.0  0.31744  0.12388  0.80700  1.0000
  H   H929      1.0  0.32121  0.11187  0.85851  1.0000
  C   C1163     1.0  0.34886  0.04634  0.50224  1.0000
  P   P40       1.0  0.26937  0.22404  0.59394  1.0000
  H   H930      1.0  0.38387  0.12047  0.50844  1.0000
  C   C1164     1.0  0.34261  0.05295  0.52973  1.0000
  C   C1165     1.0  0.31513  0.09416  0.49719  1.0000
  H   H931      1.0  0.36019  0.09536  0.89320  1.0000
  C   C1166     1.0  0.40527  0.06548  0.56652  1.0000
  H   H932      1.0  0.32615  0.05356  0.90262  1.0000
  C   C1167     1.0  0.30686  0.15670  0.96029  1.0000
  H   H933      1.0  0.36084  0.30528  0.72851  1.0000
  C   C1168     1.0  0.36718  0.20694  0.66164  1.0000
  C   C1169     1.0  0.35878  0.20555  0.63382  1.0000
  C   C1170     1.0  0.35650  0.21994  0.61526  1.0000
  C   C1171     1.0  0.36254  0.23574  0.62458  1.0000
  C   C1172     1.0  0.37123  0.23720  0.65234  1.0000
  C   C1173     1.0  0.37355  0.22263  0.67074  1.0000
  P   P41       1.0  0.38021  0.25725  0.66381  1.0000
  C   C1174     1.0  0.36882  0.26654  0.69586  1.0000
  C   C1175     1.0  0.40216  0.25321  0.67418  1.0000
  C   C1176     1.0  0.41184  0.24080  0.65856  1.0000
  C   C1177     1.0  0.42881  0.23751  0.66660  1.0000
  C   C1178     1.0  0.43624  0.24663  0.69020  1.0000
  C   C1179     1.0  0.42673  0.25908  0.70569  1.0000
  C   C1180     1.0  0.40975  0.26240  0.69772  1.0000
  C   C1181     1.0  0.36933  0.28422  0.70064  1.0000
  H   H934      1.0  0.25640  0.25678  0.66602  1.0000
  H   H935      1.0  0.37630  0.29240  0.68519  1.0000
  C   C1182     1.0  0.35118  0.26380  0.74137  1.0000
  C   C1183     1.0  0.35974  0.25637  0.71656  1.0000
  C   C1184     1.0  0.37938  0.27237  0.63255  1.0000
  C   C1185     1.0  0.36404  0.28107  0.62630  1.0000
  C   C1186     1.0  0.36540  0.06404  0.63181  1.0000
  H   H936      1.0  0.26681  0.17790  0.67080  1.0000
  C   C1187     1.0  0.40450  0.07660  0.54138  1.0000
  C   C1188     1.0  0.39390  0.27595  0.61486  1.0000
  H   H937      1.0  0.36856  0.19585  0.67634  1.0000
  H   H938      1.0  0.35376  0.19337  0.62700  1.0000
  H   H939      1.0  0.34965  0.21893  0.59403  1.0000
  H   H940      1.0  0.36028  0.24673  0.61009  1.0000
  H   H941      1.0  0.38022  0.22340  0.69222  1.0000
  H   H942      1.0  0.40629  0.23363  0.64017  1.0000
  H   H943      1.0  0.43248  0.26614  0.72401  1.0000
  H   H944      1.0  0.40263  0.27208  0.71007  1.0000
  H   H945      1.0  0.31446  0.23332  0.51651  1.0000
  H   H946      1.0  0.29996  0.16854  0.95614  1.0000
  H   H947      1.0  0.45087  0.02580  0.95023  1.0000
  H   H948      1.0  0.34394  0.25589  0.75691  1.0000
  H   H949      1.0  0.35887  0.24278  0.71346  1.0000
  H   H950      1.0  0.35276  0.27854  0.63978  1.0000
  H   H951      1.0  0.28059  0.29529  0.52840  1.0000
  C   C1189     1.0  0.27936  0.25783  0.60107  1.0000
  C   C1190     1.0  0.37773  0.29707  0.58597  1.0000
  H   H952      1.0  0.40590  0.26942  0.61905  1.0000
  C   C1191     1.0  0.28944  0.21922  0.57508  1.0000
  H   H953      1.0  0.33659  0.05870  0.96908  1.0000
  C   C1192     1.0  0.37087  0.09907  0.62788  1.0000
  C   C1193     1.0  0.28620  0.08404  0.49436  1.0000
  H   H954      1.0  0.32979  0.31238  0.55653  1.0000
  H   H955      1.0  0.30863  0.08150  0.65510  1.0000
  C   C1194     1.0  0.45786  0.00956  0.54004  1.0000
  C   C1195     1.0  0.43509  0.07994  0.54253  1.0000
  H   H956      1.0  0.40941  0.13387  0.93876  1.0000
  H   H957      1.0  0.28688  0.23955  0.54173  1.0000
  C   C1196     1.0  0.39505  0.00516  0.59717  1.0000
  C   C1197     1.0  0.27720  0.22546  0.65629  1.0000
  H   H958      1.0  0.42219  0.05373  0.59974  1.0000
  C   C1198     1.0  0.35761  0.07509  0.65281  1.0000
  H   H959      1.0  0.34786  0.32306  0.88873  1.0000
  C   C1199     1.0  0.31668  0.14929  0.93697  1.0000
  C   C1200     1.0  0.37130  0.05255  0.55043  1.0000
  H   H960      1.0  0.43616  0.22782  0.65462  1.0000
  C   C1201     1.0  0.29474  0.22906  0.55000  1.0000
  C   C1202     1.0  0.31036  0.22554  0.53560  1.0000
  H   H961      1.0  0.26512  0.21058  0.53177  1.0000
  C   C1203     1.0  0.32074  0.21210  0.54595  1.0000
  C   C1204     1.0  0.27596  0.20110  0.69041  1.0000
  C   C1205     1.0  0.27716  0.27551  0.59914  1.0000
  C   C1206     1.0  0.36066  0.29159  0.72531  1.0000
  H   H962      1.0  0.44820  0.06657  0.57860  1.0000
  C   C1207     1.0  0.39597  0.13261  0.93383  1.0000
  H   H963      1.0  0.25973  0.28790  0.67209  1.0000
  S   S167      1.0  0.30941  0.31924  0.61961  1.0000
  C   C1208     1.0  0.40206  0.02011  0.64340  1.0000
  H   H964      1.0  0.40546  0.00220  0.52697  1.0000
  C   C1209     1.0  0.47685  0.01849  0.89305  1.0000
  C   C1210     1.0  0.31682  0.14951  0.50007  1.0000
  C   C1211     1.0  0.27967  0.21821  0.68518  1.0000
  H   H965      1.0  0.44825  0.99799  0.97571  1.0000
  H   H966      1.0  0.44657  0.08537  0.53287  1.0000
  H   H967      1.0  0.37707  0.30689  0.56849  1.0000
  H   H968      1.0  0.46376  0.00462  0.56063  1.0000
  C   C1212     1.0  0.42116  0.06197  0.58001  1.0000
  C   C1213     1.0  0.26186  0.28252  0.58842  1.0000
  C   C1214     1.0  0.24540  0.13136  0.52120  1.0000
  H   H969      1.0  0.26215  0.19049  0.62006  1.0000
  C   C1215     1.0  0.31600  0.07802  0.91656  1.0000
  C   C1216     1.0  0.29817  0.09479  0.50768  1.0000
  H   H970      1.0  0.36296  0.05053  0.63343  1.0000
  H   H971      1.0  0.30262  0.12819  0.48453  1.0000
  C   C1217     1.0  0.24602  0.26535  0.65989  1.0000
  C   C1218     1.0  0.32290  0.15817  0.52538  1.0000
  H   H972      1.0  0.32407  0.15889  0.57429  1.0000
  H   H973      1.0  0.45568  0.00762  0.86965  1.0000
  C   C1219     1.0  0.29983  0.20555  0.58499  1.0000
  C   C1220     1.0  0.45631  0.99913  0.51433  1.0000
  C   C1221     1.0  0.36040  0.09259  0.65093  1.0000
  H   H974      1.0  0.29612  0.19764  0.60412  1.0000
  H   H975      1.0  0.34028  0.04418  0.48347  1.0000
  C   C1222     1.0  0.39033  0.02061  0.58333  1.0000
  H   H976      1.0  0.30956  0.28887  0.54841  1.0000
  H   H977      1.0  0.39857  0.04728  0.64239  1.0000
  H   H978      1.0  0.27147  0.13786  0.51366  1.0000
  Fe  Fe82      1.0  0.40343  0.08352  0.96400  1.0000
  H   H979      1.0  0.34348  0.31800  0.95511  1.0000
  C   C1223     1.0  0.30713  0.13489  0.50421  1.0000
  H   H980      1.0  0.32916  0.05590  0.53220  1.0000
  C   C1224     1.0  0.26614  0.24696  0.59282  1.0000
  C   C1225     1.0  0.25088  0.25416  0.58158  1.0000
  C   C1226     1.0  0.31546  0.20210  0.57061  1.0000
  H   H981      1.0  0.26010  0.29621  0.58724  1.0000
  H   H982      1.0  0.30911  0.10382  0.92750  1.0000
  H   H983      1.0  0.28101  0.23846  0.65261  1.0000
  C   C1227     1.0  0.26300  0.12837  0.52279  1.0000
  H   H984      1.0  0.35136  0.30026  0.59898  1.0000
  C   C1228     1.0  0.43599  0.06922  0.56807  1.0000
  H   H985      1.0  0.41862  0.09203  0.50953  1.0000
  C   C1229     1.0  0.28954  0.30548  0.53151  1.0000
  C   C1230     1.0  0.39149  0.03599  0.59940  1.0000
  C   C1231     1.0  0.29254  0.09894  0.62995  1.0000
  C   C1232     1.0  0.37864  0.08807  0.60676  1.0000
  C   C1233     1.0  0.39480  0.00357  0.97022  1.0000
  H   H986      1.0  0.26258  0.09024  0.56048  1.0000
  C   C1234     1.0  0.46095  0.02112  0.96510  1.0000
  C   C1235     1.0  0.24878  0.27186  0.57942  1.0000
  C   C1236     1.0  0.25190  0.21390  0.57492  1.0000
  H   H987      1.0  0.33149  0.11435  0.97572  1.0000
  C   C1237     1.0  0.47521  0.03111  0.96998  1.0000
  H   H988      1.0  0.49070  0.00377  0.52363  1.0000
  C   C1238     1.0  0.28469  0.32229  0.52458  1.0000
  H   H989      1.0  0.34450  0.31519  0.83483  1.0000
  C   C1239     1.0  0.24793  0.28289  0.66333  1.0000
  H   H990      1.0  0.24409  0.32473  0.55497  1.0000
  C   C1240     1.0  0.33626  0.32490  0.84477  1.0000
  H   H991      1.0  0.27195  0.32471  0.51618  1.0000
  C   C1241     1.0  0.45959  0.00526  0.97953  1.0000
  C   C1242     1.0  0.39983  0.01033  0.48093  1.0000
  H   H992      1.0  0.48064  0.06736  0.48091  1.0000
  H   H993      1.0  0.37991  0.54309  0.32332  1.0000
  C   C1243     1.0  0.30430  0.38634  0.44675  1.0000
  Fe  Fe83      1.0  0.32764  0.33743  0.18539  1.0000
  S   S168      1.0  0.33959  0.34480  0.23251  1.0000
  Fe  Fe84      1.0  0.32574  0.34178  0.11534  1.0000
  S   S169      1.0  0.32980  0.35669  0.07079  1.0000
  S   S170      1.0  0.31169  0.35448  0.15442  1.0000
  Fe  Fe85      1.0  0.32635  0.63682  0.33459  1.0000
  S   S171      1.0  0.31266  0.62514  0.29454  1.0000
  S   S172      1.0  0.33247  0.61996  0.37649  1.0000
  C   C1244     1.0  0.48377  0.46735  0.42118  1.0000
  C   C1245     1.0  0.35044  0.55246  0.47350  1.0000
  Fe  Fe86      1.0  0.32885  0.64233  0.26491  1.0000
  S   S173      1.0  0.34242  0.63660  0.21815  1.0000
  C   C1246     1.0  0.43939  0.44210  0.00665  1.0000
  Fe  Fe87      1.0  0.41886  0.40292  0.42013  1.0000
  S   S174      1.0  0.41087  0.41989  0.38099  1.0000
  S   S175      1.0  0.44624  0.39369  0.43253  1.0000
  Fe  Fe88      1.0  0.38199  0.40190  0.44545  1.0000
  S   S176      1.0  0.37221  0.41927  0.40780  1.0000
  C   C1247     1.0  0.25401  0.37336  0.07954  1.0000
  Fe  Fe89      1.0  0.38786  0.40276  0.37543  1.0000
  S   S177      1.0  0.37779  0.39571  0.32665  1.0000
  Fe  Fe90      1.0  0.39563  0.43485  0.41626  1.0000
  S   S178      1.0  0.39860  0.46413  0.41820  1.0000
  S   S179      1.0  0.39679  0.38482  0.41308  1.0000
  S   S180      1.0  0.40448  0.41847  0.45530  1.0000
  Fe  Fe91      1.0  0.39370  0.57380  0.08681  1.0000
  S   S181      1.0  0.41070  0.59181  0.06107  1.0000
  S   S182      1.0  0.37987  0.57926  0.13336  1.0000
  Fe  Fe92      1.0  0.40198  0.54444  0.03938  1.0000
  S   S183      1.0  0.41859  0.56156  0.01101  1.0000
  S   S184      1.0  0.40383  0.51523  0.03287  1.0000
  Fe  Fe93      1.0  0.42979  0.57019  0.05512  1.0000
  S   S185      1.0  0.45841  0.56894  0.06685  1.0000
  Fe  Fe94      1.0  0.39803  0.58167  0.01861  1.0000
  H   H994      1.0  0.35294  0.56492  0.09816  1.0000
  S   S186      1.0  0.41367  0.55269  0.08366  1.0000
  S   S187      1.0  0.38053  0.56406  0.04438  1.0000
  C   C1248     1.0  0.39521  0.47968  0.44752  1.0000
  C   C1249     1.0  0.43916  0.60148  0.99282  1.0000
  C   C1250     1.0  0.40521  0.48345  0.00613  1.0000
  C   C1251     1.0  0.39870  0.50025  0.00388  1.0000
  C   C1252     1.0  0.25731  0.37482  0.02460  1.0000
  C   C1253     1.0  0.40337  0.49553  0.44526  1.0000
  S   S188      1.0  0.26401  0.33590  0.15168  1.0000
  H   H995      1.0  0.41344  0.48003  0.02495  1.0000
  H   H996      1.0  0.37246  0.46169  0.03547  1.0000
  H   H997      1.0  0.41202  0.49779  0.42644  1.0000
  C   C1254     1.0  0.35294  0.62039  0.19519  1.0000
  C   C1255     1.0  0.35417  0.60323  0.20411  1.0000
  C   C1256     1.0  0.36241  0.59100  0.18503  1.0000
  C   C1257     1.0  0.36969  0.59556  0.15663  1.0000
  C   C1258     1.0  0.36848  0.61273  0.14773  1.0000
  C   C1259     1.0  0.36017  0.62495  0.16672  1.0000
  H   H998      1.0  0.34872  0.59932  0.22571  1.0000
  H   H999      1.0  0.36316  0.57785  0.19241  1.0000
  H   H1000     1.0  0.37403  0.61661  0.12622  1.0000
  H   H1001     1.0  0.35935  0.63808  0.15928  1.0000
  C   C1260     1.0  0.35017  0.61598  0.40110  1.0000
  C   C1261     1.0  0.36643  0.62238  0.39527  1.0000
  C   C1262     1.0  0.38003  0.61854  0.41531  1.0000
  C   C1263     1.0  0.37766  0.60810  0.44121  1.0000
  C   C1264     1.0  0.36149  0.60147  0.44674  1.0000
  C   C1265     1.0  0.34785  0.60549  0.42694  1.0000
  H   H1002     1.0  0.36857  0.63018  0.37526  1.0000
  H   H1003     1.0  0.35859  0.46526  0.98599  1.0000
  C   C1266     1.0  0.35925  0.64316  0.08514  1.0000
  H   H1004     1.0  0.33537  0.60043  0.43165  1.0000
  C   C1267     1.0  0.38367  0.47723  0.47155  1.0000
  H   H1005     1.0  0.43795  0.44236  0.05568  1.0000
  C   C1268     1.0  0.39203  0.54803  0.39981  1.0000
  C   C1269     1.0  0.34818  0.36365  0.05068  1.0000
  C   C1270     1.0  0.34595  0.37168  0.02219  1.0000
  C   C1271     1.0  0.36004  0.37637  0.00411  1.0000
  C   C1272     1.0  0.37659  0.37359  0.01483  1.0000
  C   C1273     1.0  0.37885  0.36593  0.04366  1.0000
  C   C1274     1.0  0.36473  0.36092  0.06149  1.0000
  H   H1006     1.0  0.33320  0.37407  0.01392  1.0000
  H   H1007     1.0  0.44273  0.42850  0.45760  1.0000
  H   H1008     1.0  0.39162  0.36373  0.05217  1.0000
  H   H1009     1.0  0.36665  0.35475  0.08336  1.0000
  C   C1275     1.0  0.35025  0.35922  0.25828  1.0000
  C   C1276     1.0  0.35600  0.37535  0.24925  1.0000
  C   C1277     1.0  0.36432  0.38615  0.27026  1.0000
  C   C1278     1.0  0.36710  0.38126  0.30096  1.0000
  C   C1279     1.0  0.36134  0.36513  0.31000  1.0000
  C   C1280     1.0  0.35310  0.35429  0.28894  1.0000
  H   H1010     1.0  0.35404  0.37955  0.22599  1.0000
  H   H1011     1.0  0.36860  0.39849  0.26265  1.0000
  H   H1012     1.0  0.36325  0.36096  0.33329  1.0000
  H   H1013     1.0  0.34881  0.34196  0.29659  1.0000
  H   H1014     1.0  0.48309  0.52473  0.01481  1.0000
  C   C1281     1.0  0.33385  0.59892  0.06281  1.0000
  S   S189      1.0  0.39025  0.60212  0.98328  1.0000
  C   C1282     1.0  0.48156  0.39126  0.43349  1.0000
  C   C1283     1.0  0.46729  0.40075  0.42302  1.0000
  C   C1284     1.0  0.47022  0.41567  0.40628  1.0000
  H   H1015     1.0  0.47954  0.37970  0.44643  1.0000
  H   H1016     1.0  0.45952  0.42299  0.39757  1.0000
  C   C1285     1.0  0.48184  0.57676  0.02034  1.0000
  C   C1286     1.0  0.47919  0.57182  0.05074  1.0000
  C   C1287     1.0  0.32110  0.38098  0.44136  1.0000
  H   H1017     1.0  0.47104  0.57870  0.00551  1.0000
  H   H1018     1.0  0.34835  0.65425  0.38553  1.0000
  C   C1288     1.0  0.25221  0.63977  0.35318  1.0000
  C   C1289     1.0  0.41456  0.56443  0.42268  1.0000
  C   C1290     1.0  0.42617  0.55107  0.41742  1.0000
  C   C1291     1.0  0.42083  0.53631  0.40285  1.0000
  C   C1292     1.0  0.40386  0.53486  0.39368  1.0000
  H   H1019     1.0  0.24263  0.62974  0.24975  1.0000
  H   H1020     1.0  0.43929  0.55222  0.42451  1.0000
  H   H1021     1.0  0.42983  0.52599  0.39853  1.0000
  H   H1022     1.0  0.40007  0.52348  0.38188  1.0000
  H   H1023     1.0  0.38832  0.32904  0.19503  1.0000
  H   H1024     1.0  0.49173  0.56537  0.09296  1.0000
  H   H1025     1.0  0.36591  0.47486  0.15220  1.0000
  H   H1026     1.0  0.31617  0.62028  0.17137  1.0000
  S   S190      1.0  0.39527  0.60396  0.46593  1.0000
  C   C1293     1.0  0.43337  0.61834  0.99473  1.0000
  C   C1294     1.0  0.35645  0.55270  0.41904  1.0000
  C   C1295     1.0  0.44320  0.44228  0.45721  1.0000
  H   H1027     1.0  0.25353  0.40903  0.02319  1.0000
  H   H1028     1.0  0.36633  0.59193  0.28518  1.0000
  H   H1029     1.0  0.33200  0.54946  0.06719  1.0000
  C   C1296     1.0  0.49236  0.48530  0.37901  1.0000
  H   H1030     1.0  0.25521  0.43993  0.01500  1.0000
  Fe  Fe95      1.0  0.29392  0.64726  0.29940  1.0000
  H   H1031     1.0  0.37700  0.46533  0.47336  1.0000
  C   C1297     1.0  0.27394  0.36827  0.02718  1.0000
  C   C1298     1.0  0.34018  0.55978  0.41380  1.0000
  S   S191      1.0  0.26465  0.64809  0.29507  1.0000
  H   H1032     1.0  0.37799  0.56258  0.27890  1.0000
  C   C1299     1.0  0.44233  0.44896  0.03543  1.0000
  H   H1033     1.0  0.43680  0.44406  0.40957  1.0000
  C   C1300     1.0  0.45878  0.51157  0.07437  1.0000
  H   H1034     1.0  0.37524  0.51441  0.41933  1.0000
  C   C1301     1.0  0.44002  0.45101  0.42997  1.0000
  H   H1035     1.0  0.34994  0.53226  0.33779  1.0000
  H   H1036     1.0  0.29879  0.63056  0.04463  1.0000
  H   H1037     1.0  0.48907  0.43277  0.38789  1.0000
  C   C1302     1.0  0.47958  0.51734  0.03470  1.0000
  H   H1038     1.0  0.36624  0.61100  0.03437  1.0000
  C   C1303     1.0  0.44033  0.46877  0.42923  1.0000
  Fe  Fe96      1.0  0.29321  0.33283  0.15061  1.0000
  H   H1039     1.0  0.29878  0.39652  0.43304  1.0000
  C   C1304     1.0  0.45631  0.47297  0.01178  1.0000
  C   C1305     1.0  0.45087  0.46435  0.03800  1.0000
  C   C1306     1.0  0.30701  0.63213  0.02492  1.0000
  H   H1040     1.0  0.47944  0.43633  0.46768  1.0000
  H   H1041     1.0  0.40660  0.52067  0.46458  1.0000
  C   C1307     1.0  0.36415  0.52542  0.37848  1.0000
  H   H1042     1.0  0.46291  0.48487  0.01420  1.0000
  H   H1043     1.0  0.38631  0.32821  0.03398  1.0000
  H   H1044     1.0  0.43719  0.47548  0.40828  1.0000
  H   H1045     1.0  0.35074  0.47905  0.36058  1.0000
  H   H1046     1.0  0.38540  0.39793  0.10624  1.0000
  C   C1308     1.0  0.30629  0.33460  0.00430  1.0000
  C   C1309     1.0  0.35423  0.52205  0.35270  1.0000
  C   C1310     1.0  0.36286  0.57800  0.35862  1.0000
  C   C1311     1.0  0.36868  0.56113  0.35508  1.0000
  H   H1047     1.0  0.34950  0.64920  0.09905  1.0000
  C   C1312     1.0  0.36189  0.58899  0.33344  1.0000
  H   H1048     1.0  0.39525  0.62245  0.03645  1.0000
  C   C1313     1.0  0.33483  0.63042  0.00072  1.0000
  H   H1049     1.0  0.40181  0.64616  0.07112  1.0000
  H   H1050     1.0  0.43550  0.62443  0.46418  1.0000
  H   H1051     1.0  0.26059  0.61016  0.28047  1.0000
  C   C1314     1.0  0.30662  0.65246  0.12182  1.0000
  H   H1052     1.0  0.35450  0.59617  0.09496  1.0000
  H   H1053     1.0  0.36606  0.37778  0.13124  1.0000
  C   C1315     1.0  0.35292  0.43873  0.98121  1.0000
  H   H1054     1.0  0.34253  0.43142  0.08688  1.0000
  H   H1055     1.0  0.30903  0.33402  0.02854  1.0000
  H   H1056     1.0  0.43285  0.43016  0.00455  1.0000
  P   P42       1.0  0.33387  0.62193  0.06293  1.0000
  H   H1057     1.0  0.32867  0.38702  0.42368  1.0000
  C   C1316     1.0  0.45292  0.46638  0.98274  1.0000
  C   C1317     1.0  0.32212  0.62961  0.09590  1.0000
  H   H1058     1.0  0.35707  0.60191  0.33629  1.0000
  H   H1059     1.0  0.39249  0.62365  0.41064  1.0000
  H   H1060     1.0  0.40620  0.45815  0.98646  1.0000
  C   C1318     1.0  0.37363  0.56681  0.30114  1.0000
  H   H1061     1.0  0.34836  0.62767  0.00122  1.0000
  C   C1319     1.0  0.24910  0.33304  0.12158  1.0000
  H   H1062     1.0  0.33510  0.38397  0.13381  1.0000
  S   S192      1.0  0.34320  0.65319  0.30512  1.0000
  C   C1320     1.0  0.34427  0.57193  0.08337  1.0000
  H   H1063     1.0  0.46672  0.62481  0.47371  1.0000
  H   H1064     1.0  0.37364  0.54278  0.45378  1.0000
  C   C1321     1.0  0.38889  0.64160  0.06961  1.0000
  H   H1065     1.0  0.38871  0.57339  0.41841  1.0000
  H   H1066     1.0  0.36705  0.48501  0.40729  1.0000
  H   H1067     1.0  0.36298  0.40767  0.03254  1.0000
  C   C1322     1.0  0.40125  0.47102  0.98417  1.0000
  H   H1068     1.0  0.34156  0.36427  0.45559  1.0000
  H   H1069     1.0  0.31201  0.56555  0.03361  1.0000
  H   H1070     1.0  0.35917  0.58278  0.38081  1.0000
  C   C1323     1.0  0.47025  0.50015  0.08814  1.0000
  H   H1071     1.0  0.47162  0.46766  0.37728  1.0000
  H   H1072     1.0  0.24652  0.37489  0.10017  1.0000
  H   H1073     1.0  0.34201  0.50279  0.32608  1.0000
  H   H1074     1.0  0.45312  0.46970  0.06030  1.0000
  C   C1324     1.0  0.36141  0.54883  0.44907  1.0000
  H   H1075     1.0  0.44473  0.59530  0.01269  1.0000
  C   C1325     1.0  0.28062  0.36434  0.05590  1.0000
  C   C1326     1.0  0.24858  0.64621  0.32407  1.0000
  C   C1327     1.0  0.36869  0.62178  0.04893  1.0000
  H   H1076     1.0  0.31431  0.65350  0.07481  1.0000
  C   C1328     1.0  0.31520  0.62720  0.14992  1.0000
  C   C1329     1.0  0.36833  0.51201  0.39855  1.0000
  H   H1077     1.0  0.32932  0.60830  0.12522  1.0000
  C   C1330     1.0  0.32177  0.59009  0.04572  1.0000
  C   C1331     1.0  0.35940  0.45274  0.99645  1.0000
  C   C1332     1.0  0.37457  0.55578  0.32631  1.0000
  P   P43       1.0  0.37020  0.54689  0.38754  1.0000
  C   C1333     1.0  0.34950  0.50537  0.34617  1.0000
  C   C1334     1.0  0.48706  0.42114  0.40068  1.0000
  H   H1078     1.0  0.35508  0.32951  0.02651  1.0000
  H   H1079     1.0  0.41861  0.57598  0.43377  1.0000
  H   H1080     1.0  0.32338  0.41080  0.11190  1.0000
  H   H1081     1.0  0.28198  0.38362  0.47466  1.0000
  H   H1082     1.0  0.46675  0.49386  0.10928  1.0000
  C   C1335     1.0  0.27065  0.36687  0.08202  1.0000
  C   C1336     1.0  0.33450  0.56006  0.46819  1.0000
  H   H1083     1.0  0.44638  0.51412  0.08464  1.0000
  C   C1337     1.0  0.36356  0.49536  0.39197  1.0000
  S   S193      1.0  0.30661  0.65773  0.34054  1.0000
  C   C1338     1.0  0.36714  0.58337  0.30466  1.0000
  C   C1339     1.0  0.32264  0.62042  0.12350  1.0000
  C   C1340     1.0  0.35547  0.62946  0.06591  1.0000
  C   C1341     1.0  0.46355  0.52031  0.04796  1.0000
  C   C1342     1.0  0.34515  0.58967  0.08149  1.0000
  C   C1343     1.0  0.32120  0.57230  0.04709  1.0000
  C   C1344     1.0  0.33243  0.56323  0.06599  1.0000
  H   H1084     1.0  0.31697  0.56950  0.43417  1.0000
  C   C1345     1.0  0.32835  0.36806  0.45927  1.0000
  H   H1085     1.0  0.25234  0.37792  0.00222  1.0000
  C   C1346     1.0  0.35430  0.49200  0.36565  1.0000
  H   H1086     1.0  0.28171  0.36629  0.00696  1.0000
  H   H1087     1.0  0.26518  0.63617  0.35886  1.0000
  H   H1088     1.0  0.29349  0.35928  0.05803  1.0000
  H   H1089     1.0  0.24723  0.58808  0.31294  1.0000
  H   H1090     1.0  0.44323  0.49161  0.45472  1.0000
  H   H1091     1.0  0.36266  0.44673  0.12853  1.0000
  C   C1347     1.0  0.39755  0.56291  0.41401  1.0000
  H   H1092     1.0  0.45498  0.52991  0.03852  1.0000
  C   C1348     1.0  0.42722  0.41303  0.09236  1.0000
  C   C1349     1.0  0.43167  0.40424  0.06577  1.0000
  C   C1350     1.0  0.42038  0.40404  0.04127  1.0000
  C   C1351     1.0  0.40465  0.41262  0.04324  1.0000
  C   C1352     1.0  0.40005  0.42139  0.06989  1.0000
  C   C1353     1.0  0.41146  0.42155  0.09446  1.0000
  P   P44       1.0  0.37908  0.43089  0.07437  1.0000
  C   C1354     1.0  0.36549  0.41651  0.09534  1.0000
  C   C1355     1.0  0.38165  0.45105  0.09328  1.0000
  C   C1356     1.0  0.39366  0.46259  0.08195  1.0000
  C   C1357     1.0  0.39526  0.47863  0.09522  1.0000
  C   C1358     1.0  0.38523  0.48305  0.12049  1.0000
  C   C1359     1.0  0.37361  0.47143  0.13250  1.0000
  C   C1360     1.0  0.37178  0.45548  0.11894  1.0000
  C   C1361     1.0  0.34787  0.41991  0.09698  1.0000
  C   C1362     1.0  0.33698  0.40827  0.11102  1.0000
  C   C1363     1.0  0.34357  0.39314  0.12343  1.0000
  C   C1364     1.0  0.36106  0.38966  0.12196  1.0000
  C   C1365     1.0  0.37200  0.40123  0.10786  1.0000
  C   C1366     1.0  0.36901  0.43426  0.03779  1.0000
  C   C1367     1.0  0.36205  0.42032  0.02265  1.0000
  H   H1093     1.0  0.27071  0.34927  0.46612  1.0000
  H   H1094     1.0  0.31278  0.59683  0.03129  1.0000
  H   H1095     1.0  0.33583  0.56235  0.39081  1.0000
  C   C1368     1.0  0.36747  0.45057  0.02456  1.0000
  H   H1096     1.0  0.43586  0.41300  0.11154  1.0000
  H   H1097     1.0  0.44376  0.39743  0.06419  1.0000
  H   H1098     1.0  0.42367  0.39702  0.02076  1.0000
  H   H1099     1.0  0.39609  0.41207  0.02405  1.0000
  H   H1100     1.0  0.40799  0.42793  0.11551  1.0000
  H   H1101     1.0  0.40142  0.45938  0.06220  1.0000
  H   H1102     1.0  0.40404  0.48777  0.08557  1.0000
  H   H1103     1.0  0.38641  0.49553  0.13064  1.0000
  S   S194      1.0  0.39480  0.37923  0.99297  1.0000
  C   C1369     1.0  0.29972  0.63667  0.99689  1.0000
  H   H1104     1.0  0.43443  0.62515  0.01604  1.0000
  C   C1370     1.0  0.32935  0.56366  0.43834  1.0000
  H   H1105     1.0  0.27572  0.36349  0.10428  1.0000
  H   H1106     1.0  0.35942  0.59338  0.46642  1.0000
  C   C1371     1.0  0.38523  0.62810  0.05031  1.0000
  C   C1372     1.0  0.35409  0.42255  0.99447  1.0000
  H   H1107     1.0  0.47562  0.45754  0.43021  1.0000
  H   H1108     1.0  0.49079  0.48954  0.35561  1.0000
  C   C1373     1.0  0.29478  0.37887  0.47023  1.0000
  C   C1374     1.0  0.32468  0.62919  0.02720  1.0000
  C   C1375     1.0  0.44365  0.47787  0.45577  1.0000
  C   C1376     1.0  0.25415  0.32947  0.09157  1.0000
  C   C1377     1.0  0.40027  0.50859  0.46683  1.0000
  H   H1109     1.0  0.28610  0.63894  0.99532  1.0000
  H   H1110     1.0  0.43198  0.52893  0.99368  1.0000
  C   C1378     1.0  0.30721  0.64319  0.14911  1.0000
  C   C1379     1.0  0.37591  0.64908  0.08715  1.0000
  C   C1380     1.0  0.24427  0.35326  0.47736  1.0000
  H   H1111     1.0  0.26757  0.32821  0.08611  1.0000
  C   C1381     1.0  0.24725  0.37756  0.05081  1.0000
  C   C1382     1.0  0.48648  0.49749  0.07545  1.0000
  H   H1112     1.0  0.34915  0.41167  0.98264  1.0000
  C   C1383     1.0  0.48156  0.47300  0.39119  1.0000
  C   C1384     1.0  0.31417  0.64579  0.09535  1.0000
  C   C1385     1.0  0.24685  0.60882  0.28073  1.0000
  H   H1113     1.0  0.35812  0.38206  0.98186  1.0000
  H   H1114     1.0  0.43434  0.49854  0.98260  1.0000
  C   C1386     1.0  0.49118  0.50578  0.04823  1.0000
  C   C1387     1.0  0.31865  0.34049  0.98389  1.0000
  H   H1115     1.0  0.30184  0.64853  0.16990  1.0000
  H   H1116     1.0  0.33080  0.34442  0.99275  1.0000
  C   C1388     1.0  0.29042  0.32964  0.99355  1.0000
  C   C1389     1.0  0.24262  0.41696  0.02898  1.0000
  C   C1390     1.0  0.24365  0.43455  0.02432  1.0000
  H   H1117     1.0  0.39893  0.65829  0.25644  1.0000
  S   S195      1.0  0.34255  0.32552  0.14580  1.0000
  C   C1391     1.0  0.48733  0.42760  0.48070  1.0000
  C   C1392     1.0  0.49059  0.46092  0.95625  1.0000
  H   H1118     1.0  0.48405  0.49529  0.52195  1.0000
  H   H1119     1.0  0.26767  0.32771  0.59217  1.0000
  S   S196      1.0  0.34311  0.33750  0.74371  1.0000
  Fe  Fe97      1.0  0.33245  0.33529  0.62731  1.0000
  S   S197      1.0  0.35178  0.34051  0.58869  1.0000
  S   S198      1.0  0.31928  0.35193  0.66260  1.0000
  Fe  Fe98      1.0  0.33178  0.63380  0.83761  1.0000
  S   S199      1.0  0.31709  0.62459  0.79680  1.0000
  S   S200      1.0  0.33862  0.61229  0.87153  1.0000
  Fe  Fe99      1.0  0.29889  0.64659  0.80586  1.0000
  H   H1120     1.0  0.25985  0.59888  0.73596  1.0000
  Fe  Fe100     1.0  0.33304  0.64244  0.76840  1.0000
  S   S201      1.0  0.34329  0.63739  0.71887  1.0000
  C   C1393     1.0  0.40315  0.62071  0.84527  1.0000
  Fe  Fe101     1.0  0.42236  0.40880  0.90432  1.0000
  S   S202      1.0  0.40219  0.42376  0.87869  1.0000
  S   S203      1.0  0.44963  0.41077  0.88531  1.0000
  Fe  Fe102     1.0  0.39584  0.39546  0.94947  1.0000
  S   S204      1.0  0.37422  0.40982  0.92704  1.0000
  H   H1121     1.0  0.41838  0.46021  0.51805  1.0000
  Fe  Fe103     1.0  0.38556  0.40055  0.88220  1.0000
  S   S205      1.0  0.36810  0.39377  0.84112  1.0000
  Fe  Fe104     1.0  0.39245  0.43186  0.92495  1.0000
  S   S206      1.0  0.38429  0.45990  0.93203  1.0000
  S   S207      1.0  0.40644  0.38502  0.90505  1.0000
  S   S208      1.0  0.41335  0.41806  0.95018  1.0000
  Fe  Fe105     1.0  0.39151  0.57882  0.57583  1.0000
  S   S209      1.0  0.41126  0.59370  0.54958  1.0000
  S   S210      1.0  0.38132  0.58509  0.62496  1.0000
  Fe  Fe106     1.0  0.39413  0.54894  0.52821  1.0000
  S   S211      1.0  0.41396  0.56216  0.50017  1.0000
  S   S212      1.0  0.38365  0.52225  0.51842  1.0000
  Fe  Fe107     1.0  0.42645  0.56922  0.54439  1.0000
  S   S213      1.0  0.45462  0.56323  0.55626  1.0000
  Fe  Fe108     1.0  0.39741  0.58567  0.50687  1.0000
  H   H1122     1.0  0.36443  0.57991  0.95656  1.0000
  S   S214      1.0  0.40738  0.55450  0.57245  1.0000
  S   S215      1.0  0.37674  0.57216  0.53318  1.0000
  S   S216      1.0  0.36202  0.39611  0.48263  1.0000
  H   H1123     1.0  0.36440  0.43172  0.60402  1.0000
  H   H1124     1.0  0.34546  0.57294  0.59619  1.0000
  H   H1125     1.0  0.32096  0.34199  0.54637  1.0000
  C   C1394     1.0  0.29445  0.37046  0.55356  1.0000
  H   H1126     1.0  0.47292  0.46238  0.61803  1.0000
  C   C1395     1.0  0.42650  0.42362  0.60506  1.0000
  H   H1127     1.0  0.37094  0.48845  0.51057  1.0000
  H   H1128     1.0  0.45227  0.47759  0.58501  1.0000
  H   H1129     1.0  0.37587  0.49541  0.93858  1.0000
  C   C1396     1.0  0.35418  0.62272  0.69329  1.0000
  C   C1397     1.0  0.36081  0.60689  0.70286  1.0000
  C   C1398     1.0  0.36908  0.59574  0.68181  1.0000
  C   C1399     1.0  0.37101  0.60010  0.65067  1.0000
  C   C1400     1.0  0.36454  0.61601  0.64115  1.0000
  C   C1401     1.0  0.35619  0.62712  0.66218  1.0000
  H   H1130     1.0  0.35961  0.60329  0.72658  1.0000
  H   H1131     1.0  0.37406  0.58360  0.68972  1.0000
  H   H1132     1.0  0.36583  0.61974  0.61748  1.0000
  H   H1133     1.0  0.35124  0.63928  0.65422  1.0000
  C   C1402     1.0  0.35256  0.61013  0.90343  1.0000
  C   C1403     1.0  0.36364  0.62299  0.91212  1.0000
  C   C1404     1.0  0.37497  0.62029  0.93668  1.0000
  C   C1405     1.0  0.37541  0.60475  0.95290  1.0000
  C   C1406     1.0  0.36428  0.59192  0.94435  1.0000
  C   C1407     1.0  0.35296  0.59462  0.91978  1.0000
  H   H1134     1.0  0.36364  0.63493  0.89968  1.0000
  H   H1135     1.0  0.30320  0.39232  0.52773  1.0000
  C   C1408     1.0  0.48996  0.40287  0.51361  1.0000
  H   H1136     1.0  0.34451  0.58454  0.91324  1.0000
  H   H1137     1.0  0.48083  0.50729  0.93229  1.0000
  C   C1409     1.0  0.40905  0.56375  0.93505  1.0000
  C   C1410     1.0  0.47012  0.51181  0.94565  1.0000
  C   C1411     1.0  0.35412  0.35600  0.55904  1.0000
  C   C1412     1.0  0.34294  0.36994  0.55573  1.0000
  C   C1413     1.0  0.34560  0.38204  0.53225  1.0000
  C   C1414     1.0  0.35937  0.38035  0.51167  1.0000
  C   C1415     1.0  0.37036  0.36626  0.51465  1.0000
  C   C1416     1.0  0.36779  0.35423  0.53827  1.0000
  H   H1138     1.0  0.33240  0.37149  0.57151  1.0000
  H   H1139     1.0  0.33697  0.39285  0.53005  1.0000
  H   H1140     1.0  0.48906  0.40836  0.97312  1.0000
  H   H1141     1.0  0.37646  0.34345  0.54042  1.0000
  C   C1417     1.0  0.35006  0.35352  0.77018  1.0000
  C   C1418     1.0  0.34459  0.37060  0.76870  1.0000
  C   C1419     1.0  0.35018  0.38256  0.79051  1.0000
  C   C1420     1.0  0.36148  0.37784  0.81420  1.0000
  C   C1421     1.0  0.36695  0.36076  0.81569  1.0000
  C   C1422     1.0  0.36128  0.34878  0.79398  1.0000
  H   H1142     1.0  0.33593  0.37460  0.75085  1.0000
  H   H1143     1.0  0.34575  0.39564  0.78893  1.0000
  H   H1144     1.0  0.37556  0.35675  0.83361  1.0000
  H   H1145     1.0  0.36566  0.33569  0.79565  1.0000
  C   C1423     1.0  0.38020  0.49045  0.49259  1.0000
  C   C1424     1.0  0.24341  0.65654  0.87971  1.0000
  C   C1425     1.0  0.48055  0.47151  0.93741  1.0000
  C   C1426     1.0  0.25331  0.64875  0.82871  1.0000
  C   C1427     1.0  0.46981  0.41141  0.90371  1.0000
  C   C1428     1.0  0.47153  0.40993  0.93537  1.0000
  H   H1146     1.0  0.30022  0.52261  0.77780  1.0000
  H   H1147     1.0  0.46029  0.40854  0.94952  1.0000
  C   C1429     1.0  0.47730  0.58558  0.52769  1.0000
  C   C1430     1.0  0.47520  0.57119  0.54617  1.0000
  C   C1431     1.0  0.46388  0.62783  0.52233  1.0000
  H   H1148     1.0  0.39336  0.35538  0.94232  1.0000
  H   H1149     1.0  0.44820  0.44435  0.50502  1.0000
  Fe  Fe109     1.0  0.29670  0.33429  0.65659  1.0000
  C   C1432     1.0  0.41275  0.37407  0.52988  1.0000
  P   P45       1.0  0.29008  0.35755  0.52066  1.0000
  H   H1150     1.0  0.39404  0.54488  0.95816  1.0000
  H   H1151     1.0  0.42084  0.42252  0.53536  1.0000
  H   H1152     1.0  0.44109  0.55481  0.88441  1.0000
  C   C1433     1.0  0.42431  0.38181  0.51004  1.0000
  H   H1153     1.0  0.43979  0.44405  0.86121  1.0000
  C   C1434     1.0  0.42228  0.56682  0.91413  1.0000
  C   C1435     1.0  0.40971  0.42891  0.59861  1.0000
  P   P46       1.0  0.39514  0.41422  0.58140  1.0000
  C   C1436     1.0  0.40404  0.38374  0.55189  1.0000
  C   C1437     1.0  0.29365  0.37437  0.60848  1.0000
  C   C1438     1.0  0.33811  0.32945  0.87537  1.0000
  C   C1439     1.0  0.48462  0.41327  0.88574  1.0000
  C   C1440     1.0  0.37076  0.39220  0.60457  1.0000
  H   H1154     1.0  0.40235  0.57428  0.94592  1.0000
  C   C1441     1.0  0.43080  0.55291  0.90048  1.0000
  C   C1442     1.0  0.26755  0.35851  0.51230  1.0000
  C   C1443     1.0  0.29117  0.36413  0.58299  1.0000
  C   C1444     1.0  0.45781  0.62623  0.49254  1.0000
  C   C1445     1.0  0.30651  0.55273  0.72264  1.0000
  C   C1446     1.0  0.28964  0.52192  0.73260  1.0000
  H   H1155     1.0  0.44112  0.46000  0.63683  1.0000
  C   C1447     1.0  0.41876  0.40893  0.53451  1.0000
  H   H1156     1.0  0.43596  0.40519  0.49640  1.0000
  H   H1157     1.0  0.34121  0.44770  0.57811  1.0000
  C   C1448     1.0  0.38358  0.59826  0.85790  1.0000
  H   H1158     1.0  0.30194  0.39863  0.62479  1.0000
  H   H1159     1.0  0.42569  0.63047  0.55974  1.0000
  H   H1160     1.0  0.41165  0.46959  0.62509  1.0000
  C   C1449     1.0  0.44844  0.45911  0.89882  1.0000
  C   C1450     1.0  0.48679  0.47613  0.90846  1.0000
  H   H1161     1.0  0.30828  0.40989  0.57289  1.0000
  C   C1451     1.0  0.42404  0.61729  0.94218  1.0000
  H   H1162     1.0  0.49038  0.59514  0.89525  1.0000
  C   C1452     1.0  0.24739  0.60964  0.93365  1.0000
  C   C1453     1.0  0.32418  0.33328  0.82656  1.0000
  H   H1163     1.0  0.33238  0.59933  0.61698  1.0000
  C   C1454     1.0  0.39330  0.39918  0.63962  1.0000
  C   C1455     1.0  0.48992  0.56271  0.55723  1.0000
  C   C1456     1.0  0.29662  0.54564  0.69949  1.0000
  C   C1457     1.0  0.32690  0.40838  0.92389  1.0000
  P   P47       1.0  0.31689  0.57279  0.71619  1.0000
  C   C1458     1.0  0.30195  0.59027  0.72195  1.0000
  C   C1459     1.0  0.33410  0.57472  0.74318  1.0000
  C   C1460     1.0  0.35044  0.56814  0.73653  1.0000
  C   C1461     1.0  0.36366  0.56977  0.75753  1.0000
  C   C1462     1.0  0.36065  0.57787  0.78539  1.0000
  C   C1463     1.0  0.34436  0.58419  0.79243  1.0000
  C   C1464     1.0  0.33111  0.58253  0.77152  1.0000
  C   C1465     1.0  0.30799  0.60695  0.72361  1.0000
  C   C1466     1.0  0.29676  0.62061  0.72894  1.0000
  H   H1164     1.0  0.27084  0.62826  0.73869  1.0000
  C   C1467     1.0  0.27327  0.60111  0.73207  1.0000
  C   C1468     1.0  0.28446  0.58743  0.72618  1.0000
  C   C1469     1.0  0.32553  0.57291  0.67777  1.0000
  C   C1470     1.0  0.32526  0.58780  0.65983  1.0000
  C   C1471     1.0  0.33214  0.58768  0.63034  1.0000
  C   C1472     1.0  0.33949  0.57279  0.61857  1.0000
  C   C1473     1.0  0.33980  0.55791  0.63615  1.0000
  C   C1474     1.0  0.33279  0.55792  0.66556  1.0000
  C   C1475     1.0  0.29924  0.52903  0.75591  1.0000
  H   H1165     1.0  0.47853  0.53785  0.94443  1.0000
  C   C1476     1.0  0.43245  0.45136  0.62598  1.0000
  C   C1477     1.0  0.29990  0.39081  0.60490  1.0000
  H   H1166     1.0  0.40588  0.63245  0.83322  1.0000
  H   H1167     1.0  0.35317  0.56203  0.71499  1.0000
  H   H1168     1.0  0.37632  0.56498  0.75196  1.0000
  H   H1169     1.0  0.37094  0.57932  0.80146  1.0000
  H   H1170     1.0  0.34199  0.59051  0.81405  1.0000
  H   H1171     1.0  0.31856  0.58742  0.77754  1.0000
  H   H1172     1.0  0.32147  0.60935  0.72112  1.0000
  Fe  Fe110     1.0  0.32867  0.33291  0.69799  1.0000
  H   H1173     1.0  0.43060  0.37446  0.49222  1.0000
  C   C1478     1.0  0.47421  0.46161  0.59345  1.0000
  H   H1174     1.0  0.39682  0.32708  0.96662  1.0000
  H   H1175     1.0  0.32010  0.59966  0.66846  1.0000
  C   C1479     1.0  0.26365  0.61516  0.92533  1.0000
  H   H1176     1.0  0.43673  0.58241  0.84108  1.0000
  H   H1177     1.0  0.34584  0.54649  0.62713  1.0000
  H   H1178     1.0  0.33335  0.54631  0.67897  1.0000
  C   C1480     1.0  0.41183  0.59809  0.88039  1.0000
  H   H1179     1.0  0.27459  0.32671  0.95402  1.0000
  C   C1481     1.0  0.44028  0.62607  0.48711  1.0000
  C   C1482     1.0  0.39061  0.47520  0.95964  1.0000
  C   C1483     1.0  0.45242  0.62896  0.54700  1.0000
  H   H1180     1.0  0.33538  0.63546  0.95235  1.0000
  P   P48       1.0  0.45997  0.63091  0.58571  1.0000
  C   C1484     1.0  0.44501  0.62026  0.61059  1.0000
  C   C1485     1.0  0.42811  0.59538  0.62250  1.0000
  H   H1181     1.0  0.36485  0.39330  0.58239  1.0000
  C   C1486     1.0  0.36343  0.38171  0.62678  1.0000
  H   H1182     1.0  0.32508  0.35090  0.49654  1.0000
  C   C1487     1.0  0.41270  0.53334  0.92813  1.0000
  C   C1488     1.0  0.42049  0.60399  0.64693  1.0000
  H   H1183     1.0  0.41891  0.62739  0.67202  1.0000
  H   H1184     1.0  0.30766  0.36091  0.87862  1.0000
  H   H1185     1.0  0.38354  0.63030  0.94303  1.0000
  H   H1186     1.0  0.41262  0.46025  0.85547  1.0000
  H   H1187     1.0  0.37751  0.61930  0.82799  1.0000
  C   C1489     1.0  0.40700  0.40126  0.55441  1.0000
  H   H1188     1.0  0.41011  0.36063  0.52761  1.0000
  C   C1490     1.0  0.42881  0.62780  0.51140  1.0000
  C   C1491     1.0  0.38586  0.38875  0.66187  1.0000
  C   C1492     1.0  0.41777  0.47734  0.89235  1.0000
  H   H1189     1.0  0.39161  0.45003  0.60146  1.0000
  H   H1190     1.0  0.47321  0.59795  0.61096  1.0000
  H   H1191     1.0  0.46604  0.41415  0.49960  1.0000
  H   H1192     1.0  0.42543  0.49163  0.93097  1.0000
  C   C1493     1.0  0.32013  0.39940  0.94864  1.0000
  H   H1193     1.0  0.43078  0.41076  0.59986  1.0000
  C   C1494     1.0  0.40444  0.44556  0.60603  1.0000
  C   C1495     1.0  0.44477  0.47284  0.91835  1.0000
  H   H1194     1.0  0.40485  0.40576  0.64515  1.0000
  C   C1496     1.0  0.26174  0.35342  0.48354  1.0000
  H   H1195     1.0  0.35199  0.37473  0.62168  1.0000
  P   P49       1.0  0.45921  0.47790  0.94886  1.0000
  C   C1497     1.0  0.43782  0.43482  0.61867  1.0000
  C   C1498     1.0  0.35153  0.44370  0.53307  1.0000
  H   H1196     1.0  0.31485  0.54977  0.76948  1.0000
  H   H1197     1.0  0.29056  0.36956  0.63103  1.0000
  H   H1198     1.0  0.28635  0.35142  0.58631  1.0000
  C   C1499     1.0  0.25642  0.61237  0.87207  1.0000
  C   C1500     1.0  0.30758  0.54443  0.75105  1.0000
  H   H1199     1.0  0.37107  0.59272  0.85594  1.0000
  C   C1501     1.0  0.42171  0.46396  0.87260  1.0000
  C   C1502     1.0  0.45328  0.53119  0.49440  1.0000
  H   H1200     1.0  0.36528  0.37176  0.67255  1.0000
  C   C1503     1.0  0.38579  0.40096  0.61073  1.0000
  C   C1504     1.0  0.37786  0.42724  0.53039  1.0000
  C   C1505     1.0  0.44837  0.58521  0.85314  1.0000
  C   C1506     1.0  0.35153  0.44209  0.56484  1.0000
  C   C1507     1.0  0.43483  0.62932  0.54120  1.0000
  H   H1201     1.0  0.24416  0.60835  0.95760  1.0000
  H   H1202     1.0  0.44052  0.64180  0.64060  1.0000
  C   C1508     1.0  0.26815  0.61656  0.89453  1.0000
  H   H1203     1.0  0.27942  0.57471  0.72548  1.0000
  H   H1204     1.0  0.47522  0.54726  0.49555  1.0000
  H   H1205     1.0  0.39479  0.37749  0.56633  1.0000
  C   C1509     1.0  0.38720  0.61329  0.84216  1.0000
  H   H1206     1.0  0.34125  0.45049  0.52164  1.0000
  H   H1207     1.0  0.38082  0.36463  0.49869  1.0000
  C   C1510     1.0  0.43702  0.45484  0.87586  1.0000
  H   H1208     1.0  0.38753  0.42118  0.51638  1.0000
  H   H1209     1.0  0.46616  0.59204  0.51860  1.0000
  C   C1511     1.0  0.42601  0.53624  0.90753  1.0000
  C   C1512     1.0  0.42738  0.39920  0.51250  1.0000
  H   H1210     1.0  0.41074  0.59780  0.66048  1.0000
  C   C1513     1.0  0.47867  0.59229  0.88347  1.0000
  H   H1211     1.0  0.28070  0.62093  0.88795  1.0000
  C   C1514     1.0  0.46881  0.52921  0.95234  1.0000
  H   H1212     1.0  0.42430  0.58253  0.61723  1.0000
  C   C1515     1.0  0.30340  0.39716  0.57572  1.0000
  H   H1213     1.0  0.39165  0.38738  0.68416  1.0000
  H   H1214     1.0  0.40551  0.48382  0.89074  1.0000
  C   C1516     1.0  0.33508  0.39960  0.90024  1.0000
  H   H1215     1.0  0.31603  0.37496  0.96893  1.0000
  C   C1517     1.0  0.25170  0.33863  0.62724  1.0000
  C   C1518     1.0  0.40425  0.54709  0.94190  1.0000
  H   H1216     1.0  0.43527  0.50661  0.56017  1.0000
  H   H1217     1.0  0.39228  0.57943  0.88964  1.0000
  C   C1519     1.0  0.42917  0.48170  0.91528  1.0000
  C   C1520     1.0  0.36468  0.43303  0.57941  1.0000
  H   H1218     1.0  0.48004  0.46020  0.50570  1.0000
  C   C1521     1.0  0.37807  0.42568  0.56229  1.0000
  H   H1219     1.0  0.47884  0.64885  0.63247  1.0000
  C   C1522     1.0  0.32147  0.38162  0.94968  1.0000
  H   H1220     1.0  0.28080  0.52476  0.68640  1.0000
  C   C1523     1.0  0.33663  0.38185  0.90135  1.0000
  C   C1524     1.0  0.32968  0.37269  0.92595  1.0000
  H   H1221     1.0  0.47902  0.48381  0.89316  1.0000
  P   P50       1.0  0.33126  0.34969  0.92657  1.0000
  C   C1525     1.0  0.32783  0.34245  0.88800  1.0000
  C   C1526     1.0  0.35208  0.34265  0.93931  1.0000
  C   C1527     1.0  0.36635  0.35300  0.93542  1.0000
  C   C1528     1.0  0.38241  0.34727  0.94508  1.0000
  H   H1222     1.0  0.45989  0.45135  0.90163  1.0000
  H   H1223     1.0  0.29630  0.33705  0.91777  1.0000
  H   H1224     1.0  0.25955  0.36715  0.55725  1.0000
  H   H1225     1.0  0.30164  0.63342  0.73029  1.0000
  H   H1226     1.0  0.48760  0.38416  0.62226  1.0000
  C   C1529     1.0  0.44795  0.58865  0.88455  1.0000
  C   C1530     1.0  0.38436  0.33129  0.95882  1.0000
  C   C1531     1.0  0.43741  0.59249  0.96559  1.0000
  C   C1532     1.0  0.43736  0.62880  0.63537  1.0000
  C   C1533     1.0  0.44697  0.51492  0.49996  1.0000
  S   S217      1.0  0.34861  0.65084  0.80902  1.0000
  C   C1534     1.0  0.48373  0.60542  0.60276  1.0000
  C   C1535     1.0  0.31381  0.34612  0.83898  1.0000
  H   H1227     1.0  0.41520  0.62755  0.50713  1.0000
  H   H1228     1.0  0.34324  0.37533  0.88289  1.0000
  C   C1536     1.0  0.42510  0.62068  0.65337  1.0000
  H   H1229     1.0  0.36522  0.36551  0.92506  1.0000
  S   S218      1.0  0.26830  0.34230  0.65425  1.0000
  C   C1537     1.0  0.42977  0.60029  0.94007  1.0000
  C   C1538     1.0  0.41580  0.45674  0.61954  1.0000
  H   H1230     1.0  0.28322  0.50996  0.73639  1.0000
  C   C1539     1.0  0.46382  0.58536  0.83706  1.0000
  H   H1231     1.0  0.46336  0.59487  0.92378  1.0000
  C   C1540     1.0  0.29929  0.33641  0.94181  1.0000
  C   C1541     1.0  0.31557  0.35067  0.86959  1.0000
  H   H1232     1.0  0.48382  0.39269  0.52602  1.0000
  H   H1233     1.0  0.48886  0.35265  0.62627  1.0000
  H   H1234     1.0  0.40900  0.52044  0.93365  1.0000
  H   H1235     1.0  0.29536  0.55202  0.67760  1.0000
  H   H1236     1.0  0.40696  0.51026  0.58395  1.0000
  C   C1542     1.0  0.44020  0.60352  0.60422  1.0000
  H   H1237     1.0  0.45071  0.43061  0.62377  1.0000
  C   C1543     1.0  0.39571  0.59078  0.87719  1.0000
  H   H1238     1.0  0.44566  0.59680  0.58485  1.0000
  H   H1239     1.0  0.32595  0.42216  0.92305  1.0000
  H   H1240     1.0  0.39053  0.46384  0.54301  1.0000
  H   H1241     1.0  0.38455  0.48899  0.57557  1.0000
  C   C1544     1.0  0.37097  0.37998  0.65542  1.0000
  C   C1545     1.0  0.48788  0.40983  0.94868  1.0000
  C   C1546     1.0  0.47979  0.41503  0.49866  1.0000
  C   C1547     1.0  0.25561  0.36353  0.53465  1.0000
  C   C1548     1.0  0.36465  0.43621  0.51589  1.0000
  H   H1242     1.0  0.34052  0.40653  0.88112  1.0000
  H   H1243     1.0  0.43348  0.51271  0.49690  1.0000
  H   H1244     1.0  0.44215  0.44522  0.95829  1.0000
  H   H1245     1.0  0.32612  0.56306  0.48719  1.0000
  C   C1549     1.0  0.48764  0.45214  0.58059  1.0000
  H   H1246     1.0  0.47748  0.62771  0.52593  1.0000
  P   P51       1.0  0.44952  0.48088  0.51833  1.0000
  C   C1550     1.0  0.46431  0.46953  0.54282  1.0000
  C   C1551     1.0  0.45793  0.50173  0.50999  1.0000
  C   C1552     1.0  0.47530  0.50510  0.51410  1.0000
  H   H1247     1.0  0.48853  0.55147  0.57133  1.0000
  S   S219      1.0  0.31246  0.65454  0.84807  1.0000
  C   C1553     1.0  0.41545  0.61312  0.86419  1.0000
  C   C1554     1.0  0.46324  0.59214  0.89963  1.0000
  C   C1555     1.0  0.46253  0.47024  0.57466  1.0000
  C   C1556     1.0  0.47050  0.53449  0.49894  1.0000
  H   H1248     1.0  0.43262  0.52552  0.89709  1.0000
  C   C1557     1.0  0.27943  0.61769  0.73351  1.0000
  C   C1558     1.0  0.47810  0.46036  0.53013  1.0000
  C   C1559     1.0  0.42911  0.48305  0.53737  1.0000
  C   C1560     1.0  0.41638  0.47093  0.53308  1.0000
  C   C1561     1.0  0.40050  0.47288  0.54739  1.0000
  C   C1562     1.0  0.39714  0.48699  0.56583  1.0000
  C   C1563     1.0  0.40979  0.49900  0.57052  1.0000
  C   C1564     1.0  0.42575  0.49700  0.55656  1.0000
  C   C1565     1.0  0.31887  0.36050  0.48266  1.0000
  C   C1566     1.0  0.28692  0.33054  0.96233  1.0000
  H   H1249     1.0  0.48345  0.41455  0.86126  1.0000
  H   H1250     1.0  0.35434  0.54925  0.49653  1.0000
  H   H1251     1.0  0.26982  0.65668  0.86474  1.0000
  C   C1567     1.0  0.30053  0.38709  0.55009  1.0000
  H   H1252     1.0  0.42772  0.61909  0.86649  1.0000
  H   H1253     1.0  0.41773  0.62355  0.92328  1.0000
  C   C1568     1.0  0.38422  0.49203  0.95728  1.0000
  C   C1569     1.0  0.48112  0.62153  0.58928  1.0000
  C   C1570     1.0  0.25679  0.65437  0.85824  1.0000
  C   C1571     1.0  0.31528  0.34142  0.95245  1.0000
  H   H1254     1.0  0.32313  0.33009  0.80259  1.0000
  P   P52       1.0  0.42786  0.58853  0.90494  1.0000
  C   C1572     1.0  0.44403  0.50694  0.97381  1.0000
  C   C1573     1.0  0.38858  0.50617  0.49070  1.0000
  C   C1574     1.0  0.28830  0.53025  0.70443  1.0000
  C   C1575     1.0  0.48151  0.52146  0.50878  1.0000
  C   C1576     1.0  0.47896  0.58893  0.85220  1.0000
  H   H1255     1.0  0.30471  0.35281  0.82459  1.0000
  S   S220      1.0  0.26977  0.64447  0.80127  1.0000
  H   H1256     1.0  0.27282  0.61827  0.94270  1.0000
  H   H1257     1.0  0.42098  0.63919  0.97117  1.0000
  H   H1258     1.0  0.44192  0.57941  0.96455  1.0000
  C   C1577     1.0  0.46102  0.65315  0.59560  1.0000
  C   C1578     1.0  0.25484  0.33155  0.59846  1.0000
  C   C1579     1.0  0.35422  0.32639  0.95251  1.0000
  H   H1259     1.0  0.46403  0.58279  0.81280  1.0000
  C   C1580     1.0  0.31225  0.33190  0.54122  1.0000
  H   H1260     1.0  0.31389  0.40622  0.96710  1.0000
  C   C1581     1.0  0.45776  0.50051  0.95648  1.0000
  C   C1582     1.0  0.29611  0.33566  0.52909  1.0000
  H   H1261     1.0  0.36438  0.43688  0.49117  1.0000
  H   H1262     1.0  0.25993  0.61355  0.84819  1.0000
  C   C1583     1.0  0.48956  0.45149  0.54892  1.0000
  C   C1584     1.0  0.47136  0.65820  0.61985  1.0000
  H   H1263     1.0  0.38287  0.51719  0.97730  1.0000
  H   H1264     1.0  0.49091  0.58916  0.83968  1.0000
  C   C1585     1.0  0.42587  0.62626  0.96941  1.0000
  C   C1586     1.0  0.30192  0.36574  0.48825  1.0000
  H   H1265     1.0  0.34731  0.44042  0.95886  1.0000
  H   H1266     1.0  0.30434  0.64130  0.94897  1.0000
  C   C1587     1.0  0.30996  0.63800  0.97080  1.0000
  H   H1267     1.0  0.48596  0.45665  0.97825  1.0000
  C   C1588     1.0  0.32747  0.63480  0.97272  1.0000
  C   C1589     1.0  0.45507  0.53544  0.96962  1.0000
  H   H1268     1.0  0.44473  0.54142  0.48741  1.0000
  C   C1590     1.0  0.44682  0.46921  0.48332  1.0000
  C   C1591     1.0  0.44642  0.45132  0.48389  1.0000
  H   H1269     1.0  0.45410  0.54886  0.97518  1.0000
  C   C1592     1.0  0.38822  0.50446  0.97919  1.0000
  C   C1593     1.0  0.44265  0.52428  0.98014  1.0000
  C   C1594     1.0  0.44467  0.45074  0.98037  1.0000
  Fe  Fe111     1.0  0.32218  0.67348  0.30780  1.0000
  H   H1270     1.0  0.44158  0.70838  0.33501  1.0000
  S   S221      1.0  0.32235  0.70165  0.32298  1.0000
  C   C1595     1.0  0.36279  0.68955  0.28133  1.0000
  Fe  Fe112     1.0  0.32828  0.80483  0.29353  1.0000
  S   S222      1.0  0.31128  0.82288  0.26668  1.0000
  S   S223      1.0  0.33334  0.77805  0.27362  1.0000
  Fe  Fe113     1.0  0.33485  0.83228  0.34169  1.0000
  S   S224      1.0  0.31799  0.85170  0.31792  1.0000
  S   S225      1.0  0.34652  0.83482  0.38939  1.0000
  Fe  Fe114     1.0  0.29957  0.83010  0.31224  1.0000
  S   S226      1.0  0.27013  0.83098  0.31513  1.0000
  Fe  Fe115     1.0  0.33111  0.84301  0.27400  1.0000
  S   S227      1.0  0.33781  0.86375  0.23728  1.0000
  S   S228      1.0  0.31565  0.81113  0.33828  1.0000
  S   S229      1.0  0.34889  0.82457  0.29853  1.0000
  Fe  Fe116     1.0  0.42072  0.90043  0.02711  1.0000
  S   S230      1.0  0.41546  0.91505  0.07017  1.0000
  S   S231      1.0  0.44675  0.89153  0.00789  1.0000
  Fe  Fe117     1.0  0.38254  0.89965  0.01040  1.0000
  S   S232      1.0  0.37512  0.91509  0.05204  1.0000
  H   H1271     1.0  0.37393  0.86081  0.47805  1.0000
  Fe  Fe118     1.0  0.39792  0.93130  0.04045  1.0000
  S   S233      1.0  0.40017  0.96055  0.04313  1.0000
  Fe  Fe119     1.0  0.39292  0.89764  0.07840  1.0000
  S   S234      1.0  0.38743  0.88140  0.12223  1.0000
  H   H1272     1.0  0.24621  0.88754  0.20253  1.0000
  S   S235      1.0  0.39959  0.88178  0.03683  1.0000
  C   C1596     1.0  0.39828  0.97672  0.01421  1.0000
  H   H1273     1.0  0.47959  0.96976  0.45508  1.0000
  C   C1597     1.0  0.33755  0.77664  0.99477  1.0000
  H   H1274     1.0  0.36836  0.95258  0.43229  1.0000
  H   H1275     1.0  0.32234  0.86037  0.41217  1.0000
  C   C1598     1.0  0.35762  0.85148  0.40768  1.0000
  C   C1599     1.0  0.36209  0.84953  0.43860  1.0000
  C   C1600     1.0  0.37060  0.86251  0.45432  1.0000
  C   C1601     1.0  0.37481  0.87759  0.43916  1.0000
  C   C1602     1.0  0.37066  0.87938  0.40814  1.0000
  C   C1603     1.0  0.36196  0.86653  0.39251  1.0000
  H   H1276     1.0  0.35900  0.83787  0.45044  1.0000
  C   C1604     1.0  0.43080  0.70281  0.34670  1.0000
  H   H1277     1.0  0.37430  0.89082  0.39623  1.0000
  H   H1278     1.0  0.35882  0.86814  0.36867  1.0000
  C   C1605     1.0  0.35158  0.86806  0.20487  1.0000
  C   C1606     1.0  0.36482  0.85700  0.19552  1.0000
  C   C1607     1.0  0.37543  0.86122  0.17025  1.0000
  C   C1608     1.0  0.37305  0.87650  0.15349  1.0000
  C   C1609     1.0  0.35968  0.88744  0.16260  1.0000
  C   C1610     1.0  0.34913  0.88328  0.18796  1.0000
  H   H1279     1.0  0.36702  0.84525  0.20796  1.0000
  H   H1280     1.0  0.38564  0.85256  0.16370  1.0000
  H   H1281     1.0  0.35767  0.89930  0.15043  1.0000
  H   H1282     1.0  0.33902  0.89202  0.19468  1.0000
  C   C1611     1.0  0.26014  0.83351  0.37645  1.0000
  H   H1283     1.0  0.27018  0.86935  0.43499  1.0000
  C   C1612     1.0  0.30904  0.89838  0.38311  1.0000
  H   H1284     1.0  0.27339  0.83574  0.38140  1.0000
  C   C1613     1.0  0.44455  0.97327  0.06529  1.0000
  C   C1614     1.0  0.32476  0.72281  0.30827  1.0000
  C   C1615     1.0  0.32815  0.72622  0.27746  1.0000
  C   C1616     1.0  0.33038  0.74318  0.26728  1.0000
  C   C1617     1.0  0.32911  0.75703  0.28756  1.0000
  C   C1618     1.0  0.32549  0.75362  0.31829  1.0000
  C   C1619     1.0  0.32342  0.73665  0.32853  1.0000
  H   H1285     1.0  0.32915  0.71581  0.26149  1.0000
  H   H1286     1.0  0.33323  0.74559  0.24349  1.0000
  H   H1287     1.0  0.32461  0.76403  0.33428  1.0000
  H   H1288     1.0  0.32083  0.73422  0.35239  1.0000
  H   H1289     1.0  0.46821  0.95566  0.40959  1.0000
  H   H1290     1.0  0.47972  0.96299  0.07877  1.0000
  C   C1620     1.0  0.47127  0.91017  0.03913  1.0000
  C   C1621     1.0  0.46789  0.89815  0.01659  1.0000
  C   C1622     1.0  0.35702  0.90785  0.33676  1.0000
  H   H1291     1.0  0.46081  0.91587  0.05185  1.0000
  C   C1623     1.0  0.34019  0.74590  0.99212  1.0000
  C   C1624     1.0  0.44377  0.95069  0.43002  1.0000
  C   C1625     1.0  0.34963  0.66790  0.38300  1.0000
  C   C1626     1.0  0.29432  0.84995  0.01855  1.0000
  C   C1627     1.0  0.48980  0.97181  0.03544  1.0000
  H   H1292     1.0  0.46279  0.89745  0.15676  1.0000
  H   H1293     1.0  0.47424  0.88199  0.47800  1.0000
  H   H1294     1.0  0.36845  0.84823  0.02105  1.0000
  C   C1628     1.0  0.41439  0.70496  0.33484  1.0000
  C   C1629     1.0  0.30288  0.83424  0.43753  1.0000
  H   H1295     1.0  0.39421  0.95715  0.35028  1.0000
  C   C1630     1.0  0.34800  0.84273  0.99046  1.0000
  C   C1631     1.0  0.36209  0.67456  0.36356  1.0000
  H   H1296     1.0  0.49063  0.92376  0.06334  1.0000
  H   H1297     1.0  0.33648  0.75985  0.03383  1.0000
  C   C1632     1.0  0.36030  0.94163  0.43509  1.0000
  H   H1298     1.0  0.48229  0.94710  0.99629  1.0000
  C   C1633     1.0  0.36983  0.82228  0.00518  1.0000
  S   S236      1.0  0.40398  0.91715  0.99733  1.0000
  C   C1634     1.0  0.34010  0.91304  0.44384  1.0000
  H   H1299     1.0  0.34013  0.94809  0.33279  1.0000
  C   C1635     1.0  0.43362  0.95233  0.45614  1.0000
  H   H1300     1.0  0.44603  0.69168  0.38264  1.0000
  H   H1301     1.0  0.27147  0.86885  0.21240  1.0000
  C   C1636     1.0  0.35477  0.96823  0.37764  1.0000
  C   C1637     1.0  0.24774  0.83420  0.40000  1.0000
  C   C1638     1.0  0.33485  0.89987  0.05544  1.0000
  C   C1639     1.0  0.30330  0.85534  0.04409  1.0000
  H   H1302     1.0  0.27923  0.72358  0.36876  1.0000
  H   H1303     1.0  0.33816  0.90540  0.03348  1.0000
  C   C1640     1.0  0.38479  0.98269  0.35562  1.0000
  C   C1641     1.0  0.35203  0.70313  0.37514  1.0000
  C   C1642     1.0  0.36336  0.69224  0.35933  1.0000
  C   C1643     1.0  0.48175  0.89099  0.00029  1.0000
  P   P53       1.0  0.37939  0.70046  0.33355  1.0000
  C   C1644     1.0  0.37780  0.68851  0.29853  1.0000
  C   C1645     1.0  0.37653  0.72315  0.32727  1.0000
  C   C1646     1.0  0.37279  0.72991  0.29826  1.0000
  C   C1647     1.0  0.37039  0.74747  0.29427  1.0000
  C   C1648     1.0  0.37170  0.75843  0.31905  1.0000
  C   C1649     1.0  0.37597  0.75191  0.34776  1.0000
  C   C1650     1.0  0.37857  0.73437  0.35179  1.0000
  H   H1304     1.0  0.38964  0.96276  0.46678  1.0000
  C   C1651     1.0  0.40036  0.69770  0.34973  1.0000
  C   C1652     1.0  0.45765  0.87955  0.08715  1.0000
  C   C1653     1.0  0.48825  0.91466  0.04556  1.0000
  C   C1654     1.0  0.25930  0.86607  0.22300  1.0000
  C   C1655     1.0  0.40295  0.68840  0.37684  1.0000
  C   C1656     1.0  0.35463  0.92517  0.34388  1.0000
  C   C1657     1.0  0.42094  0.91023  0.37376  1.0000
  H   H1305     1.0  0.41261  0.71221  0.31395  1.0000
  H   H1306     1.0  0.35199  0.71671  0.37134  1.0000
  C   C1658     1.0  0.30998  0.82318  0.01947  1.0000
  H   H1307     1.0  0.37151  0.72183  0.27864  1.0000
  H   H1308     1.0  0.36693  0.75260  0.27210  1.0000
  H   H1309     1.0  0.36916  0.77195  0.31595  1.0000
  H   H1310     1.0  0.37698  0.76045  0.36694  1.0000
  H   H1311     1.0  0.38177  0.72948  0.37422  1.0000
  C   C1659     1.0  0.49085  0.96392  0.06421  1.0000
  H   H1312     1.0  0.48787  0.82373  0.18033  1.0000
  H   H1313     1.0  0.39241  0.68277  0.38904  1.0000
  H   H1314     1.0  0.36682  0.80393  0.11334  1.0000
  C   C1660     1.0  0.25533  0.83026  0.34638  1.0000
  H   H1315     1.0  0.44399  0.96053  0.05604  1.0000
  C   C1661     1.0  0.39703  0.92270  0.40130  1.0000
  H   H1316     1.0  0.34247  0.85543  0.99186  1.0000
  C   C1662     1.0  0.36101  0.67979  0.25500  1.0000
  C   C1663     1.0  0.26823  0.71679  0.36071  1.0000
  H   H1317     1.0  0.32326  0.93462  0.29255  1.0000
  S   S237      1.0  0.30884  0.66365  0.26648  1.0000
  H   H1318     1.0  0.26897  0.84411  0.24764  1.0000
  H   H1319     1.0  0.32745  0.79824  0.44116  1.0000
  H   H1320     1.0  0.38680  0.98414  0.42477  1.0000
  H   H1321     1.0  0.30398  0.81124  0.41102  1.0000
  C   C1664     1.0  0.33522  0.90994  0.29806  1.0000
  H   H1322     1.0  0.25169  0.83662  0.42307  1.0000
  H   H1323     1.0  0.28475  0.85826  0.00831  1.0000
  C   C1665     1.0  0.31917  0.82861  0.04477  1.0000
  H   H1324     1.0  0.33330  0.92401  0.07839  1.0000
  C   C1666     1.0  0.30907  0.81795  0.43041  1.0000
  H   H1325     1.0  0.41940  0.91214  0.42281  1.0000
  C   C1667     1.0  0.45359  0.88844  0.11376  1.0000
  H   H1326     1.0  0.38122  0.81917  0.01805  1.0000
  H   H1327     1.0  0.30036  0.86777  0.05350  1.0000
  C   C1668     1.0  0.47407  0.87273  0.08279  1.0000
  H   H1328     1.0  0.41856  0.90970  0.32485  1.0000
  C   C1669     1.0  0.31565  0.84036  0.17874  1.0000
  C   C1670     1.0  0.29804  0.83822  0.17803  1.0000
  C   C1671     1.0  0.28923  0.84051  0.15065  1.0000
  C   C1672     1.0  0.29809  0.84475  0.12390  1.0000
  C   C1673     1.0  0.31586  0.84664  0.12439  1.0000
  C   C1674     1.0  0.32452  0.84477  0.15218  1.0000
  P   P54       1.0  0.32752  0.85208  0.09012  1.0000
  C   C1675     1.0  0.32964  0.87487  0.08686  1.0000
  C   C1676     1.0  0.34827  0.84175  0.09202  1.0000
  C   C1677     1.0  0.36312  0.85072  0.08492  1.0000
  C   C1678     1.0  0.37913  0.84277  0.08757  1.0000
  C   C1679     1.0  0.38046  0.82589  0.09757  1.0000
  C   C1680     1.0  0.36576  0.81690  0.10490  1.0000
  C   C1681     1.0  0.34973  0.82480  0.10224  1.0000
  C   C1682     1.0  0.33380  0.88221  0.05852  1.0000
  C   C1683     1.0  0.44232  0.96471  0.99200  1.0000
  C   C1684     1.0  0.33210  0.91033  0.08071  1.0000
  C   C1685     1.0  0.32818  0.90312  0.10907  1.0000
  C   C1686     1.0  0.32692  0.88544  0.11218  1.0000
  H   H1329     1.0  0.37235  0.66053  0.22625  1.0000
  H   H1330     1.0  0.35234  0.69772  0.28859  1.0000
  C   C1687     1.0  0.39636  0.92108  0.34617  1.0000
  C   C1688     1.0  0.46683  0.96474  0.45585  1.0000
  H   H1331     1.0  0.34314  0.96284  0.38663  1.0000
  C   C1689     1.0  0.41938  0.68624  0.38860  1.0000
  H   H1332     1.0  0.32248  0.83868  0.20001  1.0000
  H   H1333     1.0  0.29127  0.83483  0.19878  1.0000
  H   H1334     1.0  0.27554  0.83895  0.15018  1.0000
  H   H1335     1.0  0.29103  0.84647  0.10297  1.0000
  H   H1336     1.0  0.33814  0.84669  0.15341  1.0000
  H   H1337     1.0  0.36256  0.86398  0.07808  1.0000
  C   C1690     1.0  0.24508  0.87660  0.21753  1.0000
  H   H1338     1.0  0.32844  0.67354  0.41279  1.0000
  C   C1691     1.0  0.31594  0.84478  0.05724  1.0000
  H   H1339     1.0  0.29075  0.82982  0.98633  1.0000
  H   H1340     1.0  0.31077  0.90633  0.36305  1.0000
  C   C1692     1.0  0.35729  0.93071  0.41048  1.0000
  H   H1341     1.0  0.40237  0.67562  0.30259  1.0000
  H   H1342     1.0  0.32634  0.91120  0.12880  1.0000
  H   H1343     1.0  0.32406  0.88012  0.13443  1.0000
  H   H1344     1.0  0.32881  0.82021  0.05424  1.0000
  C   C1693     1.0  0.34230  0.93476  0.32787  1.0000
  H   H1345     1.0  0.39125  0.92599  0.42298  1.0000
  C   C1694     1.0  0.31756  0.88267  0.38520  1.0000
  H   H1346     1.0  0.33849  0.81778  0.10874  1.0000
  C   C1695     1.0  0.25655  0.69344  0.33237  1.0000
  C   C1696     1.0  0.27063  0.70244  0.34241  1.0000
  H   H1347     1.0  0.39001  0.92335  0.32461  1.0000
  H   H1348     1.0  0.28344  0.69816  0.33629  1.0000
  C   C1697     1.0  0.41259  0.91342  0.34619  1.0000
  C   C1698     1.0  0.45973  0.96348  0.99915  1.0000
  C   C1699     1.0  0.29768  0.83390  0.00620  1.0000
  C   C1700     1.0  0.29845  0.90387  0.40700  1.0000
  C   C1701     1.0  0.29627  0.89356  0.43286  1.0000
  C   C1702     1.0  0.30447  0.87757  0.43476  1.0000
  C   C1703     1.0  0.32911  0.81944  0.47199  1.0000
  H   H1349     1.0  0.29288  0.83989  0.42367  1.0000
  C   C1704     1.0  0.46903  0.94883  0.99034  1.0000
  H   H1350     1.0  0.37878  0.65939  0.10250  1.0000
  H   H1351     1.0  0.32791  0.90403  0.28016  1.0000
  H   H1352     1.0  0.34939  0.88695  0.30836  1.0000
  C   C1705     1.0  0.35620  0.98594  0.37596  1.0000
  H   H1353     1.0  0.47936  0.88174  0.98271  1.0000
  S   S238      1.0  0.38540  0.89461  0.45725  1.0000
  C   C1706     1.0  0.43330  0.69342  0.37353  1.0000
  H   H1354     1.0  0.31257  0.81075  0.00989  1.0000
  C   C1707     1.0  0.43352  0.97770  0.08922  1.0000
  H   H1355     1.0  0.29199  0.91614  0.40553  1.0000
  H   H1356     1.0  0.33852  0.87083  0.47271  1.0000
  H   H1357     1.0  0.36641  0.90012  0.34864  1.0000
  C   C1708     1.0  0.33266  0.92715  0.30504  1.0000
  H   H1358     1.0  0.34922  0.68041  0.24224  1.0000
  C   C1709     1.0  0.41318  0.91493  0.40128  1.0000
  H   H1359     1.0  0.33632  0.87432  0.03876  1.0000
  H   H1360     1.0  0.44086  0.89377  0.11689  1.0000
  C   C1710     1.0  0.33792  0.76072  0.00926  1.0000
  C   C1711     1.0  0.38833  0.92552  0.37380  1.0000
  H   H1361     1.0  0.39053  0.84997  0.08285  1.0000
  H   H1362     1.0  0.47689  0.86633  0.06157  1.0000
  C   C1712     1.0  0.38898  0.66726  0.26316  1.0000
  C   C1713     1.0  0.48233  0.88353  0.13207  1.0000
  C   C1714     1.0  0.46595  0.89050  0.13616  1.0000
  C   C1715     1.0  0.31539  0.87235  0.41097  1.0000
  H   H1363     1.0  0.43871  0.94468  0.40991  1.0000
  P   P55       1.0  0.36706  0.93476  0.37374  1.0000
  H   H1364     1.0  0.42130  0.67895  0.40940  1.0000
  H   H1365     1.0  0.25849  0.68211  0.31871  1.0000
  H   H1366     1.0  0.43332  0.90392  0.37387  1.0000
  C   C1716     1.0  0.36259  0.83861  0.00714  1.0000
  C   C1717     1.0  0.38343  0.96496  0.35731  1.0000
  C   C1718     1.0  0.39047  0.97379  0.98614  1.0000
  C   C1719     1.0  0.34715  0.91637  0.41511  1.0000
  C   C1720     1.0  0.36848  0.95759  0.36878  1.0000
  H   H1367     1.0  0.44811  0.87817  0.06961  1.0000
  C   C1721     1.0  0.39091  0.98815  0.44704  1.0000
  C   C1722     1.0  0.34737  0.90030  0.31397  1.0000
  H   H1368     1.0  0.33573  0.78797  0.00842  1.0000
  H   H1369     1.0  0.39292  0.81994  0.10029  1.0000
  C   C1723     1.0  0.25173  0.72227  0.36870  1.0000
  H   H1370     1.0  0.30069  0.66501  0.12144  1.0000
  H   H1371     1.0  0.25014  0.73316  0.38352  1.0000
  H   H1372     1.0  0.34498  0.90750  0.39688  1.0000
  H   H1373     1.0  0.33261  0.90176  0.44731  1.0000
  H   H1374     1.0  0.42448  0.96848  0.09772  1.0000
  P   P56       1.0  0.46962  0.97998  0.02133  1.0000
  H   H1375     1.0  0.48656  0.85086  0.15219  1.0000
  C   C1724     1.0  0.32229  0.81062  0.44744  1.0000
  H   H1376     1.0  0.37998  0.97739  0.09880  1.0000
  C   C1725     1.0  0.46038  0.95688  0.42989  1.0000
  H   H1377     1.0  0.37053  0.66587  0.35141  1.0000
  C   C1726     1.0  0.39250  0.97596  0.47082  1.0000
  C   C1727     1.0  0.48650  0.87445  0.10543  1.0000
  H   H1378     1.0  0.49170  0.88507  0.14983  1.0000
  H   H1379     1.0  0.43468  0.97553  0.99938  1.0000
  H   H1380     1.0  0.42068  0.94767  0.45632  1.0000
  C   C1728     1.0  0.34316  0.92393  0.46820  1.0000
  C   C1729     1.0  0.26722  0.86534  0.45807  1.0000
  C   C1730     1.0  0.45584  0.98531  0.05318  1.0000
  H   H1381     1.0  0.32596  0.87845  0.36692  1.0000
  C   C1731     1.0  0.37405  0.66855  0.24604  1.0000
  C   C1732     1.0  0.36258  0.81012  0.98623  1.0000
  H   H1382     1.0  0.28820  0.89805  0.45138  1.0000
  C   C1733     1.0  0.33963  0.69640  0.39465  1.0000
  C   C1734     1.0  0.35326  0.93824  0.46382  1.0000
  H   H1383     1.0  0.39648  0.98838  0.34756  1.0000
  C   C1735     1.0  0.33839  0.67880  0.39847  1.0000
  C   C1736     1.0  0.39088  0.67718  0.28933  1.0000
  H   H1384     1.0  0.33049  0.70482  0.40572  1.0000
  C   C1737     1.0  0.25789  0.85209  0.24264  1.0000
  C   C1738     1.0  0.25019  0.86248  0.46590  1.0000
  H   H1385     1.0  0.36849  0.79760  0.98462  1.0000
  H   H1386     1.0  0.34054  0.73356  0.00336  1.0000
  H   H1387     1.0  0.36262  0.98866  0.05616  1.0000
  C   C1739     1.0  0.37877  0.99105  0.09529  1.0000
  H   H1388     1.0  0.48979  0.98982  0.37409  1.0000
  C   C1740     1.0  0.30998  0.84340  0.46158  1.0000
  P   P57       1.0  0.30233  0.86480  0.46895  1.0000
  C   C1741     1.0  0.28020  0.86239  0.47952  1.0000
  H   H1389     1.0  0.38555  0.96133  0.98131  1.0000
  C   C1742     1.0  0.32293  0.83575  0.47921  1.0000
  Fe  Fe120     1.0  0.32805  0.67119  0.81655  1.0000
  H   H1390     1.0  0.28578  0.85282  0.52485  1.0000
  S   S239      1.0  0.33133  0.69833  0.83506  1.0000
  C   C1743     1.0  0.41388  0.95687  0.84219  1.0000
  Fe  Fe121     1.0  0.32372  0.80126  0.79244  1.0000
  S   S240      1.0  0.30809  0.81817  0.76138  1.0000
  S   S241      1.0  0.32589  0.77337  0.77659  1.0000
  Fe  Fe122     1.0  0.33215  0.83206  0.83343  1.0000
  S   S242      1.0  0.31651  0.85055  0.80493  1.0000
  S   S243      1.0  0.35118  0.83824  0.87147  1.0000
  Fe  Fe123     1.0  0.29694  0.82935  0.80473  1.0000
  S   S244      1.0  0.26750  0.82921  0.80554  1.0000
  Fe  Fe124     1.0  0.32879  0.83778  0.76376  1.0000
  S   S245      1.0  0.34346  0.84921  0.72205  1.0000
  S   S246      1.0  0.31195  0.81167  0.83550  1.0000
  S   S247      1.0  0.34506  0.82008  0.79246  1.0000
  Fe  Fe125     1.0  0.42129  0.90687  0.55196  1.0000
  S   S248      1.0  0.40501  0.92475  0.58026  1.0000
  S   S249      1.0  0.44789  0.90006  0.57041  1.0000
  Fe  Fe126     1.0  0.39264  0.90242  0.50557  1.0000
  S   S250      1.0  0.37487  0.92015  0.53115  1.0000
  C   C1744     1.0  0.36728  0.89855  0.78502  1.0000
  Fe  Fe127     1.0  0.39758  0.93715  0.53545  1.0000
  S   S251      1.0  0.39829  0.96647  0.53168  1.0000
  Fe  Fe128     1.0  0.38371  0.90613  0.57385  1.0000
  S   S252      1.0  0.36337  0.90035  0.61128  1.0000
  S   S253      1.0  0.41502  0.92020  0.50788  1.0000
  S   S254      1.0  0.40031  0.88742  0.54758  1.0000
  H   H1391     1.0  0.24467  0.84290  0.90847  1.0000
  C   C1745     1.0  0.27509  0.68234  0.75139  1.0000
  P   P58       1.0  0.46452  0.97743  0.51527  1.0000
  C   C1746     1.0  0.31686  0.80418  0.93607  1.0000
  H   H1392     1.0  0.27245  0.76683  0.92613  1.0000
  C   C1747     1.0  0.35329  0.85324  0.90153  1.0000
  C   C1748     1.0  0.36881  0.85378  0.91745  1.0000
  C   C1749     1.0  0.37129  0.86557  0.94115  1.0000
  C   C1750     1.0  0.35819  0.87696  0.94945  1.0000
  C   C1751     1.0  0.34252  0.87611  0.93405  1.0000
  C   C1752     1.0  0.34012  0.86449  0.91002  1.0000
  H   H1393     1.0  0.37906  0.84506  0.91128  1.0000
  H   H1394     1.0  0.38322  0.86565  0.95329  1.0000
  C   C1753     1.0  0.31767  0.89171  0.54384  1.0000
  H   H1395     1.0  0.32808  0.86420  0.89819  1.0000
  C   C1754     1.0  0.34930  0.86381  0.69190  1.0000
  C   C1755     1.0  0.34016  0.87898  0.68636  1.0000
  C   C1756     1.0  0.34466  0.88983  0.66175  1.0000
  C   C1757     1.0  0.35869  0.88606  0.64252  1.0000
  C   C1758     1.0  0.36809  0.87105  0.64841  1.0000
  C   C1759     1.0  0.36336  0.86002  0.67272  1.0000
  H   H1396     1.0  0.32953  0.88236  0.70101  1.0000
  H   H1397     1.0  0.33726  0.90135  0.65772  1.0000
  H   H1398     1.0  0.37892  0.86784  0.63407  1.0000
  H   H1399     1.0  0.37070  0.84845  0.67671  1.0000
  C   C1760     1.0  0.25496  0.83662  0.86401  1.0000
  C   C1761     1.0  0.25138  0.83122  0.83443  1.0000
  H   H1400     1.0  0.40697  0.88186  0.84963  1.0000
  H   H1401     1.0  0.26784  0.83986  0.86979  1.0000
  H   H1402     1.0  0.37086  0.87501  0.86274  1.0000
  C   C1762     1.0  0.32825  0.71898  0.81840  1.0000
  C   C1763     1.0  0.32714  0.72154  0.78686  1.0000
  C   C1764     1.0  0.32618  0.73823  0.77466  1.0000
  C   C1765     1.0  0.32608  0.75263  0.79371  1.0000
  C   C1766     1.0  0.32645  0.75004  0.82534  1.0000
  C   C1767     1.0  0.32767  0.73335  0.83752  1.0000
  H   H1403     1.0  0.32759  0.71067  0.77181  1.0000
  H   H1404     1.0  0.32582  0.74001  0.75018  1.0000
  H   H1405     1.0  0.32613  0.76086  0.84042  1.0000
  H   H1406     1.0  0.32842  0.73154  0.86195  1.0000
  H   H1407     1.0  0.46062  0.91487  0.51287  1.0000
  C   C1768     1.0  0.31498  0.87525  0.49736  1.0000
  H   H1408     1.0  0.48097  0.89538  0.59695  1.0000
  C   C1769     1.0  0.46868  0.90467  0.55616  1.0000
  C   C1770     1.0  0.47142  0.91165  0.52712  1.0000
  C   C1771     1.0  0.46299  0.85909  0.54074  1.0000
  C   C1772     1.0  0.42010  0.87194  0.88883  1.0000
  H   H1409     1.0  0.35675  0.87516  0.76837  1.0000
  H   H1410     1.0  0.42757  0.86283  0.87572  1.0000
  H   H1411     1.0  0.47071  0.98002  0.86026  1.0000
  H   H1412     1.0  0.43740  0.92657  0.95690  1.0000
  C   C1773     1.0  0.28383  0.71628  0.76065  1.0000
  C   C1774     1.0  0.38863  0.98714  0.96450  1.0000
  H   H1413     1.0  0.28117  0.82946  0.61508  1.0000
  C   C1775     1.0  0.45598  0.96702  0.54888  1.0000
  C   C1776     1.0  0.26530  0.77814  0.79016  1.0000
  H   H1414     1.0  0.27546  0.73177  0.91778  1.0000
  C   C1777     1.0  0.39591  0.92771  0.85968  1.0000
  C   C1778     1.0  0.33264  0.87634  0.49282  1.0000
  C   C1779     1.0  0.36192  0.88172  0.78790  1.0000
  C   C1780     1.0  0.48821  0.91386  0.51608  1.0000
  C   C1781     1.0  0.25885  0.85317  0.51624  1.0000
  H   H1415     1.0  0.43236  0.98181  0.54897  1.0000
  H   H1416     1.0  0.45199  0.85671  0.55512  1.0000
  C   C1782     1.0  0.35794  0.93453  0.93862  1.0000
  H   H1417     1.0  0.48002  0.84391  0.56812  1.0000
  C   C1783     1.0  0.46225  0.68754  0.61240  1.0000
  P   P59       1.0  0.26147  0.72045  0.81040  1.0000
  H   H1418     1.0  0.41427  0.88538  0.96174  1.0000
  C   C1784     1.0  0.26946  0.72673  0.87082  1.0000
  C   C1785     1.0  0.25381  0.78421  0.86332  1.0000
  C   C1786     1.0  0.28303  0.81443  0.92444  1.0000
  C   C1787     1.0  0.34170  0.76288  0.94589  1.0000
  C   C1788     1.0  0.27273  0.71631  0.84547  1.0000
  C   C1789     1.0  0.26251  0.74318  0.80324  1.0000
  C   C1790     1.0  0.48766  0.97683  0.51524  1.0000
  C   C1791     1.0  0.27953  0.76878  0.79998  1.0000
  H   H1419     1.0  0.48000  0.67915  0.64688  1.0000
  H   H1420     1.0  0.26041  0.73725  0.86917  1.0000
  C   C1792     1.0  0.28724  0.68997  0.73256  1.0000
  C   C1793     1.0  0.30329  0.79628  0.95136  1.0000
  C   C1794     1.0  0.27795  0.72367  0.89833  1.0000
  C   C1795     1.0  0.28977  0.71022  0.90062  1.0000
  H   H1421     1.0  0.43186  0.96130  0.50202  1.0000
  C   C1796     1.0  0.28459  0.70281  0.84795  1.0000
  H   H1422     1.0  0.29360  0.68260  0.71489  1.0000
  H   H1423     1.0  0.43152  0.86480  0.93179  1.0000
  H   H1424     1.0  0.34316  0.76332  0.92135  1.0000
  C   C1797     1.0  0.36994  0.88171  0.84116  1.0000
  C   C1798     1.0  0.34278  0.88475  0.51383  1.0000
  P   P60       1.0  0.33878  0.79848  0.94434  1.0000
  H   H1425     1.0  0.34382  0.73549  0.94712  1.0000
  H   H1426     1.0  0.47718  0.94917  0.55514  1.0000
  H   H1427     1.0  0.42081  0.96818  0.83573  1.0000
  C   C1799     1.0  0.45185  0.68260  0.58836  1.0000
  H   H1428     1.0  0.27598  0.79540  0.95744  1.0000
  H   H1429     1.0  0.32847  0.84232  0.49823  1.0000
  H   H1430     1.0  0.28943  0.74435  0.81388  1.0000
  H   H1431     1.0  0.33127  0.93352  0.95016  1.0000
  C   C1800     1.0  0.26732  0.69163  0.77489  1.0000
  H   H1432     1.0  0.36624  0.90501  0.76317  1.0000
  C   C1801     1.0  0.27815  0.75143  0.80666  1.0000
  H   H1433     1.0  0.32995  0.83456  0.95774  1.0000
  C   C1802     1.0  0.29305  0.69981  0.87547  1.0000
  C   C1803     1.0  0.47200  0.67534  0.62814  1.0000
  C   C1804     1.0  0.29281  0.88163  0.65451  1.0000
  C   C1805     1.0  0.27935  0.81447  0.54261  1.0000
  C   C1806     1.0  0.36324  0.87333  0.81599  1.0000
  C   C1807     1.0  0.33955  0.77786  0.96295  1.0000
  H   H1434     1.0  0.28885  0.88960  0.60802  1.0000
  C   C1808     1.0  0.27141  0.70879  0.77942  1.0000
  H   H1435     1.0  0.38375  0.93297  0.92247  1.0000
  H   H1436     1.0  0.39302  0.90390  0.93646  1.0000
  C   C1809     1.0  0.34127  0.92895  0.93502  1.0000
  H   H1437     1.0  0.29382  0.88354  0.52604  1.0000
  C   C1810     1.0  0.35055  0.91100  0.89310  1.0000
  C   C1811     1.0  0.43977  0.97181  0.56003  1.0000
  C   C1812     1.0  0.46128  0.86968  0.51522  1.0000
  C   C1813     1.0  0.30849  0.82074  0.55615  1.0000
  C   C1814     1.0  0.30306  0.82601  0.58527  1.0000
  C   C1815     1.0  0.28563  0.82549  0.59272  1.0000
  P   P61       1.0  0.31801  0.83342  0.61331  1.0000
  C   C1816     1.0  0.32173  0.81760  0.64277  1.0000
  C   C1817     1.0  0.33828  0.83797  0.59539  1.0000
  C   C1818     1.0  0.34924  0.82442  0.58710  1.0000
  C   C1819     1.0  0.36484  0.82760  0.57272  1.0000
  C   C1820     1.0  0.36969  0.84434  0.56675  1.0000
  C   C1821     1.0  0.35898  0.85787  0.57529  1.0000
  C   C1822     1.0  0.34336  0.85476  0.58967  1.0000
  C   C1823     1.0  0.33546  0.81952  0.66276  1.0000
  C   C1824     1.0  0.33786  0.80820  0.68715  1.0000
  C   C1825     1.0  0.32673  0.79471  0.69155  1.0000
  C   C1826     1.0  0.31323  0.79247  0.67140  1.0000
  C   C1827     1.0  0.31070  0.80386  0.64708  1.0000
  C   C1828     1.0  0.30861  0.85246  0.62972  1.0000
  H   H1438     1.0  0.46422  0.93413  0.59821  1.0000
  H   H1439     1.0  0.26044  0.81920  0.57749  1.0000
  H   H1440     1.0  0.30250  0.86381  0.58597  1.0000
  C   C1829     1.0  0.29939  0.86893  0.67375  1.0000
  C   C1830     1.0  0.30734  0.85444  0.66148  1.0000
  H   H1441     1.0  0.34738  0.90178  0.87590  1.0000
  H   H1442     1.0  0.32466  0.91287  0.90948  1.0000
  C   C1831     1.0  0.45674  0.96629  0.48232  1.0000
  C   C1832     1.0  0.38720  0.94319  0.85414  1.0000
  H   H1443     1.0  0.34571  0.81137  0.59179  1.0000
  H   H1444     1.0  0.41973  0.96647  0.59228  1.0000
  H   H1445     1.0  0.32178  0.82104  0.54961  1.0000
  H   H1446     1.0  0.26997  0.81835  0.91975  1.0000
  H   H1447     1.0  0.33563  0.86556  0.59679  1.0000
  H   H1448     1.0  0.34398  0.83016  0.66021  1.0000
  H   H1449     1.0  0.34811  0.81022  0.70318  1.0000
  H   H1450     1.0  0.32846  0.78613  0.71085  1.0000
  H   H1451     1.0  0.30458  0.78203  0.67503  1.0000
  H   H1452     1.0  0.30003  0.80198  0.63211  1.0000
  H   H1453     1.0  0.28691  0.89296  0.66417  1.0000
  H   H1454     1.0  0.27022  0.81000  0.52611  1.0000
  C   C1833     1.0  0.45121  0.66547  0.57997  1.0000
  H   H1455     1.0  0.29865  0.87040  0.69831  1.0000
  H   H1456     1.0  0.31254  0.84499  0.67705  1.0000
  H   H1457     1.0  0.30563  0.78622  0.96783  1.0000
  H   H1458     1.0  0.35905  0.86028  0.81825  1.0000
  C   C1834     1.0  0.42231  0.87301  0.92035  1.0000
  C   C1835     1.0  0.37541  0.89859  0.83849  1.0000
  H   H1459     1.0  0.44297  0.66192  0.56144  1.0000
  C   C1836     1.0  0.27385  0.81970  0.57149  1.0000
  C   C1837     1.0  0.43252  0.96313  0.58470  1.0000
  H   H1460     1.0  0.42071  0.91511  0.85946  1.0000
  C   C1838     1.0  0.41368  0.92689  0.85570  1.0000
  C   C1839     1.0  0.40063  0.89530  0.92271  1.0000
  C   C1840     1.0  0.33756  0.91730  0.91212  1.0000
  H   H1461     1.0  0.44421  0.69204  0.57626  1.0000
  H   H1462     1.0  0.24634  0.66052  0.90263  1.0000
  C   C1841     1.0  0.34205  0.74698  0.96046  1.0000
  H   H1463     1.0  0.38940  0.96969  0.84189  1.0000
  H   H1464     1.0  0.37327  0.81711  0.56649  1.0000
  H   H1465     1.0  0.30084  0.81090  0.51253  1.0000
  C   C1842     1.0  0.36736  0.91645  0.89669  1.0000
  P   P62       1.0  0.38417  0.90913  0.87132  1.0000
  H   H1466     1.0  0.43557  0.94257  0.61710  1.0000
  C   C1843     1.0  0.40831  0.88269  0.87415  1.0000
  H   H1467     1.0  0.28774  0.72925  0.76401  1.0000
  C   C1844     1.0  0.29664  0.81501  0.53495  1.0000
  C   C1845     1.0  0.39849  0.89451  0.89096  1.0000
  C   C1846     1.0  0.41260  0.88468  0.93724  1.0000
  H   H1468     1.0  0.34317  0.89891  0.55577  1.0000
  C   C1847     1.0  0.26274  0.76961  0.90931  1.0000
  C   C1848     1.0  0.34802  0.81425  0.96899  1.0000
  H   H1469     1.0  0.28759  0.69467  0.82872  1.0000
  H   H1470     1.0  0.42081  0.95245  0.97192  1.0000
  H   H1471     1.0  0.25646  0.79313  0.84498  1.0000
  H   H1472     1.0  0.36084  0.94348  0.95651  1.0000
  H   H1473     1.0  0.38227  0.98475  0.94317  1.0000
  C   C1849     1.0  0.30748  0.88335  0.52272  1.0000
  H   H1474     1.0  0.32354  0.82361  0.90314  1.0000
  H   H1475     1.0  0.27208  0.66903  0.74845  1.0000
  H   H1476     1.0  0.30247  0.68959  0.87701  1.0000
  H   H1477     1.0  0.29654  0.70791  0.92173  1.0000
  H   H1478     1.0  0.33215  0.88454  0.94073  1.0000
  H   H1479     1.0  0.29172  0.77497  0.80213  1.0000
  C   C1850     1.0  0.33531  0.89234  0.53946  1.0000
  C   C1851     1.0  0.29647  0.82234  0.90925  1.0000
  H   H1480     1.0  0.30147  0.71266  0.72332  1.0000
  C   C1852     1.0  0.45755  0.94488  0.58789  1.0000
  H   H1481     1.0  0.44899  0.87549  0.51002  1.0000
  C   C1853     1.0  0.35058  0.79708  0.90883  1.0000
  C   C1854     1.0  0.36759  0.80233  0.90701  1.0000
  C   C1855     1.0  0.37663  0.80109  0.87948  1.0000
  C   C1856     1.0  0.36880  0.79458  0.85362  1.0000
  C   C1857     1.0  0.35194  0.78923  0.85525  1.0000
  C   C1858     1.0  0.34283  0.79049  0.88270  1.0000
  H   H1482     1.0  0.46269  0.70082  0.61892  1.0000
  H   H1483     1.0  0.31196  0.89792  0.56349  1.0000
  H   H1484     1.0  0.43634  0.94078  0.84430  1.0000
  H   H1485     1.0  0.29395  0.83243  0.89283  1.0000
  C   C1859     1.0  0.31328  0.81725  0.91501  1.0000
  S   S255      1.0  0.31362  0.66400  0.77460  1.0000
  H   H1486     1.0  0.38187  0.84688  0.55596  1.0000
  C   C1860     1.0  0.39618  0.95772  0.84564  1.0000
  C   C1861     1.0  0.46484  0.95348  0.56316  1.0000
  C   C1862     1.0  0.46101  0.93571  0.97479  1.0000
  C   C1863     1.0  0.29395  0.87973  0.62288  1.0000
  C   C1864     1.0  0.30172  0.86516  0.61050  1.0000
  C   C1865     1.0  0.27592  0.85593  0.50846  1.0000
  H   H1487     1.0  0.37381  0.80782  0.92644  1.0000
  H   H1488     1.0  0.38956  0.80563  0.87796  1.0000
  H   H1489     1.0  0.37566  0.79395  0.83212  1.0000
  H   H1490     1.0  0.34588  0.78437  0.83498  1.0000
  H   H1491     1.0  0.32973  0.78638  0.88342  1.0000
  C   C1866     1.0  0.42262  0.94144  0.84708  1.0000
  C   C1867     1.0  0.48293  0.90064  0.57437  1.0000
  C   C1868     1.0  0.44139  0.94965  0.59858  1.0000
  C   C1869     1.0  0.29167  0.70689  0.73732  1.0000
  H   H1492     1.0  0.33950  0.81379  0.48491  1.0000
  C   C1870     1.0  0.26652  0.78002  0.88429  1.0000
  C   C1871     1.0  0.37399  0.90699  0.81020  1.0000
  C   C1872     1.0  0.37091  0.92842  0.91942  1.0000
  H   H1493     1.0  0.24327  0.75613  0.93361  1.0000
  H   H1494     1.0  0.37805  0.92000  0.80741  1.0000
  H   H1495     1.0  0.37346  0.94409  0.85665  1.0000
  C   C1873     1.0  0.24631  0.76321  0.91308  1.0000
  H   H1496     1.0  0.27914  0.78525  0.88149  1.0000
  H   H1497     1.0  0.36299  0.87085  0.57145  1.0000
  H   H1498     1.0  0.26646  0.79162  0.78497  1.0000
  C   C1874     1.0  0.24954  0.77024  0.78779  1.0000
  C   C1875     1.0  0.47553  0.87340  0.49729  1.0000
  C   C1876     1.0  0.28644  0.80142  0.94555  1.0000
  C   C1877     1.0  0.39739  0.98096  0.50004  1.0000
  H   H1499     1.0  0.35643  0.88556  0.50999  1.0000
  H   H1500     1.0  0.33799  0.92114  0.49061  1.0000
  C   C1878     1.0  0.44006  0.96007  0.48218  1.0000
  H   H1501     1.0  0.25835  0.68525  0.78982  1.0000
  C   C1879     1.0  0.34089  0.83074  0.97110  1.0000
  C   C1880     1.0  0.44368  0.93702  0.96803  1.0000
  C   C1881     1.0  0.43435  0.95155  0.97653  1.0000
  H   H1502     1.0  0.25557  0.84825  0.53860  1.0000
  C   C1882     1.0  0.47705  0.99001  0.87251  1.0000
  C   C1883     1.0  0.47893  0.85210  0.54823  1.0000
  C   C1884     1.0  0.24810  0.75285  0.79442  1.0000
  C   C1885     1.0  0.24600  0.85640  0.49493  1.0000
  H   H1503     1.0  0.48964  0.94980  0.50624  1.0000
  H   H1504     1.0  0.49016  0.91871  0.49322  1.0000
  H   H1505     1.0  0.24277  0.70191  0.85883  1.0000
  H   H1506     1.0  0.48763  0.79087  0.52022  1.0000
  C   C1886     1.0  0.49155  0.86667  0.50499  1.0000
  H   H1507     1.0  0.46811  0.92423  0.96888  1.0000
  H   H1508     1.0  0.49202  0.82154  0.51125  1.0000
  S   S256      1.0  0.36028  0.89185  0.97981  1.0000
  H   H1509     1.0  0.35594  0.94653  0.48284  1.0000
  Fe  Fe129     1.0  0.65275  0.30946  0.15717  1.0000
  H   H1510     1.0  0.58559  0.18110  0.16796  1.0000
  S   S257      1.0  0.64345  0.28267  0.14503  1.0000
  C   C1887     1.0  0.62825  0.08213  0.19817  1.0000
  Fe  Fe130     1.0  0.64670  0.14915  0.14199  1.0000
  S   S258      1.0  0.66019  0.12960  0.17169  1.0000
  S   S259      1.0  0.62682  0.14390  0.10481  1.0000
  Fe  Fe131     1.0  0.65987  0.17957  0.17950  1.0000
  S   S260      1.0  0.67352  0.16154  0.21165  1.0000
  S   S261      1.0  0.66567  0.20758  0.19019  1.0000
  Fe  Fe132     1.0  0.68245  0.14781  0.16927  1.0000
  S   S262      1.0  0.71137  0.14221  0.16781  1.0000
  Fe  Fe133     1.0  0.65028  0.14493  0.21208  1.0000
  S   S263      1.0  0.63611  0.13721  0.25729  1.0000
  S   S264      1.0  0.66951  0.16628  0.13734  1.0000
  S   S265      1.0  0.63608  0.16392  0.18225  1.0000
  Fe  Fe134     1.0  0.55320  0.08236  0.42920  1.0000
  S   S266      1.0  0.56395  0.06299  0.39641  1.0000
  S   S267      1.0  0.52635  0.09281  0.41711  1.0000
  H   H1511     1.0  0.73750  0.28226  0.07627  1.0000
  S   S268      1.0  0.59879  0.06248  0.43484  1.0000
  P   P63       1.0  0.49934  0.01720  0.41531  1.0000
  Fe  Fe135     1.0  0.58809  0.07831  0.39566  1.0000
  S   S269      1.0  0.60378  0.08173  0.35057  1.0000
  Fe  Fe136     1.0  0.57374  0.04899  0.43813  1.0000
  S   S270      1.0  0.56757  0.02034  0.44129  1.0000
  S   S271      1.0  0.57705  0.09858  0.42672  1.0000
  H   H1512     1.0  0.70008  0.29121  0.14609  1.0000
  C   C1888     1.0  0.50491  0.08698  0.42660  1.0000
  C   C1889     1.0  0.63108  0.09952  0.20134  1.0000
  C   C1890     1.0  0.71300  0.20361  0.19173  1.0000
  C   C1891     1.0  0.57852  0.00050  0.00766  1.0000
  C   C1892     1.0  0.52690  0.29741  0.32655  1.0000
  H   H1513     1.0  0.68912  0.16956  0.37954  1.0000
  C   C1893     1.0  0.60080  0.10546  0.19633  1.0000
  H   H1514     1.0  0.62472  0.08737  0.45313  1.0000
  H   H1515     1.0  0.59987  0.12762  0.41011  1.0000
  C   C1894     1.0  0.58852  0.17153  0.18512  1.0000
  C   C1895     1.0  0.62145  0.10934  0.02012  1.0000
  C   C1896     1.0  0.63646  0.10867  0.03761  1.0000
  C   C1897     1.0  0.63856  0.11936  0.06312  1.0000
  C   C1898     1.0  0.62552  0.13074  0.07181  1.0000
  C   C1899     1.0  0.61066  0.13165  0.05397  1.0000
  C   C1900     1.0  0.60868  0.12115  0.02821  1.0000
  H   H1516     1.0  0.64650  0.09969  0.03155  1.0000
  H   H1517     1.0  0.65013  0.11858  0.07634  1.0000
  H   H1518     1.0  0.60062  0.14062  0.06005  1.0000
  H   H1519     1.0  0.59732  0.12228  0.01452  1.0000
  C   C1901     1.0  0.62690  0.12139  0.28234  1.0000
  C   C1902     1.0  0.61482  0.12652  0.30464  1.0000
  C   C1903     1.0  0.60768  0.11474  0.32560  1.0000
  C   C1904     1.0  0.61231  0.09744  0.32461  1.0000
  C   C1905     1.0  0.62410  0.09224  0.30190  1.0000
  C   C1906     1.0  0.63136  0.10405  0.28112  1.0000
  H   H1520     1.0  0.61095  0.13979  0.30583  1.0000
  H   H1521     1.0  0.59844  0.11901  0.34235  1.0000
  H   H1522     1.0  0.62783  0.07894  0.30061  1.0000
  H   H1523     1.0  0.64067  0.09972  0.26452  1.0000
  P   P64       1.0  0.63350  0.14314  0.40330  1.0000
  C   C1907     1.0  0.72241  0.14334  0.10717  1.0000
  C   C1908     1.0  0.72643  0.14594  0.13781  1.0000
  C   C1909     1.0  0.67762  0.16419  0.37036  1.0000
  H   H1524     1.0  0.70950  0.14022  0.10106  1.0000
  C   C1910     1.0  0.62063  0.02365  0.99850  1.0000
  C   C1911     1.0  0.65016  0.26189  0.15741  1.0000
  C   C1912     1.0  0.64221  0.24751  0.14514  1.0000
  C   C1913     1.0  0.64693  0.23081  0.15439  1.0000
  C   C1914     1.0  0.65966  0.22824  0.17624  1.0000
  C   C1915     1.0  0.66783  0.24260  0.18808  1.0000
  C   C1916     1.0  0.66317  0.25929  0.17872  1.0000
  H   H1525     1.0  0.63220  0.24932  0.12853  1.0000
  H   H1526     1.0  0.64053  0.21996  0.14500  1.0000
  H   H1527     1.0  0.67773  0.24081  0.20491  1.0000
  H   H1528     1.0  0.66949  0.27015  0.18829  1.0000
  H   H1529     1.0  0.66689  0.15898  0.41441  1.0000
  C   C1917     1.0  0.74131  0.09107  0.22012  1.0000
  H   H1530     1.0  0.60061  0.18922  0.21515  1.0000
  C   C1918     1.0  0.52174  0.02938  0.45869  1.0000
  C   C1919     1.0  0.61746  0.11122  0.20002  1.0000
  C   C1920     1.0  0.57125  0.11758  0.10654  1.0000
  H   H1531     1.0  0.53908  0.05259  0.32667  1.0000
  C   C1921     1.0  0.60075  0.16379  0.23385  1.0000
  C   C1922     1.0  0.57161  0.11627  0.16200  1.0000
  C   C1923     1.0  0.57045  0.01691  0.11830  1.0000
  C   C1924     1.0  0.73905  0.19520  0.01921  1.0000
  C   C1925     1.0  0.58415  0.15454  0.18034  1.0000
  C   C1926     1.0  0.68595  0.23756  0.09650  1.0000
  C   C1927     1.0  0.72768  0.23064  0.40595  1.0000
  H   H1532     1.0  0.55927  0.00419  0.37908  1.0000
  H   H1533     1.0  0.70533  0.17887  0.13027  1.0000
  H   H1534     1.0  0.54892  0.28215  0.33878  1.0000
  C   C1928     1.0  0.71766  0.28720  0.10878  1.0000
  C   C1929     1.0  0.73213  0.22806  0.46046  1.0000
  C   C1930     1.0  0.64170  0.11064  0.38113  1.0000
  C   C1931     1.0  0.55374  0.12177  0.23438  1.0000
  H   H1535     1.0  0.57714  0.12148  0.08521  1.0000
  H   H1536     1.0  0.70949  0.29359  0.09234  1.0000
  H   H1537     1.0  0.51825  0.00591  0.35991  1.0000
  C   C1932     1.0  0.71236  0.28593  0.13915  1.0000
  H   H1538     1.0  0.53171  0.02676  0.44211  1.0000
  C   C1933     1.0  0.64805  0.15031  0.34651  1.0000
  C   C1934     1.0  0.66070  0.15632  0.32687  1.0000
  C   C1935     1.0  0.67549  0.16328  0.33876  1.0000
  H   H1539     1.0  0.50850  0.05297  0.40780  1.0000
  H   H1540     1.0  0.60954  0.06282  0.19160  1.0000
  H   H1541     1.0  0.64692  0.08556  0.36346  1.0000
  H   H1542     1.0  0.62091  0.17185  0.36566  1.0000
  C   C1936     1.0  0.64780  0.14404  0.46131  1.0000
  H   H1543     1.0  0.51092  0.07334  0.46792  1.0000
  H   H1544     1.0  0.64587  0.11674  0.36028  1.0000
  C   C1937     1.0  0.61030  0.16368  0.37099  1.0000
  H   H1545     1.0  0.53658  0.09678  0.13361  1.0000
  C   C1938     1.0  0.59640  0.14683  0.22912  1.0000
  H   H1546     1.0  0.63675  0.14491  0.33685  1.0000
  H   H1547     1.0  0.65901  0.15551  0.30234  1.0000
  H   H1548     1.0  0.68528  0.16793  0.32342  1.0000
  H   H1549     1.0  0.55841  0.32447  0.39400  1.0000
  C   C1939     1.0  0.73930  0.27233  0.15210  1.0000
  C   C1940     1.0  0.54451  0.11896  0.26133  1.0000
  C   C1941     1.0  0.57965  0.03635  0.15729  1.0000
  H   H1550     1.0  0.57490  0.00420  0.03049  1.0000
  H   H1551     1.0  0.54485  0.10778  0.30643  1.0000
  H   H1552     1.0  0.60753  0.16723  0.25431  1.0000
  S   S272      1.0  0.61933  0.09501  0.98883  1.0000
  H   H1553     1.0  0.61658  0.17140  0.43634  1.0000
  C   C1942     1.0  0.57782  0.10613  0.25565  1.0000
  C   C1943     1.0  0.73365  0.28080  0.09986  1.0000
  P   P65       1.0  0.58273  0.11992  0.19728  1.0000
  H   H1554     1.0  0.59245  0.17924  0.34554  1.0000
  C   C1944     1.0  0.59803  0.08794  0.19294  1.0000
  H   H1555     1.0  0.67084  0.26035  0.10414  1.0000
  H   H1556     1.0  0.57873  0.02646  0.99048  1.0000
  C   C1945     1.0  0.59688  0.17614  0.21179  1.0000
  C   C1946     1.0  0.70987  0.18907  0.17462  1.0000
  C   C1947     1.0  0.54845  0.10364  0.13385  1.0000
  H   H1557     1.0  0.71345  0.20514  0.02265  1.0000
  Fe  Fe137     1.0  0.58680  0.08230  0.46602  1.0000
  H   H1558     1.0  0.53941  0.01238  0.01678  1.0000
  C   C1948     1.0  0.72470  0.20163  0.06725  1.0000
  C   C1949     1.0  0.57920  0.12107  0.13419  1.0000
  H   H1559     1.0  0.63887  0.07316  0.19936  1.0000
  H   H1560     1.0  0.59093  0.10162  0.25460  1.0000
  C   C1950     1.0  0.57399  0.00362  0.46689  1.0000
  H   H1561     1.0  0.53169  0.12416  0.26379  1.0000
  C   C1951     1.0  0.66495  0.15815  0.39009  1.0000
  C   C1952     1.0  0.55637  0.10713  0.16158  1.0000
  C   C1953     1.0  0.58065  0.01316  0.98495  1.0000
  H   H1562     1.0  0.49916  0.03321  0.99300  1.0000
  C   C1954     1.0  0.65947  0.18620  0.06793  1.0000
  C   C1955     1.0  0.66421  0.16954  0.06025  1.0000
  C   C1956     1.0  0.68141  0.16464  0.06037  1.0000
  C   C1957     1.0  0.69384  0.17634  0.06843  1.0000
  C   C1958     1.0  0.68923  0.19318  0.07609  1.0000
  C   C1959     1.0  0.67187  0.19796  0.07591  1.0000
  P   P66       1.0  0.70551  0.20794  0.08766  1.0000
  C   C1960     1.0  0.69907  0.22977  0.07925  1.0000
  C   C1961     1.0  0.70886  0.20616  0.12831  1.0000
  S   S273      1.0  0.56206  0.06788  0.47094  1.0000
  H   H1563     1.0  0.71391  0.20267  0.21631  1.0000
  H   H1564     1.0  0.58834  0.99791  0.39763  1.0000
  C   C1962     1.0  0.71454  0.21938  0.17717  1.0000
  C   C1963     1.0  0.71267  0.22065  0.14556  1.0000
  C   C1964     1.0  0.70762  0.23950  0.05709  1.0000
  C   C1965     1.0  0.57151  0.02137  0.14902  1.0000
  C   C1966     1.0  0.68922  0.26383  0.06810  1.0000
  C   C1967     1.0  0.62974  0.09385  0.43323  1.0000
  C   C1968     1.0  0.68100  0.25446  0.09079  1.0000
  C   C1969     1.0  0.50084  0.07757  0.45283  1.0000
  C   C1970     1.0  0.59850  0.13893  0.39611  1.0000
  H   H1565     1.0  0.49648  0.00590  0.02034  1.0000
  C   C1971     1.0  0.52933  0.02822  0.34071  1.0000
  C   C1972     1.0  0.50470  0.99468  0.41441  1.0000
  H   H1566     1.0  0.64608  0.18983  0.06868  1.0000
  H   H1567     1.0  0.65449  0.16031  0.05523  1.0000
  H   H1568     1.0  0.68508  0.15161  0.05516  1.0000
  H   H1569     1.0  0.70704  0.17207  0.06924  1.0000
  H   H1570     1.0  0.66770  0.21058  0.08241  1.0000
  H   H1571     1.0  0.52525  0.06825  0.36921  1.0000
  H   H1572     1.0  0.73932  0.08827  0.47300  1.0000
  C   C1973     1.0  0.52058  0.31385  0.32082  1.0000
  C   C1974     1.0  0.62582  0.16536  0.45130  1.0000
  H   H1573     1.0  0.71388  0.23302  0.13483  1.0000
  H   H1574     1.0  0.62317  0.11853  0.45043  1.0000
  C   C1975     1.0  0.63600  0.15162  0.44120  1.0000
  H   H1575     1.0  0.68531  0.27693  0.06380  1.0000
  H   H1576     1.0  0.57155  0.13539  0.39033  1.0000
  C   C1976     1.0  0.58020  0.15778  0.36656  1.0000
  H   H1577     1.0  0.66220  0.15164  0.99711  1.0000
  H   H1578     1.0  0.56787  0.30680  0.34373  1.0000
  C   C1977     1.0  0.63518  0.12019  0.40569  1.0000
  C   C1978     1.0  0.54891  0.07277  0.04226  1.0000
  C   C1979     1.0  0.55301  0.08816  0.02815  1.0000
  C   C1980     1.0  0.56971  0.09394  0.02895  1.0000
  C   C1981     1.0  0.58239  0.08430  0.04367  1.0000
  C   C1982     1.0  0.57845  0.06876  0.05785  1.0000
  C   C1983     1.0  0.56157  0.06303  0.05688  1.0000
  P   P67       1.0  0.59523  0.05574  0.07473  1.0000
  C   C1984     1.0  0.60541  0.04309  0.04519  1.0000
  C   C1985     1.0  0.61102  0.06928  0.09152  1.0000
  C   C1986     1.0  0.60603  0.08437  0.10639  1.0000
  C   C1987     1.0  0.61827  0.09488  0.11918  1.0000
  C   C1988     1.0  0.63552  0.09034  0.11757  1.0000
  C   C1989     1.0  0.64060  0.07532  0.10295  1.0000
  C   C1990     1.0  0.62841  0.06481  0.08998  1.0000
  C   C1991     1.0  0.72290  0.22401  0.43434  1.0000
  C   C1992     1.0  0.61172  0.07633  0.19380  1.0000
  C   C1993     1.0  0.70785  0.19030  0.14302  1.0000
  H   H1579     1.0  0.73210  0.14115  0.06109  1.0000
  C   C1994     1.0  0.60863  0.05037  0.01649  1.0000
  C   C1995     1.0  0.58599  0.04233  0.10396  1.0000
  C   C1996     1.0  0.58685  0.04680  0.13487  1.0000
  C   C1997     1.0  0.57754  0.02739  0.09586  1.0000
  H   H1580     1.0  0.53596  0.06824  0.04111  1.0000
  H   H1581     1.0  0.54331  0.09545  0.01598  1.0000
  H   H1582     1.0  0.50746  0.31575  0.31382  1.0000
  H   H1583     1.0  0.59537  0.08872  0.04325  1.0000
  H   H1584     1.0  0.55811  0.05100  0.06693  1.0000
  H   H1585     1.0  0.59272  0.08806  0.10787  1.0000
  H   H1586     1.0  0.61452  0.10677  0.12988  1.0000
  H   H1587     1.0  0.64495  0.09871  0.12707  1.0000
  H   H1588     1.0  0.65402  0.07200  0.10118  1.0000
  H   H1589     1.0  0.63265  0.05333  0.07848  1.0000
  C   C1998     1.0  0.50467  0.02602  0.45194  1.0000
  H   H1590     1.0  0.67965  0.23067  0.11478  1.0000
  C   C1999     1.0  0.55583  0.10895  0.10637  1.0000
  C   C2000     1.0  0.56858  0.10343  0.28258  1.0000
  H   H1591     1.0  0.60541  0.06356  0.01196  1.0000
  H   H1592     1.0  0.59305  0.05833  0.14176  1.0000
  H   H1593     1.0  0.57647  0.02383  0.07213  1.0000
  H   H1594     1.0  0.71828  0.23427  0.04438  1.0000
  C   C2001     1.0  0.51397  0.04591  0.38893  1.0000
  H   H1595     1.0  0.59949  0.13744  0.24645  1.0000
  H   H1596     1.0  0.57452  0.09668  0.30155  1.0000
  C   C2002     1.0  0.58843  0.14196  0.20207  1.0000
  H   H1597     1.0  0.53549  0.02137  0.32222  1.0000
  C   C2003     1.0  0.55191  0.10976  0.28538  1.0000
  C   C2004     1.0  0.61071  0.02616  0.05076  1.0000
  C   C2005     1.0  0.51951  0.01948  0.36228  1.0000
  C   C2006     1.0  0.74171  0.24130  0.40361  1.0000
  H   H1598     1.0  0.54805  0.12938  0.21632  1.0000
  H   H1599     1.0  0.55064  0.10255  0.18250  1.0000
  C   C2007     1.0  0.57034  0.11507  0.23107  1.0000
  C   C2008     1.0  0.61608  0.04067  0.99320  1.0000
  H   H1600     1.0  0.54964  0.10632  0.08493  1.0000
  H   H1601     1.0  0.62150  0.00319  0.03134  1.0000
  H   H1602     1.0  0.63653  0.07068  0.40975  1.0000
  H   H1603     1.0  0.59131  0.12759  0.13382  1.0000
  H   H1604     1.0  0.58522  0.08328  0.19015  1.0000
  C   C2009     1.0  0.73911  0.19550  0.08298  1.0000
  C   C2010     1.0  0.58236  0.14332  0.38492  1.0000
  H   H1605     1.0  0.58040  0.03983  0.18112  1.0000
  H   H1606     1.0  0.64383  0.10394  0.20563  1.0000
  H   H1607     1.0  0.71672  0.23070  0.19048  1.0000
  C   C2011     1.0  0.65001  0.15116  0.37828  1.0000
  C   C2012     1.0  0.72318  0.27851  0.16081  1.0000
  C   C2013     1.0  0.51171  0.02828  0.38662  1.0000
  C   C2014     1.0  0.53134  0.04579  0.34312  1.0000
  C   C2015     1.0  0.52357  0.05463  0.36711  1.0000
  C   C2016     1.0  0.61808  0.01644  0.02735  1.0000
  H   H1608     1.0  0.71919  0.27806  0.18450  1.0000
  H   H1609     1.0  0.57742  0.15149  0.15976  1.0000
  H   H1610     1.0  0.62000  0.12465  0.20237  1.0000
  C   C2017     1.0  0.61265  0.14893  0.38889  1.0000
  H   H1611     1.0  0.70924  0.26386  0.03434  1.0000
  H   H1612     1.0  0.72940  0.08662  0.22967  1.0000
  C   C2018     1.0  0.54393  0.29493  0.33489  1.0000
  S   S274      1.0  0.66947  0.31602  0.19667  1.0000
  H   H1613     1.0  0.56603  0.01322  0.16639  1.0000
  C   C2019     1.0  0.73531  0.14375  0.08455  1.0000
  C   C2020     1.0  0.64243  0.09287  0.38287  1.0000
  H   H1614     1.0  0.65579  0.13345  0.45400  1.0000
  C   C2021     1.0  0.70263  0.25642  0.05147  1.0000
  H   H1615     1.0  0.60912  0.02035  0.07298  1.0000
  H   H1616     1.0  0.72941  0.11168  0.19489  1.0000
  C   C2022     1.0  0.62895  0.11160  0.43159  1.0000
  C   C2023     1.0  0.53705  0.01707  0.99389  1.0000
  C   C2024     1.0  0.63647  0.08447  0.40890  1.0000
  H   H1617     1.0  0.56769  0.16108  0.35774  1.0000
  H   H1618     1.0  0.51865  0.28656  0.32413  1.0000
  H   H1619     1.0  0.72053  0.22748  0.38573  1.0000
  H   H1620     1.0  0.70857  0.17688  0.18598  1.0000
  H   H1621     1.0  0.54463  0.04272  0.00381  1.0000
  C   C2025     1.0  0.55460  0.30891  0.33782  1.0000
  H   H1622     1.0  0.71207  0.21568  0.43612  1.0000
  C   C2026     1.0  0.59415  0.16799  0.35969  1.0000
  H   H1623     1.0  0.57292  0.10562  0.01717  1.0000
  C   C2027     1.0  0.72468  0.20116  0.03521  1.0000
  H   H1624     1.0  0.56420  0.00527  0.11179  1.0000
  H   H1625     1.0  0.57466  0.32513  0.44199  1.0000
  H   H1626     1.0  0.52174  0.99506  0.45324  1.0000
  C   C2028     1.0  0.74130  0.10515  0.20053  1.0000
  H   H1627     1.0  0.66049  0.10191  0.46775  1.0000
  H   H1628     1.0  0.49435  0.09977  0.38720  1.0000
  H   H1629     1.0  0.73922  0.19482  0.10759  1.0000
  C   C2029     1.0  0.54004  0.03412  0.98664  1.0000
  H   H1630     1.0  0.66601  0.18291  0.99370  1.0000
  H   H1631     1.0  0.73623  0.27169  0.46507  1.0000
  S   S275      1.0  0.66883  0.32326  0.12226  1.0000
  H   H1632     1.0  0.73899  0.19476  0.99453  1.0000
  H   H1633     1.0  0.73114  0.30158  0.47976  1.0000
  Fe  Fe138     1.0  0.64554  0.31374  0.65391  1.0000
  H   H1634     1.0  0.54295  0.26760  0.86330  1.0000
  S   S276      1.0  0.63873  0.28714  0.63695  1.0000
  C   C2030     1.0  0.70954  0.08928  0.59593  1.0000
  Fe  Fe139     1.0  0.64715  0.15586  0.62993  1.0000
  S   S277      1.0  0.66332  0.13656  0.65538  1.0000
  S   S278      1.0  0.63122  0.15113  0.58655  1.0000
  Fe  Fe140     1.0  0.65775  0.18535  0.67155  1.0000
  S   S279      1.0  0.67387  0.16736  0.69982  1.0000
  S   S280      1.0  0.66066  0.21309  0.68694  1.0000
  Fe  Fe141     1.0  0.68357  0.15681  0.65534  1.0000
  S   S281      1.0  0.71269  0.15253  0.65328  1.0000
  Fe  Fe142     1.0  0.65241  0.14858  0.69849  1.0000
  S   S282      1.0  0.64717  0.13324  0.74345  1.0000
  S   S283      1.0  0.66823  0.17538  0.62720  1.0000
  S   S284      1.0  0.63548  0.16736  0.67296  1.0000
  Fe  Fe143     1.0  0.56105  0.08275  0.93518  1.0000
  S   S285      1.0  0.56850  0.06719  0.89418  1.0000
  S   S286      1.0  0.53411  0.08977  0.95227  1.0000
  Fe  Fe144     1.0  0.59843  0.08664  0.95541  1.0000
  S   S287      1.0  0.60801  0.07096  0.91537  1.0000
  H   H1635     1.0  0.63943  0.16755  0.52477  1.0000
  Fe  Fe145     1.0  0.58967  0.08628  0.88619  1.0000
  S   S288      1.0  0.59372  0.09800  0.83740  1.0000
  Fe  Fe146     1.0  0.58637  0.05326  0.92648  1.0000
  S   S289      1.0  0.58978  0.02409  0.92623  1.0000
  S   S290      1.0  0.58100  0.10272  0.92595  1.0000
  C   C2031     1.0  0.64960  0.17601  0.92316  1.0000
  C   C2032     1.0  0.51380  0.08249  0.94012  1.0000
  C   C2033     1.0  0.51203  0.07113  0.91592  1.0000
  C   C2034     1.0  0.73969  0.27115  0.63094  1.0000
  H   H1636     1.0  0.52323  0.06667  0.90367  1.0000
  C   C2035     1.0  0.68503  0.16964  0.53966  1.0000
  C   C2036     1.0  0.58580  0.00863  0.95544  1.0000
  C   C2037     1.0  0.70662  0.29189  0.67692  1.0000
  C   C2038     1.0  0.66091  0.17607  0.97448  1.0000
  C   C2039     1.0  0.52928  0.01172  0.94123  1.0000
  H   H1637     1.0  0.61140  0.12593  0.86867  1.0000
  C   C2040     1.0  0.61077  0.10610  0.52971  1.0000
  C   C2041     1.0  0.62086  0.10294  0.55575  1.0000
  C   C2042     1.0  0.62732  0.11643  0.57332  1.0000
  C   C2043     1.0  0.62352  0.13337  0.56544  1.0000
  C   C2044     1.0  0.61318  0.13650  0.53974  1.0000
  C   C2045     1.0  0.60698  0.12303  0.52186  1.0000
  H   H1638     1.0  0.62359  0.08993  0.56249  1.0000
  H   H1639     1.0  0.63514  0.11369  0.59304  1.0000
  H   H1640     1.0  0.60986  0.14948  0.53362  1.0000
  C   C2046     1.0  0.74050  0.20847  0.56866  1.0000
  C   C2047     1.0  0.63196  0.12375  0.76939  1.0000
  C   C2048     1.0  0.63783  0.11578  0.79642  1.0000
  C   C2049     1.0  0.62645  0.10806  0.81748  1.0000
  C   C2050     1.0  0.60886  0.10805  0.81198  1.0000
  C   C2051     1.0  0.60299  0.11608  0.78499  1.0000
  C   C2052     1.0  0.61436  0.12387  0.76399  1.0000
  H   H1641     1.0  0.65134  0.11557  0.80113  1.0000
  H   H1642     1.0  0.63131  0.10193  0.83786  1.0000
  H   H1643     1.0  0.58948  0.11622  0.78021  1.0000
  H   H1644     1.0  0.60948  0.12993  0.74356  1.0000
  C   C2053     1.0  0.52610  0.03624  0.48685  1.0000
  C   C2054     1.0  0.72554  0.16070  0.59546  1.0000
  C   C2055     1.0  0.72881  0.15399  0.62449  1.0000
  P   P68       1.0  0.52383  0.99714  0.91114  1.0000
  H   H1645     1.0  0.71283  0.16525  0.59005  1.0000
  C   C2056     1.0  0.68301  0.10212  0.53410  1.0000
  C   C2057     1.0  0.64570  0.26671  0.65045  1.0000
  C   C2058     1.0  0.65609  0.26469  0.67610  1.0000
  C   C2059     1.0  0.66070  0.24820  0.68657  1.0000
  C   C2060     1.0  0.65512  0.23352  0.67153  1.0000
  C   C2061     1.0  0.64515  0.23555  0.64536  1.0000
  C   C2062     1.0  0.64045  0.25204  0.63499  1.0000
  H   H1646     1.0  0.66033  0.27579  0.68819  1.0000
  H   H1647     1.0  0.66844  0.24680  0.70678  1.0000
  H   H1648     1.0  0.64073  0.22443  0.63355  1.0000
  H   H1649     1.0  0.63244  0.25342  0.61512  1.0000
  C   C2063     1.0  0.60721  0.16114  0.91327  1.0000
  C   C2064     1.0  0.66410  0.09872  0.49091  1.0000
  H   H1650     1.0  0.71168  0.30072  0.54107  1.0000
  H   H1651     1.0  0.55695  0.28190  0.90654  1.0000
  H   H1652     1.0  0.61449  0.17057  0.92513  1.0000
  S   S291      1.0  0.57792  0.06791  0.96766  1.0000
  C   C2065     1.0  0.69681  0.28653  0.72852  1.0000
  H   H1653     1.0  0.50016  0.09711  0.97415  1.0000
  H   H1654     1.0  0.70889  0.30093  0.65863  1.0000
  C   C2066     1.0  0.65450  0.30927  0.50303  1.0000
  C   C2067     1.0  0.67310  0.09061  0.55096  1.0000
  C   C2068     1.0  0.71200  0.08342  0.62579  1.0000
  C   C2069     1.0  0.70196  0.11057  0.64509  1.0000
  C   C2070     1.0  0.70502  0.29511  0.56024  1.0000
  C   C2071     1.0  0.57961  0.15034  0.89916  1.0000
  H   H1655     1.0  0.73732  0.23642  0.65430  1.0000
  C   C2072     1.0  0.53760  0.04002  0.95688  1.0000
  H   H1656     1.0  0.68121  0.18287  0.53677  1.0000
  H   H1657     1.0  0.65780  0.19851  0.94646  1.0000
  C   C2073     1.0  0.54505  0.28922  0.83308  1.0000
  C   C2074     1.0  0.53805  0.00109  0.87934  1.0000
  C   C2075     1.0  0.53226  0.02890  0.93424  1.0000
  H   H1658     1.0  0.66369  0.12759  0.85675  1.0000
  H   H1659     1.0  0.66266  0.16324  0.56547  1.0000
  H   H1660     1.0  0.54883  0.31250  0.80817  1.0000
  H   H1661     1.0  0.51942  0.99660  0.84403  1.0000
  H   H1662     1.0  0.59912  0.12576  0.50219  1.0000
  C   C2076     1.0  0.65214  0.14960  0.95175  1.0000
  H   H1663     1.0  0.64582  0.18304  0.90290  1.0000
  C   C2077     1.0  0.70565  0.20916  0.63759  1.0000
  C   C2078     1.0  0.65893  0.08312  0.53770  1.0000
  C   C2079     1.0  0.58764  0.13742  0.88239  1.0000
  H   H1664     1.0  0.73606  0.16665  0.55103  1.0000
  H   H1665     1.0  0.71703  0.07069  0.62987  1.0000
  C   C2080     1.0  0.70031  0.16359  0.52699  1.0000
  C   C2081     1.0  0.64757  0.15827  0.92479  1.0000
  H   H1666     1.0  0.70768  0.24940  0.69387  1.0000
  H   H1667     1.0  0.65976  0.17377  0.77813  1.0000
  C   C2082     1.0  0.67952  0.14154  0.56028  1.0000
  C   C2083     1.0  0.58939  0.16219  0.91465  1.0000
  C   C2084     1.0  0.66646  0.16955  0.82531  1.0000
  C   C2085     1.0  0.51341  0.04010  0.50832  1.0000
  H   H1668     1.0  0.68119  0.27686  0.63067  1.0000
  C   C2086     1.0  0.63878  0.16338  0.50127  1.0000
  H   H1669     1.0  0.58316  0.17220  0.92765  1.0000
  H   H1670     1.0  0.69170  0.29123  0.74993  1.0000
  C   C2087     1.0  0.69337  0.22086  0.62720  1.0000
  C   C2088     1.0  0.70050  0.29792  0.70491  1.0000
  H   H1671     1.0  0.53899  0.00281  0.80152  1.0000
  C   C2089     1.0  0.72226  0.09876  0.50710  1.0000
  C   C2090     1.0  0.54347  0.00350  0.82480  1.0000
  S   S292      1.0  0.60319  0.08840  0.50831  1.0000
  C   C2091     1.0  0.55520  0.28862  0.88508  1.0000
  C   C2092     1.0  0.70326  0.10588  0.59044  1.0000
  H   H1672     1.0  0.62128  0.15074  0.83336  1.0000
  C   C2093     1.0  0.69951  0.26907  0.72431  1.0000
  C   C2094     1.0  0.65630  0.18484  0.94787  1.0000
  H   H1673     1.0  0.54018  0.05317  0.95119  1.0000
  C   C2095     1.0  0.63377  0.15629  0.83184  1.0000
  C   C2096     1.0  0.55878  0.31407  0.85401  1.0000
  H   H1674     1.0  0.60377  0.31586  0.76604  1.0000
  C   C2097     1.0  0.67463  0.15859  0.55610  1.0000
  H   H1675     1.0  0.53081  0.03366  0.91113  1.0000
  H   H1676     1.0  0.52203  0.00243  0.52441  1.0000
  H   H1677     1.0  0.69931  0.11895  0.66419  1.0000
  H   H1678     1.0  0.71266  0.08093  0.57706  1.0000
  H   H1679     1.0  0.65119  0.07439  0.55082  1.0000
  C   C2098     1.0  0.56026  0.00818  0.83051  1.0000
  C   C2099     1.0  0.72082  0.10895  0.53321  1.0000
  H   H1680     1.0  0.67108  0.13315  0.57276  1.0000
  C   C2100     1.0  0.55497  0.00570  0.88479  1.0000
  C   C2101     1.0  0.56599  0.00925  0.86051  1.0000
  C   C2102     1.0  0.69503  0.13542  0.54816  1.0000
  C   C2103     1.0  0.68797  0.28158  0.61081  1.0000
  H   H1681     1.0  0.56699  0.31124  0.90099  1.0000
  H   H1682     1.0  0.69640  0.26019  0.74244  1.0000
  P   P69       1.0  0.70051  0.11303  0.55153  1.0000
  H   H1683     1.0  0.72945  0.24573  0.53371  1.0000
  H   H1684     1.0  0.67352  0.09778  0.85887  1.0000
  C   C2104     1.0  0.64208  0.32126  0.54886  1.0000
  C   C2105     1.0  0.72160  0.21483  0.64669  1.0000
  H   H1685     1.0  0.67922  0.17442  0.82251  1.0000
  H   H1686     1.0  0.72748  0.28293  0.57785  1.0000
  H   H1687     1.0  0.55962  0.00677  0.90787  1.0000
  H   H1688     1.0  0.57894  0.01310  0.86511  1.0000
  C   C2106     1.0  0.49636  0.03689  0.50173  1.0000
  H   H1689     1.0  0.58010  0.12822  0.87027  1.0000
  H   H1690     1.0  0.56879  0.01116  0.81176  1.0000
  C   C2107     1.0  0.49900  0.08829  0.95546  1.0000
  H   H1691     1.0  0.68080  0.30655  0.54849  1.0000
  H   H1692     1.0  0.67597  0.08764  0.57450  1.0000
  H   H1693     1.0  0.51680  0.04578  0.52986  1.0000
  C   C2108     1.0  0.54731  0.28056  0.86073  1.0000
  H   H1694     1.0  0.71925  0.22593  0.57356  1.0000
  C   C2109     1.0  0.70951  0.27438  0.67252  1.0000
  H   H1695     1.0  0.73871  0.29538  0.65461  1.0000
  H   H1696     1.0  0.69511  0.12948  0.61180  1.0000
  H   H1697     1.0  0.73088  0.20575  0.65563  1.0000
  C   C2110     1.0  0.70825  0.09410  0.65038  1.0000
  C   C2111     1.0  0.69703  0.23822  0.62562  1.0000
  C   C2112     1.0  0.53239  0.99997  0.84908  1.0000
  C   C2113     1.0  0.70594  0.26300  0.69653  1.0000
  H   H1698     1.0  0.56582  0.15110  0.90017  1.0000
  C   C2114     1.0  0.60542  0.13613  0.88154  1.0000
  H   H1699     1.0  0.73473  0.12379  0.56602  1.0000
  C   C2115     1.0  0.72524  0.23221  0.64554  1.0000
  C   C2116     1.0  0.64784  0.08169  0.64042  1.0000
  C   C2117     1.0  0.65831  0.08938  0.66182  1.0000
  C   C2118     1.0  0.65113  0.09988  0.68421  1.0000
  C   C2119     1.0  0.63354  0.10293  0.68499  1.0000
  C   C2120     1.0  0.62285  0.09482  0.66429  1.0000
  C   C2121     1.0  0.63017  0.08429  0.64172  1.0000
  P   P70       1.0  0.60000  0.09784  0.66726  1.0000
  C   C2122     1.0  0.59027  0.08891  0.63373  1.0000
  C   C2123     1.0  0.59151  0.08749  0.70100  1.0000
  C   C2124     1.0  0.60164  0.08460  0.72693  1.0000
  C   C2125     1.0  0.59443  0.07807  0.75372  1.0000
  C   C2126     1.0  0.57710  0.07439  0.75495  1.0000
  C   C2127     1.0  0.56696  0.07702  0.72921  1.0000
  C   C2128     1.0  0.57410  0.08358  0.70236  1.0000
  C   C2129     1.0  0.58624  0.09909  0.60822  1.0000
  C   C2130     1.0  0.58009  0.09169  0.58162  1.0000
  C   C2131     1.0  0.57795  0.07411  0.58015  1.0000
  C   C2132     1.0  0.58171  0.06389  0.60551  1.0000
  C   C2133     1.0  0.58785  0.07124  0.63220  1.0000
  C   C2134     1.0  0.59558  0.12046  0.66948  1.0000
  C   C2135     1.0  0.60347  0.13167  0.64896  1.0000
  C   C2136     1.0  0.59953  0.14908  0.64960  1.0000
  C   C2137     1.0  0.58833  0.15558  0.67166  1.0000
  C   C2138     1.0  0.58082  0.14461  0.69282  1.0000
  C   C2139     1.0  0.58432  0.12710  0.69167  1.0000
  H   H1700     1.0  0.65341  0.07365  0.62290  1.0000
  H   H1701     1.0  0.67197  0.08730  0.66098  1.0000
  H   H1702     1.0  0.65920  0.10599  0.70077  1.0000
  H   H1703     1.0  0.62825  0.11147  0.70204  1.0000
  H   H1704     1.0  0.62238  0.07814  0.62493  1.0000
  H   H1705     1.0  0.61497  0.08774  0.72714  1.0000
  H   H1706     1.0  0.60219  0.07640  0.77397  1.0000
  H   H1707     1.0  0.57153  0.06979  0.77609  1.0000
  H   H1708     1.0  0.55347  0.07434  0.73032  1.0000
  H   H1709     1.0  0.56594  0.08605  0.68295  1.0000
  H   H1710     1.0  0.58813  0.11267  0.60822  1.0000
  H   H1711     1.0  0.57745  0.09955  0.56172  1.0000
  H   H1712     1.0  0.57366  0.06843  0.55912  1.0000
  H   H1713     1.0  0.58018  0.05022  0.60422  1.0000
  H   H1714     1.0  0.59114  0.06308  0.65136  1.0000
  H   H1715     1.0  0.61251  0.12695  0.63213  1.0000
  H   H1716     1.0  0.60539  0.15759  0.63321  1.0000
  H   H1717     1.0  0.58563  0.16915  0.67250  1.0000
  H   H1718     1.0  0.57230  0.14967  0.71020  1.0000
  H   H1719     1.0  0.57834  0.11892  0.70836  1.0000
  C   C2140     1.0  0.61536  0.14801  0.89680  1.0000
  P   P71       1.0  0.63831  0.14708  0.89309  1.0000
  C   C2141     1.0  0.70527  0.14654  0.53103  1.0000
  C   C2142     1.0  0.64539  0.12505  0.89381  1.0000
  C   C2143     1.0  0.65817  0.11921  0.87363  1.0000
  C   C2144     1.0  0.66383  0.10224  0.87475  1.0000
  C   C2145     1.0  0.65697  0.09104  0.89624  1.0000
  C   C2146     1.0  0.64433  0.09677  0.91644  1.0000
  C   C2147     1.0  0.63832  0.11361  0.91492  1.0000
  C   C2148     1.0  0.69952  0.11651  0.61523  1.0000
  C   C2149     1.0  0.73118  0.22329  0.56178  1.0000
  H   H1720     1.0  0.68071  0.21653  0.62160  1.0000
  C   C2150     1.0  0.66110  0.16319  0.85361  1.0000
  C   C2151     1.0  0.63918  0.16269  0.80364  1.0000
  H   H1721     1.0  0.71712  0.14224  0.52075  1.0000
  H   H1722     1.0  0.65048  0.13602  0.95413  1.0000
  H   H1723     1.0  0.61805  0.04627  0.97082  1.0000
  H   H1724     1.0  0.70844  0.17213  0.51426  1.0000
  H   H1725     1.0  0.68703  0.24701  0.61862  1.0000
  C   C2152     1.0  0.67907  0.29148  0.58943  1.0000
  H   H1726     1.0  0.66557  0.29405  0.59273  1.0000
  H   H1727     1.0  0.64310  0.08168  0.49796  1.0000
  H   H1728     1.0  0.63091  0.16202  0.78397  1.0000
  H   H1729     1.0  0.66138  0.07791  0.89722  1.0000
  H   H1730     1.0  0.63917  0.08816  0.93339  1.0000
  H   H1731     1.0  0.62834  0.11771  0.93060  1.0000
  C   C2153     1.0  0.56089  0.30532  0.88181  1.0000
  H   H1732     1.0  0.49451  0.05701  0.88836  1.0000
  C   C2154     1.0  0.64466  0.15658  0.85716  1.0000
  C   C2155     1.0  0.73874  0.16150  0.57344  1.0000
  C   C2156     1.0  0.68762  0.29841  0.56438  1.0000
  C   C2157     1.0  0.65552  0.16925  0.80031  1.0000
  H   H1733     1.0  0.69839  0.31146  0.70808  1.0000
  H   H1734     1.0  0.66994  0.16303  0.87249  1.0000
  P   P72       1.0  0.71724  0.26669  0.63605  1.0000
  C   C2158     1.0  0.71309  0.24406  0.63448  1.0000
  C   C2159     1.0  0.70549  0.27822  0.60693  1.0000
  C   C2160     1.0  0.71394  0.28499  0.58130  1.0000
  H   H1735     1.0  0.53894  0.28297  0.81419  1.0000
  C   C2161     1.0  0.58705  0.32457  0.80220  1.0000
  C   C2162     1.0  0.49569  0.06570  0.90724  1.0000
  H   H1736     1.0  0.70261  0.19575  0.63958  1.0000
  H   H1737     1.0  0.68553  0.11540  0.49095  1.0000
  H   H1738     1.0  0.65757  0.14337  0.50707  1.0000
  H   H1739     1.0  0.63719  0.29597  0.53294  1.0000
  H   H1740     1.0  0.71038  0.08971  0.67356  1.0000
  C   C2163     1.0  0.55071  0.30593  0.82973  1.0000
  H   H1741     1.0  0.71121  0.09281  0.49746  1.0000
  C   C2164     1.0  0.65437  0.08723  0.50779  1.0000
  C   C2165     1.0  0.67831  0.10623  0.50405  1.0000
  H   H1742     1.0  0.53936  0.03873  0.49173  1.0000
  H   H1743     1.0  0.59305  0.01780  0.49033  1.0000
  C   C2166     1.0  0.73704  0.23450  0.53925  1.0000
  H   H1744     1.0  0.65578  0.29880  0.48716  1.0000
  C   C2167     1.0  0.58685  0.00566  0.48846  1.0000
  C   C2168     1.0  0.64901  0.14977  0.49130  1.0000
  H   H1745     1.0  0.49946  0.02629  0.91552  1.0000
  C   C2169     1.0  0.65880  0.15847  0.97641  1.0000
  H   H1746     1.0  0.73580  0.19958  0.58567  1.0000
  C   C2170     1.0  0.50200  0.00034  0.89901  1.0000
  C   C2171     1.0  0.73554  0.11603  0.54566  1.0000
  H   H1747     1.0  0.61914  0.18159  0.48922  1.0000
  H   H1748     1.0  0.59068  0.31422  0.81739  1.0000
  C   C2172     1.0  0.53174  0.00589  0.97128  1.0000
  C   C2173     1.0  0.66338  0.32435  0.49787  1.0000
  H   H1749     1.0  0.63383  0.32007  0.56871  1.0000
  C   C2174     1.0  0.64396  0.30768  0.52868  1.0000
  C   C2175     1.0  0.73956  0.29352  0.49325  1.0000
  C   C2176     1.0  0.73820  0.09608  0.49322  1.0000
  S   S293      1.0  0.66138  0.32051  0.69447  1.0000
  H   H1750     1.0  0.60198  0.99363  0.52382  1.0000
  H   H1751     1.0  0.62588  0.01602  0.98009  1.0000
  H   H1752     1.0  0.72824  0.22266  0.48210  1.0000
  C   C2177     1.0  0.49345  0.01596  0.90374  1.0000
  H   H1753     1.0  0.53009  0.99266  0.97725  1.0000
  C   C2178     1.0  0.62725  0.17122  0.48124  1.0000
  Fe  Fe147     1.0  0.65245  0.34639  0.13301  1.0000
  S   S294      1.0  0.66953  0.35488  0.17122  1.0000
  S   S295      1.0  0.64696  0.36820  0.09908  1.0000
  Fe  Fe148     1.0  0.65269  0.33969  0.20272  1.0000
  S   S296      1.0  0.64552  0.34843  0.25206  1.0000
  S   S297      1.0  0.71407  0.32856  0.16289  1.0000
  H   H1754     1.0  0.72477  0.46235  0.13259  1.0000
  C   C2179     1.0  0.62815  0.52160  0.99449  1.0000
  Fe  Fe149     1.0  0.58589  0.54720  0.04437  1.0000
  C   C2180     1.0  0.73079  0.65743  0.47345  1.0000
  S   S298      1.0  0.58881  0.51801  0.04570  1.0000
  Fe  Fe150     1.0  0.58840  0.58060  0.08287  1.0000
  S   S299      1.0  0.58008  0.59683  0.04245  1.0000
  S   S300      1.0  0.59285  0.59040  0.13238  1.0000
  Fe  Fe151     1.0  0.56043  0.57655  0.03325  1.0000
  S   S301      1.0  0.53367  0.58116  0.01292  1.0000
  Fe  Fe152     1.0  0.59815  0.58044  0.01455  1.0000
  C   C2181     1.0  0.58792  0.35400  0.37413  1.0000
  S   S302      1.0  0.56742  0.56138  0.07515  1.0000
  S   S303      1.0  0.60729  0.56504  0.05522  1.0000
  Fe  Fe153     1.0  0.58062  0.39632  0.44832  1.0000
  S   S304      1.0  0.60057  0.41070  0.42198  1.0000
  H   H1755     1.0  0.50491  0.53194  0.07770  1.0000
  Fe  Fe154     1.0  0.55059  0.41331  0.41417  1.0000
  S   S305      1.0  0.56899  0.42848  0.38548  1.0000
  S   S306      1.0  0.52221  0.42012  0.40528  1.0000
  Fe  Fe155     1.0  0.58523  0.40456  0.38011  1.0000
  S   S307      1.0  0.59501  0.39741  0.33136  1.0000
  Fe  Fe156     1.0  0.58294  0.43357  0.42920  1.0000
  S   S308      1.0  0.59318  0.46057  0.43705  1.0000
  S   S309      1.0  0.56585  0.38913  0.40610  1.0000
  S   S310      1.0  0.56395  0.41944  0.45824  1.0000
  Fe  Fe157     1.0  0.64909  0.64719  0.26441  1.0000
  C   C2182     1.0  0.54272  0.36061  0.45466  1.0000
  S   S311      1.0  0.64236  0.63500  0.21757  1.0000
  H   H1756     1.0  0.61648  0.32674  0.28391  1.0000
  P   P73       1.0  0.72640  0.38987  0.14199  1.0000
  C   C2183     1.0  0.71726  0.38897  0.08066  1.0000
  H   H1757     1.0  0.49827  0.46929  0.46218  1.0000
  S   S312      1.0  0.65628  0.63364  0.30838  1.0000
  C   C2184     1.0  0.64567  0.63232  0.47952  1.0000
  C   C2185     1.0  0.67712  0.59991  0.38526  1.0000
  C   C2186     1.0  0.59794  0.33656  0.25221  1.0000
  H   H1758     1.0  0.61268  0.43211  0.98354  1.0000
  C   C2187     1.0  0.67445  0.62765  0.42514  1.0000
  H   H1759     1.0  0.58774  0.41452  0.19615  1.0000
  P   P74       1.0  0.67486  0.64519  0.45154  1.0000
  H   H1760     1.0  0.57775  0.52243  0.98201  1.0000
  H   H1761     1.0  0.50916  0.38933  0.43618  1.0000
  H   H1762     1.0  0.49557  0.48941  0.08743  1.0000
  C   C2188     1.0  0.51289  0.57719  0.02815  1.0000
  C   C2189     1.0  0.69674  0.64914  0.46189  1.0000
  C   C2190     1.0  0.51027  0.57180  0.05827  1.0000
  C   C2191     1.0  0.71133  0.42143  0.12871  1.0000
  H   H1763     1.0  0.52110  0.56997  0.07312  1.0000
  C   C2192     1.0  0.61389  0.60707  0.43710  1.0000
  C   C2193     1.0  0.60337  0.62162  0.43796  1.0000
  C   C2194     1.0  0.60621  0.63524  0.41745  1.0000
  C   C2195     1.0  0.61949  0.63449  0.39570  1.0000
  C   C2196     1.0  0.62995  0.61991  0.39472  1.0000
  C   C2197     1.0  0.62720  0.60635  0.41540  1.0000
  H   H1764     1.0  0.59314  0.62242  0.45456  1.0000
  H   H1765     1.0  0.69946  0.44569  0.11829  1.0000
  H   H1766     1.0  0.64023  0.61914  0.37823  1.0000
  H   H1767     1.0  0.63556  0.59530  0.41488  1.0000
  C   C2198     1.0  0.60696  0.60289  0.15535  1.0000
  C   C2199     1.0  0.62174  0.61050  0.14380  1.0000
  C   C2200     1.0  0.63231  0.62019  0.16308  1.0000
  C   C2201     1.0  0.62843  0.62248  0.19431  1.0000
  C   C2202     1.0  0.61369  0.61482  0.20583  1.0000
  C   C2203     1.0  0.60306  0.60529  0.18651  1.0000
  H   H1768     1.0  0.62502  0.60892  0.11998  1.0000
  H   H1769     1.0  0.64362  0.62596  0.15367  1.0000
  H   H1770     1.0  0.61025  0.61646  0.22952  1.0000
  H   H1771     1.0  0.59158  0.59982  0.19577  1.0000
  C   C2204     1.0  0.58560  0.50358  0.01508  1.0000
  C   C2205     1.0  0.58892  0.48609  0.01985  1.0000
  C   C2206     1.0  0.50769  0.48625  0.42700  1.0000
  C   C2207     1.0  0.58789  0.47727  0.46332  1.0000
  C   C2208     1.0  0.59480  0.49357  0.45888  1.0000
  H   H1772     1.0  0.54934  0.36798  0.02314  1.0000
  H   H1773     1.0  0.59319  0.48175  0.04199  1.0000
  H   H1774     1.0  0.51402  0.50104  0.38676  1.0000
  H   H1775     1.0  0.60330  0.49569  0.43977  1.0000
  C   C2209     1.0  0.72646  0.34633  0.47111  1.0000
  C   C2210     1.0  0.63150  0.36245  0.27345  1.0000
  C   C2211     1.0  0.61925  0.37313  0.25968  1.0000
  C   C2212     1.0  0.60831  0.38363  0.27770  1.0000
  C   C2213     1.0  0.60931  0.38371  0.30986  1.0000
  C   C2214     1.0  0.62155  0.37301  0.32363  1.0000
  C   C2215     1.0  0.63249  0.36253  0.30561  1.0000
  H   H1776     1.0  0.61810  0.37317  0.23514  1.0000
  H   H1777     1.0  0.59894  0.39173  0.26658  1.0000
  H   H1778     1.0  0.62269  0.37288  0.34818  1.0000
  H   H1779     1.0  0.64182  0.35437  0.31673  1.0000
  C   C2216     1.0  0.63288  0.37054  0.06757  1.0000
  C   C2217     1.0  0.63401  0.38521  0.04907  1.0000
  C   C2218     1.0  0.62272  0.38803  0.02455  1.0000
  C   C2219     1.0  0.61001  0.37631  0.01836  1.0000
  C   C2220     1.0  0.60913  0.36145  0.03643  1.0000
  C   C2221     1.0  0.62042  0.35860  0.06098  1.0000
  H   H1780     1.0  0.64366  0.39449  0.05379  1.0000
  H   H1781     1.0  0.62400  0.39916  0.01024  1.0000
  H   H1782     1.0  0.59954  0.35213  0.03158  1.0000
  H   H1783     1.0  0.61941  0.34723  0.07488  1.0000
  C   C2222     1.0  0.69306  0.38700  0.21426  1.0000
  H   H1784     1.0  0.50037  0.58366  0.98591  1.0000
  C   C2223     1.0  0.67681  0.61188  0.05831  1.0000
  H   H1785     1.0  0.70776  0.62857  0.43484  1.0000
  C   C2224     1.0  0.61584  0.39607  0.14657  1.0000
  C   C2225     1.0  0.50989  0.52605  0.44642  1.0000
  H   H1786     1.0  0.69811  0.40481  0.17837  1.0000
  C   C2226     1.0  0.58691  0.64723  0.20706  1.0000
  C   C2227     1.0  0.71088  0.43920  0.12637  1.0000
  C   C2228     1.0  0.57666  0.34138  0.30330  1.0000
  C   C2229     1.0  0.62523  0.53665  0.34358  1.0000
  C   C2230     1.0  0.62750  0.54163  0.37385  1.0000
  C   C2231     1.0  0.62995  0.55877  0.38067  1.0000
  C   C2232     1.0  0.63010  0.57092  0.35726  1.0000
  C   C2233     1.0  0.62735  0.56611  0.32688  1.0000
  C   C2234     1.0  0.62517  0.54884  0.32013  1.0000
  P   P75       1.0  0.62668  0.58215  0.29712  1.0000
  C   C2235     1.0  0.61401  0.60020  0.31015  1.0000
  C   C2236     1.0  0.64805  0.58881  0.28737  1.0000
  C   C2237     1.0  0.65118  0.59712  0.25947  1.0000
  C   C2238     1.0  0.66753  0.60270  0.25208  1.0000
  C   C2239     1.0  0.68094  0.60003  0.27241  1.0000
  C   C2240     1.0  0.67806  0.59149  0.29994  1.0000
  C   C2241     1.0  0.66170  0.58589  0.30744  1.0000
  C   C2242     1.0  0.61581  0.61624  0.29633  1.0000
  C   C2243     1.0  0.60593  0.63013  0.30626  1.0000
  S   S313      1.0  0.62258  0.65221  0.37080  1.0000
  C   C2244     1.0  0.59221  0.61225  0.34380  1.0000
  C   C2245     1.0  0.60178  0.59823  0.33348  1.0000
  C   C2246     1.0  0.61647  0.57396  0.26351  1.0000
  C   C2247     1.0  0.59875  0.57576  0.25987  1.0000
  C   C2248     1.0  0.59100  0.57023  0.23312  1.0000
  C   C2249     1.0  0.60085  0.56297  0.20979  1.0000
  C   C2250     1.0  0.61842  0.56076  0.21354  1.0000
  C   C2251     1.0  0.62619  0.56605  0.24042  1.0000
  H   H1787     1.0  0.62337  0.52334  0.33836  1.0000
  H   H1788     1.0  0.62728  0.53223  0.39207  1.0000
  H   H1789     1.0  0.63198  0.58418  0.36288  1.0000
  H   H1790     1.0  0.62324  0.54475  0.29689  1.0000
  H   H1791     1.0  0.64094  0.59954  0.24352  1.0000
  H   H1792     1.0  0.66967  0.60949  0.23082  1.0000
  H   H1793     1.0  0.69351  0.60480  0.26702  1.0000
  H   H1794     1.0  0.65977  0.57942  0.32893  1.0000
  H   H1795     1.0  0.62488  0.61817  0.27804  1.0000
  C   C2252     1.0  0.50813  0.54316  0.45479  1.0000
  C   C2253     1.0  0.49855  0.57952  0.00924  1.0000
  H   H1796     1.0  0.58338  0.61081  0.36271  1.0000
  H   H1797     1.0  0.59962  0.58597  0.34404  1.0000
  H   H1798     1.0  0.59092  0.58166  0.27738  1.0000
  H   H1799     1.0  0.57740  0.57203  0.23004  1.0000
  H   H1800     1.0  0.59493  0.55937  0.18853  1.0000
  H   H1801     1.0  0.62604  0.55525  0.19530  1.0000
  H   H1802     1.0  0.63983  0.56428  0.24284  1.0000
  C   C2254     1.0  0.57422  0.34293  0.37077  1.0000
  C   C2255     1.0  0.55119  0.36354  0.33608  1.0000
  C   C2256     1.0  0.55738  0.37745  0.31939  1.0000
  C   C2257     1.0  0.54937  0.39343  0.32164  1.0000
  C   C2258     1.0  0.53512  0.39564  0.34054  1.0000
  C   C2259     1.0  0.52898  0.38191  0.35752  1.0000
  C   C2260     1.0  0.53709  0.36596  0.35559  1.0000
  C   C2261     1.0  0.69260  0.36412  0.08924  1.0000
  H   H1803     1.0  0.61356  0.39587  0.19554  1.0000
  H   H1804     1.0  0.64102  0.63027  0.45669  1.0000
  H   H1805     1.0  0.70939  0.38919  0.03362  1.0000
  H   H1806     1.0  0.56878  0.37623  0.30549  1.0000
  H   H1807     1.0  0.55461  0.40422  0.30948  1.0000
  H   H1808     1.0  0.52911  0.40811  0.34271  1.0000
  C   C2262     1.0  0.67523  0.61476  0.00307  1.0000
  H   H1809     1.0  0.68997  0.36642  0.24647  1.0000
  C   C2263     1.0  0.57116  0.43812  0.08915  1.0000
  P   P76       1.0  0.58560  0.42021  0.08341  1.0000
  C   C2264     1.0  0.59433  0.41264  0.11917  1.0000
  C   C2265     1.0  0.57398  0.40351  0.06483  1.0000
  C   C2266     1.0  0.57735  0.38628  0.07152  1.0000
  C   C2267     1.0  0.69583  0.34870  0.46517  1.0000
  C   C2268     1.0  0.55245  0.39497  0.02847  1.0000
  Fe  Fe158     1.0  0.64214  0.65496  0.33216  1.0000
  C   C2269     1.0  0.56141  0.40774  0.04324  1.0000
  C   C2270     1.0  0.58669  0.41709  0.14714  1.0000
  C   C2271     1.0  0.59364  0.41107  0.17459  1.0000
  H   H1810     1.0  0.66110  0.59251  0.07860  1.0000
  H   H1811     1.0  0.54149  0.45976  0.45835  1.0000
  C   C2272     1.0  0.60898  0.40212  0.11915  1.0000
  C   C2273     1.0  0.60278  0.42711  0.05888  1.0000
  C   C2274     1.0  0.61723  0.43468  0.07144  1.0000
  C   C2275     1.0  0.62995  0.44121  0.05241  1.0000
  C   C2276     1.0  0.62828  0.44038  0.02074  1.0000
  C   C2277     1.0  0.61396  0.43288  0.00810  1.0000
  C   C2278     1.0  0.60133  0.42616  0.02709  1.0000
  H   H1812     1.0  0.54983  0.42256  0.10262  1.0000
  H   H1813     1.0  0.58718  0.38251  0.08746  1.0000
  S   S314      1.0  0.61144  0.58965  0.46295  1.0000
  C   C2279     1.0  0.70218  0.39299  0.18894  1.0000
  H   H1814     1.0  0.55883  0.42091  0.03725  1.0000
  H   H1815     1.0  0.57542  0.42519  0.14790  1.0000
  C   C2280     1.0  0.60819  0.40056  0.17430  1.0000
  H   H1816     1.0  0.53957  0.47642  0.09951  1.0000
  H   H1817     1.0  0.62084  0.37618  0.45611  1.0000
  H   H1818     1.0  0.61505  0.39845  0.09789  1.0000
  H   H1819     1.0  0.61857  0.43574  0.09592  1.0000
  H   H1820     1.0  0.64107  0.44699  0.06222  1.0000
  H   H1821     1.0  0.73041  0.35982  0.18118  1.0000
  C   C2281     1.0  0.72305  0.64717  0.34458  1.0000
  H   H1822     1.0  0.59059  0.42007  0.01686  1.0000
  C   C2282     1.0  0.55175  0.51798  0.09211  1.0000
  C   C2283     1.0  0.54400  0.53055  0.11007  1.0000
  C   C2284     1.0  0.52711  0.53547  0.10469  1.0000
  C   C2285     1.0  0.51787  0.52759  0.08173  1.0000
  C   C2286     1.0  0.52540  0.51453  0.06406  1.0000
  C   C2287     1.0  0.54259  0.51013  0.06897  1.0000
  C   C2288     1.0  0.71017  0.63925  0.44959  1.0000
  H   H1823     1.0  0.74164  0.63100  0.32211  1.0000
  C   C2289     1.0  0.52255  0.51564  0.45984  1.0000
  H   H1824     1.0  0.56506  0.51467  0.09561  1.0000
  H   H1825     1.0  0.55127  0.53688  0.12749  1.0000
  H   H1826     1.0  0.52125  0.54562  0.11794  1.0000
  C   C2290     1.0  0.64296  0.38965  0.44056  1.0000
  H   H1827     1.0  0.54915  0.50084  0.05499  1.0000
  C   C2291     1.0  0.57083  0.34562  0.27395  1.0000
  C   C2292     1.0  0.72036  0.36780  0.19074  1.0000
  C   C2293     1.0  0.66040  0.39207  0.44437  1.0000
  C   C2294     1.0  0.56935  0.33261  0.39550  1.0000
  H   H1828     1.0  0.53519  0.43613  0.00939  1.0000
  C   C2295     1.0  0.56829  0.37354  0.05684  1.0000
  P   P77       1.0  0.51303  0.50430  0.03479  1.0000
  H   H1829     1.0  0.67135  0.32530  0.47780  1.0000
  C   C2296     1.0  0.53116  0.44900  0.01519  1.0000
  C   C2297     1.0  0.72457  0.33197  0.10204  1.0000
  H   H1830     1.0  0.53127  0.34260  0.42453  1.0000
  H   H1831     1.0  0.63600  0.39712  0.42374  1.0000
  C   C2298     1.0  0.63445  0.37777  0.45868  1.0000
  H   H1832     1.0  0.51083  0.43739  0.46270  1.0000
  H   H1833     1.0  0.58728  0.63917  0.33881  1.0000
  H   H1834     1.0  0.67199  0.58431  0.42474  1.0000
  H   H1835     1.0  0.54312  0.39829  0.01116  1.0000
  C   C2299     1.0  0.55425  0.43537  0.09843  1.0000
  H   H1836     1.0  0.64362  0.62638  0.98397  1.0000
  H   H1837     1.0  0.66691  0.40147  0.43057  1.0000
  C   C2300     1.0  0.49668  0.47401  0.43917  1.0000
  H   H1838     1.0  0.58328  0.48748  0.36958  1.0000
  Fe  Fe159     1.0  0.68479  0.33086  0.16201  1.0000
  C   C2301     1.0  0.71476  0.38187  0.10982  1.0000
  H   H1839     1.0  0.68289  0.35464  0.09261  1.0000
  H   H1840     1.0  0.63040  0.51721  0.01763  1.0000
  S   S315      1.0  0.59497  0.37938  0.98843  1.0000
  H   H1841     1.0  0.57949  0.63596  0.21154  1.0000
  C   C2302     1.0  0.70746  0.38367  0.05604  1.0000
  H   H1842     1.0  0.56150  0.46509  0.37059  1.0000
  H   H1843     1.0  0.50287  0.34449  0.44977  1.0000
  C   C2303     1.0  0.71598  0.38345  0.17704  1.0000
  H   H1844     1.0  0.63147  0.56268  0.40420  1.0000
  P   P78       1.0  0.56239  0.34328  0.33561  1.0000
  C   C2304     1.0  0.54154  0.46269  0.00780  1.0000
  H   H1845     1.0  0.58959  0.45744  0.07753  1.0000
  H   H1846     1.0  0.71335  0.34184  0.42901  1.0000
  C   C2305     1.0  0.57214  0.48891  0.38408  1.0000
  H   H1847     1.0  0.50697  0.44130  0.03340  1.0000
  C   C2306     1.0  0.55990  0.47622  0.38483  1.0000
  H   H1848     1.0  0.59141  0.36253  0.35572  1.0000
  H   H1849     1.0  0.55562  0.51545  0.43764  1.0000
  C   C2307     1.0  0.57662  0.45487  0.08435  1.0000
  C   C2308     1.0  0.58152  0.34340  0.24856  1.0000
  H   H1850     1.0  0.68290  0.38463  0.46896  1.0000
  H   H1851     1.0  0.56959  0.48148  0.08403  1.0000
  C   C2309     1.0  0.52022  0.48249  0.02842  1.0000
  C   C2310     1.0  0.57847  0.33299  0.42282  1.0000
  H   H1852     1.0  0.55507  0.36003  0.44347  1.0000
  H   H1853     1.0  0.69068  0.63029  0.03255  1.0000
  H   H1854     1.0  0.68854  0.58946  0.31558  1.0000
  H   H1855     1.0  0.57127  0.36027  0.06153  1.0000
  H   H1856     1.0  0.62707  0.38781  0.14623  1.0000
  H   H1857     1.0  0.68715  0.36740  0.04157  1.0000
  H   H1858     1.0  0.51937  0.54033  0.02019  1.0000
  C   C2311     1.0  0.59697  0.35441  0.40146  1.0000
  C   C2312     1.0  0.74033  0.42242  0.14725  1.0000
  S   S316      1.0  0.57816  0.56148  0.00237  1.0000
  H   H1859     1.0  0.68218  0.39418  0.22293  1.0000
  H   H1860     1.0  0.73738  0.63613  0.44488  1.0000
  H   H1861     1.0  0.57714  0.34702  0.22602  1.0000
  H   H1862     1.0  0.53253  0.35561  0.36967  1.0000
  H   H1863     1.0  0.71418  0.34936  0.22543  1.0000
  C   C2313     1.0  0.67933  0.61646  0.37425  1.0000
  C   C2314     1.0  0.70252  0.36922  0.11382  1.0000
  H   H1864     1.0  0.49849  0.55123  0.44420  1.0000
  C   C2315     1.0  0.69501  0.37135  0.06041  1.0000
  C   C2316     1.0  0.50130  0.41178  0.41145  1.0000
  C   C2317     1.0  0.66398  0.60103  0.00259  1.0000
  H   H1865     1.0  0.55807  0.35074  0.27073  1.0000
  C   C2318     1.0  0.51521  0.45195  0.02865  1.0000
  C   C2319     1.0  0.51526  0.51578  0.99923  1.0000
  C   C2320     1.0  0.59306  0.33417  0.30667  1.0000
  H   H1866     1.0  0.67828  0.58919  0.37000  1.0000
  H   H1867     1.0  0.50139  0.52111  0.42946  1.0000
  C   C2321     1.0  0.49356  0.56920  0.06944  1.0000
  C   C2322     1.0  0.56524  0.46861  0.08803  1.0000
  C   C2323     1.0  0.54837  0.46576  0.09673  1.0000
  C   C2324     1.0  0.73944  0.63991  0.34050  1.0000
  C   C2325     1.0  0.57029  0.50313  0.40286  1.0000
  H   H1868     1.0  0.67041  0.60840  0.46010  1.0000
  H   H1869     1.0  0.60736  0.36320  0.40397  1.0000
  C   C2326     1.0  0.65887  0.59311  0.02969  1.0000
  H   H1870     1.0  0.57998  0.51279  0.40282  1.0000
  C   C2327     1.0  0.69749  0.37137  0.22765  1.0000
  P   P79       1.0  0.52559  0.49363  0.44867  1.0000
  C   C2328     1.0  0.51339  0.35177  0.45842  1.0000
  C   C2329     1.0  0.67369  0.59714  0.41614  1.0000
  H   H1871     1.0  0.68178  0.61605  0.07998  1.0000
  H   H1872     1.0  0.70051  0.36328  0.13584  1.0000
  C   C2330     1.0  0.55638  0.50453  0.42282  1.0000
  H   H1873     1.0  0.73323  0.33505  0.05548  1.0000
  C   C2331     1.0  0.52933  0.35079  0.44406  1.0000
  C   C2332     1.0  0.54587  0.47763  0.40452  1.0000
  H   H1874     1.0  0.70015  0.41436  0.12240  1.0000
  C   C2333     1.0  0.53610  0.47935  0.01420  1.0000
  H   H1875     1.0  0.53661  0.46754  0.40482  1.0000
  H   H1876     1.0  0.49700  0.47045  0.04417  1.0000
  C   C2334     1.0  0.67260  0.61091  0.43610  1.0000
  H   H1877     1.0  0.66933  0.65596  0.17724  1.0000
  C   C2335     1.0  0.66524  0.59855  0.05757  1.0000
  H   H1878     1.0  0.64966  0.58295  0.02902  1.0000
  C   C2336     1.0  0.71116  0.36181  0.21592  1.0000
  C   C2337     1.0  0.58032  0.50904  0.98614  1.0000
  C   C2338     1.0  0.69752  0.65412  0.98984  1.0000
  C   C2339     1.0  0.50967  0.46860  0.03499  1.0000
  C   C2340     1.0  0.67796  0.63032  0.39405  1.0000
  H   H1879     1.0  0.68234  0.61858  0.35040  1.0000
  C   C2341     1.0  0.68180  0.61997  0.03122  1.0000
  H   H1880     1.0  0.63809  0.44548  0.00595  1.0000
  C   C2342     1.0  0.54397  0.49183  0.42370  1.0000
  C   C2343     1.0  0.55593  0.37787  0.03521  1.0000
  H   H1881     1.0  0.51821  0.38384  0.37280  1.0000
  C   C2344     1.0  0.51810  0.53338  0.99907  1.0000
  H   H1882     1.0  0.59804  0.64646  0.41846  1.0000
  C   C2345     1.0  0.54288  0.44915  0.10202  1.0000
  H   H1883     1.0  0.54419  0.48979  0.00733  1.0000
  C   C2346     1.0  0.50545  0.49183  0.39676  1.0000
  C   C2347     1.0  0.72606  0.41287  0.13924  1.0000
  H   H1884     1.0  0.68000  0.64302  0.38512  1.0000
  H   H1885     1.0  0.52982  0.44693  0.10888  1.0000
  C   C2348     1.0  0.59067  0.50724  0.47868  1.0000
  H   H1886     1.0  0.55369  0.46042  0.99646  1.0000
  C   C2349     1.0  0.59433  0.62820  0.33024  1.0000
  H   H1887     1.0  0.60757  0.64252  0.29588  1.0000
  C   C2350     1.0  0.53124  0.32786  0.32366  1.0000
  C   C2351     1.0  0.51884  0.54996  0.47678  1.0000
  C   C2352     1.0  0.72513  0.44858  0.13443  1.0000
  C   C2353     1.0  0.72932  0.33021  0.13262  1.0000
  H   H1888     1.0  0.63982  0.65835  0.44010  1.0000
  S   S317      1.0  0.63485  0.33219  0.16493  1.0000
  H   H1889     1.0  0.59914  0.34441  0.44713  1.0000
  S   S318      1.0  0.70633  0.64099  0.31958  1.0000
  H   H1890     1.0  0.60640  0.33509  0.23269  1.0000
  C   C2354     1.0  0.50504  0.42818  0.47792  1.0000
  H   H1891     1.0  0.68481  0.34807  0.45049  1.0000
  C   C2355     1.0  0.58739  0.47425  0.99595  1.0000
  C   C2356     1.0  0.59230  0.34384  0.42575  1.0000
  C   C2357     1.0  0.72709  0.64343  0.45534  1.0000
  H   H1892     1.0  0.59195  0.64061  0.16025  1.0000
  H   H1893     1.0  0.73903  0.34376  0.46163  1.0000
  C   C2358     1.0  0.59389  0.64990  0.17808  1.0000
  H   H1894     1.0  0.59603  0.51967  0.47473  1.0000
  H   H1895     1.0  0.72672  0.39868  0.07705  1.0000
  H   H1896     1.0  0.63527  0.54746  0.00367  1.0000
  H   H1897     1.0  0.59032  0.46093  0.99992  1.0000
  C   C2359     1.0  0.73713  0.33348  0.07897  1.0000
  C   C2360     1.0  0.66941  0.38247  0.46606  1.0000
  H   H1898     1.0  0.65873  0.59672  0.98136  1.0000
  S   S319      1.0  0.61961  0.58859  0.98197  1.0000
  C   C2361     1.0  0.60364  0.33185  0.28121  1.0000
  H   H1899     1.0  0.52622  0.34042  0.31819  1.0000
  H   H1900     1.0  0.71121  0.33218  0.09615  1.0000
  Fe  Fe160     1.0  0.67903  0.65099  0.31116  1.0000
  H   H1901     1.0  0.68531  0.65812  0.99929  1.0000
  C   C2362     1.0  0.63087  0.53862  0.98665  1.0000
  C   C2363     1.0  0.71201  0.34522  0.45284  1.0000
  H   H1902     1.0  0.58480  0.65654  0.25301  1.0000
  H   H1903     1.0  0.59779  0.33038  0.32885  1.0000
  C   C2364     1.0  0.73984  0.44019  0.14484  1.0000
  C   C2365     1.0  0.49841  0.39667  0.42766  1.0000
  C   C2366     1.0  0.54021  0.37142  0.47954  1.0000
  C   C2367     1.0  0.53658  0.46435  0.47997  1.0000
  C   C2368     1.0  0.54824  0.32550  0.33285  1.0000
  C   C2369     1.0  0.64340  0.36813  0.48043  1.0000
  Fe  Fe161     1.0  0.64229  0.35093  0.63275  1.0000
  S   S320      1.0  0.65863  0.35985  0.67164  1.0000
  S   S321      1.0  0.63296  0.37240  0.60091  1.0000
  Fe  Fe162     1.0  0.64286  0.34274  0.70174  1.0000
  S   S322      1.0  0.63400  0.34929  0.75129  1.0000
  S   S323      1.0  0.66326  0.65755  0.84492  1.0000
  C   C2370     1.0  0.69394  0.35317  0.49603  1.0000
  C   C2371     1.0  0.71971  0.65029  0.86954  1.0000
  Fe  Fe163     1.0  0.57909  0.55028  0.53137  1.0000
  C   C2372     1.0  0.66514  0.65238  0.93490  1.0000
  S   S324      1.0  0.57433  0.52130  0.53011  1.0000
  Fe  Fe164     1.0  0.58929  0.58151  0.57235  1.0000
  S   S325      1.0  0.57947  0.60023  0.53674  1.0000
  S   S326      1.0  0.60230  0.58707  0.61930  1.0000
  Fe  Fe165     1.0  0.55677  0.58266  0.53163  1.0000
  S   S327      1.0  0.52903  0.59226  0.52458  1.0000
  C   C2373     1.0  0.50097  0.41327  0.89907  1.0000
  S   S328      1.0  0.58643  0.37438  0.48161  1.0000
  S   S329      1.0  0.56572  0.56507  0.56909  1.0000
  S   S330      1.0  0.60323  0.56512  0.53750  1.0000
  Fe  Fe166     1.0  0.58595  0.40008  0.95470  1.0000
  S   S331      1.0  0.60012  0.41640  0.92039  1.0000
  C   C2374     1.0  0.59562  0.62913  0.73804  1.0000
  Fe  Fe167     1.0  0.55049  0.41154  0.93064  1.0000
  S   S332      1.0  0.56233  0.42815  0.89465  1.0000
  S   S333      1.0  0.52300  0.41036  0.94872  1.0000
  Fe  Fe168     1.0  0.58143  0.40658  0.88579  1.0000
  S   S334      1.0  0.58763  0.39985  0.83513  1.0000
  Fe  Fe169     1.0  0.58010  0.43675  0.93156  1.0000
  S   S335      1.0  0.58260  0.46584  0.93475  1.0000
  S   S336      1.0  0.56811  0.38944  0.91963  1.0000
  H   H1904     1.0  0.50473  0.35197  0.86205  1.0000
  Fe  Fe170     1.0  0.65008  0.64438  0.76135  1.0000
  C   C2375     1.0  0.58335  0.59804  0.83442  1.0000
  S   S337      1.0  0.63900  0.63912  0.71269  1.0000
  C   C2376     1.0  0.54068  0.39345  0.54208  1.0000
  C   C2377     1.0  0.73316  0.65449  0.88938  1.0000
  Fe  Fe171     1.0  0.64133  0.64149  0.83025  1.0000
  S   S338      1.0  0.61869  0.63285  0.85934  1.0000
  S   S339      1.0  0.65724  0.62536  0.79826  1.0000
  C   C2378     1.0  0.62064  0.53336  0.93540  1.0000
  H   H1905     1.0  0.56404  0.37269  0.85463  1.0000
  C   C2379     1.0  0.50289  0.47040  0.89869  1.0000
  H   H1906     1.0  0.54591  0.60257  0.69073  1.0000
  Fe  Fe172     1.0  0.67885  0.64303  0.81042  1.0000
  C   C2380     1.0  0.62031  0.57145  0.86687  1.0000
  P   P80       1.0  0.56575  0.33575  0.84926  1.0000
  H   H1907     1.0  0.60680  0.57257  0.86240  1.0000
  H   H1908     1.0  0.51221  0.41460  0.88491  1.0000
  C   C2381     1.0  0.63574  0.62698  0.50426  1.0000
  C   C2382     1.0  0.50853  0.58341  0.53265  1.0000
  S   S340      1.0  0.62586  0.33464  0.66314  1.0000
  C   C2383     1.0  0.65079  0.33639  0.54359  1.0000
  C   C2384     1.0  0.59173  0.62256  0.76709  1.0000
  H   H1909     1.0  0.51757  0.56207  0.55930  1.0000
  C   C2385     1.0  0.61894  0.60110  0.94807  1.0000
  C   C2386     1.0  0.60413  0.60966  0.93848  1.0000
  C   C2387     1.0  0.60428  0.61943  0.91135  1.0000
  C   C2388     1.0  0.61932  0.62111  0.89401  1.0000
  C   C2389     1.0  0.63418  0.61286  0.90393  1.0000
  C   C2390     1.0  0.63386  0.60254  0.93029  1.0000
  H   H1910     1.0  0.59258  0.60876  0.95198  1.0000
  H   H1911     1.0  0.59273  0.62587  0.90393  1.0000
  H   H1912     1.0  0.64582  0.61410  0.89087  1.0000
  H   H1913     1.0  0.64527  0.59561  0.93670  1.0000
  C   C2391     1.0  0.61275  0.60189  0.64441  1.0000
  C   C2392     1.0  0.61310  0.61953  0.63905  1.0000
  C   C2393     1.0  0.62125  0.63056  0.65987  1.0000
  C   C2394     1.0  0.62929  0.62432  0.68655  1.0000
  C   C2395     1.0  0.62917  0.60665  0.69156  1.0000
  C   C2396     1.0  0.62093  0.59564  0.67092  1.0000
  H   H1914     1.0  0.60700  0.62472  0.61892  1.0000
  H   H1915     1.0  0.62123  0.64410  0.65528  1.0000
  H   H1916     1.0  0.63576  0.60137  0.71099  1.0000
  H   H1917     1.0  0.62112  0.58208  0.67533  1.0000
  C   C2397     1.0  0.57983  0.50471  0.50374  1.0000
  C   C2398     1.0  0.57320  0.48832  0.50851  1.0000
  C   C2399     1.0  0.59710  0.64666  0.73346  1.0000
  C   C2400     1.0  0.57492  0.34468  0.90810  1.0000
  C   C2401     1.0  0.53117  0.34479  0.85548  1.0000
  H   H1918     1.0  0.55162  0.36800  0.54572  1.0000
  H   H1919     1.0  0.56497  0.48609  0.52795  1.0000
  S   S341      1.0  0.66067  0.32964  0.62064  1.0000
  H   H1920     1.0  0.57536  0.50164  0.93969  1.0000
  H   H1921     1.0  0.61257  0.35250  0.94293  1.0000
  C   C2402     1.0  0.62141  0.36398  0.77403  1.0000
  C   C2403     1.0  0.61055  0.37643  0.76129  1.0000
  C   C2404     1.0  0.60036  0.38712  0.78026  1.0000
  C   C2405     1.0  0.60096  0.38584  0.81239  1.0000
  C   C2406     1.0  0.61213  0.37370  0.82513  1.0000
  C   C2407     1.0  0.62213  0.36282  0.80616  1.0000
  H   H1922     1.0  0.60961  0.37754  0.73679  1.0000
  H   H1923     1.0  0.59189  0.39646  0.76992  1.0000
  H   H1924     1.0  0.61305  0.37268  0.84965  1.0000
  H   H1925     1.0  0.63048  0.35337  0.81651  1.0000
  C   C2408     1.0  0.62055  0.37239  0.56706  1.0000
  C   C2409     1.0  0.61872  0.38763  0.55022  1.0000
  C   C2410     1.0  0.60856  0.38844  0.52377  1.0000
  C   C2411     1.0  0.60008  0.37398  0.51386  1.0000
  C   C2412     1.0  0.60209  0.35868  0.53046  1.0000
  C   C2413     1.0  0.61220  0.35789  0.55696  1.0000
  H   H1926     1.0  0.62514  0.39892  0.55777  1.0000
  H   H1927     1.0  0.60717  0.40029  0.51123  1.0000
  H   H1928     1.0  0.59557  0.34742  0.52306  1.0000
  H   H1929     1.0  0.61332  0.34614  0.56983  1.0000
  S   S342      1.0  0.56746  0.42109  0.96771  1.0000
  C   C2414     1.0  0.72091  0.33690  0.63430  1.0000
  S   S343      1.0  0.56931  0.56743  0.49398  1.0000
  C   C2415     1.0  0.62715  0.54447  0.95723  1.0000
  C   C2416     1.0  0.56594  0.58454  0.67991  1.0000
  C   C2417     1.0  0.56421  0.60035  0.72714  1.0000
  C   C2418     1.0  0.66185  0.33795  0.51845  1.0000
  C   C2419     1.0  0.49381  0.59169  0.52117  1.0000
  C   C2420     1.0  0.54800  0.35053  0.85338  1.0000
  C   C2421     1.0  0.52446  0.37199  0.49480  1.0000
  C   C2422     1.0  0.51522  0.41583  0.49229  1.0000
  C   C2423     1.0  0.65752  0.63618  0.53895  1.0000
  H   H1930     1.0  0.50754  0.47370  0.87614  1.0000
  C   C2424     1.0  0.55112  0.36801  0.85595  1.0000
  C   C2425     1.0  0.53763  0.37959  0.86055  1.0000
  C   C2426     1.0  0.52093  0.37379  0.86275  1.0000
  C   C2427     1.0  0.51770  0.35641  0.86013  1.0000
  H   H1931     1.0  0.52505  0.45494  0.90978  1.0000
  C   C2428     1.0  0.49530  0.63054  0.57850  1.0000
  C   C2429     1.0  0.73813  0.33940  0.64172  1.0000
  H   H1932     1.0  0.49843  0.36323  0.49423  1.0000
  C   C2430     1.0  0.59849  0.34104  0.87264  1.0000
  H   H1933     1.0  0.54019  0.39305  0.86281  1.0000
  S   S344      1.0  0.70606  0.63273  0.81978  1.0000
  H   H1934     1.0  0.51421  0.50936  0.92238  1.0000
  C   C2431     1.0  0.55770  0.58738  0.85817  1.0000
  C   C2432     1.0  0.57154  0.40398  0.56738  1.0000
  C   C2433     1.0  0.55880  0.41600  0.56040  1.0000
  C   C2434     1.0  0.59473  0.65783  0.75780  1.0000
  H   H1935     1.0  0.58365  0.40800  0.57645  1.0000
  H   H1936     1.0  0.59590  0.60346  0.83683  1.0000
  H   H1937     1.0  0.68896  0.60836  0.86059  1.0000
  H   H1938     1.0  0.62343  0.34565  0.89093  1.0000
  C   C2435     1.0  0.62680  0.55814  0.88512  1.0000
  C   C2436     1.0  0.57945  0.59257  0.73716  1.0000
  H   H1939     1.0  0.66899  0.56761  0.88073  1.0000
  H   H1940     1.0  0.57241  0.46216  0.49294  1.0000
  H   H1941     1.0  0.52682  0.60170  0.59482  1.0000
  C   C2437     1.0  0.51277  0.45984  0.91757  1.0000
  C   C2438     1.0  0.51171  0.62346  0.58077  1.0000
  P   P81       1.0  0.52084  0.38629  0.52631  1.0000
  C   C2439     1.0  0.59983  0.51571  0.82328  1.0000
  H   H1942     1.0  0.60067  0.65150  0.71114  1.0000
  C   C2440     1.0  0.66102  0.37024  0.48392  1.0000
  C   C2441     1.0  0.57813  0.53862  0.90993  1.0000
  H   H1943     1.0  0.54585  0.44223  0.50421  1.0000
  H   H1944     1.0  0.65730  0.59138  0.84915  1.0000
  H   H1945     1.0  0.52255  0.63010  0.57130  1.0000
  C   C2442     1.0  0.64163  0.62894  0.53398  1.0000
  C   C2443     1.0  0.55745  0.59627  0.69869  1.0000
  C   C2444     1.0  0.50193  0.38502  0.58014  1.0000
  C   C2445     1.0  0.63132  0.58341  0.85409  1.0000
  C   C2446     1.0  0.72266  0.63918  0.84510  1.0000
  C   C2447     1.0  0.49411  0.37679  0.60479  1.0000
  C   C2448     1.0  0.70862  0.35444  0.51409  1.0000
  C   C2449     1.0  0.58106  0.57674  0.68970  1.0000
  C   C2450     1.0  0.51774  0.53368  0.94381  1.0000
  H   H1946     1.0  0.52138  0.55587  0.97161  1.0000
  C   C2451     1.0  0.52488  0.47577  0.53677  1.0000
  C   C2452     1.0  0.53337  0.46007  0.53448  1.0000
  H   H1947     1.0  0.62357  0.62101  0.50030  1.0000
  H   H1948     1.0  0.66215  0.63744  0.56205  1.0000
  H   H1949     1.0  0.62630  0.59395  0.84059  1.0000
  H   H1950     1.0  0.70788  0.35823  0.53770  1.0000
  C   C2453     1.0  0.50018  0.59847  0.60525  1.0000
  C   C2454     1.0  0.64445  0.55674  0.88980  1.0000
  C   C2455     1.0  0.69897  0.63898  0.97308  1.0000
  C   C2456     1.0  0.59185  0.54985  0.90908  1.0000
  C   C2457     1.0  0.55341  0.38144  0.54983  1.0000
  C   C2458     1.0  0.63478  0.65850  0.93442  1.0000
  H   H1951     1.0  0.50003  0.44427  0.53888  1.0000
  H   H1952     1.0  0.50150  0.39880  0.57886  1.0000
  H   H1953     1.0  0.52059  0.48037  0.55881  1.0000
  H   H1954     1.0  0.53579  0.45253  0.55479  1.0000
  C   C2459     1.0  0.68214  0.36964  0.60051  1.0000
  C   C2460     1.0  0.64886  0.58200  0.85896  1.0000
  C   C2461     1.0  0.68082  0.36095  0.57293  1.0000
  C   C2462     1.0  0.50271  0.41126  0.93062  1.0000
  P   P82       1.0  0.61289  0.54192  0.89976  1.0000
  H   H1955     1.0  0.62875  0.55782  0.95189  1.0000
  C   C2463     1.0  0.55981  0.56087  0.93071  1.0000
  H   H1956     1.0  0.55788  0.60999  0.74092  1.0000
  H   H1957     1.0  0.63350  0.49068  0.84486  1.0000
  H   H1958     1.0  0.55188  0.53517  0.92237  1.0000
  H   H1959     1.0  0.60001  0.57509  0.72432  1.0000
  C   C2464     1.0  0.60989  0.34517  0.89579  1.0000
  C   C2465     1.0  0.57099  0.35054  0.79163  1.0000
  H   H1960     1.0  0.51872  0.54063  0.92248  1.0000
  P   P83       1.0  0.68051  0.62583  0.96790  1.0000
  C   C2466     1.0  0.66987  0.39488  0.57689  1.0000
  P   P84       1.0  0.67284  0.35771  0.51146  1.0000
  C   C2467     1.0  0.51416  0.60745  0.59418  1.0000
  C   C2468     1.0  0.61765  0.51635  0.94361  1.0000
  C   C2469     1.0  0.57809  0.35106  0.76231  1.0000
  C   C2470     1.0  0.53124  0.53963  0.49062  1.0000
  C   C2471     1.0  0.50659  0.45510  0.94624  1.0000
  C   C2472     1.0  0.71685  0.33340  0.60399  1.0000
  C   C2473     1.0  0.58941  0.63391  0.79150  1.0000
  H   H1961     1.0  0.61157  0.50775  0.92799  1.0000
  H   H1962     1.0  0.66330  0.39290  0.52974  1.0000
  C   C2474     1.0  0.59089  0.65145  0.78681  1.0000
  H   H1963     1.0  0.57904  0.59727  0.88284  1.0000
  H   H1964     1.0  0.53858  0.57832  0.82749  1.0000
  C   C2475     1.0  0.50645  0.56868  0.55039  1.0000
  C   C2476     1.0  0.67655  0.38657  0.60256  1.0000
  C   C2477     1.0  0.68377  0.61529  0.90722  1.0000
  C   C2478     1.0  0.51094  0.36236  0.48367  1.0000
  C   C2479     1.0  0.58636  0.34861  0.93120  1.0000
  C   C2480     1.0  0.65541  0.56868  0.87685  1.0000
  C   C2481     1.0  0.57384  0.59445  0.86063  1.0000
  H   H1965     1.0  0.51049  0.38273  0.86672  1.0000
  H   H1966     1.0  0.61144  0.49293  0.80471  1.0000
  C   C2482     1.0  0.60013  0.52769  0.84675  1.0000
  C   C2483     1.0  0.62420  0.50104  0.84536  1.0000
  H   H1967     1.0  0.53344  0.42017  0.54387  1.0000
  C   C2484     1.0  0.56217  0.54413  0.92067  1.0000
  H   H1968     1.0  0.71654  0.62263  0.94763  1.0000
  H   H1969     1.0  0.51402  0.44637  0.96021  1.0000
  H   H1970     1.0  0.56103  0.42939  0.56432  1.0000
  C   C2485     1.0  0.61229  0.52621  0.87002  1.0000
  C   C2486     1.0  0.69289  0.59480  0.94554  1.0000
  H   H1971     1.0  0.60015  0.57503  0.92107  1.0000
  C   C2487     1.0  0.69123  0.44522  0.69418  1.0000
  C   C2488     1.0  0.69644  0.45520  0.71857  1.0000
  C   C2489     1.0  0.69065  0.45162  0.74809  1.0000
  C   C2490     1.0  0.67960  0.43809  0.75326  1.0000
  C   C2491     1.0  0.67417  0.42808  0.72883  1.0000
  C   C2492     1.0  0.68020  0.43168  0.69927  1.0000
  P   P85       1.0  0.66042  0.41013  0.73544  1.0000
  C   C2493     1.0  0.67303  0.39060  0.73541  1.0000
  C   C2494     1.0  0.64933  0.41255  0.77149  1.0000
  C   C2495     1.0  0.65736  0.40778  0.79887  1.0000
  C   C2496     1.0  0.64861  0.40916  0.82667  1.0000
  C   C2497     1.0  0.63189  0.41554  0.82739  1.0000
  C   C2498     1.0  0.62396  0.42069  0.80035  1.0000
  C   C2499     1.0  0.63259  0.41916  0.77248  1.0000
  C   C2500     1.0  0.66776  0.37650  0.75268  1.0000
  C   C2501     1.0  0.67684  0.36105  0.75133  1.0000
  C   C2502     1.0  0.69125  0.35951  0.73266  1.0000
  C   C2503     1.0  0.69665  0.37345  0.71545  1.0000
  C   C2504     1.0  0.68760  0.38893  0.71675  1.0000
  C   C2505     1.0  0.64469  0.40875  0.70563  1.0000
  C   C2506     1.0  0.64004  0.42309  0.68802  1.0000
  C   C2507     1.0  0.62864  0.42150  0.66380  1.0000
  C   C2508     1.0  0.62158  0.40570  0.65741  1.0000
  C   C2509     1.0  0.62550  0.39162  0.67579  1.0000
  C   C2510     1.0  0.63686  0.39317  0.70000  1.0000
  H   H1972     1.0  0.69583  0.44791  0.67131  1.0000
  H   H1973     1.0  0.70506  0.46565  0.71462  1.0000
  H   H1974     1.0  0.69480  0.45929  0.76703  1.0000
  H   H1975     1.0  0.67540  0.43549  0.77634  1.0000
  H   H1976     1.0  0.67644  0.42395  0.68013  1.0000
  H   H1977     1.0  0.67028  0.40271  0.79869  1.0000
  H   H1978     1.0  0.65465  0.40500  0.84763  1.0000
  H   H1979     1.0  0.62486  0.41614  0.84876  1.0000
  H   H1980     1.0  0.61084  0.42523  0.80099  1.0000
  H   H1981     1.0  0.62600  0.42284  0.75180  1.0000
  H   H1982     1.0  0.65630  0.37719  0.76652  1.0000
  H   H1983     1.0  0.67232  0.35012  0.76405  1.0000
  H   H1984     1.0  0.69803  0.34741  0.73091  1.0000
  H   H1985     1.0  0.70763  0.37204  0.70044  1.0000
  H   H1986     1.0  0.69189  0.39933  0.70267  1.0000
  H   H1987     1.0  0.64525  0.43545  0.69275  1.0000
  H   H1988     1.0  0.62540  0.43247  0.64976  1.0000
  H   H1989     1.0  0.61316  0.40427  0.63811  1.0000
  H   H1990     1.0  0.62002  0.37936  0.67083  1.0000
  H   H1991     1.0  0.63969  0.38210  0.71402  1.0000
  C   C2511     1.0  0.55105  0.58390  0.82940  1.0000
  H   H1992     1.0  0.66512  0.40786  0.57869  1.0000
  C   C2512     1.0  0.57661  0.59499  0.80539  1.0000
  C   C2513     1.0  0.56046  0.58769  0.80305  1.0000
  P   P86       1.0  0.58923  0.59983  0.77193  1.0000
  H   H1993     1.0  0.59089  0.53809  0.84674  1.0000
  C   C2514     1.0  0.60935  0.58878  0.77693  1.0000
  C   C2515     1.0  0.62477  0.59670  0.76988  1.0000
  C   C2516     1.0  0.64014  0.58747  0.77174  1.0000
  C   C2517     1.0  0.64025  0.57046  0.78125  1.0000
  C   C2518     1.0  0.62495  0.56258  0.78884  1.0000
  C   C2519     1.0  0.60954  0.57169  0.78662  1.0000
  H   H1994     1.0  0.57993  0.52542  0.90347  1.0000
  H   H1995     1.0  0.55512  0.58478  0.78105  1.0000
  H   H1996     1.0  0.58668  0.62947  0.81429  1.0000
  H   H1997     1.0  0.57185  0.58480  0.93920  1.0000
  H   H1998     1.0  0.62496  0.60986  0.76226  1.0000
  H   H1999     1.0  0.65199  0.59349  0.76535  1.0000
  H   H2000     1.0  0.65221  0.56341  0.78269  1.0000
  H   H2001     1.0  0.62505  0.54940  0.79632  1.0000
  H   H2002     1.0  0.59774  0.56534  0.79203  1.0000
  C   C2520     1.0  0.58948  0.56653  0.91964  1.0000
  H   H2003     1.0  0.54768  0.56500  0.94030  1.0000
  C   C2521     1.0  0.58089  0.34081  0.87863  1.0000
  H   H2004     1.0  0.63444  0.51200  0.88592  1.0000
  C   C2522     1.0  0.57901  0.49722  0.96213  1.0000
  H   H2005     1.0  0.57493  0.36152  0.74706  1.0000
  H   H2006     1.0  0.73602  0.35214  0.51572  1.0000
  H   H2007     1.0  0.56113  0.58181  0.65734  1.0000
  C   C2523     1.0  0.63229  0.64595  0.95660  1.0000
  C   C2524     1.0  0.57346  0.57208  0.93004  1.0000
  H   H2008     1.0  0.70704  0.65549  0.87338  1.0000
  H   H2009     1.0  0.68474  0.34772  0.57186  1.0000
  H   H2010     1.0  0.59029  0.51675  0.80557  1.0000
  H   H2011     1.0  0.57856  0.37740  0.56828  1.0000
  Fe  Fe173     1.0  0.67575  0.33726  0.66141  1.0000
  H   H2012     1.0  0.64884  0.34685  0.55926  1.0000
  H   H2013     1.0  0.58794  0.56815  0.67452  1.0000
  H   H2014     1.0  0.51575  0.49795  0.51311  1.0000
  H   H2015     1.0  0.64977  0.54638  0.90330  1.0000
  C   C2525     1.0  0.62459  0.51304  0.86877  1.0000
  H   H2016     1.0  0.67998  0.64649  0.51876  1.0000
  H   H2017     1.0  0.67707  0.39310  0.62421  1.0000
  H   H2018     1.0  0.58166  0.35176  0.95381  1.0000
  H   H2019     1.0  0.55036  0.58462  0.87857  1.0000
  H   H2020     1.0  0.56222  0.36060  0.79835  1.0000
  C   C2526     1.0  0.72922  0.64409  0.96593  1.0000
  S   S345      1.0  0.70501  0.33861  0.66356  1.0000
  H   H2021     1.0  0.63398  0.62459  0.55311  1.0000
  C   C2527     1.0  0.50780  0.40329  0.51078  1.0000
  C   C2528     1.0  0.51034  0.37550  0.55742  1.0000
  C   C2529     1.0  0.58785  0.58074  0.71813  1.0000
  C   C2530     1.0  0.61178  0.50232  0.82271  1.0000
  C   C2531     1.0  0.56871  0.38671  0.56258  1.0000
  C   C2532     1.0  0.67438  0.36924  0.54691  1.0000
  C   C2533     1.0  0.66880  0.38628  0.54911  1.0000
  Fe  Fe174     1.0  0.59258  0.58332  0.50185  1.0000
  H   H2022     1.0  0.50205  0.58580  0.61469  1.0000
  C   C2534     1.0  0.69735  0.58876  0.89192  1.0000
  H   H2023     1.0  0.67847  0.62750  0.90051  1.0000
  H   H2024     1.0  0.59773  0.62071  0.71886  1.0000
  H   H2025     1.0  0.70236  0.58057  0.87407  1.0000
  H   H2026     1.0  0.51766  0.56327  0.48295  1.0000
  C   C2535     1.0  0.68975  0.60440  0.88430  1.0000
  H   H2027     1.0  0.49480  0.52422  0.51280  1.0000
  C   C2536     1.0  0.60382  0.34899  0.92504  1.0000
  H   H2028     1.0  0.72622  0.33121  0.55782  1.0000
  H   H2029     1.0  0.60351  0.33842  0.85012  1.0000
  C   C2537     1.0  0.54329  0.41074  0.54830  1.0000
  C   C2538     1.0  0.71494  0.63409  0.96098  1.0000
  C   C2539     1.0  0.72966  0.33351  0.58119  1.0000
  C   C2540     1.0  0.51134  0.35769  0.56023  1.0000
  H   H2030     1.0  0.49523  0.60294  0.50713  1.0000
  H   H2031     1.0  0.68723  0.36314  0.62044  1.0000
  H   H2032     1.0  0.49365  0.64290  0.56774  1.0000
  C   C2541     1.0  0.50351  0.34950  0.58490  1.0000
  H   H2033     1.0  0.63650  0.35921  0.49460  1.0000
  C   C2542     1.0  0.66268  0.63926  0.95636  1.0000
  H   H2034     1.0  0.50429  0.33575  0.58694  1.0000
  C   C2543     1.0  0.53899  0.45426  0.50604  1.0000
  C   C2544     1.0  0.66756  0.64143  0.51420  1.0000
  H   H2035     1.0  0.51831  0.35010  0.54364  1.0000
  C   C2545     1.0  0.51514  0.51612  0.94376  1.0000
  H   H2036     1.0  0.49667  0.44546  0.59517  1.0000
  H   H2037     1.0  0.56140  0.34480  0.91325  1.0000
  C   C2546     1.0  0.58272  0.47979  0.96673  1.0000
  C   C2547     1.0  0.68528  0.61060  0.93811  1.0000
  C   C2548     1.0  0.57723  0.47472  0.48855  1.0000
  C   C2549     1.0  0.69877  0.58389  0.92252  1.0000
  C   C2550     1.0  0.66166  0.63967  0.48418  1.0000
  H   H2038     1.0  0.61951  0.64315  0.96449  1.0000
  C   C2551     1.0  0.72476  0.35103  0.50164  1.0000
  H   H2039     1.0  0.69479  0.59111  0.96913  1.0000
  C   C2552     1.0  0.64614  0.63636  0.96756  1.0000
  C   C2553     1.0  0.49485  0.35903  0.60710  1.0000
  H   H2040     1.0  0.55058  0.37938  0.48659  1.0000
  C   C2554     1.0  0.52228  0.48581  0.51072  1.0000
  H   H2041     1.0  0.70488  0.57185  0.92844  1.0000
  C   C2555     1.0  0.73934  0.63263  0.84073  1.0000
  H   H2042     1.0  0.70383  0.33073  0.59815  1.0000
  H   H2043     1.0  0.74186  0.62403  0.82199  1.0000
  H   H2044     1.0  0.59585  0.33930  0.73080  1.0000
  C   C2556     1.0  0.58982  0.33851  0.75308  1.0000
  H   H2045     1.0  0.53954  0.54487  0.50776  1.0000
  H   H2046     1.0  0.67775  0.65491  0.92588  1.0000
  H   H2047     1.0  0.73896  0.65547  0.77240  1.0000
  H   H2048     1.0  0.74150  0.34194  0.66512  1.0000
  H   H2049     1.0  0.52835  0.33140  0.85395  1.0000
  C   C2557     1.0  0.57541  0.33725  0.81182  1.0000
  H   H2050     1.0  0.54320  0.51493  0.49255  1.0000
  H   H2051     1.0  0.52881  0.41560  0.48776  1.0000
  C   C2558     1.0  0.51367  0.50723  0.97135  1.0000
  C   C2559     1.0  0.51923  0.54227  0.97144  1.0000
  H   H2052     1.0  0.51132  0.49368  0.97082  1.0000
  C   C2560     1.0  0.53319  0.52261  0.48206  1.0000
  C   C2561     1.0  0.52850  0.48038  0.48220  1.0000
  C   C2562     1.0  0.59434  0.32531  0.77305  1.0000
  H   H2053     1.0  0.74149  0.64030  0.95633  1.0000
  C   C2563     1.0  0.62175  0.51043  0.97285  1.0000
  H   H2054     1.0  0.61909  0.49739  0.97925  1.0000
  C   C2564     1.0  0.55094  0.88370  0.13871  1.0000
  Fe  Fe175     1.0  0.65803  0.68278  0.29221  1.0000
  S   S346      1.0  0.66266  0.71035  0.27625  1.0000
  H   H2055     1.0  0.60202  0.68185  0.24320  1.0000
  Fe  Fe176     1.0  0.57986  0.93853  0.03051  1.0000
  C   C2565     1.0  0.49699  0.82615  0.16221  1.0000
  S   S347      1.0  0.57946  0.96788  0.03154  1.0000
  Fe  Fe177     1.0  0.58598  0.90502  0.07002  1.0000
  S   S348      1.0  0.57230  0.88910  0.03500  1.0000
  S   S349      1.0  0.59401  0.89659  0.11929  1.0000
  Fe  Fe178     1.0  0.58733  0.90427  0.99971  1.0000
  H   H2056     1.0  0.67992  0.69944  0.39411  1.0000
  Fe  Fe179     1.0  0.55249  0.91058  0.03183  1.0000
  S   S350      1.0  0.52333  0.91341  0.03906  1.0000
  S   S351      1.0  0.60159  0.91942  0.03498  1.0000
  S   S352      1.0  0.56547  0.92554  0.06831  1.0000
  Fe  Fe180     1.0  0.64769  0.84970  0.32426  1.0000
  S   S353      1.0  0.66479  0.85801  0.28537  1.0000
  S   S354      1.0  0.63825  0.87179  0.35449  1.0000
  Fe  Fe181     1.0  0.65077  0.81219  0.30487  1.0000
  S   S355      1.0  0.66747  0.81850  0.26461  1.0000
  S   S356      1.0  0.64381  0.78564  0.32295  1.0000
  Fe  Fe182     1.0  0.68146  0.83526  0.29757  1.0000
  S   S357      1.0  0.71087  0.83560  0.29747  1.0000
  Fe  Fe183     1.0  0.64926  0.84089  0.25570  1.0000
  S   S358      1.0  0.64135  0.84821  0.20594  1.0000
  S   S359      1.0  0.66547  0.82817  0.33804  1.0000
  S   S360      1.0  0.63153  0.83334  0.29420  1.0000
  C   C2566     1.0  0.67666  0.68072  0.19297  1.0000
  C   C2567     1.0  0.72667  0.83424  0.32677  1.0000
  C   C2568     1.0  0.72258  0.83104  0.35739  1.0000
  C   C2569     1.0  0.53416  0.90758  0.11987  1.0000
  H   H2057     1.0  0.55632  0.94679  0.43574  1.0000
  H   H2058     1.0  0.70951  0.82867  0.36376  1.0000
  C   C2570     1.0  0.50213  0.90740  0.02939  1.0000
  H   H2059     1.0  0.60574  0.88848  0.32845  1.0000
  C   C2571     1.0  0.50418  0.84657  0.04732  1.0000
  H   H2060     1.0  0.73502  0.75499  0.43218  1.0000
  H   H2061     1.0  0.64426  0.93133  0.41171  1.0000
  C   C2572     1.0  0.60628  0.87388  0.44336  1.0000
  C   C2573     1.0  0.61501  0.88815  0.43275  1.0000
  C   C2574     1.0  0.62507  0.88710  0.40597  1.0000
  C   C2575     1.0  0.62624  0.87194  0.38909  1.0000
  C   C2576     1.0  0.61754  0.85766  0.39971  1.0000
  C   C2577     1.0  0.60771  0.85863  0.42675  1.0000
  H   H2062     1.0  0.61418  0.89990  0.44541  1.0000
  H   H2063     1.0  0.63190  0.89813  0.39809  1.0000
  H   H2064     1.0  0.61826  0.84592  0.38698  1.0000
  H   H2065     1.0  0.60111  0.84747  0.43481  1.0000
  C   C2578     1.0  0.60702  0.88262  0.14285  1.0000
  C   C2579     1.0  0.60550  0.88354  0.17495  1.0000
  C   C2580     1.0  0.61578  0.87327  0.19454  1.0000
  C   C2581     1.0  0.62786  0.86174  0.18246  1.0000
  C   C2582     1.0  0.62938  0.86083  0.15039  1.0000
  C   C2583     1.0  0.61910  0.87110  0.13080  1.0000
  H   H2066     1.0  0.59631  0.89237  0.18478  1.0000
  H   H2067     1.0  0.61428  0.87421  0.21900  1.0000
  H   H2068     1.0  0.63861  0.85205  0.14054  1.0000
  H   H2069     1.0  0.62062  0.87016  0.10634  1.0000
  C   C2584     1.0  0.49871  0.89566  0.00643  1.0000
  C   C2585     1.0  0.73548  0.83085  0.37983  1.0000
  C   C2586     1.0  0.49631  0.84158  0.14614  1.0000
  C   C2587     1.0  0.52132  0.89651  0.11124  1.0000
  H   H2070     1.0  0.53258  0.95112  0.06256  1.0000
  C   C2588     1.0  0.65795  0.73114  0.29057  1.0000
  C   C2589     1.0  0.65003  0.73387  0.31884  1.0000
  C   C2590     1.0  0.64600  0.75062  0.32846  1.0000
  C   C2591     1.0  0.65007  0.76487  0.31028  1.0000
  C   C2592     1.0  0.65847  0.76213  0.28244  1.0000
  C   C2593     1.0  0.66225  0.74538  0.27261  1.0000
  H   H2071     1.0  0.64669  0.72310  0.33300  1.0000
  H   H2072     1.0  0.63953  0.75256  0.35005  1.0000
  H   H2073     1.0  0.66171  0.77291  0.26817  1.0000
  H   H2074     1.0  0.66834  0.74343  0.25071  1.0000
  H   H2075     1.0  0.57012  0.89952  0.39134  1.0000
  H   H2076     1.0  0.69539  0.78925  0.21396  1.0000
  H   H2077     1.0  0.56402  0.85530  0.44732  1.0000
  C   C2594     1.0  0.71167  0.76828  0.28921  1.0000
  H   H2078     1.0  0.58800  0.69625  0.15181  1.0000
  C   C2595     1.0  0.66813  0.81435  0.45633  1.0000
  C   C2596     1.0  0.71143  0.70905  0.44787  1.0000
  H   H2079     1.0  0.50912  0.89013  0.99343  1.0000
  C   C2597     1.0  0.68106  0.87357  0.40175  1.0000
  H   H2080     1.0  0.53291  0.92105  0.11474  1.0000
  H   H2081     1.0  0.58679  0.93929  0.45756  1.0000
  C   C2598     1.0  0.59981  0.67317  0.22469  1.0000
  C   C2599     1.0  0.59465  0.70696  0.10825  1.0000
  C   C2600     1.0  0.70196  0.86185  0.45476  1.0000
  H   H2082     1.0  0.71546  0.86528  0.25696  1.0000
  H   H2083     1.0  0.66924  0.89762  0.41481  1.0000
  C   C2601     1.0  0.62781  0.70891  0.13093  1.0000
  H   H2084     1.0  0.58417  0.93087  0.27866  1.0000
  H   H2085     1.0  0.71512  0.86147  0.41093  1.0000
  C   C2602     1.0  0.58324  0.93292  0.32771  1.0000
  H   H2086     1.0  0.57709  0.94533  0.32693  1.0000
  C   C2603     1.0  0.54675  0.83763  0.46862  1.0000
  H   H2087     1.0  0.55056  0.95066  0.36879  1.0000
  H   H2088     1.0  0.55921  0.90968  0.13931  1.0000
  C   C2604     1.0  0.55406  0.93353  0.43082  1.0000
  C   C2605     1.0  0.51978  0.96489  0.02659  1.0000
  C   C2606     1.0  0.52047  0.83233  0.11540  1.0000
  H   H2089     1.0  0.52962  0.96483  0.45021  1.0000
  C   C2607     1.0  0.71268  0.78597  0.28474  1.0000
  H   H2090     1.0  0.50700  0.95025  0.09598  1.0000
  C   C2608     1.0  0.72101  0.71314  0.47352  1.0000
  H   H2091     1.0  0.69366  0.86396  0.32922  1.0000
  H   H2092     1.0  0.73217  0.78628  0.43214  1.0000
  S   S361      1.0  0.67296  0.66297  0.26572  1.0000
  C   C2609     1.0  0.70691  0.79345  0.25764  1.0000
  C   C2610     1.0  0.63166  0.93292  0.42161  1.0000
  C   C2611     1.0  0.65375  0.69372  0.40378  1.0000
  H   H2093     1.0  0.64959  0.79911  0.43327  1.0000
  H   H2094     1.0  0.64514  0.86198  0.46249  1.0000
  H   H2095     1.0  0.54647  0.88550  0.41738  1.0000
  C   C2612     1.0  0.73263  0.85864  0.44760  1.0000
  C   C2613     1.0  0.60101  0.73885  0.22652  1.0000
  C   C2614     1.0  0.60723  0.73765  0.25627  1.0000
  C   C2615     1.0  0.61679  0.72335  0.26521  1.0000
  C   C2616     1.0  0.62048  0.71043  0.24432  1.0000
  C   C2617     1.0  0.61438  0.71153  0.21434  1.0000
  C   C2618     1.0  0.60446  0.72580  0.20564  1.0000
  P   P87       1.0  0.61937  0.69469  0.18759  1.0000
  C   C2619     1.0  0.67537  0.89728  0.36717  1.0000
  H   H2096     1.0  0.53258  0.93224  0.46172  1.0000
  H   H2097     1.0  0.59844  0.90244  0.27911  1.0000
  H   H2098     1.0  0.64150  0.82193  0.39666  1.0000
  C   C2620     1.0  0.56196  0.90707  0.40601  1.0000
  C   C2621     1.0  0.65360  0.70129  0.19948  1.0000
  H   H2099     1.0  0.61907  0.93201  0.37848  1.0000
  H   H2100     1.0  0.69188  0.85110  0.38041  1.0000
  C   C2622     1.0  0.72133  0.86205  0.01479  1.0000
  H   H2101     1.0  0.60477  0.74783  0.27239  1.0000
  H   H2102     1.0  0.62161  0.72236  0.28824  1.0000
  H   H2103     1.0  0.62833  0.69967  0.25146  1.0000
  H   H2104     1.0  0.52974  0.83455  0.09742  1.0000
  P   P88       1.0  0.50745  0.86466  0.10143  1.0000
  C   C2623     1.0  0.62418  0.71463  0.10135  1.0000
  C   C2624     1.0  0.58728  0.92477  0.30020  1.0000
  H   H2105     1.0  0.68719  0.96574  0.20403  1.0000
  H   H2106     1.0  0.64949  0.71393  0.20639  1.0000
  H   H2107     1.0  0.64070  0.70987  0.13933  1.0000
  H   H2108     1.0  0.53080  0.80741  0.12599  1.0000
  C   C2625     1.0  0.70538  0.86678  0.24030  1.0000
  C   C2626     1.0  0.69973  0.85258  0.22447  1.0000
  C   C2627     1.0  0.68630  0.85431  0.20387  1.0000
  C   C2628     1.0  0.67859  0.87025  0.19887  1.0000
  C   C2629     1.0  0.68435  0.88463  0.21436  1.0000
  C   C2630     1.0  0.69756  0.88270  0.23563  1.0000
  P   P89       1.0  0.67319  0.90481  0.21111  1.0000
  C   C2631     1.0  0.68761  0.92229  0.20605  1.0000
  C   C2632     1.0  0.65974  0.90579  0.17792  1.0000
  C   C2633     1.0  0.66639  0.90106  0.14933  1.0000
  C   C2634     1.0  0.65633  0.90253  0.12319  1.0000
  C   C2635     1.0  0.63970  0.90908  0.12534  1.0000
  C   C2636     1.0  0.63314  0.91416  0.15359  1.0000
  C   C2637     1.0  0.64307  0.91250  0.17984  1.0000
  C   C2638     1.0  0.68127  0.93909  0.20753  1.0000
  S   S362      1.0  0.66531  0.67143  0.33767  1.0000
  C   C2639     1.0  0.65884  0.84010  0.41517  1.0000
  C   C2640     1.0  0.70483  0.91940  0.19846  1.0000
  C   C2641     1.0  0.66074  0.90637  0.24572  1.0000
  C   C2642     1.0  0.66472  0.91815  0.26849  1.0000
  C   C2643     1.0  0.65567  0.91826  0.29609  1.0000
  C   C2644     1.0  0.64292  0.90638  0.30143  1.0000
  C   C2645     1.0  0.63901  0.89453  0.27900  1.0000
  C   C2646     1.0  0.64785  0.89454  0.25121  1.0000
  P   P90       1.0  0.68062  0.86412  0.43947  1.0000
  H   H2109     1.0  0.70544  0.84016  0.22894  1.0000
  H   H2110     1.0  0.68138  0.84319  0.19256  1.0000
  H   H2111     1.0  0.66773  0.87111  0.18380  1.0000
  H   H2112     1.0  0.70162  0.89341  0.24903  1.0000
  H   H2113     1.0  0.67933  0.89615  0.14730  1.0000
  H   H2114     1.0  0.66135  0.89853  0.10127  1.0000
  H   H2115     1.0  0.63173  0.90995  0.10523  1.0000
  H   H2116     1.0  0.62013  0.91898  0.15512  1.0000
  H   H2117     1.0  0.63767  0.91647  0.20146  1.0000
  H   H2118     1.0  0.66788  0.94157  0.21220  1.0000
  H   H2119     1.0  0.70991  0.90660  0.19571  1.0000
  H   H2120     1.0  0.67505  0.92695  0.26542  1.0000
  H   H2121     1.0  0.65884  0.92727  0.31369  1.0000
  H   H2122     1.0  0.63638  0.90600  0.32327  1.0000
  H   H2123     1.0  0.62958  0.88489  0.28358  1.0000
  H   H2124     1.0  0.64506  0.88489  0.23441  1.0000
  C   C2647     1.0  0.58729  0.92507  0.35569  1.0000
  C   C2648     1.0  0.64887  0.66733  0.43115  1.0000
  C   C2649     1.0  0.57546  0.95719  0.38572  1.0000
  C   C2650     1.0  0.55901  0.96087  0.37474  1.0000
  C   C2651     1.0  0.67490  0.89201  0.47741  1.0000
  H   H2125     1.0  0.65500  0.84994  0.39914  1.0000
  C   C2652     1.0  0.54898  0.90118  0.13356  1.0000
  C   C2653     1.0  0.71746  0.70022  0.32634  1.0000
  H   H2126     1.0  0.69884  0.70375  0.45064  1.0000
  C   C2654     1.0  0.52314  0.87891  0.11639  1.0000
  C   C2655     1.0  0.56615  0.98761  0.46491  1.0000
  H   H2127     1.0  0.60942  0.66580  0.14989  1.0000
  C   C2656     1.0  0.51401  0.96002  0.41099  1.0000
  H   H2128     1.0  0.54029  0.87054  0.00521  1.0000
  C   C2657     1.0  0.52584  0.86819  0.04686  1.0000
  C   C2658     1.0  0.55394  0.85362  0.46407  1.0000
  S   S363      1.0  0.63379  0.66789  0.28816  1.0000
  H   H2129     1.0  0.64087  0.93437  0.46775  1.0000
  C   C2659     1.0  0.73735  0.86074  0.00074  1.0000
  C   C2660     1.0  0.73406  0.66265  0.38822  1.0000
  C   C2661     1.0  0.71568  0.93313  0.19373  1.0000
  S   S364      1.0  0.59374  0.87417  0.47739  1.0000
  C   C2662     1.0  0.50850  0.84228  0.01730  1.0000
  H   H2130     1.0  0.58181  0.70617  0.09946  1.0000
  C   C2663     1.0  0.74238  0.78040  0.35262  1.0000
  H   H2131     1.0  0.59955  0.72705  0.18275  1.0000
  H   H2132     1.0  0.71769  0.79409  0.30238  1.0000
  C   C2664     1.0  0.52073  0.95715  0.05528  1.0000
  H   H2133     1.0  0.59363  0.74997  0.21960  1.0000
  H   H2134     1.0  0.55433  0.87972  0.47869  1.0000
  H   H2135     1.0  0.53274  0.87831  0.05770  1.0000
  C   C2665     1.0  0.66650  0.66420  0.43294  1.0000
  H   H2136     1.0  0.70751  0.80714  0.25463  1.0000
  H   H2137     1.0  0.51026  0.90163  0.09943  1.0000
  C   C2666     1.0  0.71191  0.66399  0.99504  1.0000
  C   C2667     1.0  0.52152  0.85089  0.00211  1.0000
  C   C2668     1.0  0.61729  0.93317  0.40286  1.0000
  C   C2669     1.0  0.61356  0.93681  0.46591  1.0000
  H   H2138     1.0  0.71702  0.68641  0.32613  1.0000
  C   C2670     1.0  0.64064  0.87987  0.99253  1.0000
  C   C2671     1.0  0.53025  0.86376  0.01697  1.0000
  C   C2672     1.0  0.71630  0.86077  0.43542  1.0000
  C   C2673     1.0  0.51616  0.98746  0.43553  1.0000
  C   C2674     1.0  0.58611  0.97067  0.39352  1.0000
  H   H2139     1.0  0.64877  0.70485  0.39187  1.0000
  H   H2140     1.0  0.73183  0.67139  0.40684  1.0000
  H   H2141     1.0  0.64089  0.85548  0.01510  1.0000
  H   H2142     1.0  0.50173  0.83230  0.00579  1.0000
  H   H2143     1.0  0.73193  0.78540  0.36627  1.0000
  H   H2144     1.0  0.59875  0.96832  0.40251  1.0000
  C   C2675     1.0  0.68839  0.87132  0.34796  1.0000
  H   H2145     1.0  0.63897  0.66342  0.17354  1.0000
  C   C2676     1.0  0.59548  0.90903  0.35558  1.0000
  H   H2146     1.0  0.52754  0.90177  0.45263  1.0000
  H   H2147     1.0  0.54038  0.98054  0.36441  1.0000
  C   C2677     1.0  0.56383  0.99108  0.38020  1.0000
  C   C2678     1.0  0.59917  0.93712  0.44725  1.0000
  H   H2148     1.0  0.71077  0.70863  0.39867  1.0000
  C   C2679     1.0  0.70651  0.86204  0.99715  1.0000
  C   C2680     1.0  0.55320  0.97776  0.37214  1.0000
  H   H2149     1.0  0.60486  0.71799  0.06702  1.0000
  H   H2150     1.0  0.62890  0.68396  0.41448  1.0000
  C   C2681     1.0  0.50284  0.96714  0.38957  1.0000
  C   C2682     1.0  0.66504  0.66876  0.18279  1.0000
  C   C2683     1.0  0.56487  0.92447  0.41076  1.0000
  C   C2684     1.0  0.65572  0.81136  0.43436  1.0000
  C   C2685     1.0  0.68221  0.88786  0.34291  1.0000
  C   C2686     1.0  0.71810  0.71182  0.41866  1.0000
  C   C2687     1.0  0.70937  0.94983  0.19601  1.0000
  C   C2688     1.0  0.53771  0.90814  0.44046  1.0000
  C   C2689     1.0  0.58133  0.98312  0.00125  1.0000
  C   C2690     1.0  0.65110  0.82422  0.41378  1.0000
  C   C2691     1.0  0.69215  0.95280  0.20276  1.0000
  C   C2692     1.0  0.53812  0.87257  0.13010  1.0000
  H   H2151     1.0  0.54018  0.85906  0.13355  1.0000
  C   C2693     1.0  0.73432  0.71867  0.41513  1.0000
  C   C2694     1.0  0.54051  0.92540  0.44545  1.0000
  H   H2152     1.0  0.63424  0.71984  0.08724  1.0000
  C   C2695     1.0  0.68751  0.86410  0.37709  1.0000
  H   H2153     1.0  0.72898  0.93083  0.18800  1.0000
  P   P91       1.0  0.58220  0.93528  0.39163  1.0000
  C   C2696     1.0  0.60763  0.71361  0.08998  1.0000
  C   C2697     1.0  0.54843  0.89899  0.42076  1.0000
  C   C2698     1.0  0.59534  0.90876  0.30041  1.0000
  C   C2699     1.0  0.67093  0.69699  0.20125  1.0000
  H   H2154     1.0  0.71081  0.67552  0.00838  1.0000
  C   C2700     1.0  0.64180  0.68924  0.18974  1.0000
  C   C2701     1.0  0.50630  0.95667  0.07409  1.0000
  C   C2702     1.0  0.60087  0.93490  0.41564  1.0000
  C   C2703     1.0  0.67768  0.67591  0.41937  1.0000
  H   H2155     1.0  0.72040  0.86301  0.03938  1.0000
  C   C2704     1.0  0.61487  0.70205  0.14931  1.0000
  C   C2705     1.0  0.59822  0.70127  0.13785  1.0000
  H   H2156     1.0  0.56271  0.87876  0.14847  1.0000
  C   C2706     1.0  0.70253  0.70985  0.32210  1.0000
  C   C2707     1.0  0.66205  0.85785  0.98378  1.0000
  C   C2708     1.0  0.67131  0.69067  0.40514  1.0000
  C   C2709     1.0  0.70012  0.78336  0.23473  1.0000
  C   C2710     1.0  0.71867  0.73600  0.32495  1.0000
  C   C2711     1.0  0.70309  0.72764  0.32167  1.0000
  P   P92       1.0  0.71879  0.75909  0.32488  1.0000
  C   C2712     1.0  0.70476  0.76534  0.35573  1.0000
  C   C2713     1.0  0.67132  0.84326  0.43711  1.0000
  C   C2714     1.0  0.59943  0.90089  0.32812  1.0000
  H   H2157     1.0  0.59881  0.90277  0.37682  1.0000
  C   C2715     1.0  0.64771  0.67301  0.18103  1.0000
  C   C2716     1.0  0.69075  0.77640  0.35103  1.0000
  C   C2717     1.0  0.68005  0.78083  0.37545  1.0000
  C   C2718     1.0  0.68313  0.77414  0.40454  1.0000
  C   C2719     1.0  0.69691  0.76296  0.40928  1.0000
  C   C2720     1.0  0.70765  0.75854  0.38492  1.0000
  H   H2158     1.0  0.73208  0.82856  0.40342  1.0000
  C   C2721     1.0  0.70514  0.75817  0.26583  1.0000
  C   C2722     1.0  0.69934  0.76573  0.23875  1.0000
  H   H2159     1.0  0.69426  0.86303  0.00847  1.0000
  H   H2160     1.0  0.71778  0.96045  0.19219  1.0000
  H   H2161     1.0  0.73889  0.66670  0.98652  1.0000
  H   H2162     1.0  0.69052  0.70351  0.31873  1.0000
  C   C2723     1.0  0.50807  0.84481  0.12259  1.0000
  C   C2724     1.0  0.62978  0.93462  0.45315  1.0000
  H   H2163     1.0  0.67982  0.70612  0.21009  1.0000
  H   H2164     1.0  0.69135  0.73489  0.31844  1.0000
  H   H2165     1.0  0.68245  0.89320  0.32009  1.0000
  C   C2725     1.0  0.60677  0.67605  0.19553  1.0000
  H   H2166     1.0  0.68777  0.78146  0.32863  1.0000
  H   H2167     1.0  0.66920  0.78929  0.37158  1.0000
  H   H2168     1.0  0.67469  0.77747  0.42328  1.0000
  H   H2169     1.0  0.69917  0.75760  0.43174  1.0000
  H   H2170     1.0  0.71816  0.74970  0.38863  1.0000
  H   H2171     1.0  0.70433  0.74451  0.26830  1.0000
  H   H2172     1.0  0.69403  0.75791  0.22102  1.0000
  C   C2726     1.0  0.50437  0.97212  0.01665  1.0000
  C   C2727     1.0  0.52073  0.97021  0.43383  1.0000
  C   C2728     1.0  0.67482  0.89020  0.39653  1.0000
  H   H2173     1.0  0.51758  0.94666  0.40974  1.0000
  H   H2174     1.0  0.67024  0.90995  0.36314  1.0000
  C   C2729     1.0  0.52114  0.81693  0.13157  1.0000
  C   C2730     1.0  0.51266  0.85973  0.06221  1.0000
  C   C2731     1.0  0.67590  0.83025  0.45777  1.0000
  H   H2175     1.0  0.68533  0.83233  0.47515  1.0000
  H   H2176     1.0  0.68783  0.89559  0.47178  1.0000
  H   H2177     1.0  0.53098  0.96493  0.01191  1.0000
  C   C2732     1.0  0.58030  0.98753  0.39065  1.0000
  C   C2733     1.0  0.49825  0.98440  0.39116  1.0000
  H   H2178     1.0  0.55112  0.82693  0.45501  1.0000
  H   H2179     1.0  0.69130  0.67353  0.41914  1.0000
  H   H2180     1.0  0.55623  0.98584  0.44830  1.0000
  H   H2181     1.0  0.67165  0.80441  0.47243  1.0000
  H   H2182     1.0  0.73923  0.72094  0.39241  1.0000
  S   S365      1.0  0.56642  0.92424  0.99414  1.0000
  C   C2734     1.0  0.66796  0.87720  0.46509  1.0000
  C   C2735     1.0  0.64256  0.68201  0.41665  1.0000
  C   C2736     1.0  0.73736  0.71979  0.47001  1.0000
  H   H2183     1.0  0.49781  0.95929  0.37160  1.0000
  H   H2184     1.0  0.50370  0.97773  0.99413  1.0000
  C   C2737     1.0  0.65105  0.87304  0.47225  1.0000
  H   H2185     1.0  0.66695  0.84516  0.98864  1.0000
  H   H2186     1.0  0.50993  0.80190  0.16750  1.0000
  C   C2738     1.0  0.64732  0.86365  0.99886  1.0000
  H   H2187     1.0  0.49419  0.83967  0.05893  1.0000
  C   C2739     1.0  0.58995  0.65880  0.23039  1.0000
  H   H2188     1.0  0.69001  0.67723  0.19525  1.0000
  C   C2740     1.0  0.73355  0.72620  0.33025  1.0000
  C   C2741     1.0  0.73293  0.70839  0.33073  1.0000
  H   H2189     1.0  0.62898  0.88425  0.00362  1.0000
  H   H2190     1.0  0.70797  0.66433  0.37209  1.0000
  C   C2742     1.0  0.50940  0.81383  0.15497  1.0000
  C   C2743     1.0  0.73979  0.76758  0.33097  1.0000
  C   C2744     1.0  0.60385  0.66417  0.17235  1.0000
  C   C2745     1.0  0.70057  0.66324  0.48005  1.0000
  C   C2746     1.0  0.72773  0.65902  0.98290  1.0000
  C   C2747     1.0  0.72046  0.65867  0.36855  1.0000
  C   C2748     1.0  0.73484  0.85758  0.47913  1.0000
  H   H2191     1.0  0.59358  0.95704  0.88471  1.0000
  Fe  Fe184     1.0  0.65640  0.67513  0.80574  1.0000
  S   S366      1.0  0.65386  0.70307  0.82111  1.0000
  C   C2749     1.0  0.71718  0.68433  0.81585  1.0000
  Fe  Fe185     1.0  0.58256  0.93130  0.53601  1.0000
  S   S367      1.0  0.56890  0.91734  0.49946  1.0000
  S   S368      1.0  0.59142  0.95889  0.52971  1.0000
  Fe  Fe186     1.0  0.58097  0.90078  0.58121  1.0000
  S   S369      1.0  0.56643  0.88546  0.54671  1.0000
  S   S370      1.0  0.58465  0.88901  0.62993  1.0000
  Fe  Fe187     1.0  0.58535  0.89475  0.51165  1.0000
  H   H2192     1.0  0.53935  0.76607  0.70146  1.0000
  Fe  Fe188     1.0  0.55076  0.90911  0.53658  1.0000
  S   S371      1.0  0.52329  0.91210  0.51852  1.0000
  S   S372      1.0  0.60067  0.90905  0.54639  1.0000
  S   S373      1.0  0.56387  0.92412  0.57306  1.0000
  Fe  Fe189     1.0  0.64541  0.83335  0.83266  1.0000
  S   S374      1.0  0.65801  0.85518  0.80840  1.0000
  S   S375      1.0  0.62757  0.83477  0.87436  1.0000
  Fe  Fe190     1.0  0.66136  0.80640  0.79041  1.0000
  S   S376      1.0  0.67464  0.82675  0.76315  1.0000
  S   S377      1.0  0.66750  0.77917  0.77400  1.0000
  Fe  Fe191     1.0  0.68157  0.83806  0.80834  1.0000
  S   S378      1.0  0.70909  0.84737  0.81306  1.0000
  Fe  Fe192     1.0  0.65014  0.84232  0.76461  1.0000
  S   S379      1.0  0.64227  0.85694  0.72016  1.0000
  S   S380      1.0  0.66948  0.81707  0.83542  1.0000
  S   S381      1.0  0.63635  0.82112  0.78895  1.0000
  C   C2750     1.0  0.72383  0.85959  0.95136  1.0000
  C   C2751     1.0  0.72550  0.84365  0.84057  1.0000
  C   C2752     1.0  0.72294  0.83388  0.86697  1.0000
  H   H2193     1.0  0.73408  0.78439  0.73959  1.0000
  H   H2194     1.0  0.70415  0.68814  0.82077  1.0000
  H   H2195     1.0  0.71066  0.82825  0.87105  1.0000
  C   C2753     1.0  0.50245  0.90961  0.53418  1.0000
  C   C2754     1.0  0.69274  0.87340  0.90874  1.0000
  C   C2755     1.0  0.59191  0.99187  0.50743  1.0000
  H   H2196     1.0  0.51050  0.90020  0.57788  1.0000
  H   H2197     1.0  0.64094  0.90578  0.51995  1.0000
  C   C2756     1.0  0.61003  0.88014  0.93458  1.0000
  C   C2757     1.0  0.60387  0.86375  0.93972  1.0000
  C   C2758     1.0  0.60943  0.85007  0.92113  1.0000
  C   C2759     1.0  0.62119  0.85255  0.89715  1.0000
  C   C2760     1.0  0.62749  0.86891  0.89218  1.0000
  C   C2761     1.0  0.62200  0.88255  0.91088  1.0000
  C   C2762     1.0  0.58596  0.97853  0.97148  1.0000
  H   H2198     1.0  0.60452  0.83748  0.92531  1.0000
  H   H2199     1.0  0.63660  0.87105  0.87398  1.0000
  H   H2200     1.0  0.62713  0.89508  0.90705  1.0000
  C   C2763     1.0  0.60099  0.88003  0.65440  1.0000
  C   C2764     1.0  0.59626  0.87264  0.68262  1.0000
  C   C2765     1.0  0.60856  0.86570  0.70302  1.0000
  C   C2766     1.0  0.62597  0.86583  0.69553  1.0000
  C   C2767     1.0  0.63071  0.87318  0.66731  1.0000
  C   C2768     1.0  0.61840  0.88018  0.64697  1.0000
  H   H2201     1.0  0.58292  0.87233  0.68882  1.0000
  H   H2202     1.0  0.60455  0.86023  0.72454  1.0000
  H   H2203     1.0  0.64406  0.87344  0.66105  1.0000
  H   H2204     1.0  0.62243  0.88576  0.62555  1.0000
  C   C2769     1.0  0.66519  0.90230  0.49711  1.0000
  H   H2205     1.0  0.70336  0.90118  0.83758  1.0000
  H   H2206     1.0  0.62848  0.87990  0.49794  1.0000
  C   C2770     1.0  0.71213  0.69658  0.91125  1.0000
  C   C2771     1.0  0.70182  0.88857  0.91190  1.0000
  C   C2772     1.0  0.65871  0.72402  0.80795  1.0000
  C   C2773     1.0  0.66562  0.72724  0.77904  1.0000
  C   C2774     1.0  0.66822  0.74417  0.76917  1.0000
  C   C2775     1.0  0.66407  0.75811  0.78806  1.0000
  C   C2776     1.0  0.65757  0.75486  0.81727  1.0000
  C   C2777     1.0  0.65485  0.73795  0.82705  1.0000
  H   H2207     1.0  0.66865  0.71671  0.76405  1.0000
  H   H2208     1.0  0.67335  0.74648  0.74660  1.0000
  H   H2209     1.0  0.65457  0.76537  0.83229  1.0000
  H   H2210     1.0  0.64955  0.73563  0.84949  1.0000
  C   C2778     1.0  0.70556  0.89861  0.88636  1.0000
  C   C2779     1.0  0.49969  0.90326  0.56360  1.0000
  C   C2780     1.0  0.60065  0.93057  0.87971  1.0000
  C   C2781     1.0  0.59621  0.94679  0.86879  1.0000
  C   C2782     1.0  0.59531  0.94980  0.83735  1.0000
  C   C2783     1.0  0.59877  0.93658  0.81679  1.0000
  C   C2784     1.0  0.60305  0.92020  0.82760  1.0000
  C   C2785     1.0  0.60416  0.91739  0.85922  1.0000
  P   P93       1.0  0.60809  0.90307  0.80141  1.0000
  C   C2786     1.0  0.59838  0.90718  0.76473  1.0000
  C   C2787     1.0  0.63096  0.90115  0.79655  1.0000
  C   C2788     1.0  0.64203  0.90678  0.81930  1.0000
  C   C2789     1.0  0.65970  0.90547  0.81513  1.0000
  C   C2790     1.0  0.66645  0.89847  0.78833  1.0000
  C   C2791     1.0  0.65552  0.89267  0.76576  1.0000
  C   C2792     1.0  0.63787  0.89390  0.76989  1.0000
  C   C2793     1.0  0.60672  0.91731  0.74292  1.0000
  C   C2794     1.0  0.59974  0.91971  0.71390  1.0000
  C   C2795     1.0  0.58425  0.91228  0.70661  1.0000
  C   C2796     1.0  0.57565  0.90256  0.72841  1.0000
  C   C2797     1.0  0.58268  0.89997  0.75736  1.0000
  C   C2798     1.0  0.59999  0.88326  0.81636  1.0000
  C   C2799     1.0  0.58579  0.88325  0.83612  1.0000
  C   C2800     1.0  0.58012  0.86801  0.84897  1.0000
  C   C2801     1.0  0.58820  0.85263  0.84144  1.0000
  C   C2802     1.0  0.60175  0.85244  0.82066  1.0000
  C   C2803     1.0  0.60772  0.86767  0.80825  1.0000
  H   H2211     1.0  0.60143  0.92816  0.90410  1.0000
  H   H2212     1.0  0.70958  0.66530  0.78370  1.0000
  H   H2213     1.0  0.59200  0.96242  0.82893  1.0000
  H   H2214     1.0  0.59811  0.93921  0.79257  1.0000
  H   H2215     1.0  0.60771  0.90496  0.86810  1.0000
  H   H2216     1.0  0.63715  0.91214  0.84032  1.0000
  H   H2217     1.0  0.66814  0.90981  0.83279  1.0000
  H   H2218     1.0  0.68013  0.89726  0.78518  1.0000
  H   H2219     1.0  0.66071  0.88688  0.74522  1.0000
  H   H2220     1.0  0.62967  0.88901  0.75229  1.0000
  H   H2221     1.0  0.61881  0.92308  0.74806  1.0000
  H   H2222     1.0  0.60648  0.92704  0.69678  1.0000
  H   H2223     1.0  0.57909  0.91378  0.68381  1.0000
  H   H2224     1.0  0.56374  0.89667  0.72250  1.0000
  H   H2225     1.0  0.57595  0.89213  0.77367  1.0000
  H   H2226     1.0  0.57925  0.89501  0.84209  1.0000
  H   H2227     1.0  0.56966  0.86817  0.86521  1.0000
  H   H2228     1.0  0.58420  0.84088  0.85210  1.0000
  H   H2229     1.0  0.60803  0.84049  0.81506  1.0000
  H   H2230     1.0  0.61847  0.86719  0.79266  1.0000
  C   C2804     1.0  0.58968  0.80192  0.82687  1.0000
  C   C2805     1.0  0.60369  0.80030  0.84624  1.0000
  C   C2806     1.0  0.61804  0.79084  0.83708  1.0000
  C   C2807     1.0  0.61831  0.78284  0.80867  1.0000
  C   C2808     1.0  0.60411  0.78399  0.78945  1.0000
  C   C2809     1.0  0.58993  0.79396  0.79840  1.0000
  P   P94       1.0  0.60529  0.77470  0.75197  1.0000
  C   C2810     1.0  0.58435  0.77244  0.73594  1.0000
  C   C2811     1.0  0.61810  0.78914  0.72984  1.0000
  C   C2812     1.0  0.61136  0.80516  0.72144  1.0000
  C   C2813     1.0  0.62157  0.81697  0.70626  1.0000
  C   C2814     1.0  0.63866  0.81306  0.70003  1.0000
  C   C2815     1.0  0.64552  0.79725  0.70873  1.0000
  C   C2816     1.0  0.63529  0.78532  0.72354  1.0000
  C   C2817     1.0  0.57132  0.76522  0.75362  1.0000
  C   C2818     1.0  0.55512  0.76303  0.74125  1.0000
  C   C2819     1.0  0.55189  0.76781  0.71105  1.0000
  C   C2820     1.0  0.56492  0.77465  0.69310  1.0000
  C   C2821     1.0  0.58114  0.77684  0.70540  1.0000
  C   C2822     1.0  0.61398  0.75327  0.75342  1.0000
  C   C2823     1.0  0.61340  0.74371  0.78059  1.0000
  C   C2824     1.0  0.61949  0.72688  0.78117  1.0000
  C   C2825     1.0  0.62612  0.71943  0.75470  1.0000
  C   C2826     1.0  0.62644  0.72874  0.72745  1.0000
  C   C2827     1.0  0.62023  0.74555  0.72671  1.0000
  H   H2231     1.0  0.57874  0.80960  0.83373  1.0000
  H   H2232     1.0  0.60365  0.80675  0.86805  1.0000
  H   H2233     1.0  0.62916  0.79015  0.85161  1.0000
  H   H2234     1.0  0.62976  0.77612  0.80127  1.0000
  H   H2235     1.0  0.57921  0.79586  0.78331  1.0000
  H   H2236     1.0  0.59834  0.80867  0.72716  1.0000
  H   H2237     1.0  0.61643  0.82940  0.70009  1.0000
  H   H2238     1.0  0.64668  0.82250  0.68923  1.0000
  H   H2239     1.0  0.65894  0.79443  0.70496  1.0000
  H   H2240     1.0  0.64105  0.77342  0.73105  1.0000
  H   H2241     1.0  0.57373  0.76124  0.77693  1.0000
  H   H2242     1.0  0.54509  0.75752  0.75505  1.0000
  H   H2243     1.0  0.59115  0.78179  0.69091  1.0000
  H   H2244     1.0  0.60829  0.74914  0.80139  1.0000
  H   H2245     1.0  0.61950  0.71966  0.80235  1.0000
  H   H2246     1.0  0.63126  0.70653  0.75554  1.0000
  H   H2247     1.0  0.63164  0.72294  0.70698  1.0000
  H   H2248     1.0  0.62041  0.75254  0.70535  1.0000
  H   H2249     1.0  0.68972  0.71099  0.84949  1.0000
  C   C2828     1.0  0.51958  0.87258  0.62029  1.0000
  C   C2829     1.0  0.52898  0.84914  0.50945  1.0000
  H   H2250     1.0  0.73429  0.82374  0.90828  1.0000
  H   H2251     1.0  0.71291  0.91007  0.88885  1.0000
  C   C2830     1.0  0.65120  0.66182  0.92379  1.0000
  H   H2252     1.0  0.64322  0.90277  0.96597  1.0000
  H   H2253     1.0  0.65303  0.67139  0.90622  1.0000
  H   H2254     1.0  0.71580  0.71113  0.49617  1.0000
  H   H2255     1.0  0.67107  0.69279  0.93551  1.0000
  C   C2831     1.0  0.66345  0.88461  0.95609  1.0000
  C   C2832     1.0  0.53716  0.87145  0.62505  1.0000
  S   S382      1.0  0.67289  0.66116  0.77131  1.0000
  H   H2256     1.0  0.53465  0.93013  0.95874  1.0000
  C   C2833     1.0  0.53429  0.83536  0.49121  1.0000
  C   C2834     1.0  0.67017  0.86825  0.96212  1.0000
  H   H2257     1.0  0.50240  0.87007  0.49109  1.0000
  C   C2835     1.0  0.66829  0.83418  0.92086  1.0000
  P   P95       1.0  0.68878  0.86027  0.94191  1.0000
  H   H2258     1.0  0.50373  0.77558  0.56081  1.0000
  H   H2259     1.0  0.73730  0.77160  0.87418  1.0000
  H   H2260     1.0  0.73568  0.80081  0.84849  1.0000
  C   C2836     1.0  0.71483  0.74309  0.78904  1.0000
  H   H2261     1.0  0.67063  0.91365  0.50674  1.0000
  C   C2837     1.0  0.53601  0.86521  0.50425  1.0000
  C   C2838     1.0  0.72018  0.67147  0.79448  1.0000
  H   H2262     1.0  0.59219  0.98752  0.92610  1.0000
  H   H2263     1.0  0.52429  0.79117  0.59259  1.0000
  C   C2839     1.0  0.70626  0.75600  0.83680  1.0000
  H   H2264     1.0  0.71528  0.74351  0.76434  1.0000
  P   P96       1.0  0.51381  0.84644  0.54021  1.0000
  C   C2840     1.0  0.51973  0.81526  0.57006  1.0000
  C   C2841     1.0  0.54365  0.96850  0.92626  1.0000
  C   C2842     1.0  0.52712  0.97562  0.92511  1.0000
  H   H2265     1.0  0.59475  0.86163  0.95788  1.0000
  C   C2843     1.0  0.54751  0.86239  0.60461  1.0000
  C   C2844     1.0  0.68709  0.86867  0.87975  1.0000
  C   C2845     1.0  0.73635  0.83138  0.88806  1.0000
  C   C2846     1.0  0.66482  0.81732  0.91328  1.0000
  C   C2847     1.0  0.72121  0.72884  0.80479  1.0000
  H   H2266     1.0  0.53733  0.97484  0.51777  1.0000
  C   C2848     1.0  0.70735  0.75663  0.80503  1.0000
  C   C2849     1.0  0.68460  0.83859  0.93085  1.0000
  H   H2267     1.0  0.66925  0.89286  0.93930  1.0000
  C   C2850     1.0  0.70928  0.70346  0.88204  1.0000
  C   C2851     1.0  0.58417  0.97586  0.50537  1.0000
  C   C2852     1.0  0.73521  0.79643  0.82519  1.0000
  C   C2853     1.0  0.54633  0.95213  0.93818  1.0000
  H   H2268     1.0  0.72489  0.69421  0.91954  1.0000
  C   C2854     1.0  0.51432  0.96065  0.51159  1.0000
  C   C2855     1.0  0.72015  0.72806  0.83678  1.0000
  C   C2856     1.0  0.67764  0.80481  0.91502  1.0000
  P   P97       1.0  0.72690  0.70910  0.85734  1.0000
  H   H2269     1.0  0.51157  0.87979  0.63594  1.0000
  C   C2857     1.0  0.74165  0.85079  0.83565  1.0000
  H   H2270     1.0  0.70623  0.89254  0.93407  1.0000
  H   H2271     1.0  0.54869  0.84807  0.56320  1.0000
  C   C2858     1.0  0.69241  0.70596  0.87208  1.0000
  C   C2859     1.0  0.69391  0.80909  0.92487  1.0000
  C   C2860     1.0  0.51236  0.86486  0.59486  1.0000
  H   H2272     1.0  0.49879  0.86626  0.59138  1.0000
  C   C2861     1.0  0.70012  0.89367  0.85753  1.0000
  H   H2273     1.0  0.72243  0.85791  0.52305  1.0000
  H   H2274     1.0  0.62393  0.66540  0.92501  1.0000
  C   C2862     1.0  0.49651  0.96138  0.51040  1.0000
  H   H2275     1.0  0.56250  0.77814  0.66955  1.0000
  C   C2863     1.0  0.71256  0.74174  0.85265  1.0000
  H   H2276     1.0  0.52914  0.82281  0.49466  1.0000
  C   C2864     1.0  0.51722  0.79786  0.57493  1.0000
  H   H2277     1.0  0.72508  0.85855  0.92679  1.0000
  H   H2278     1.0  0.66577  0.70413  0.88339  1.0000
  C   C2865     1.0  0.69073  0.87885  0.85433  1.0000
  C   C2866     1.0  0.50565  0.78907  0.55702  1.0000
  C   C2867     1.0  0.73858  0.85951  0.96904  1.0000
  C   C2868     1.0  0.73680  0.66595  0.78800  1.0000
  C   C2869     1.0  0.67871  0.70209  0.89131  1.0000
  H   H2279     1.0  0.70068  0.68763  0.95292  1.0000
  H   H2280     1.0  0.71119  0.74121  0.87723  1.0000
  H   H2281     1.0  0.53211  0.87599  0.51814  1.0000
  C   C2870     1.0  0.54036  0.85473  0.57910  1.0000
  H   H2282     1.0  0.73212  0.77385  0.92974  1.0000
  H   H2283     1.0  0.70010  0.76640  0.84895  1.0000
  H   H2284     1.0  0.52101  0.94855  0.50899  1.0000
  H   H2285     1.0  0.50063  0.97164  0.93743  1.0000
  H   H2286     1.0  0.73058  0.66283  0.90839  1.0000
  H   H2287     1.0  0.50026  0.97553  0.87796  1.0000
  C   C2871     1.0  0.72146  0.80165  0.80707  1.0000
  H   H2288     1.0  0.68018  0.85702  0.87644  1.0000
  H   H2289     1.0  0.65221  0.81403  0.90557  1.0000
  C   C2872     1.0  0.72069  0.85873  0.49858  1.0000
  H   H2290     1.0  0.72046  0.67807  0.50012  1.0000
  H   H2291     1.0  0.67496  0.79185  0.90853  1.0000
  C   C2873     1.0  0.51341  0.96623  0.93680  1.0000
  H   H2292     1.0  0.55455  0.97564  0.91852  1.0000
  H   H2293     1.0  0.56119  0.86176  0.60812  1.0000
  S   S383      1.0  0.60310  0.89815  0.95640  1.0000
  C   C2874     1.0  0.68169  0.69562  0.92054  1.0000
  H   H2294     1.0  0.68677  0.87493  0.83188  1.0000
  C   C2875     1.0  0.69838  0.69276  0.93039  1.0000
  C   C2876     1.0  0.72097  0.79718  0.77634  1.0000
  H   H2295     1.0  0.52879  0.82177  0.58415  1.0000
  H   H2296     1.0  0.70200  0.76746  0.79272  1.0000
  H   H2297     1.0  0.71035  0.80145  0.76235  1.0000
  C   C2877     1.0  0.73088  0.69199  0.83062  1.0000
  C   C2878     1.0  0.64849  0.89789  0.50458  1.0000
  H   H2298     1.0  0.69042  0.67127  0.48914  1.0000
  H   H2299     1.0  0.50559  0.94261  0.95764  1.0000
  H   H2300     1.0  0.58820  0.96525  0.96610  1.0000
  H   H2301     1.0  0.65822  0.84374  0.91884  1.0000
  H   H2302     1.0  0.70390  0.79945  0.92611  1.0000
  C   C2879     1.0  0.70767  0.86076  0.96527  1.0000
  H   H2303     1.0  0.54288  0.87779  0.64426  1.0000
  C   C2880     1.0  0.51614  0.94983  0.94857  1.0000
  C   C2881     1.0  0.52272  0.85600  0.57387  1.0000
  C   C2882     1.0  0.53258  0.94278  0.94923  1.0000
  C   C2883     1.0  0.57115  0.97385  0.48404  1.0000
  H   H2304     1.0  0.55915  0.94679  0.93923  1.0000
  C   C2884     1.0  0.64873  0.89035  0.97127  1.0000
  C   C2885     1.0  0.52351  0.97543  0.51668  1.0000
  C   C2886     1.0  0.51061  0.82402  0.54720  1.0000
  H   H2305     1.0  0.59638  0.67138  0.75436  1.0000
  C   C2887     1.0  0.69734  0.82587  0.93305  1.0000
  H   H2306     1.0  0.56499  0.96170  0.48229  1.0000
  H   H2307     1.0  0.70996  0.82880  0.94091  1.0000
  C   C2888     1.0  0.49906  0.81507  0.52921  1.0000
  H   H2308     1.0  0.71135  0.80959  0.81662  1.0000
  S   S384      1.0  0.63343  0.65993  0.79332  1.0000
  C   C2889     1.0  0.49658  0.79768  0.53416  1.0000
  C   C2890     1.0  0.73431  0.78753  0.76361  1.0000
  H   H2309     1.0  0.72663  0.71837  0.79183  1.0000
  H   H2310     1.0  0.61211  0.93840  0.49034  1.0000
  H   H2311     1.0  0.69350  0.86152  0.50193  1.0000
  C   C2891     1.0  0.64146  0.88327  0.49221  1.0000
  H   H2312     1.0  0.58957  0.66006  0.80594  1.0000
  C   C2892     1.0  0.71754  0.66724  0.48605  1.0000
  C   C2893     1.0  0.51487  0.99096  0.52060  1.0000
  C   C2894     1.0  0.49338  0.85592  0.53054  1.0000
  C   C2895     1.0  0.54847  0.86741  0.48174  1.0000
  H   H2313     1.0  0.52485  0.84764  0.97882  1.0000
  C   C2896     1.0  0.58823  0.99121  0.94882  1.0000
  C   C2897     1.0  0.49374  0.98748  0.88281  1.0000
  C   C2898     1.0  0.70432  0.86084  0.48649  1.0000
  C   C2899     1.0  0.49703  0.99166  0.52006  1.0000
  C   C2900     1.0  0.90328  0.09256  0.00652  1.0000
  H   H2314     1.0  0.81952  0.05543  0.05191  1.0000
  Fe  Fe193     1.0  0.82959  0.31092  0.06814  1.0000
  S   S385      1.0  0.83855  0.28346  0.07860  1.0000
  H   H2315     1.0  0.83048  0.15557  0.20754  1.0000
  Fe  Fe194     1.0  0.81964  0.18245  0.04506  1.0000
  S   S386      1.0  0.80591  0.16352  0.01591  1.0000
  S   S387      1.0  0.81367  0.21052  0.03283  1.0000
  Fe  Fe195     1.0  0.83255  0.15364  0.08740  1.0000
  S   S388      1.0  0.81930  0.13327  0.06095  1.0000
  S   S389      1.0  0.84674  0.15033  0.13304  1.0000
  Fe  Fe196     1.0  0.82938  0.14644  0.01841  1.0000
  S   S390      1.0  0.83133  0.12232  0.45719  1.0000
  Fe  Fe197     1.0  0.79684  0.15175  0.05995  1.0000
  S   S391      1.0  0.76828  0.14554  0.06274  1.0000
  S   S392      1.0  0.84382  0.16623  0.04514  1.0000
  S   S393      1.0  0.80943  0.17130  0.08863  1.0000
  Fe  Fe198     1.0  0.89429  0.08159  0.31343  1.0000
  S   S394      1.0  0.91064  0.09381  0.27648  1.0000
  S   S395      1.0  0.88686  0.09802  0.35577  1.0000
  Fe  Fe199     1.0  0.89711  0.04629  0.28118  1.0000
  S   S396      1.0  0.91299  0.05670  0.24329  1.0000
  S   S397      1.0  0.89189  0.01768  0.28465  1.0000
  Fe  Fe200     1.0  0.92775  0.07029  0.27934  1.0000
  S   S398      1.0  0.95640  0.06376  0.28459  1.0000
  Fe  Fe201     1.0  0.89455  0.07913  0.24322  1.0000
  S   S399      1.0  0.88275  0.08532  0.19627  1.0000
  S   S400      1.0  0.91230  0.05899  0.31775  1.0000
  S   S401      1.0  0.87768  0.06784  0.27978  1.0000
  C   C2901     1.0  0.97742  0.07174  0.27931  1.0000
  C   C2902     1.0  0.98074  0.08676  0.26315  1.0000
  H   H2316     1.0  0.78511  0.31318  0.17616  1.0000
  H   H2317     1.0  0.97025  0.09414  0.25371  1.0000
  H   H2318     1.0  0.79666  0.21120  0.09604  1.0000
  C   C2903     1.0  0.89560  0.00289  0.25455  1.0000
  C   C2904     1.0  0.89855  0.00824  0.22452  1.0000
  C   C2905     1.0  0.78893  0.30185  0.16382  1.0000
  H   H2319     1.0  0.89850  0.02170  0.21928  1.0000
  H   H2320     1.0  0.79636  0.09651  0.05188  1.0000
  C   C2906     1.0  0.85573  0.13190  0.15135  1.0000
  C   C2907     1.0  0.86544  0.13392  0.17799  1.0000
  C   C2908     1.0  0.87337  0.11982  0.19261  1.0000
  C   C2909     1.0  0.87180  0.10346  0.18062  1.0000
  C   C2910     1.0  0.86179  0.10140  0.15438  1.0000
  C   C2911     1.0  0.85378  0.11548  0.13985  1.0000
  H   H2321     1.0  0.86723  0.14654  0.18696  1.0000
  H   H2322     1.0  0.88109  0.12167  0.21263  1.0000
  H   H2323     1.0  0.86027  0.08882  0.14514  1.0000
  H   H2324     1.0  0.84647  0.11368  0.11934  1.0000
  C   C2912     1.0  0.84723  0.11553  0.42975  1.0000
  C   C2913     1.0  0.86388  0.12175  0.42925  1.0000
  C   C2914     1.0  0.87573  0.11621  0.40665  1.0000
  C   C2915     1.0  0.87128  0.10432  0.38414  1.0000
  C   C2916     1.0  0.85466  0.09803  0.38481  1.0000
  C   C2917     1.0  0.84278  0.10366  0.40723  1.0000
  H   H2325     1.0  0.96846  0.05070  0.15161  1.0000
  H   H2326     1.0  0.88851  0.12116  0.40669  1.0000
  H   H2327     1.0  0.85097  0.08873  0.36816  1.0000
  H   H2328     1.0  0.83001  0.09868  0.40720  1.0000
  C   C2918     1.0  0.78616  0.22574  0.46874  1.0000
  H   H2329     1.0  0.81082  0.13687  0.14611  1.0000
  H   H2330     1.0  0.82180  0.09249  0.08469  1.0000
  H   H2331     1.0  0.76932  0.15289  0.12875  1.0000
  C   C2919     1.0  0.83076  0.26332  0.06679  1.0000
  C   C2920     1.0  0.83855  0.24831  0.07818  1.0000
  C   C2921     1.0  0.83335  0.23206  0.06854  1.0000
  C   C2922     1.0  0.82036  0.23060  0.04703  1.0000
  C   C2923     1.0  0.81240  0.24561  0.03598  1.0000
  C   C2924     1.0  0.81741  0.26184  0.04602  1.0000
  H   H2332     1.0  0.84887  0.24926  0.09429  1.0000
  H   H2333     1.0  0.83963  0.22070  0.07729  1.0000
  H   H2334     1.0  0.80234  0.24466  0.01939  1.0000
  H   H2335     1.0  0.81126  0.27322  0.03711  1.0000
  H   H2336     1.0  0.82011  0.09881  0.13932  1.0000
  C   C2925     1.0  0.83931  0.17760  0.39596  1.0000
  H   H2337     1.0  0.87174  0.06626  0.98338  1.0000
  P   P98       1.0  0.79191  0.11064  0.17915  1.0000
  C   C2926     1.0  0.75629  0.15036  0.12253  1.0000
  H   H2338     1.0  0.76445  0.18434  0.02283  1.0000
  H   H2339     1.0  0.74725  0.23975  0.14629  1.0000
  C   C2927     1.0  0.79889  0.27330  0.13000  1.0000
  H   H2340     1.0  0.97417  0.04990  0.21346  1.0000
  C   C2928     1.0  0.77669  0.29241  0.14857  1.0000
  C   C2929     1.0  0.88053  0.10013  0.06576  1.0000
  C   C2930     1.0  0.76948  0.27095  0.07082  1.0000
  C   C2931     1.0  0.77506  0.28716  0.06198  1.0000
  C   C2932     1.0  0.77767  0.29100  0.03116  1.0000
  C   C2933     1.0  0.77474  0.27873  0.00894  1.0000
  C   C2934     1.0  0.76889  0.26267  0.01750  1.0000
  C   C2935     1.0  0.76611  0.25882  0.04831  1.0000
  H   H2341     1.0  0.79501  0.18269  0.19164  1.0000
  H   H2342     1.0  0.84683  0.13707  0.37237  1.0000
  C   C2936     1.0  0.81109  0.28282  0.14516  1.0000
  C   C2937     1.0  0.84429  0.06687  0.04935  1.0000
  H   H2343     1.0  0.90745  0.02586  0.05918  1.0000
  H   H2344     1.0  0.80324  0.26276  0.11613  1.0000
  C   C2938     1.0  0.82028  0.07522  0.01777  1.0000
  H   H2345     1.0  0.77736  0.29692  0.07877  1.0000
  H   H2346     1.0  0.78203  0.30352  0.02465  1.0000
  H   H2347     1.0  0.85305  0.27467  0.01323  1.0000
  H   H2348     1.0  0.93395  0.99418  0.17231  1.0000
  H   H2349     1.0  0.98891  0.05076  0.30397  1.0000
  C   C2939     1.0  0.77888  0.10785  0.12005  1.0000
  C   C2940     1.0  0.77206  0.08866  0.21518  1.0000
  C   C2941     1.0  0.95491  0.05088  0.15639  1.0000
  C   C2942     1.0  0.93735  0.00101  0.27720  1.0000
  C   C2943     1.0  0.84220  0.09714  0.30713  1.0000
  C   C2944     1.0  0.82457  0.09795  0.31166  1.0000
  C   C2945     1.0  0.81639  0.11371  0.31569  1.0000
  C   C2946     1.0  0.82586  0.12864  0.31527  1.0000
  C   C2947     1.0  0.84359  0.12791  0.31072  1.0000
  C   C2948     1.0  0.85172  0.11204  0.30654  1.0000
  P   P99       1.0  0.85547  0.14740  0.31013  1.0000
  C   C2949     1.0  0.85191  0.15881  0.27468  1.0000
  C   C2950     1.0  0.84888  0.15943  0.34336  1.0000
  H   H2350     1.0  0.85136  0.08225  0.23513  1.0000
  C   C2951     1.0  0.84019  0.15291  0.25323  1.0000
  H   H2351     1.0  0.76696  0.11286  0.12877  1.0000
  C   C2952     1.0  0.84921  0.17442  0.21700  1.0000
  C   C2953     1.0  0.86079  0.18048  0.23827  1.0000
  C   C2954     1.0  0.86223  0.17265  0.26691  1.0000
  C   C2955     1.0  0.87807  0.14279  0.31237  1.0000
  C   C2956     1.0  0.88751  0.13965  0.28557  1.0000
  C   C2957     1.0  0.90503  0.13626  0.28701  1.0000
  C   C2958     1.0  0.91319  0.13554  0.31523  1.0000
  C   C2959     1.0  0.90388  0.13849  0.34198  1.0000
  C   C2960     1.0  0.88640  0.14216  0.34060  1.0000
  H   H2352     1.0  0.84856  0.08489  0.30489  1.0000
  H   H2353     1.0  0.81734  0.08633  0.31250  1.0000
  H   H2354     1.0  0.80276  0.11433  0.31965  1.0000
  H   H2355     1.0  0.81939  0.14077  0.31877  1.0000
  H   H2356     1.0  0.86541  0.11103  0.30351  1.0000
  C   C2961     1.0  0.75340  0.18946  0.06689  1.0000
  C   C2962     1.0  0.89413  0.04981  0.05229  1.0000
  C   C2963     1.0  0.80400  0.16070  0.16689  1.0000
  H   H2357     1.0  0.84848  0.18006  0.19437  1.0000
  H   H2358     1.0  0.86897  0.19098  0.23221  1.0000
  H   H2359     1.0  0.87175  0.17706  0.28269  1.0000
  H   H2360     1.0  0.88134  0.13961  0.26354  1.0000
  H   H2361     1.0  0.91221  0.13367  0.26632  1.0000
  H   H2362     1.0  0.92665  0.13227  0.31644  1.0000
  H   H2363     1.0  0.91008  0.13736  0.36392  1.0000
  H   H2364     1.0  0.87945  0.14402  0.36171  1.0000
  C   C2964     1.0  0.74339  0.14985  0.14519  1.0000
  C   C2965     1.0  0.94376  0.99334  0.15489  1.0000
  H   H2365     1.0  0.75630  0.12204  0.17360  1.0000
  H   H2366     1.0  0.78373  0.08220  0.22168  1.0000
  C   C2966     1.0  0.75662  0.11094  0.18820  1.0000
  C   C2967     1.0  0.96906  0.30055  0.23335  1.0000
  H   H2367     1.0  0.76150  0.24633  0.05447  1.0000
  H   H2368     1.0  0.83580  0.18456  0.41641  1.0000
  H   H2369     1.0  0.76358  0.29684  0.14926  1.0000
  H   H2370     1.0  0.86690  0.14141  0.07231  1.0000
  H   H2371     1.0  0.95090  0.07539  0.13491  1.0000
  C   C2968     1.0  0.80883  0.25270  0.47176  1.0000
  H   H2372     1.0  0.75671  0.07202  0.24290  1.0000
  C   C2969     1.0  0.88301  0.07401  0.98250  1.0000
  C   C2970     1.0  0.78004  0.10438  0.08888  1.0000
  H   H2373     1.0  0.82787  0.23473  0.45586  1.0000
  H   H2374     1.0  0.86625  0.31645  0.23039  1.0000
  H   H2375     1.0  0.92359  0.02741  0.18942  1.0000
  H   H2376     1.0  0.98056  0.01174  0.13091  1.0000
  H   H2377     1.0  0.77478  0.13487  0.22091  1.0000
  H   H2378     1.0  0.94745  0.03739  0.23957  1.0000
  C   C2971     1.0  0.80320  0.22328  0.46012  1.0000
  H   H2379     1.0  0.93473  0.02768  0.28789  1.0000
  C   C2972     1.0  0.94630  0.02385  0.24376  1.0000
  H   H2380     1.0  0.90306  0.00048  0.17796  1.0000
  C   C2973     1.0  0.98464  0.04133  0.20750  1.0000
  H   H2381     1.0  0.86763  0.13088  0.44619  1.0000
  C   C2974     1.0  0.89520  0.03449  0.10049  1.0000
  H   H2382     1.0  0.96459  0.28786  0.22853  1.0000
  C   C2975     1.0  0.90111  0.99615  0.20116  1.0000
  H   H2383     1.0  0.90788  0.09934  0.02617  1.0000
  H   H2384     1.0  0.76914  0.10687  0.07430  1.0000
  H   H2385     1.0  0.93121  0.99690  0.29812  1.0000
  H   H2386     1.0  0.76670  0.25311  0.00032  1.0000
  H   H2387     1.0  0.75283  0.20932  0.15521  1.0000
  H   H2388     1.0  0.83221  0.06380  0.20593  1.0000
  H   H2389     1.0  0.76435  0.18430  0.07898  1.0000
  C   C2976     1.0  0.76927  0.24340  0.11688  1.0000
  H   H2390     1.0  0.95891  0.31147  0.19194  1.0000
  C   C2977     1.0  0.84077  0.15987  0.39703  1.0000
  C   C2978     1.0  0.78309  0.23495  0.10267  1.0000
  H   H2391     1.0  0.84940  0.05862  0.06696  1.0000
  C   C2979     1.0  0.88413  0.06273  0.06583  1.0000
  H   H2392     1.0  0.80713  0.07372  0.01102  1.0000
  C   C2980     1.0  0.80612  0.29703  0.16221  1.0000
  C   C2981     1.0  0.89622  0.11496  0.10501  1.0000
  P   P100      1.0  0.87682  0.08103  0.04400  1.0000
  C   C2982     1.0  0.88508  0.04719  0.11400  1.0000
  C   C2983     1.0  0.88862  0.08258  0.00855  1.0000
  H   H2393     1.0  0.90564  0.11482  0.12299  1.0000
  C   C2984     1.0  0.75240  0.14692  0.09207  1.0000
  C   C2985     1.0  0.79312  0.10546  0.13898  1.0000
  C   C2986     1.0  0.79539  0.09854  0.07624  1.0000
  C   C2987     1.0  0.80969  0.09629  0.09473  1.0000
  C   C2988     1.0  0.80864  0.09992  0.12586  1.0000
  H   H2394     1.0  0.81278  0.16786  0.15284  1.0000
  H   H2395     1.0  0.80774  0.21085  0.45276  1.0000
  H   H2396     1.0  0.79154  0.24173  0.08745  1.0000
  C   C2989     1.0  0.87955  0.06123  0.09675  1.0000
  C   C2990     1.0  0.95819  0.00369  0.15601  1.0000
  H   H2397     1.0  0.91974  0.07628  0.14578  1.0000
  C   C2991     1.0  0.81030  0.10153  0.19839  1.0000
  H   H2398     1.0  0.83837  0.15309  0.41825  1.0000
  H   H2399     1.0  0.77758  0.19484  0.13033  1.0000
  H   H2400     1.0  0.76183  0.25366  0.42748  1.0000
  C   C2992     1.0  0.78273  0.14193  0.20524  1.0000
  C   C2993     1.0  0.97805  0.30361  0.26013  1.0000
  C   C2994     1.0  0.82126  0.11186  0.21510  1.0000
  C   C2995     1.0  0.78153  0.27786  0.13186  1.0000
  C   C2996     1.0  0.84723  0.17726  0.34237  1.0000
  C   C2997     1.0  0.78604  0.21755  0.10750  1.0000
  H   H2401     1.0  0.82450  0.27947  0.14276  1.0000
  C   C2998     1.0  0.78355  0.15962  0.20829  1.0000
  C   C2999     1.0  0.84727  0.08938  0.01178  1.0000
  H   H2402     1.0  0.84468  0.11294  0.24046  1.0000
  C   C3000     1.0  0.80294  0.14307  0.16330  1.0000
  C   C3001     1.0  0.83976  0.08754  0.22535  1.0000
  H   H2403     1.0  0.81875  0.12536  0.21732  1.0000
  C   C3002     1.0  0.84248  0.18629  0.36862  1.0000
  H   H2404     1.0  0.80627  0.07599  0.18181  1.0000
  C   C3003     1.0  0.88676  0.12981  0.09910  1.0000
  C   C3004     1.0  0.85223  0.29832  0.98806  1.0000
  C   C3005     1.0  0.83895  0.16063  0.22450  1.0000
  S   S402      1.0  0.81603  0.32070  0.02635  1.0000
  C   C3006     1.0  0.83594  0.10487  0.22843  1.0000
  C   C3007     1.0  0.98159  0.02557  0.19371  1.0000
  C   C3008     1.0  0.77215  0.10270  0.19512  1.0000
  H   H2405     1.0  0.82487  0.09555  0.98561  1.0000
  C   C3009     1.0  0.96585  0.31385  0.21276  1.0000
  P   P101      1.0  0.76591  0.26610  0.11066  1.0000
  H   H2406     1.0  0.89771  0.05054  0.02845  1.0000
  C   C3010     1.0  0.75827  0.23392  0.13563  1.0000
  H   H2407     1.0  0.77749  0.21521  0.46685  1.0000
  H   H2408     1.0  0.84138  0.20005  0.36787  1.0000
  P   P102      1.0  0.95997  0.01943  0.18567  1.0000
  C   C3011     1.0  0.75669  0.08286  0.22751  1.0000
  C   C3012     1.0  0.87435  0.12992  0.07645  1.0000
  H   H2409     1.0  0.86227  0.30404  0.00122  1.0000
  H   H2410     1.0  0.81567  0.30464  0.17323  1.0000
  C   C3013     1.0  0.93918  0.01838  0.27133  1.0000
  H   H2411     1.0  0.83235  0.14206  0.25814  1.0000
  C   C3014     1.0  0.95156  0.01198  0.22171  1.0000
  C   C3015     1.0  0.85446  0.07912  0.03486  1.0000
  H   H2412     1.0  0.77604  0.16603  0.22572  1.0000
  C   C3016     1.0  0.81431  0.08411  0.19524  1.0000
  C   C3017     1.0  0.76137  0.21653  0.14072  1.0000
  C   C3018     1.0  0.92968  0.03777  0.17744  1.0000
  H   H2413     1.0  0.90099  0.08900  0.09290  1.0000
  C   C3019     1.0  0.84553  0.15081  0.37090  1.0000
  C   C3020     1.0  0.91979  0.05172  0.16769  1.0000
  H   H2414     1.0  0.90625  0.05226  0.17279  1.0000
  H   H2415     1.0  0.84964  0.18426  0.32156  1.0000
  C   C3021     1.0  0.89329  0.10024  0.08819  1.0000
  H   H2416     1.0  0.81768  0.26310  0.47343  1.0000
  H   H2417     1.0  0.88152  0.04621  0.13789  1.0000
  C   C3022     1.0  0.87118  0.11518  0.05984  1.0000
  C   C3023     1.0  0.94736  0.03743  0.17252  1.0000
  C   C3024     1.0  0.94497  0.06483  0.14665  1.0000
  C   C3025     1.0  0.79212  0.13356  0.18222  1.0000
  C   C3026     1.0  0.77528  0.20836  0.12673  1.0000
  H   H2418     1.0  0.88873  0.14115  0.11253  1.0000
  C   C3027     1.0  0.82896  0.07716  0.20877  1.0000
  H   H2419     1.0  0.86143  0.11571  0.04254  1.0000
  C   C3028     1.0  0.92743  0.06531  0.15254  1.0000
  C   C3029     1.0  0.79418  0.16901  0.18909  1.0000
  H   H2420     1.0  0.87174  0.07097  0.10755  1.0000
  C   C3030     1.0  0.99132  0.06234  0.29131  1.0000
  C   C3031     1.0  0.95036  0.99451  0.22830  1.0000
  C   C3032     1.0  0.89968  0.03578  0.06965  1.0000
  H   H2421     1.0  0.89951  0.02362  0.11394  1.0000
  C   C3033     1.0  0.83025  0.08748  0.00341  1.0000
  H   H2422     1.0  0.74780  0.26723  0.16939  1.0000
  C   C3034     1.0  0.84701  0.28180  0.99486  1.0000
  C   C3035     1.0  0.75096  0.24538  0.42965  1.0000
  H   H2423     1.0  0.76728  0.32399  0.98258  1.0000
  C   C3036     1.0  0.82727  0.06494  0.04078  1.0000
  H   H2424     1.0  0.77704  0.28168  0.98514  1.0000
  C   C3037     1.0  0.81455  0.23675  0.46172  1.0000
  H   H2425     1.0  0.85485  0.09874  0.99984  1.0000
  C   C3038     1.0  0.96998  0.00308  0.13178  1.0000
  S   S403      1.0  0.81188  0.32421  0.10122  1.0000
  C   C3039     1.0  0.98379  0.31999  0.26643  1.0000
  H   H2426     1.0  0.99078  0.32206  0.28724  1.0000
  H   H2427     1.0  0.74666  0.15203  0.16876  1.0000
  C   C3040     1.0  0.75341  0.18936  0.03507  1.0000
  H   H2428     1.0  0.98450  0.01589  0.26963  1.0000
  H   H2429     1.0  0.82954  0.26192  0.98420  1.0000
  H   H2430     1.0  0.98058  0.29328  0.27606  1.0000
  C   C3041     1.0  0.74620  0.23885  0.45830  1.0000
  C   C3042     1.0  0.74462  0.27323  0.12145  1.0000
  H   H2431     1.0  0.74546  0.24640  0.38157  1.0000
  H   H2432     1.0  0.84307  0.32326  0.37536  1.0000
  C   C3043     1.0  0.78048  0.24151  0.48032  1.0000
  H   H2433     1.0  0.88690  0.06979  0.93432  1.0000
  C   C3044     1.0  0.95520  0.04204  0.72732  1.0000
  Fe  Fe202     1.0  0.81271  0.30144  0.55146  1.0000
  S   S404      1.0  0.80481  0.27345  0.55517  1.0000
  H   H2434     1.0  0.97357  0.99860  0.85001  1.0000
  Fe  Fe203     1.0  0.82996  0.17533  0.52889  1.0000
  S   S405      1.0  0.81038  0.16197  0.50111  1.0000
  S   S406      1.0  0.83928  0.20220  0.51856  1.0000
  Fe  Fe204     1.0  0.83653  0.14369  0.56900  1.0000
  S   S407      1.0  0.81681  0.12835  0.54413  1.0000
  S   S408      1.0  0.85679  0.13585  0.60426  1.0000
  Fe  Fe205     1.0  0.82831  0.13911  0.50052  1.0000
  C   C3045     1.0  0.88399  0.06953  0.59177  1.0000
  Fe  Fe206     1.0  0.80036  0.15239  0.54646  1.0000
  S   S409      1.0  0.77123  0.15641  0.55067  1.0000
  S   S410      1.0  0.84861  0.15324  0.52535  1.0000
  S   S411      1.0  0.81939  0.16693  0.57410  1.0000
  Fe  Fe207     1.0  0.89234  0.08359  0.82765  1.0000
  S   S412      1.0  0.89980  0.09958  0.78674  1.0000
  S   S413      1.0  0.88910  0.09742  0.87459  1.0000
  Fe  Fe208     1.0  0.89547  0.05024  0.78842  1.0000
  S   S414      1.0  0.90234  0.06459  0.74594  1.0000
  S   S415      1.0  0.89614  0.02084  0.78878  1.0000
  Fe  Fe209     1.0  0.91987  0.07946  0.77608  1.0000
  S   S416      1.0  0.94611  0.08610  0.75598  1.0000
  Fe  Fe210     1.0  0.88189  0.08353  0.75975  1.0000
  S   S417      1.0  0.86017  0.09381  0.72970  1.0000
  S   S418      1.0  0.91388  0.06443  0.81843  1.0000
  S   S419      1.0  0.87358  0.06811  0.80092  1.0000
  C   C3046     1.0  0.96659  0.07973  0.76993  1.0000
  C   C3047     1.0  0.96863  0.07105  0.79766  1.0000
  C   C3048     1.0  0.98127  0.08400  0.75302  1.0000
  H   H2435     1.0  0.95751  0.06764  0.81093  1.0000
  H   H2436     1.0  0.97987  0.09069  0.73153  1.0000
  C   C3049     1.0  0.89466  0.00667  0.75710  1.0000
  C   C3050     1.0  0.88821  0.01194  0.72883  1.0000
  H   H2437     1.0  0.98186  0.00896  0.64859  1.0000
  H   H2438     1.0  0.88391  0.02497  0.72589  1.0000
  H   H2439     1.0  0.76508  0.10156  0.49452  1.0000
  C   C3051     1.0  0.85739  0.12325  0.63819  1.0000
  C   C3052     1.0  0.87307  0.12106  0.65328  1.0000
  C   C3053     1.0  0.87422  0.11187  0.68097  1.0000
  C   C3054     1.0  0.85967  0.10474  0.69399  1.0000
  C   C3055     1.0  0.84403  0.10673  0.67871  1.0000
  C   C3056     1.0  0.84289  0.11578  0.65082  1.0000
  H   H2440     1.0  0.88439  0.12656  0.64343  1.0000
  H   H2441     1.0  0.88630  0.11053  0.69252  1.0000
  H   H2442     1.0  0.83267  0.10131  0.68862  1.0000
  H   H2443     1.0  0.83076  0.11728  0.63949  1.0000
  C   C3057     1.0  0.85179  0.12163  0.94711  1.0000
  C   C3058     1.0  0.86946  0.12402  0.94824  1.0000
  C   C3059     1.0  0.88046  0.11671  0.92585  1.0000
  C   C3060     1.0  0.87420  0.10673  0.90180  1.0000
  C   C3061     1.0  0.85652  0.10436  0.90061  1.0000
  C   C3062     1.0  0.84550  0.11170  0.92302  1.0000
  H   H2444     1.0  0.83014  0.05983  0.70672  1.0000
  H   H2445     1.0  0.89401  0.11885  0.92722  1.0000
  H   H2446     1.0  0.85131  0.09678  0.88251  1.0000
  H   H2447     1.0  0.83193  0.10965  0.92163  1.0000
  C   C3063     1.0  0.86939  0.05925  0.65210  1.0000
  C   C3064     1.0  0.98797  0.11852  0.85146  1.0000
  C   C3065     1.0  0.76189  0.21632  0.53127  1.0000
  H   H2448     1.0  0.77138  0.14446  0.61468  1.0000
  C   C3066     1.0  0.81519  0.25373  0.54683  1.0000
  C   C3067     1.0  0.80634  0.23850  0.55198  1.0000
  C   C3068     1.0  0.81367  0.22259  0.54422  1.0000
  C   C3069     1.0  0.82994  0.22173  0.53104  1.0000
  C   C3070     1.0  0.83894  0.23691  0.52654  1.0000
  C   C3071     1.0  0.83164  0.25283  0.53444  1.0000
  H   H2449     1.0  0.79359  0.23901  0.56138  1.0000
  H   H2450     1.0  0.80659  0.21103  0.54777  1.0000
  C   C3072     1.0  0.88690  0.00023  0.70460  1.0000
  H   H2451     1.0  0.83859  0.26440  0.53031  1.0000
  C   C3073     1.0  0.82532  0.28415  0.95590  1.0000
  C   C3074     1.0  0.85342  0.06504  0.64161  1.0000
  C   C3075     1.0  0.93293  0.02193  0.71770  1.0000
  H   H2452     1.0  0.96444  0.10857  0.86930  1.0000
  S   S420      1.0  0.80039  0.31905  0.51707  1.0000
  C   C3076     1.0  0.79127  0.28175  0.84951  1.0000
  H   H2453     1.0  0.82712  0.07011  0.65335  1.0000
  P   P103      1.0  0.81941  0.31352  0.92080  1.0000
  C   C3077     1.0  0.75140  0.11343  0.53161  1.0000
  H   H2454     1.0  0.78804  0.26750  0.48952  1.0000
  C   C3078     1.0  0.83075  0.30063  0.94849  1.0000
  C   C3079     1.0  0.81563  0.28585  0.88217  1.0000
  C   C3080     1.0  0.83930  0.06517  0.66124  1.0000
  H   H2455     1.0  0.98202  0.03929  0.66315  1.0000
  C   C3081     1.0  0.74764  0.30023  0.51869  1.0000
  H   H2456     1.0  0.85725  0.18835  0.57036  1.0000
  C   C3082     1.0  0.91886  0.08487  0.68355  1.0000
  C   C3083     1.0  0.75539  0.15563  0.58004  1.0000
  H   H2457     1.0  0.91627  0.00234  0.64600  1.0000
  H   H2458     1.0  0.91759  0.09206  0.70450  1.0000
  C   C3084     1.0  0.98925  0.01281  0.66810  1.0000
  C   C3085     1.0  0.74552  0.14835  0.63124  1.0000
  H   H2459     1.0  0.77022  0.26520  0.54138  1.0000
  C   C3086     1.0  0.93093  0.02427  0.85008  1.0000
  P   P104      1.0  0.96227  0.00173  0.78656  1.0000
  C   C3087     1.0  0.90614  0.08585  0.95282  1.0000
  C   C3088     1.0  0.85060  0.32157  0.89350  1.0000
  H   H2460     1.0  0.91325  0.03353  0.65101  1.0000
  C   C3089     1.0  0.75855  0.28994  0.53616  1.0000
  C   C3090     1.0  0.87948  0.02634  0.60447  1.0000
  H   H2461     1.0  0.78693  0.28263  0.61379  1.0000
  H   H2462     1.0  0.85798  0.04861  0.72488  1.0000
  H   H2463     1.0  0.92133  0.01857  0.70607  1.0000
  C   C3091     1.0  0.88752  0.06198  0.56340  1.0000
  C   C3092     1.0  0.96221  0.03104  0.74930  1.0000
  H   H2464     1.0  0.78476  0.27439  0.83244  1.0000
  H   H2465     1.0  0.77173  0.30133  0.85148  1.0000
  H   H2466     1.0  0.95004  0.10873  0.81908  1.0000
  H   H2467     1.0  0.81450  0.27867  0.94465  1.0000
  H   H2468     1.0  0.97326  0.03517  0.76151  1.0000
  C   C3093     1.0  0.89167  0.07578  0.95472  1.0000
  C   C3094     1.0  0.87514  0.09556  0.56559  1.0000
  C   C3095     1.0  0.93652  0.07315  0.64317  1.0000
  H   H2469     1.0  0.85577  0.31015  0.90412  1.0000
  C   C3096     1.0  0.89465  0.00007  0.61660  1.0000
  H   H2470     1.0  0.77392  0.21333  0.52032  1.0000
  C   C3097     1.0  0.97114  0.11306  0.84921  1.0000
  H   H2471     1.0  0.88289  0.04801  0.69025  1.0000
  H   H2472     1.0  0.74561  0.31345  0.52473  1.0000
  H   H2473     1.0  0.86871  0.03275  0.59381  1.0000
  H   H2474     1.0  0.81303  0.26471  0.85157  1.0000
  C   C3098     1.0  0.84095  0.05929  0.69124  1.0000
  H   H2475     1.0  0.85154  0.23637  0.51639  1.0000
  H   H2476     1.0  0.96084  0.05434  0.72314  1.0000
  H   H2477     1.0  0.88154  0.00446  0.68313  1.0000
  C   C3099     1.0  0.79231  0.30646  0.88224  1.0000
  C   C3100     1.0  0.90456  0.02686  0.63645  1.0000
  C   C3101     1.0  0.94053  0.03754  0.71165  1.0000
  H   H2478     1.0  0.77524  0.25596  0.59401  1.0000
  C   C3102     1.0  0.76719  0.26429  0.60769  1.0000
  C   C3103     1.0  0.76348  0.29045  0.63587  1.0000
  C   C3104     1.0  0.98533  0.00214  0.78968  1.0000
  C   C3105     1.0  0.92212  0.06597  0.62998  1.0000
  C   C3106     1.0  0.93983  0.01093  0.73975  1.0000
  C   C3107     1.0  0.75587  0.20504  0.55346  1.0000
  C   C3108     1.0  0.88125  0.00865  0.60195  1.0000
  C   C3109     1.0  0.95456  0.01535  0.75584  1.0000
  H   H2479     1.0  0.96418  0.99472  0.69266  1.0000
  H   H2480     1.0  0.93481  0.04635  0.69543  1.0000
  C   C3110     1.0  0.81799  0.27260  0.64977  1.0000
  C   C3111     1.0  0.82866  0.27814  0.62622  1.0000
  C   C3112     1.0  0.83812  0.26630  0.60925  1.0000
  C   C3113     1.0  0.83714  0.24890  0.61599  1.0000
  C   C3114     1.0  0.82684  0.24325  0.64022  1.0000
  C   C3115     1.0  0.81698  0.25522  0.65664  1.0000
  P   P105      1.0  0.82621  0.22086  0.65024  1.0000
  C   C3116     1.0  0.80673  0.21138  0.63697  1.0000
  C   C3117     1.0  0.84461  0.21004  0.63402  1.0000
  C   C3118     1.0  0.86006  0.20927  0.65005  1.0000
  C   C3119     1.0  0.87431  0.20089  0.63752  1.0000
  C   C3120     1.0  0.87323  0.19320  0.60896  1.0000
  C   C3121     1.0  0.85801  0.19417  0.59268  1.0000
  C   C3122     1.0  0.84380  0.20271  0.60495  1.0000
  C   C3123     1.0  0.80575  0.19361  0.63410  1.0000
  C   C3124     1.0  0.79039  0.18604  0.62629  1.0000
  C   C3125     1.0  0.77588  0.19612  0.62116  1.0000
  C   C3126     1.0  0.77681  0.21385  0.62304  1.0000
  C   C3127     1.0  0.79217  0.22147  0.63087  1.0000
  C   C3128     1.0  0.82750  0.21811  0.69125  1.0000
  C   C3129     1.0  0.82246  0.20277  0.70501  1.0000
  C   C3130     1.0  0.82356  0.20054  0.73661  1.0000
  C   C3131     1.0  0.82976  0.21357  0.75479  1.0000
  C   C3132     1.0  0.83509  0.22877  0.74132  1.0000
  C   C3133     1.0  0.83420  0.23096  0.70966  1.0000
  H   H2481     1.0  0.81051  0.28185  0.66259  1.0000
  H   H2482     1.0  0.82945  0.29162  0.62084  1.0000
  H   H2483     1.0  0.84598  0.27062  0.59041  1.0000
  H   H2484     1.0  0.84438  0.23999  0.60207  1.0000
  H   H2485     1.0  0.80863  0.25114  0.67494  1.0000
  H   H2486     1.0  0.86118  0.21521  0.67211  1.0000
  H   H2487     1.0  0.88621  0.20034  0.64992  1.0000
  H   H2488     1.0  0.88418  0.18657  0.59922  1.0000
  C   C3134     1.0  0.98929  0.03001  0.67629  1.0000
  H   H2489     1.0  0.83224  0.20361  0.59161  1.0000
  H   H2490     1.0  0.81684  0.18555  0.63805  1.0000
  H   H2491     1.0  0.78971  0.17233  0.62406  1.0000
  H   H2492     1.0  0.76398  0.19011  0.61547  1.0000
  H   H2493     1.0  0.76562  0.22167  0.61846  1.0000
  H   H2494     1.0  0.79256  0.23519  0.63222  1.0000
  H   H2495     1.0  0.81771  0.19242  0.69154  1.0000
  H   H2496     1.0  0.81957  0.18867  0.74700  1.0000
  H   H2497     1.0  0.83050  0.21186  0.77931  1.0000
  H   H2498     1.0  0.84002  0.23884  0.75539  1.0000
  H   H2499     1.0  0.83885  0.24266  0.69970  1.0000
  C   C3135     1.0  0.83228  0.14668  0.70133  1.0000
  C   C3136     1.0  0.83313  0.15495  0.67309  1.0000
  C   C3137     1.0  0.84756  0.16420  0.66523  1.0000
  C   C3138     1.0  0.86113  0.16523  0.68559  1.0000
  C   C3139     1.0  0.86050  0.15683  0.71397  1.0000
  C   C3140     1.0  0.84593  0.14749  0.72161  1.0000
  P   P106      1.0  0.87822  0.15827  0.74014  1.0000
  C   C3141     1.0  0.89643  0.14566  0.72741  1.0000
  C   C3142     1.0  0.88491  0.18016  0.74211  1.0000
  C   C3143     1.0  0.90176  0.18389  0.75003  1.0000
  C   C3144     1.0  0.90706  0.20078  0.75124  1.0000
  C   C3145     1.0  0.89560  0.21407  0.74463  1.0000
  C   C3146     1.0  0.87877  0.21049  0.73707  1.0000
  C   C3147     1.0  0.87337  0.19361  0.73605  1.0000
  C   C3148     1.0  0.90049  0.14440  0.69626  1.0000
  C   C3149     1.0  0.91500  0.13524  0.68670  1.0000
  C   C3150     1.0  0.92570  0.12745  0.70817  1.0000
  C   C3151     1.0  0.92190  0.12880  0.73921  1.0000
  C   C3152     1.0  0.90743  0.13795  0.74884  1.0000
  C   C3153     1.0  0.87197  0.15097  0.77775  1.0000
  C   C3154     1.0  0.86971  0.13349  0.78315  1.0000
  C   C3155     1.0  0.86564  0.12756  0.81241  1.0000
  C   C3156     1.0  0.86375  0.13901  0.83648  1.0000
  C   C3157     1.0  0.86578  0.15644  0.83127  1.0000
  C   C3158     1.0  0.86987  0.16244  0.80202  1.0000
  H   H2500     1.0  0.82133  0.13903  0.70703  1.0000
  H   H2501     1.0  0.82293  0.15360  0.65677  1.0000
  H   H2502     1.0  0.84849  0.16995  0.64277  1.0000
  H   H2503     1.0  0.87222  0.17239  0.67898  1.0000
  H   H2504     1.0  0.84503  0.14057  0.74290  1.0000
  H   H2505     1.0  0.91083  0.17379  0.75534  1.0000
  H   H2506     1.0  0.92009  0.20357  0.75730  1.0000
  H   H2507     1.0  0.89976  0.22716  0.74549  1.0000
  H   H2508     1.0  0.86994  0.22083  0.73203  1.0000
  H   H2509     1.0  0.86023  0.19110  0.73050  1.0000
  H   H2510     1.0  0.89244  0.15024  0.67916  1.0000
  H   H2511     1.0  0.91783  0.13405  0.66257  1.0000
  H   H2512     1.0  0.93686  0.12023  0.70083  1.0000
  H   H2513     1.0  0.93011  0.12257  0.75584  1.0000
  H   H2514     1.0  0.90491  0.13899  0.77307  1.0000
  H   H2515     1.0  0.87120  0.12441  0.76474  1.0000
  H   H2516     1.0  0.86413  0.11403  0.81655  1.0000
  H   H2517     1.0  0.86080  0.13434  0.85922  1.0000
  H   H2518     1.0  0.86432  0.16525  0.85007  1.0000
  H   H2519     1.0  0.87151  0.17596  0.79862  1.0000
  C   C3159     1.0  0.74650  0.28636  0.64199  1.0000
  C   C3160     1.0  0.95464  0.01148  0.87732  1.0000
  C   C3161     1.0  0.77384  0.27936  0.61892  1.0000
  P   P107      1.0  0.88772  0.05813  0.62707  1.0000
  C   C3162     1.0  0.95363  0.00981  0.82200  1.0000
  H   H2520     1.0  0.85174  0.06950  0.61843  1.0000
  H   H2521     1.0  0.93326  0.99924  0.74478  1.0000
  H   H2522     1.0  0.94603  0.08778  0.68082  1.0000
  H   H2523     1.0  0.89265  0.04914  0.56200  1.0000
  H   H2524     1.0  0.78620  0.30669  0.94899  1.0000
  H   H2525     1.0  0.76265  0.11927  0.54101  1.0000
  H   H2526     1.0  0.96524  0.11905  0.77316  1.0000
  C   C3163     1.0  0.78389  0.29689  0.86033  1.0000
  C   C3164     1.0  0.87079  0.05288  0.68196  1.0000
  C   C3165     1.0  0.85666  0.05301  0.70151  1.0000
  H   H2527     1.0  0.74823  0.14317  0.65364  1.0000
  C   C3166     1.0  0.80717  0.27628  0.86032  1.0000
  H   H2528     1.0  0.93153  0.02204  0.80145  1.0000
  C   C3167     1.0  0.89127  0.03561  0.62137  1.0000
  C   C3168     1.0  0.98512  0.06718  0.80870  1.0000
  C   C3169     1.0  0.97158  0.11906  0.79504  1.0000
  C   C3170     1.0  0.88455  0.07109  0.53635  1.0000
  C   C3171     1.0  0.87814  0.08651  0.59265  1.0000
  H   H2529     1.0  0.91249  0.08757  0.93098  1.0000
  C   C3172     1.0  0.75274  0.10350  0.50537  1.0000
  H   H2530     1.0  0.88712  0.06522  0.51446  1.0000
  C   C3173     1.0  0.75376  0.26619  0.50212  1.0000
  C   C3174     1.0  0.75012  0.26033  0.61312  1.0000
  S   S421      1.0  0.83725  0.31589  0.55005  1.0000
  C   C3175     1.0  0.83366  0.27467  0.97860  1.0000
  H   H2531     1.0  0.94891  0.07150  0.63248  1.0000
  C   C3176     1.0  0.96177  0.00594  0.84970  1.0000
  H   H2532     1.0  0.93364  0.02490  0.89887  1.0000
  C   C3177     1.0  0.93921  0.02063  0.87751  1.0000
  H   H2533     1.0  0.87569  0.09271  0.61427  1.0000
  C   C3178     1.0  0.84417  0.30768  0.96491  1.0000
  H   H2534     1.0  0.89217  0.07992  0.68115  1.0000
  C   C3179     1.0  0.76148  0.27295  0.52804  1.0000
  H   H2535     1.0  0.96107  0.00862  0.89860  1.0000
  C   C3180     1.0  0.93490  0.08245  0.67016  1.0000
  C   C3181     1.0  0.93817  0.01903  0.82240  1.0000
  C   C3182     1.0  0.80802  0.30074  0.89395  1.0000
  H   H2536     1.0  0.98650  0.06078  0.83048  1.0000
  C   C3183     1.0  0.87825  0.08784  0.53744  1.0000
  H   H2537     1.0  0.82814  0.28169  0.88979  1.0000
  H   H2538     1.0  0.91881  0.03112  0.85012  1.0000
  H   H2539     1.0  0.76310  0.19347  0.55854  1.0000
  C   C3184     1.0  0.75872  0.14913  0.60920  1.0000
  C   C3185     1.0  0.90630  0.00917  0.63381  1.0000
  S   S422      1.0  0.80275  0.31616  0.59177  1.0000
  H   H2540     1.0  0.92351  0.05882  0.60902  1.0000
  C   C3186     1.0  0.96298  0.11326  0.82098  1.0000
  C   C3187     1.0  0.90446  0.07777  0.67038  1.0000
  C   C3188     1.0  0.90604  0.06793  0.64388  1.0000
  H   H2541     1.0  0.87582  0.09488  0.51649  1.0000
  H   H2542     1.0  0.76503  0.29528  0.55562  1.0000
  H   H2543     1.0  0.89493  0.99222  0.83733  1.0000
  H   H2544     1.0  0.76851  0.30242  0.64377  1.0000
  H   H2545     1.0  0.87036  0.10859  0.56644  1.0000
  H   H2546     1.0  0.87716  0.31578  0.56095  1.0000
  C   C3189     1.0  0.78967  0.31957  0.95456  1.0000
  H   H2547     1.0  0.78662  0.31839  0.88976  1.0000
  H   H2548     1.0  0.87469  0.13154  0.96640  1.0000
  H   H2549     1.0  0.84818  0.32056  0.96031  1.0000
  H   H2550     1.0  0.87200  0.00150  0.58927  1.0000
  C   C3190     1.0  0.75230  0.23093  0.52335  1.0000
  H   H2551     1.0  0.74503  0.24904  0.60284  1.0000
  P   P108      1.0  0.75838  0.24438  0.49154  1.0000
  C   C3191     1.0  0.98846  0.12435  0.79712  1.0000
  S   S423      1.0  0.83717  0.13051  0.97523  1.0000
  H   H2552     1.0  0.92305  0.10221  0.97704  1.0000
  C   C3192     1.0  0.91199  0.09418  0.97872  1.0000
  H   H2553     1.0  0.98571  0.02808  0.80651  1.0000
  C   C3193     1.0  0.79191  0.25509  0.48121  1.0000
  C   C3194     1.0  0.74257  0.27655  0.48495  1.0000
  Fe  Fe211     1.0  0.83364  0.34339  0.02756  1.0000
  H   H2554     1.0  0.83129  0.43114  0.28612  1.0000
  Fe  Fe212     1.0  0.79913  0.33512  0.05991  1.0000
  C   C3195     1.0  0.82428  0.40902  0.26043  1.0000
  Fe  Fe213     1.0  0.82943  0.34661  0.09806  1.0000
  S   S424      1.0  0.83199  0.36241  0.14184  1.0000
  S   S425      1.0  0.81555  0.35852  0.05794  1.0000
  Fe  Fe214     1.0  0.92807  0.57096  0.16866  1.0000
  S   S426      1.0  0.90858  0.55671  0.14141  1.0000
  S   S427      1.0  0.95609  0.56284  0.15889  1.0000
  Fe  Fe215     1.0  0.89944  0.58811  0.20647  1.0000
  S   S428      1.0  0.87853  0.57464  0.18196  1.0000
  S   S429      1.0  0.89585  0.60769  0.24478  1.0000
  Fe  Fe216     1.0  0.89567  0.55125  0.18634  1.0000
  S   S430      1.0  0.88501  0.52461  0.19629  1.0000
  Fe  Fe217     1.0  0.89288  0.58121  0.13849  1.0000
  S   S431      1.0  0.87994  0.58779  0.09170  1.0000
  S   S432      1.0  0.91562  0.56432  0.21363  1.0000
  S   S433      1.0  0.91333  0.59581  0.16298  1.0000
  Fe  Fe218     1.0  0.89646  0.39970  0.26870  1.0000
  S   S434      1.0  0.87736  0.41761  0.29083  1.0000
  S   S435      1.0  0.89504  0.38516  0.22358  1.0000
  Fe  Fe219     1.0  0.92366  0.40628  0.31721  1.0000
  S   S436      1.0  0.90601  0.42414  0.34260  1.0000
  S   S437      1.0  0.95039  0.40156  0.33663  1.0000
  Fe  Fe220     1.0  0.88536  0.40477  0.33557  1.0000
  S   S438      1.0  0.86585  0.39858  0.37460  1.0000
  Fe  Fe221     1.0  0.89958  0.43541  0.29638  1.0000
  S   S439      1.0  0.90343  0.46443  0.29122  1.0000
  S   S440      1.0  0.90353  0.38618  0.31272  1.0000
  S   S441      1.0  0.91815  0.41814  0.27180  1.0000
  Fe  Fe222     1.0  0.82840  0.63954  0.37718  1.0000
  S   S442      1.0  0.81153  0.63074  0.41622  1.0000
  S   S443      1.0  0.83462  0.61960  0.34028  1.0000
  H   H2555     1.0  0.84268  0.58856  0.37620  1.0000
  C   C3196     1.0  0.83162  0.59515  0.45035  1.0000
  Fe  Fe223     1.0  0.82873  0.64605  0.44648  1.0000
  S   S444      1.0  0.83680  0.64239  0.00911  1.0000
  C   C3197     1.0  0.96775  0.52719  0.21270  1.0000
  C   C3198     1.0  0.77532  0.37796  0.16763  1.0000
  H   H2556     1.0  0.97196  0.48380  0.16490  1.0000
  C   C3199     1.0  0.97019  0.40613  0.31855  1.0000
  H   H2557     1.0  0.98105  0.44742  0.23175  1.0000
  C   C3200     1.0  0.97121  0.41023  0.28757  1.0000
  C   C3201     1.0  0.84040  0.65834  0.25473  1.0000
  H   H2558     1.0  0.95969  0.41095  0.27426  1.0000
  C   C3202     1.0  0.97666  0.57115  0.16754  1.0000
  C   C3203     1.0  0.97878  0.58724  0.18044  1.0000
  H   H2559     1.0  0.85864  0.38842  0.02551  1.0000
  H   H2560     1.0  0.96768  0.59501  0.18588  1.0000
  C   C3204     1.0  0.83047  0.64753  0.27259  1.0000
  C   C3205     1.0  0.87834  0.61127  0.27023  1.0000
  C   C3206     1.0  0.86372  0.60133  0.26978  1.0000
  C   C3207     1.0  0.85043  0.60430  0.29106  1.0000
  C   C3208     1.0  0.85149  0.61723  0.31305  1.0000
  C   C3209     1.0  0.86595  0.62742  0.31309  1.0000
  C   C3210     1.0  0.87929  0.62439  0.29190  1.0000
  H   H2561     1.0  0.86270  0.59129  0.25314  1.0000
  H   H2562     1.0  0.83917  0.59659  0.29041  1.0000
  H   H2563     1.0  0.86695  0.63751  0.32964  1.0000
  H   H2564     1.0  0.89049  0.63224  0.29240  1.0000
  C   C3211     1.0  0.86826  0.60328  0.06874  1.0000
  C   C3212     1.0  0.86276  0.59889  0.03921  1.0000
  C   C3213     1.0  0.85345  0.61060  0.02049  1.0000
  C   C3214     1.0  0.84937  0.62705  0.03090  1.0000
  C   C3215     1.0  0.85508  0.63148  0.06027  1.0000
  C   C3216     1.0  0.86435  0.61977  0.07893  1.0000
  H   H2565     1.0  0.86566  0.58627  0.03071  1.0000
  H   H2566     1.0  0.89609  0.57871  0.43814  1.0000
  H   H2567     1.0  0.85235  0.64416  0.06861  1.0000
  H   H2568     1.0  0.86860  0.62348  0.10120  1.0000
  C   C3217     1.0  0.89086  0.50791  0.22231  1.0000
  C   C3218     1.0  0.88220  0.49235  0.22103  1.0000
  C   C3219     1.0  0.88605  0.47883  0.24143  1.0000
  C   C3220     1.0  0.89861  0.48069  0.26363  1.0000
  C   C3221     1.0  0.90747  0.49616  0.26459  1.0000
  C   C3222     1.0  0.90368  0.50966  0.24409  1.0000
  H   H2569     1.0  0.87229  0.49080  0.20428  1.0000
  H   H2570     1.0  0.87904  0.46712  0.24035  1.0000
  H   H2571     1.0  0.91729  0.49775  0.28144  1.0000
  H   H2572     1.0  0.91055  0.52146  0.24531  1.0000
  C   C3223     1.0  0.84718  0.35878  0.44732  1.0000
  C   C3224     1.0  0.86037  0.35454  0.42647  1.0000
  C   C3225     1.0  0.86626  0.36638  0.40427  1.0000
  C   C3226     1.0  0.85901  0.38280  0.40222  1.0000
  C   C3227     1.0  0.84579  0.38702  0.42302  1.0000
  C   C3228     1.0  0.83999  0.37522  0.44533  1.0000
  H   H2573     1.0  0.86613  0.34194  0.42749  1.0000
  H   H2574     1.0  0.87641  0.36276  0.38871  1.0000
  H   H2575     1.0  0.84001  0.39960  0.42196  1.0000
  H   H2576     1.0  0.80383  0.56446  0.42945  1.0000
  C   C3229     1.0  0.84983  0.36856  0.16402  1.0000
  C   C3230     1.0  0.84708  0.37966  0.18875  1.0000
  C   C3231     1.0  0.86065  0.38465  0.20756  1.0000
  C   C3232     1.0  0.87725  0.37879  0.20152  1.0000
  C   C3233     1.0  0.88003  0.36779  0.17666  1.0000
  C   C3234     1.0  0.86642  0.36263  0.15809  1.0000
  H   H2577     1.0  0.83437  0.38453  0.19318  1.0000
  H   H2578     1.0  0.85831  0.39319  0.22644  1.0000
  H   H2579     1.0  0.89282  0.36320  0.17171  1.0000
  H   H2580     1.0  0.86877  0.35410  0.13919  1.0000
  C   C3235     1.0  0.89279  0.56837  0.39311  1.0000
  H   H2581     1.0  0.89298  0.33197  0.23991  1.0000
  C   C3236     1.0  0.90686  0.38423  0.46052  1.0000
  H   H2582     1.0  0.95091  0.47026  0.32830  1.0000
  H   H2583     1.0  0.90127  0.47129  0.01821  1.0000
  H   H2584     1.0  0.77548  0.35305  0.99729  1.0000
  H   H2585     1.0  0.81455  0.65277  0.07177  1.0000
  C   C3237     1.0  0.89636  0.47063  0.99520  1.0000
  C   C3238     1.0  0.92715  0.57759  0.28429  1.0000
  H   H2586     1.0  0.83453  0.60358  0.46901  1.0000
  H   H2587     1.0  0.82067  0.61808  0.21960  1.0000
  C   C3239     1.0  0.88428  0.40473  0.45016  1.0000
  C   C3240     1.0  0.95491  0.36698  0.24584  1.0000
  H   H2588     1.0  0.75068  0.32832  0.16318  1.0000
  S   S445      1.0  0.84006  0.34299  0.47471  1.0000
  C   C3241     1.0  0.82381  0.34227  0.38511  1.0000
  C   C3242     1.0  0.85036  0.33465  0.25438  1.0000
  H   H2589     1.0  0.89772  0.44330  0.99386  1.0000
  C   C3243     1.0  0.78311  0.34369  0.25206  1.0000
  C   C3244     1.0  0.95194  0.48256  0.28418  1.0000
  H   H2590     1.0  0.87777  0.41323  0.43432  1.0000
  H   H2591     1.0  0.82981  0.37885  0.46080  1.0000
  C   C3245     1.0  0.87899  0.60034  0.37798  1.0000
  H   H2592     1.0  0.92801  0.58775  0.26746  1.0000
  C   C3246     1.0  0.91120  0.57307  0.29586  1.0000
  C   C3247     1.0  0.94723  0.39286  0.21866  1.0000
  H   H2593     1.0  0.77856  0.36551  0.09367  1.0000
  C   C3248     1.0  0.99138  0.56132  0.16059  1.0000
  C   C3249     1.0  0.97758  0.36300  0.31289  1.0000
  C   C3250     1.0  0.97225  0.36972  0.23972  1.0000
  P   P109      1.0  0.82959  0.35859  0.28424  1.0000
  C   C3251     1.0  0.83031  0.38160  0.28449  1.0000
  C   C3252     1.0  0.84971  0.35018  0.27017  1.0000
  C   C3253     1.0  0.86495  0.35866  0.27600  1.0000
  C   C3254     1.0  0.88049  0.35189  0.26551  1.0000
  C   C3255     1.0  0.84301  0.65489  0.22378  1.0000
  H   H2594     1.0  0.79399  0.34852  0.29586  1.0000
  C   C3256     1.0  0.75938  0.33101  0.11655  1.0000
  C   C3257     1.0  0.83708  0.39011  0.30966  1.0000
  C   C3258     1.0  0.83711  0.40789  0.31042  1.0000
  C   C3259     1.0  0.83085  0.41735  0.28574  1.0000
  H   H2595     1.0  0.88257  0.37887  0.99270  1.0000
  H   H2596     1.0  0.95209  0.49526  0.29355  1.0000
  C   C3260     1.0  0.81251  0.35197  0.25958  1.0000
  C   C3261     1.0  0.97691  0.38402  0.22238  1.0000
  H   H2597     1.0  0.75090  0.44746  0.15101  1.0000
  C   C3262     1.0  0.86393  0.39711  0.00873  1.0000
  C   C3263     1.0  0.75571  0.37561  0.11481  1.0000
  C   C3264     1.0  0.81511  0.35132  0.22783  1.0000
  H   H2598     1.0  0.96615  0.51130  0.13930  1.0000
  S   S446      1.0  0.85020  0.35294  0.98633  1.0000
  H   H2599     1.0  0.96128  0.53185  0.19247  1.0000
  H   H2600     1.0  0.86494  0.37052  0.28841  1.0000
  C   C3265     1.0  0.83569  0.64054  0.21040  1.0000
  H   H2601     1.0  0.89357  0.49785  0.99028  1.0000
  C   C3266     1.0  0.89867  0.39552  0.44046  1.0000
  H   H2602     1.0  0.96907  0.34038  0.20265  1.0000
  H   H2603     1.0  0.84243  0.38306  0.32879  1.0000
  H   H2604     1.0  0.84239  0.41432  0.32996  1.0000
  C   C3267     1.0  0.97156  0.33023  0.21897  1.0000
  H   H2605     1.0  0.75189  0.41627  0.15525  1.0000
  C   C3268     1.0  0.75042  0.65522  0.38426  1.0000
  H   H2606     1.0  0.98477  0.40176  0.35948  1.0000
  H   H2607     1.0  0.75266  0.38801  0.18908  1.0000
  H   H2608     1.0  0.84652  0.41764  0.01960  1.0000
  C   C3269     1.0  0.88095  0.33683  0.24879  1.0000
  H   H2609     1.0  0.82736  0.35444  0.21788  1.0000
  H   H2610     1.0  0.91030  0.64796  0.14978  1.0000
  C   C3270     1.0  0.75462  0.33306  0.08601  1.0000
  C   C3271     1.0  0.82664  0.35144  0.32324  1.0000
  C   C3272     1.0  0.83649  0.33788  0.33515  1.0000
  H   H2611     1.0  0.77965  0.59641  0.44771  1.0000
  C   C3273     1.0  0.82465  0.64533  0.11551  1.0000
  P   P110      1.0  0.83972  0.63617  0.17048  1.0000
  C   C3274     1.0  0.86204  0.64010  0.16365  1.0000
  C   C3275     1.0  0.75816  0.38309  0.16813  1.0000
  H   H2612     1.0  0.84930  0.60680  0.99811  1.0000
  H   H2613     1.0  0.90326  0.39699  0.41721  1.0000
  C   C3276     1.0  0.82594  0.62957  0.22870  1.0000
  C   C3277     1.0  0.87428  0.63293  0.18331  1.0000
  C   C3278     1.0  0.89160  0.63592  0.17842  1.0000
  C   C3279     1.0  0.98538  0.40491  0.33545  1.0000
  C   C3280     1.0  0.81507  0.36009  0.34252  1.0000
  H   H2614     1.0  0.76655  0.62497  0.44152  1.0000
  C   C3281     1.0  0.83424  0.61464  0.16067  1.0000
  C   C3282     1.0  0.84668  0.60298  0.15023  1.0000
  C   C3283     1.0  0.84197  0.58684  0.14028  1.0000
  C   C3284     1.0  0.82488  0.58218  0.14078  1.0000
  C   C3285     1.0  0.81240  0.59374  0.15093  1.0000
  C   C3286     1.0  0.81703  0.60996  0.16055  1.0000
  H   H2615     1.0  0.91795  0.37700  0.45286  1.0000
  H   H2616     1.0  0.94805  0.53645  0.24297  1.0000
  C   C3287     1.0  0.82388  0.39122  0.25989  1.0000
  H   H2617     1.0  0.98981  0.43843  0.12080  1.0000
  H   H2618     1.0  0.82998  0.63350  0.10675  1.0000
  H   H2619     1.0  0.98997  0.48254  0.26869  1.0000
  H   H2620     1.0  0.80529  0.36265  0.38841  1.0000
  H   H2621     1.0  0.94810  0.62094  0.47965  1.0000
  H   H2622     1.0  0.87047  0.62497  0.20238  1.0000
  H   H2623     1.0  0.90099  0.63031  0.19366  1.0000
  C   C3288     1.0  0.78268  0.37176  0.14073  1.0000
  C   C3289     1.0  0.98041  0.33347  0.24603  1.0000
  H   H2624     1.0  0.89218  0.35862  0.26963  1.0000
  H   H2625     1.0  0.85999  0.60634  0.14891  1.0000
  H   H2626     1.0  0.85161  0.57804  0.13163  1.0000
  H   H2627     1.0  0.82134  0.56970  0.13283  1.0000
  H   H2628     1.0  0.79911  0.59022  0.15085  1.0000
  H   H2629     1.0  0.80717  0.61896  0.16753  1.0000
  H   H2630     1.0  0.93718  0.52428  0.14095  1.0000
  C   C3290     1.0  0.98719  0.41288  0.27362  1.0000
  C   C3291     1.0  0.78583  0.34311  0.22053  1.0000
  C   C3292     1.0  0.94187  0.56913  0.29443  1.0000
  C   C3293     1.0  0.97990  0.60293  0.09909  1.0000
  C   C3294     1.0  0.77525  0.62249  0.46017  1.0000
  H   H2631     1.0  0.89995  0.57994  0.28804  1.0000
  H   H2632     1.0  0.77275  0.33070  0.12242  1.0000
  H   H2633     1.0  0.95619  0.59000  0.10655  1.0000
  C   C3295     1.0  0.82326  0.63316  0.25960  1.0000
  C   C3296     1.0  0.89459  0.50381  0.34379  1.0000
  C   C3297     1.0  0.88466  0.50032  0.36955  1.0000
  C   C3298     1.0  0.87625  0.51360  0.38485  1.0000
  C   C3299     1.0  0.87789  0.53040  0.37453  1.0000
  C   C3300     1.0  0.88835  0.53406  0.34928  1.0000
  C   C3301     1.0  0.89626  0.52058  0.33342  1.0000
  P   P111      1.0  0.88934  0.55545  0.33427  1.0000
  C   C3302     1.0  0.88675  0.57141  0.36345  1.0000
  C   C3303     1.0  0.90984  0.56001  0.31764  1.0000
  C   C3304     1.0  0.94066  0.55636  0.31666  1.0000
  C   C3305     1.0  0.92471  0.55187  0.32841  1.0000
  C   C3306     1.0  0.88014  0.58760  0.35589  1.0000
  C   C3307     1.0  0.87261  0.55677  0.30634  1.0000
  C   C3308     1.0  0.85588  0.56101  0.31539  1.0000
  C   C3309     1.0  0.84266  0.56098  0.29415  1.0000
  C   C3310     1.0  0.84604  0.55664  0.26381  1.0000
  C   C3311     1.0  0.86259  0.55213  0.25480  1.0000
  C   C3312     1.0  0.87584  0.55206  0.27598  1.0000
  H   H2634     1.0  0.90068  0.49342  0.33149  1.0000
  H   H2635     1.0  0.88325  0.48726  0.37719  1.0000
  H   H2636     1.0  0.86823  0.51082  0.40440  1.0000
  H   H2637     1.0  0.87079  0.54045  0.38598  1.0000
  H   H2638     1.0  0.90345  0.52298  0.31272  1.0000
  H   H2639     1.0  0.92919  0.37654  0.24091  1.0000
  H   H2640     1.0  0.92403  0.54230  0.34623  1.0000
  H   H2641     1.0  0.87611  0.59048  0.33283  1.0000
  H   H2642     1.0  0.85303  0.56430  0.33882  1.0000
  H   H2643     1.0  0.82981  0.56448  0.30113  1.0000
  H   H2644     1.0  0.83585  0.55672  0.24725  1.0000
  H   H2645     1.0  0.86515  0.54853  0.23137  1.0000
  H   H2646     1.0  0.88850  0.54815  0.26859  1.0000
  C   C3313     1.0  0.97984  0.36436  0.34438  1.0000
  H   H2647     1.0  0.95419  0.57268  0.28530  1.0000
  H   H2648     1.0  0.95205  0.49136  0.23778  1.0000
  C   C3314     1.0  0.81859  0.58324  0.45341  1.0000
  C   C3315     1.0  0.97466  0.57403  0.08343  1.0000
  C   C3316     1.0  0.96899  0.58912  0.09713  1.0000
  H   H2649     1.0  0.98937  0.51754  0.18782  1.0000
  S   S447      1.0  0.76991  0.33555  0.05599  1.0000
  H   H2650     1.0  0.99178  0.51326  0.28588  1.0000
  P   P112      1.0  0.98810  0.35458  0.25344  1.0000
  H   H2651     1.0  0.79599  0.36784  0.14018  1.0000
  H   H2652     1.0  0.98780  0.41589  0.24961  1.0000
  H   H2653     1.0  0.87371  0.61277  0.37201  1.0000
  C   C3317     1.0  0.77289  0.37058  0.11440  1.0000
  H   H2654     1.0  0.77066  0.34079  0.26139  1.0000
  C   C3318     1.0  0.81377  0.35557  0.37336  1.0000
  C   C3319     1.0  0.98783  0.44052  0.14499  1.0000
  C   C3320     1.0  0.99133  0.57264  0.07215  1.0000
  H   H2655     1.0  0.77548  0.33990  0.20542  1.0000
  H   H2656     1.0  0.97545  0.61462  0.10970  1.0000
  H   H2657     1.0  0.85827  0.65620  0.12372  1.0000
  H   H2658     1.0  0.91382  0.50936  0.16755  1.0000
  H   H2659     1.0  0.96546  0.36703  0.30353  1.0000
  H   H2660     1.0  0.84979  0.60674  0.42017  1.0000
  C   C3321     1.0  0.89154  0.58113  0.41521  1.0000
  H   H2661     1.0  0.96613  0.56335  0.08213  1.0000
  H   H2662     1.0  0.74839  0.37422  0.09420  1.0000
  C   C3322     1.0  0.78274  0.60633  0.46371  1.0000
  C   C3323     1.0  0.98497  0.51670  0.26526  1.0000
  C   C3324     1.0  0.82329  0.57483  0.40070  1.0000
  S   S448      1.0  0.84620  0.65388  0.40767  1.0000
  C   C3325     1.0  0.97287  0.44857  0.15533  1.0000
  C   C3326     1.0  0.74825  0.38213  0.14161  1.0000
  C   C3327     1.0  0.96997  0.45089  0.18669  1.0000
  C   C3328     1.0  0.99093  0.35697  0.29418  1.0000
  P   P113      1.0  0.95003  0.46033  0.19977  1.0000
  C   C3329     1.0  0.93238  0.44616  0.19330  1.0000
  C   C3330     1.0  0.95090  0.46381  0.24042  1.0000
  C   C3331     1.0  0.95030  0.44976  0.26032  1.0000
  C   C3332     1.0  0.95052  0.45208  0.29187  1.0000
  C   C3333     1.0  0.95125  0.46849  0.30381  1.0000
  H   H2663     1.0  0.82311  0.33905  0.40921  1.0000
  C   C3334     1.0  0.95180  0.48027  0.25254  1.0000
  C   C3335     1.0  0.91743  0.44802  0.21081  1.0000
  C   C3336     1.0  0.90367  0.43725  0.20646  1.0000
  C   C3337     1.0  0.90473  0.42437  0.18472  1.0000
  C   C3338     1.0  0.91953  0.42233  0.16718  1.0000
  C   C3339     1.0  0.93333  0.43314  0.17143  1.0000
  C   C3340     1.0  0.94594  0.48042  0.18045  1.0000
  C   C3341     1.0  0.92957  0.48795  0.18128  1.0000
  C   C3342     1.0  0.92647  0.50362  0.16684  1.0000
  C   C3343     1.0  0.93962  0.51198  0.15166  1.0000
  C   C3344     1.0  0.95595  0.50464  0.15079  1.0000
  C   C3345     1.0  0.95915  0.48901  0.16533  1.0000
  C   C3346     1.0  0.98263  0.44563  0.20745  1.0000
  H   H2664     1.0  0.96954  0.36942  0.35846  1.0000
  C   C3347     1.0  0.81583  0.65623  0.09561  1.0000
  C   C3348     1.0  0.86737  0.65050  0.13930  1.0000
  H   H2665     1.0  0.96341  0.45278  0.13888  1.0000
  H   H2666     1.0  0.94944  0.43699  0.25137  1.0000
  H   H2667     1.0  0.94968  0.44116  0.30709  1.0000
  C   C3349     1.0  0.83624  0.58674  0.39790  1.0000
  H   H2668     1.0  0.82872  0.64999  0.29675  1.0000
  H   H2669     1.0  0.95211  0.55016  0.32518  1.0000
  H   H2670     1.0  0.91648  0.45765  0.22827  1.0000
  H   H2671     1.0  0.89231  0.43865  0.22049  1.0000
  H   H2672     1.0  0.89417  0.41578  0.18185  1.0000
  H   H2673     1.0  0.92033  0.41217  0.15060  1.0000
  H   H2674     1.0  0.94462  0.43102  0.15781  1.0000
  H   H2675     1.0  0.91917  0.48194  0.19331  1.0000
  H   H2676     1.0  0.89867  0.55625  0.39910  1.0000
  C   C3350     1.0  0.86589  0.32815  0.24335  1.0000
  H   H2677     1.0  0.81979  0.56732  0.38114  1.0000
  C   C3351     1.0  0.74682  0.32970  0.13966  1.0000
  C   C3352     1.0  0.80187  0.34682  0.20845  1.0000
  C   C3353     1.0  0.75303  0.64395  0.36002  1.0000
  C   C3354     1.0  0.88464  0.59710  0.40764  1.0000
  H   H2678     1.0  0.80410  0.34640  0.18399  1.0000
  H   H2679     1.0  0.95094  0.35597  0.25892  1.0000
  C   C3355     1.0  0.84037  0.59691  0.42271  1.0000
  H   H2680     1.0  0.81960  0.41635  0.24113  1.0000
  H   H2681     1.0  0.81865  0.38509  0.24016  1.0000
  H   H2682     1.0  0.93750  0.40186  0.21115  1.0000
  C   C3356     1.0  0.81435  0.57317  0.42827  1.0000
  C   C3357     1.0  0.85705  0.41352  0.00521  1.0000
  H   H2683     1.0  0.96809  0.40672  0.19899  1.0000
  H   H2684     1.0  0.80748  0.37070  0.33396  1.0000
  C   C3358     1.0  0.83510  0.33338  0.36600  1.0000
  C   C3359     1.0  0.98365  0.51898  0.21020  1.0000
  C   C3360     1.0  0.96442  0.39555  0.21188  1.0000
  C   C3361     1.0  0.96897  0.52474  0.26759  1.0000
  H   H2685     1.0  0.96337  0.52717  0.28978  1.0000
  C   C3362     1.0  0.96033  0.52995  0.24129  1.0000
  C   C3363     1.0  0.79639  0.34807  0.27156  1.0000
  H   H2686     1.0  0.78299  0.37890  0.18800  1.0000
  S   S449      1.0  0.84831  0.33260  0.06803  1.0000
  C   C3364     1.0  0.94251  0.37857  0.23556  1.0000
  H   H2687     1.0  0.88374  0.60703  0.42470  1.0000
  H   H2688     1.0  0.81603  0.62454  0.27389  1.0000
  H   H2689     1.0  0.76547  0.63809  0.35662  1.0000
  C   C3365     1.0  0.82689  0.64982  0.14618  1.0000
  Fe  Fe224     1.0  0.79592  0.65473  0.40784  1.0000
  C   C3366     1.0  0.89684  0.64595  0.15378  1.0000
  H   H2690     1.0  0.83888  0.32757  0.25035  1.0000
  H   H2691     1.0  0.84560  0.33103  0.32100  1.0000
  C   C3367     1.0  0.88473  0.65325  0.13426  1.0000
  C   C3368     1.0  0.87746  0.39172  0.99017  1.0000
  H   H2692     1.0  0.98997  0.54887  0.15063  1.0000
  C   C3369     1.0  0.86360  0.42446  0.98289  1.0000
  H   H2693     1.0  0.99016  0.38651  0.21737  1.0000
  H   H2694     1.0  0.77461  0.64844  0.47573  1.0000
  C   C3370     1.0  0.78358  0.34571  0.98196  1.0000
  C   C3371     1.0  0.87789  0.40251  0.47973  1.0000
  C   C3372     1.0  0.99229  0.51345  0.23651  1.0000
  C   C3373     1.0  0.77984  0.63574  0.47940  1.0000
  C   C3374     1.0  0.89428  0.45480  0.98137  1.0000
  Fe  Fe225     1.0  0.82430  0.33494  0.51805  1.0000
  C   C3375     1.0  0.82548  0.39107  0.52642  1.0000
  Fe  Fe226     1.0  0.79105  0.33408  0.55785  1.0000
  H   H2695     1.0  0.98125  0.53241  0.72705  1.0000
  Fe  Fe227     1.0  0.82638  0.33203  0.58818  1.0000
  S   S450      1.0  0.84217  0.33444  0.63193  1.0000
  S   S451      1.0  0.81404  0.35146  0.55663  1.0000
  Fe  Fe228     1.0  0.91665  0.57916  0.68270  1.0000
  S   S452      1.0  0.91056  0.56243  0.64297  1.0000
  S   S453      1.0  0.94286  0.58711  0.70031  1.0000
  Fe  Fe229     1.0  0.87873  0.58420  0.69933  1.0000
  S   S454      1.0  0.87040  0.56739  0.66066  1.0000
  S   S455      1.0  0.85727  0.59764  0.72606  1.0000
  Fe  Fe230     1.0  0.89202  0.54983  0.67537  1.0000
  S   S456      1.0  0.88961  0.52068  0.67619  1.0000
  Fe  Fe231     1.0  0.88932  0.58149  0.63145  1.0000
  S   S457      1.0  0.88526  0.59032  0.58105  1.0000
  S   S458      1.0  0.89902  0.56575  0.71563  1.0000
  S   S459      1.0  0.89678  0.59903  0.66946  1.0000
  Fe  Fe232     1.0  0.88778  0.40172  0.75049  1.0000
  S   S460      1.0  0.87121  0.41804  0.78129  1.0000
  S   S461      1.0  0.87654  0.39630  0.70305  1.0000
  Fe  Fe233     1.0  0.91906  0.40561  0.79241  1.0000
  S   S462      1.0  0.90379  0.42216  0.82471  1.0000
  S   S463      1.0  0.94652  0.40064  0.80945  1.0000
  Fe  Fe234     1.0  0.88272  0.40307  0.82082  1.0000
  S   S464      1.0  0.86468  0.39507  0.86106  1.0000
  Fe  Fe235     1.0  0.89357  0.43566  0.78298  1.0000
  S   S465      1.0  0.89274  0.46509  0.78437  1.0000
  S   S466      1.0  0.89825  0.38577  0.78975  1.0000
  S   S467      1.0  0.90986  0.42007  0.75102  1.0000
  Fe  Fe236     1.0  0.83125  0.63972  0.89112  1.0000
  S   S468      1.0  0.81363  0.62938  0.92775  1.0000
  S   S469      1.0  0.84963  0.62211  0.86451  1.0000
  C   C3376     1.0  0.75101  0.33922  0.61899  1.0000
  H   H2696     1.0  0.90776  0.61770  0.72890  1.0000
  C   C3377     1.0  0.85486  0.34613  0.86077  1.0000
  H   H2697     1.0  0.92725  0.62057  0.68154  1.0000
  C   C3378     1.0  0.98695  0.46696  0.75301  1.0000
  C   C3379     1.0  0.94281  0.44947  0.80908  1.0000
  C   C3380     1.0  0.76319  0.55432  0.49835  1.0000
  C   C3381     1.0  0.96764  0.40420  0.79509  1.0000
  C   C3382     1.0  0.97096  0.40882  0.76474  1.0000
  H   H2698     1.0  0.94716  0.40984  0.87995  1.0000
  H   H2699     1.0  0.96045  0.41062  0.74914  1.0000
  H   H2700     1.0  0.97556  0.64320  0.62121  1.0000
  C   C3383     1.0  0.96388  0.58161  0.68750  1.0000
  C   C3384     1.0  0.97797  0.58953  0.70089  1.0000
  C   C3385     1.0  0.96694  0.56934  0.66507  1.0000
  H   H2701     1.0  0.97579  0.59901  0.71833  1.0000
  H   H2702     1.0  0.95630  0.56304  0.65468  1.0000
  C   C3386     1.0  0.85519  0.60381  0.76492  1.0000
  C   C3387     1.0  0.86728  0.59927  0.78692  1.0000
  C   C3388     1.0  0.86514  0.60471  0.81734  1.0000
  C   C3389     1.0  0.85097  0.61480  0.82619  1.0000
  C   C3390     1.0  0.83873  0.61912  0.80428  1.0000
  C   C3391     1.0  0.84085  0.61362  0.77386  1.0000
  H   H2703     1.0  0.87826  0.59158  0.78050  1.0000
  H   H2704     1.0  0.87462  0.60121  0.83414  1.0000
  H   H2705     1.0  0.82774  0.62681  0.81068  1.0000
  H   H2706     1.0  0.83135  0.61712  0.75707  1.0000
  C   C3392     1.0  0.87163  0.60391  0.55803  1.0000
  C   C3393     1.0  0.87419  0.60448  0.52611  1.0000
  C   C3394     1.0  0.86360  0.61459  0.50681  1.0000
  C   C3395     1.0  0.85019  0.62447  0.51904  1.0000
  C   C3396     1.0  0.84763  0.62390  0.55095  1.0000
  C   C3397     1.0  0.85820  0.61377  0.57025  1.0000
  H   H2707     1.0  0.88444  0.59695  0.51617  1.0000
  C   C3398     1.0  0.91458  0.59970  0.79841  1.0000
  H   H2708     1.0  0.83734  0.63138  0.56088  1.0000
  H   H2709     1.0  0.85584  0.61347  0.59456  1.0000
  C   C3399     1.0  0.89121  0.50540  0.70649  1.0000
  C   C3400     1.0  0.88762  0.48823  0.70051  1.0000
  C   C3401     1.0  0.88832  0.47572  0.72383  1.0000
  C   C3402     1.0  0.89284  0.48015  0.75353  1.0000
  C   C3403     1.0  0.89684  0.49726  0.75933  1.0000
  C   C3404     1.0  0.89591  0.50982  0.73612  1.0000
  H   H2710     1.0  0.88404  0.48458  0.67771  1.0000
  H   H2711     1.0  0.88508  0.46269  0.71890  1.0000
  H   H2712     1.0  0.90081  0.50086  0.78186  1.0000
  H   H2713     1.0  0.89886  0.52290  0.74112  1.0000
  C   C3405     1.0  0.85408  0.36501  0.95171  1.0000
  C   C3406     1.0  0.84216  0.37668  0.93961  1.0000
  C   C3407     1.0  0.84568  0.38569  0.91218  1.0000
  C   C3408     1.0  0.86129  0.38355  0.89637  1.0000
  C   C3409     1.0  0.87337  0.37213  0.90877  1.0000
  C   C3410     1.0  0.86972  0.36287  0.93592  1.0000
  H   H2714     1.0  0.83016  0.37876  0.95132  1.0000
  H   H2715     1.0  0.83615  0.39437  0.90304  1.0000
  H   H2716     1.0  0.88541  0.37015  0.89711  1.0000
  C   C3411     1.0  0.93718  0.59049  0.57828  1.0000
  C   C3412     1.0  0.85109  0.35198  0.65180  1.0000
  C   C3413     1.0  0.86006  0.34881  0.67907  1.0000
  C   C3414     1.0  0.86758  0.36216  0.69548  1.0000
  C   C3415     1.0  0.86631  0.37895  0.68475  1.0000
  C   C3416     1.0  0.85719  0.38214  0.65765  1.0000
  C   C3417     1.0  0.84966  0.36880  0.64122  1.0000
  H   H2717     1.0  0.86126  0.33589  0.68754  1.0000
  H   H2718     1.0  0.87456  0.35943  0.71618  1.0000
  H   H2719     1.0  0.85582  0.39510  0.64948  1.0000
  H   H2720     1.0  0.84277  0.37152  0.62043  1.0000
  H   H2721     1.0  0.93695  0.65048  0.48555  1.0000
  H   H2722     1.0  0.80287  0.36487  0.97895  1.0000
  H   H2723     1.0  0.92060  0.39394  0.87270  1.0000
  C   C3418     1.0  0.86911  0.63751  0.66453  1.0000
  C   C3419     1.0  0.87853  0.35825  0.57513  1.0000
  C   C3420     1.0  0.87750  0.36459  0.54512  1.0000
  H   H2724     1.0  0.81356  0.57447  0.83662  1.0000
  P   P114      1.0  0.87714  0.38727  0.53761  1.0000
  C   C3421     1.0  0.88957  0.39772  0.56647  1.0000
  H   H2725     1.0  0.84678  0.63366  0.69237  1.0000
  C   C3422     1.0  0.91708  0.44976  0.68644  1.0000
  H   H2726     1.0  0.79169  0.52219  0.48404  1.0000
  H   H2727     1.0  0.94270  0.64574  0.69971  1.0000
  H   H2728     1.0  0.76407  0.34175  0.62501  1.0000
  H   H2729     1.0  0.81548  0.38318  0.51750  1.0000
  C   C3423     1.0  0.90640  0.40268  0.56062  1.0000
  C   C3424     1.0  0.91610  0.40989  0.58378  1.0000
  C   C3425     1.0  0.90909  0.41215  0.61291  1.0000
  C   C3426     1.0  0.89231  0.40743  0.61880  1.0000
  C   C3427     1.0  0.88257  0.40034  0.59567  1.0000
  C   C3428     1.0  0.85533  0.39496  0.53847  1.0000
  C   C3429     1.0  0.84226  0.38483  0.52713  1.0000
  C   C3430     1.0  0.92811  0.45551  0.70899  1.0000
  H   H2730     1.0  0.80853  0.41208  0.53693  1.0000
  H   H2731     1.0  0.88865  0.44523  0.87157  1.0000
  C   C3431     1.0  0.85140  0.41151  0.54858  1.0000
  C   C3432     1.0  0.96988  0.50754  0.72897  1.0000
  C   C3433     1.0  0.92015  0.43447  0.92296  1.0000
  H   H2732     1.0  0.92033  0.44591  0.93651  1.0000
  C   C3434     1.0  0.94256  0.47285  0.67134  1.0000
  H   H2733     1.0  0.83155  0.43030  0.55646  1.0000
  C   C3435     1.0  0.93329  0.46139  0.82576  1.0000
  H   H2734     1.0  0.91217  0.40086  0.53841  1.0000
  H   H2735     1.0  0.92914  0.41350  0.57927  1.0000
  H   H2736     1.0  0.91669  0.41736  0.63107  1.0000
  H   H2737     1.0  0.88693  0.40894  0.64153  1.0000
  H   H2738     1.0  0.86967  0.39649  0.60074  1.0000
  H   H2739     1.0  0.84499  0.37217  0.51854  1.0000
  H   H2740     1.0  0.81121  0.54653  0.48080  1.0000
  H   H2741     1.0  0.91909  0.58787  0.80857  1.0000
  C   C3436     1.0  0.82709  0.34112  0.88318  1.0000
  H   H2742     1.0  0.92784  0.53103  0.70613  1.0000
  H   H2743     1.0  0.82173  0.34786  0.94552  1.0000
  H   H2744     1.0  0.94699  0.43575  0.91216  1.0000
  C   C3437     1.0  0.76947  0.53778  0.49363  1.0000
  C   C3438     1.0  0.91412  0.60149  0.76671  1.0000
  H   H2745     1.0  0.86779  0.63937  0.79333  1.0000
  C   C3439     1.0  0.86803  0.64167  0.71924  1.0000
  H   H2746     1.0  0.89950  0.63880  0.81868  1.0000
  C   C3440     1.0  0.87855  0.34071  0.58071  1.0000
  C   C3441     1.0  0.81913  0.58069  0.52149  1.0000
  C   C3442     1.0  0.81195  0.58342  0.55051  1.0000
  C   C3443     1.0  0.75286  0.63710  0.86023  1.0000
  C   C3444     1.0  0.93550  0.41412  0.89121  1.0000
  C   C3445     1.0  0.92052  0.40510  0.88717  1.0000
  S   S470      1.0  0.76621  0.65337  0.91166  1.0000
  H   H2747     1.0  0.96658  0.55081  0.58973  1.0000
  C   C3446     1.0  0.79185  0.63281  0.50231  1.0000
  H   H2748     1.0  0.98174  0.50123  0.73510  1.0000
  C   C3447     1.0  0.94838  0.62701  0.50177  1.0000
  H   H2749     1.0  0.87894  0.33597  0.60399  1.0000
  C   C3448     1.0  0.98125  0.45713  0.70185  1.0000
  H   H2750     1.0  0.82765  0.59146  0.87642  1.0000
  C   C3449     1.0  0.96965  0.52524  0.72453  1.0000
  C   C3450     1.0  0.98162  0.40184  0.81485  1.0000
  H   H2751     1.0  0.84661  0.57402  0.59432  1.0000
  H   H2752     1.0  0.97931  0.39822  0.83833  1.0000
  P   P115      1.0  0.89610  0.65029  0.75479  1.0000
  H   H2753     1.0  0.79876  0.58751  0.55285  1.0000
  H   H2754     1.0  0.92779  0.45778  0.84752  1.0000
  H   H2755     1.0  0.91725  0.57257  0.57008  1.0000
  C   C3451     1.0  0.95840  0.56189  0.58623  1.0000
  C   C3452     1.0  0.84590  0.57243  0.54537  1.0000
  C   C3453     1.0  0.83881  0.57558  0.57412  1.0000
  C   C3454     1.0  0.88536  0.64586  0.71932  1.0000
  C   C3455     1.0  0.85135  0.57735  0.87355  1.0000
  C   C3456     1.0  0.83556  0.55825  0.82854  1.0000
  C   C3457     1.0  0.85265  0.55469  0.83608  1.0000
  C   C3458     1.0  0.86044  0.56426  0.85891  1.0000
  P   P116      1.0  0.86393  0.53722  0.81794  1.0000
  C   C3459     1.0  0.88667  0.54062  0.81894  1.0000
  C   C3460     1.0  0.85935  0.51754  0.83776  1.0000
  C   C3461     1.0  0.87039  0.50342  0.83448  1.0000
  C   C3462     1.0  0.86702  0.48810  0.84948  1.0000
  C   C3463     1.0  0.85256  0.48672  0.86802  1.0000
  C   C3464     1.0  0.84150  0.50072  0.87158  1.0000
  C   C3465     1.0  0.84485  0.51608  0.85649  1.0000
  C   C3466     1.0  0.89524  0.54737  0.79352  1.0000
  C   C3467     1.0  0.91293  0.54931  0.79396  1.0000
  C   C3468     1.0  0.92218  0.54468  0.81991  1.0000
  C   C3469     1.0  0.91374  0.53817  0.84550  1.0000
  C   C3470     1.0  0.89605  0.53615  0.84506  1.0000
  C   C3471     1.0  0.85753  0.53602  0.77848  1.0000
  C   C3472     1.0  0.85409  0.55104  0.76183  1.0000
  C   C3473     1.0  0.85010  0.55026  0.73086  1.0000
  C   C3474     1.0  0.84970  0.53456  0.71615  1.0000
  C   C3475     1.0  0.85296  0.51957  0.73255  1.0000
  C   C3476     1.0  0.85686  0.52026  0.76359  1.0000
  H   H2756     1.0  0.85748  0.58511  0.89053  1.0000
  H   H2757     1.0  0.82920  0.55092  0.81127  1.0000
  H   H2758     1.0  0.87354  0.56184  0.86528  1.0000
  H   H2759     1.0  0.88153  0.50415  0.81999  1.0000
  H   H2760     1.0  0.87556  0.47728  0.84615  1.0000
  H   H2761     1.0  0.84984  0.47475  0.87937  1.0000
  H   H2762     1.0  0.83024  0.49963  0.88585  1.0000
  H   H2763     1.0  0.83606  0.52671  0.85943  1.0000
  H   H2764     1.0  0.88837  0.55098  0.77317  1.0000
  H   H2765     1.0  0.91946  0.55430  0.77402  1.0000
  H   H2766     1.0  0.93589  0.54612  0.82012  1.0000
  H   H2767     1.0  0.92091  0.53462  0.86566  1.0000
  H   H2768     1.0  0.88970  0.53104  0.86503  1.0000
  H   H2769     1.0  0.85486  0.56342  0.77249  1.0000
  H   H2770     1.0  0.84764  0.56191  0.71814  1.0000
  H   H2771     1.0  0.84722  0.53400  0.69189  1.0000
  H   H2772     1.0  0.85306  0.50742  0.72093  1.0000
  H   H2773     1.0  0.85981  0.50848  0.77545  1.0000
  C   C3477     1.0  0.90922  0.61319  0.81696  1.0000
  C   C3478     1.0  0.95451  0.53372  0.71650  1.0000
  H   H2774     1.0  0.92869  0.60140  0.57532  1.0000
  H   H2775     1.0  0.95434  0.54741  0.71305  1.0000
  H   H2776     1.0  0.79604  0.64325  0.51630  1.0000
  H   H2777     1.0  0.89414  0.39779  0.95321  1.0000
  C   C3479     1.0  0.98585  0.61295  0.58846  1.0000
  C   C3480     1.0  0.93534  0.42877  0.90919  1.0000
  C   C3481     1.0  0.94649  0.47018  0.76821  1.0000
  C   C3482     1.0  0.79478  0.60326  0.48676  1.0000
  C   C3483     1.0  0.94120  0.55985  0.57934  1.0000
  H   H2778     1.0  0.86132  0.41977  0.55656  1.0000
  C   C3484     1.0  0.95609  0.62400  0.62354  1.0000
  C   C3485     1.0  0.83779  0.35095  0.86481  1.0000
  H   H2779     1.0  0.95644  0.44423  0.76760  1.0000
  H   H2780     1.0  0.90689  0.37301  0.50534  1.0000
  H   H2781     1.0  0.88229  0.49636  0.93761  1.0000
  H   H2782     1.0  0.97839  0.57939  0.59464  1.0000
  H   H2783     1.0  0.92812  0.49995  0.71386  1.0000
  C   C3486     1.0  0.94936  0.45380  0.78040  1.0000
  H   H2784     1.0  0.87408  0.35755  0.49779  1.0000
  H   H2785     1.0  0.89352  0.64114  0.64313  1.0000
  C   C3487     1.0  0.93749  0.62578  0.66793  1.0000
  C   C3488     1.0  0.94236  0.61779  0.64074  1.0000
  C   C3489     1.0  0.93141  0.46721  0.64891  1.0000
  S   S471      1.0  0.84478  0.65728  0.92317  1.0000
  H   H2786     1.0  0.86294  0.63387  0.64356  1.0000
  C   C3490     1.0  0.88355  0.46894  0.93592  1.0000
  C   C3491     1.0  0.83614  0.57499  0.51911  1.0000
  H   H2787     1.0  0.90701  0.44103  0.69244  1.0000
  C   C3492     1.0  0.88776  0.45383  0.95168  1.0000
  S   S472      1.0  0.83627  0.63770  0.49590  1.0000
  H   H2788     1.0  0.95219  0.48201  0.66526  1.0000
  H   H2789     1.0  0.97296  0.45591  0.68244  1.0000
  H   H2790     1.0  0.90948  0.61181  0.84157  1.0000
  C   C3493     1.0  0.94630  0.63990  0.67828  1.0000
  C   C3494     1.0  0.82658  0.57145  0.84305  1.0000
  P   P117      1.0  0.96281  0.61389  0.58844  1.0000
  S   S473      1.0  0.76202  0.33906  0.55812  1.0000
  C   C3495     1.0  0.79935  0.61665  0.50594  1.0000
  H   H2791     1.0  0.93562  0.60655  0.63383  1.0000
  C   C3496     1.0  0.85998  0.63752  0.69197  1.0000
  H   H2792     1.0  0.90800  0.64809  0.69102  1.0000
  C   C3497     1.0  0.96504  0.57821  0.58915  1.0000
  H   H2793     1.0  0.91853  0.59115  0.75229  1.0000
  H   H2794     1.0  0.76553  0.63187  0.85642  1.0000
  C   C3498     1.0  0.93048  0.47776  0.81391  1.0000
  H   H2795     1.0  0.81638  0.58352  0.59904  1.0000
  H   H2796     1.0  0.86318  0.35401  0.84698  1.0000
  H   H2797     1.0  0.87861  0.46863  0.91299  1.0000
  C   C3499     1.0  0.97591  0.46612  0.72793  1.0000
  C   C3500     1.0  0.98381  0.56503  0.65627  1.0000
  H   H2798     1.0  0.86878  0.44735  0.82833  1.0000
  H   H2799     1.0  0.87910  0.36666  0.59447  1.0000
  C   C3501     1.0  0.95446  0.59266  0.58531  1.0000
  H   H2800     1.0  0.92622  0.45126  0.73224  1.0000
  H   H2801     1.0  0.92266  0.48683  0.82642  1.0000
  C   C3502     1.0  0.82183  0.58105  0.57671  1.0000
  C   C3503     1.0  0.87582  0.35306  0.52099  1.0000
  H   H2802     1.0  0.80937  0.61502  0.52260  1.0000
  C   C3504     1.0  0.90802  0.61663  0.75350  1.0000
  H   H2803     1.0  0.95950  0.60516  0.52416  1.0000
  C   C3505     1.0  0.83446  0.58097  0.86557  1.0000
  Fe  Fe237     1.0  0.82684  0.64752  0.95949  1.0000
  C   C3506     1.0  0.93958  0.52453  0.71271  1.0000
  H   H2804     1.0  0.94486  0.43672  0.81809  1.0000
  H   H2805     1.0  0.90982  0.45152  0.63927  1.0000
  P   P118      1.0  0.88489  0.43326  0.93437  1.0000
  C   C3507     1.0  0.90496  0.42557  0.91865  1.0000
  C   C3508     1.0  0.82158  0.40738  0.53721  1.0000
  C   C3509     1.0  0.87745  0.32935  0.55648  1.0000
  C   C3510     1.0  0.90528  0.41089  0.90053  1.0000
  C   C3511     1.0  0.86998  0.43518  0.90319  1.0000
  C   C3512     1.0  0.85289  0.43042  0.90667  1.0000
  C   C3513     1.0  0.84163  0.43191  0.88214  1.0000
  C   C3514     1.0  0.84734  0.43803  0.85395  1.0000
  C   C3515     1.0  0.86427  0.44289  0.85037  1.0000
  C   C3516     1.0  0.87553  0.44154  0.87488  1.0000
  C   C3517     1.0  0.90242  0.63019  0.77195  1.0000
  C   C3518     1.0  0.93979  0.50688  0.71702  1.0000
  C   C3519     1.0  0.87700  0.41901  0.96367  1.0000
  C   C3520     1.0  0.79896  0.35239  0.97157  1.0000
  H   H2806     1.0  0.89368  0.40404  0.89634  1.0000
  H   H2807     1.0  0.84830  0.42499  0.92779  1.0000
  H   H2808     1.0  0.82864  0.42763  0.88460  1.0000
  H   H2809     1.0  0.83880  0.43858  0.83463  1.0000
  C   C3521     1.0  0.80963  0.34274  0.95251  1.0000
  C   C3522     1.0  0.95493  0.49823  0.72509  1.0000
  C   C3523     1.0  0.90335  0.62845  0.80384  1.0000
  C   C3524     1.0  0.95996  0.64618  0.66129  1.0000
  C   C3525     1.0  0.93063  0.57415  0.57520  1.0000
  H   H2810     1.0  0.98301  0.47353  0.77360  1.0000
  H   H2811     1.0  0.98599  0.55545  0.63901  1.0000
  H   H2812     1.0  0.87913  0.35395  0.94478  1.0000
  H   H2813     1.0  0.93247  0.47201  0.62578  1.0000
  H   H2814     1.0  0.93599  0.54720  0.57755  1.0000
  C   C3526     1.0  0.88566  0.48475  0.94981  1.0000
  H   H2815     1.0  0.85915  0.56840  0.54352  1.0000
  C   C3527     1.0  0.94101  0.46701  0.70158  1.0000
  H   H2816     1.0  0.81388  0.34502  0.88595  1.0000
  C   C3528     1.0  0.93702  0.48215  0.78522  1.0000
  H   H2817     1.0  0.93432  0.49474  0.77619  1.0000
  H   H2818     1.0  0.83301  0.36253  0.85404  1.0000
  C   C3529     1.0  0.83455  0.41761  0.54824  1.0000
  C   C3530     1.0  0.91867  0.45567  0.65647  1.0000
  C   C3531     1.0  0.88392  0.40253  0.96758  1.0000
  C   C3532     1.0  0.88636  0.64162  0.66434  1.0000
  P   P119      1.0  0.95468  0.47540  0.73074  1.0000
  C   C3533     1.0  0.89450  0.64560  0.69161  1.0000
  H   H2819     1.0  0.98919  0.62060  0.54118  1.0000
  P   P120      1.0  0.80603  0.58305  0.48800  1.0000
  C   C3534     1.0  0.79776  0.54884  0.48525  1.0000
  C   C3535     1.0  0.87593  0.33552  0.52665  1.0000
  C   C3536     1.0  0.98795  0.41060  0.75428  1.0000
  C   C3537     1.0  0.95509  0.62584  0.55585  1.0000
  C   C3538     1.0  0.95482  0.61812  0.52704  1.0000
  H   H2820     1.0  0.86075  0.64101  0.74019  1.0000
  Fe  Fe238     1.0  0.79578  0.65128  0.91424  1.0000
  H   H2821     1.0  0.74983  0.55641  0.50380  1.0000
  C   C3539     1.0  0.74987  0.64796  0.88496  1.0000
  C   C3540     1.0  0.80497  0.32638  0.94349  1.0000
  C   C3541     1.0  0.94231  0.65143  0.53366  1.0000
  C   C3542     1.0  0.79147  0.56552  0.48918  1.0000
  C   C3543     1.0  0.96485  0.63828  0.63403  1.0000
  C   C3544     1.0  0.88595  0.39106  0.49998  1.0000
  C   C3545     1.0  0.74680  0.33672  0.58838  1.0000
  C   C3546     1.0  0.94876  0.64258  0.55898  1.0000
  C   C3547     1.0  0.86912  0.65292  0.79639  1.0000
  H   H2822     1.0  0.96692  0.65702  0.66944  1.0000
  H   H2823     1.0  0.93131  0.64812  0.77795  1.0000
  H   H2824     1.0  0.99028  0.41379  0.73062  1.0000
  H   H2825     1.0  0.94856  0.64880  0.58091  1.0000
  H   H2826     1.0  0.85806  0.43710  0.98032  1.0000
  C   C3548     1.0  0.86126  0.33145  0.87509  1.0000
  H   H2827     1.0  0.87455  0.32786  0.87213  1.0000
  H   H2828     1.0  0.84196  0.57252  0.49713  1.0000
  C   C3549     1.0  0.78677  0.53503  0.48722  1.0000
  H   H2829     1.0  0.76096  0.52706  0.49529  1.0000
  C   C3550     1.0  0.77416  0.56815  0.49641  1.0000
  C   C3551     1.0  0.83349  0.32649  0.89807  1.0000
  C   C3552     1.0  0.77896  0.32929  0.97355  1.0000
  C   C3553     1.0  0.90056  0.38201  0.49019  1.0000
  C   C3554     1.0  0.94210  0.64365  0.50509  1.0000
  H   H2830     1.0  0.86588  0.61481  0.48247  1.0000
  H   H2831     1.0  0.87425  0.32677  0.50793  1.0000
  H   H2832     1.0  0.76911  0.58080  0.50089  1.0000
  H   H2833     1.0  0.86648  0.40950  0.48635  1.0000
  H   H2834     1.0  0.98733  0.60482  0.63569  1.0000
  H   H2835     1.0  0.84882  0.65440  0.82969  1.0000
  C   C3555     1.0  0.89202  0.48560  0.97946  1.0000
  Fe  Fe239     1.0  0.82799  0.67639  0.40061  1.0000
  C   C3556     1.0  0.87572  0.91754  0.44568  1.0000
  S   S474      1.0  0.83540  0.70327  0.38488  1.0000
  H   H2836     1.0  0.90800  0.84103  0.20083  1.0000
  Fe  Fe240     1.0  0.90278  0.93478  0.17997  1.0000
  S   S475      1.0  0.91069  0.92047  0.22202  1.0000
  S   S476      1.0  0.90435  0.96390  0.17705  1.0000
  Fe  Fe241     1.0  0.89572  0.90149  0.14356  1.0000
  S   S477      1.0  0.90363  0.88533  0.18423  1.0000
  S   S478      1.0  0.88979  0.88860  0.09690  1.0000
  Fe  Fe242     1.0  0.88829  0.90368  0.21295  1.0000
  S   S479      1.0  0.86916  0.89880  0.25181  1.0000
  Fe  Fe243     1.0  0.92561  0.90339  0.19011  1.0000
  S   S480      1.0  0.95205  0.89436  0.20673  1.0000
  S   S481      1.0  0.87927  0.91919  0.17221  1.0000
  S   S482      1.0  0.91883  0.91847  0.14807  1.0000
  Fe  Fe244     1.0  0.82351  0.80457  0.42449  1.0000
  S   S483      1.0  0.80694  0.82329  0.45040  1.0000
  S   S484      1.0  0.82260  0.77719  0.44342  1.0000
  Fe  Fe245     1.0  0.83437  0.83273  0.38005  1.0000
  S   S485      1.0  0.81788  0.85288  0.40283  1.0000
  S   S486      1.0  0.85255  0.83547  0.33906  1.0000
  Fe  Fe246     1.0  0.82838  0.84214  0.44737  1.0000
  S   S487      1.0  0.83280  0.85830  0.00609  1.0000
  Fe  Fe247     1.0  0.79767  0.83248  0.40443  1.0000
  S   S488      1.0  0.76822  0.83424  0.40181  1.0000
  S   S489      1.0  0.84560  0.82271  0.42434  1.0000
  S   S490      1.0  0.81352  0.81307  0.37885  1.0000
  C   C3557     1.0  0.75269  0.83361  0.37205  1.0000
  C   C3558     1.0  0.75685  0.83616  0.34129  1.0000
  H   H2837     1.0  0.76999  0.83821  0.33479  1.0000
  H   H2838     1.0  0.83132  0.88649  0.41623  1.0000
  C   C3559     1.0  0.97288  0.89904  0.19246  1.0000
  H   H2839     1.0  0.77926  0.68585  0.36299  1.0000
  C   C3560     1.0  0.88950  0.92707  0.43476  1.0000
  P   P121      1.0  0.76498  0.73169  0.43592  1.0000
  H   H2840     1.0  0.96468  0.91526  0.15550  1.0000
  C   C3561     1.0  0.86489  0.88097  0.27574  1.0000
  C   C3562     1.0  0.87337  0.86529  0.27239  1.0000
  C   C3563     1.0  0.86943  0.85154  0.29197  1.0000
  C   C3564     1.0  0.85698  0.85328  0.31511  1.0000
  C   C3565     1.0  0.84853  0.86898  0.31847  1.0000
  C   C3566     1.0  0.85248  0.88271  0.29889  1.0000
  H   H2841     1.0  0.88286  0.86376  0.25461  1.0000
  H   H2842     1.0  0.87599  0.83944  0.28906  1.0000
  H   H2843     1.0  0.83895  0.87052  0.33613  1.0000
  H   H2844     1.0  0.84577  0.89474  0.30155  1.0000
  C   C3567     1.0  0.87361  0.88051  0.07188  1.0000
  C   C3568     1.0  0.85613  0.88154  0.07861  1.0000
  C   C3569     1.0  0.84397  0.87493  0.05811  1.0000
  C   C3570     1.0  0.84894  0.86705  0.03049  1.0000
  C   C3571     1.0  0.86642  0.86602  0.02376  1.0000
  C   C3572     1.0  0.87858  0.87265  0.04423  1.0000
  H   H2845     1.0  0.85194  0.88752  0.09959  1.0000
  H   H2846     1.0  0.83056  0.87597  0.06372  1.0000
  H   H2847     1.0  0.87061  0.86010  0.00275  1.0000
  H   H2848     1.0  0.89199  0.87175  0.03850  1.0000
  H   H2849     1.0  0.87722  0.84120  0.21205  1.0000
  C   C3573     1.0  0.90087  0.97856  0.20747  1.0000
  C   C3574     1.0  0.89796  0.97319  0.23755  1.0000
  C   C3575     1.0  0.74393  0.83654  0.31890  1.0000
  H   H2850     1.0  0.89767  0.95972  0.24275  1.0000
  C   C3576     1.0  0.83106  0.72368  0.40123  1.0000
  C   C3577     1.0  0.83460  0.73845  0.38405  1.0000
  C   C3578     1.0  0.83180  0.75489  0.39625  1.0000
  C   C3579     1.0  0.82569  0.75680  0.42612  1.0000
  C   C3580     1.0  0.82204  0.74203  0.44322  1.0000
  C   C3581     1.0  0.82458  0.72560  0.43083  1.0000
  H   H2851     1.0  0.83969  0.73715  0.36119  1.0000
  H   H2852     1.0  0.83473  0.76607  0.38280  1.0000
  H   H2853     1.0  0.82871  0.85369  0.22934  1.0000
  H   H2854     1.0  0.82195  0.71441  0.44440  1.0000
  H   H2855     1.0  0.81971  0.79528  0.12099  1.0000
  H   H2856     1.0  0.85093  0.66330  0.21036  1.0000
  H   H2857     1.0  0.81480  0.81123  0.07268  1.0000
  C   C3582     1.0  0.92155  0.86699  0.25706  1.0000
  C   C3583     1.0  0.91761  0.85171  0.27174  1.0000
  C   C3584     1.0  0.91791  0.85070  0.30353  1.0000
  C   C3585     1.0  0.92255  0.86485  0.32063  1.0000
  C   C3586     1.0  0.92672  0.88025  0.30599  1.0000
  C   C3587     1.0  0.92567  0.88131  0.27410  1.0000
  P   P122      1.0  0.93226  0.89884  0.32780  1.0000
  C   C3588     1.0  0.91690  0.91555  0.31909  1.0000
  C   C3589     1.0  0.93124  0.89332  0.36786  1.0000
  C   C3590     1.0  0.91684  0.89746  0.38563  1.0000
  C   C3591     1.0  0.91569  0.89175  0.41588  1.0000
  C   C3592     1.0  0.94353  0.87831  0.41137  1.0000
  C   C3593     1.0  0.94460  0.88372  0.38098  1.0000
  C   C3594     1.0  0.92175  0.93270  0.31791  1.0000
  C   C3595     1.0  0.90974  0.94551  0.31106  1.0000
  C   C3596     1.0  0.89281  0.94131  0.30554  1.0000
  C   C3597     1.0  0.88789  0.92433  0.30678  1.0000
  C   C3598     1.0  0.89987  0.91146  0.31326  1.0000
  C   C3599     1.0  0.95370  0.90606  0.32008  1.0000
  C   C3600     1.0  0.96246  0.90177  0.29305  1.0000
  H   H2858     1.0  0.90095  0.77762  0.02353  1.0000
  H   H2859     1.0  0.84631  0.66925  0.26508  1.0000
  C   C3601     1.0  0.85545  0.79632  0.99820  1.0000
  C   C3602     1.0  0.96179  0.91635  0.34159  1.0000
  H   H2860     1.0  0.92146  0.86780  0.23241  1.0000
  H   H2861     1.0  0.91415  0.84071  0.25852  1.0000
  H   H2862     1.0  0.91451  0.83894  0.31493  1.0000
  H   H2863     1.0  0.92261  0.86364  0.34519  1.0000
  H   H2864     1.0  0.92816  0.89317  0.26226  1.0000
  H   H2865     1.0  0.90638  0.90480  0.37609  1.0000
  H   H2866     1.0  0.89033  0.93070  0.41094  1.0000
  H   H2867     1.0  0.95572  0.88015  0.36752  1.0000
  H   H2868     1.0  0.93479  0.93628  0.32181  1.0000
  H   H2869     1.0  0.91357  0.95869  0.30957  1.0000
  H   H2870     1.0  0.88355  0.95119  0.29971  1.0000
  H   H2871     1.0  0.87484  0.92106  0.30182  1.0000
  H   H2872     1.0  0.89582  0.89834  0.31322  1.0000
  H   H2873     1.0  0.95681  0.89387  0.27590  1.0000
  H   H2874     1.0  0.81736  0.74328  0.46636  1.0000
  C   C3603     1.0  0.76260  0.75467  0.43438  1.0000
  H   H2875     1.0  0.74563  0.73211  0.33450  1.0000
  H   H2876     1.0  0.95530  0.91995  0.36252  1.0000
  C   C3604     1.0  0.97828  0.92221  0.33619  1.0000
  C   C3605     1.0  0.90256  0.93169  0.45451  1.0000
  C   C3606     1.0  0.97029  0.95609  0.18305  1.0000
  C   C3607     1.0  0.79187  0.70914  0.35092  1.0000
  C   C3608     1.0  0.79424  0.72619  0.35843  1.0000
  C   C3609     1.0  0.78578  0.73328  0.38362  1.0000
  C   C3610     1.0  0.77476  0.72334  0.40145  1.0000
  H   H2877     1.0  0.86031  0.87716  0.44876  1.0000
  C   C3611     1.0  0.77701  0.76495  0.43644  1.0000
  H   H2878     1.0  0.86129  0.87643  0.19265  1.0000
  H   H2879     1.0  0.79904  0.70347  0.33225  1.0000
  H   H2880     1.0  0.80326  0.73371  0.34556  1.0000
  H   H2881     1.0  0.78838  0.74632  0.38939  1.0000
  C   C3612     1.0  0.85846  0.82138  0.02945  1.0000
  C   C3613     1.0  0.82831  0.89542  0.43422  1.0000
  H   H2882     1.0  0.81868  0.91089  0.18360  1.0000
  H   H2883     1.0  0.98539  0.88331  0.22628  1.0000
  H   H2884     1.0  0.88879  0.66089  0.11497  1.0000
  H   H2885     1.0  0.89778  0.85088  0.10628  1.0000
  H   H2886     1.0  0.83725  0.85544  0.11138  1.0000
  H   H2887     1.0  0.78026  0.76493  0.30207  1.0000
  H   H2888     1.0  0.95919  0.93417  0.24700  1.0000
  C   C3614     1.0  0.85505  0.95412  0.36794  1.0000
  C   C3615     1.0  0.84826  0.94810  0.34073  1.0000
  C   C3616     1.0  0.84433  0.93089  0.33798  1.0000
  C   C3617     1.0  0.84752  0.91962  0.36220  1.0000
  C   C3618     1.0  0.85515  0.92541  0.38905  1.0000
  C   C3619     1.0  0.85824  0.94287  0.39221  1.0000
  P   P123      1.0  0.85922  0.91073  0.42016  1.0000
  C   C3620     1.0  0.83942  0.90868  0.44086  1.0000
  C   C3621     1.0  0.86683  0.89026  0.40680  1.0000
  C   C3622     1.0  0.86603  0.87606  0.42629  1.0000
  H   H2889     1.0  0.74444  0.70085  0.33453  1.0000
  C   C3623     1.0  0.87953  0.85842  0.38770  1.0000
  C   C3624     1.0  0.88070  0.87257  0.36837  1.0000
  C   C3625     1.0  0.87447  0.88846  0.37790  1.0000
  H   H2890     1.0  0.78653  0.79048  0.43820  1.0000
  C   C3626     1.0  0.92904  0.88226  0.42878  1.0000
  C   C3627     1.0  0.95401  0.98064  0.10793  1.0000
  C   C3628     1.0  0.75854  0.78735  0.35622  1.0000
  H   H2891     1.0  0.74395  0.66081  0.47720  1.0000
  S   S491      1.0  0.81173  0.66959  0.44103  1.0000
  H   H2892     1.0  0.82355  0.84134  0.06814  1.0000
  C   C3629     1.0  0.82575  0.83433  0.08923  1.0000
  H   H2893     1.0  0.85773  0.96755  0.37027  1.0000
  H   H2894     1.0  0.84585  0.95681  0.32190  1.0000
  H   H2895     1.0  0.83883  0.92626  0.31704  1.0000
  H   H2896     1.0  0.84412  0.90637  0.35984  1.0000
  H   H2897     1.0  0.86304  0.94787  0.41338  1.0000
  H   H2898     1.0  0.88380  0.84599  0.37988  1.0000
  C   C3630     1.0  0.83498  0.92035  0.46384  1.0000
  H   H2899     1.0  0.75787  0.80413  0.43559  1.0000
  C   C3631     1.0  0.92676  0.77102  0.01138  1.0000
  C   C3632     1.0  0.98631  0.96176  0.19198  1.0000
  H   H2900     1.0  0.88603  0.87108  0.34566  1.0000
  H   H2901     1.0  0.83452  0.80949  0.02025  1.0000
  H   H2902     1.0  0.84321  0.93088  0.46896  1.0000
  H   H2903     1.0  0.85280  0.83136  0.04331  1.0000
  H   H2904     1.0  0.91842  0.84591  0.14807  1.0000
  H   H2905     1.0  0.94818  0.94165  0.19583  1.0000
  C   C3633     1.0  0.88323  0.80875  0.00466  1.0000
  H   H2906     1.0  0.81301  0.85839  0.16003  1.0000
  C   C3634     1.0  0.78084  0.69919  0.36834  1.0000
  C   C3635     1.0  0.94179  0.98175  0.13117  1.0000
  S   S492      1.0  0.76681  0.65966  0.41110  1.0000
  H   H2907     1.0  0.75158  0.75318  0.29429  1.0000
  H   H2908     1.0  0.91311  0.93914  0.44607  1.0000
  H   H2909     1.0  0.86709  0.85030  0.11647  1.0000
  H   H2910     1.0  0.80088  0.88741  0.16455  1.0000
  H   H2911     1.0  0.74884  0.86064  0.01435  1.0000
  H   H2912     1.0  0.78962  0.75927  0.43832  1.0000
  C   C3636     1.0  0.74417  0.72249  0.44074  1.0000
  H   H2913     1.0  0.84858  0.90515  0.19819  1.0000
  C   C3637     1.0  0.98684  0.91787  0.30927  1.0000
  C   C3638     1.0  0.77242  0.70620  0.39358  1.0000
  H   H2914     1.0  0.92808  0.87785  0.45220  1.0000
  C   C3639     1.0  0.87305  0.79596  0.99238  1.0000
  H   H2915     1.0  0.87144  0.84928  0.43182  1.0000
  C   C3640     1.0  0.87237  0.86022  0.41678  1.0000
  C   C3641     1.0  0.77528  0.78269  0.43672  1.0000
  H   H2916     1.0  0.83329  0.80917  0.16445  1.0000
  H   H2917     1.0  0.76047  0.79743  0.37254  1.0000
  H   H2918     1.0  0.90435  0.89444  0.42931  1.0000
  H   H2919     1.0  0.95136  0.76403  0.99274  1.0000
  C   C3642     1.0  0.77821  0.72577  0.46806  1.0000
  H   H2920     1.0  0.78474  0.78697  0.34145  1.0000
  C   C3643     1.0  0.74468  0.78027  0.43335  1.0000
  H   H2921     1.0  0.88378  0.83123  0.03271  1.0000
  C   C3644     1.0  0.84819  0.80899  0.01664  1.0000
  C   C3645     1.0  0.96050  0.94626  0.20296  1.0000
  H   H2922     1.0  0.87563  0.89921  0.36258  1.0000
  H   H2923     1.0  0.89286  0.98107  0.28397  1.0000
  C   C3646     1.0  0.94306  0.98906  0.25578  1.0000
  H   H2924     1.0  0.95385  0.87084  0.42132  1.0000
  C   C3647     1.0  0.83302  0.83327  0.26088  1.0000
  C   C3648     1.0  0.84080  0.81741  0.26611  1.0000
  C   C3649     1.0  0.84994  0.80936  0.24270  1.0000
  C   C3650     1.0  0.85142  0.81722  0.21411  1.0000
  C   C3651     1.0  0.84368  0.83322  0.20866  1.0000
  C   C3652     1.0  0.83445  0.84119  0.23235  1.0000
  P   P124      1.0  0.84696  0.84396  0.17247  1.0000
  C   C3653     1.0  0.83825  0.86533  0.17495  1.0000
  C   C3654     1.0  0.86964  0.84490  0.16487  1.0000
  C   C3655     1.0  0.88145  0.84270  0.18865  1.0000
  C   C3656     1.0  0.89896  0.84265  0.18247  1.0000
  C   C3657     1.0  0.90485  0.84534  0.15272  1.0000
  C   C3658     1.0  0.89323  0.84806  0.12914  1.0000
  C   C3659     1.0  0.87572  0.84784  0.13513  1.0000
  C   C3660     1.0  0.82107  0.86855  0.16767  1.0000
  C   C3661     1.0  0.81407  0.88496  0.17047  1.0000
  C   C3662     1.0  0.82406  0.89818  0.18118  1.0000
  C   C3663     1.0  0.84101  0.89497  0.18915  1.0000
  C   C3664     1.0  0.84816  0.87864  0.18598  1.0000
  C   C3665     1.0  0.83662  0.83335  0.14115  1.0000
  C   C3666     1.0  0.83144  0.81635  0.14363  1.0000
  C   C3667     1.0  0.82363  0.80841  0.11899  1.0000
  C   C3668     1.0  0.82083  0.81737  0.09178  1.0000
  C   C3669     1.0  0.90977  0.77522  0.00488  1.0000
  C   C3670     1.0  0.83359  0.84227  0.11376  1.0000
  H   H2925     1.0  0.82633  0.83966  0.27939  1.0000
  H   H2926     1.0  0.84004  0.81159  0.28858  1.0000
  H   H2927     1.0  0.85616  0.79717  0.24699  1.0000
  H   H2928     1.0  0.85896  0.81105  0.19646  1.0000
  H   H2929     1.0  0.80572  0.68809  0.14506  1.0000
  H   H2930     1.0  0.96554  0.95906  0.16050  1.0000
  C   C3671     1.0  0.85751  0.73826  0.99817  1.0000
  C   C3672     1.0  0.77224  0.78156  0.33842  1.0000
  C   C3673     1.0  0.97552  0.90962  0.16712  1.0000
  C   C3674     1.0  0.78689  0.70998  0.46865  1.0000
  C   C3675     1.0  0.75347  0.76241  0.31217  1.0000
  H   H2931     1.0  0.84726  0.78705  0.98790  1.0000
  C   C3676     1.0  0.80935  0.90463  0.47490  1.0000
  H   H2932     1.0  0.94148  0.97559  0.26017  1.0000
  C   C3677     1.0  0.74638  0.76250  0.43299  1.0000
  H   H2933     1.0  0.86447  0.76251  0.01609  1.0000
  H   H2934     1.0  0.78593  0.70114  0.44994  1.0000
  C   C3678     1.0  0.87597  0.82128  0.02344  1.0000
  C   C3679     1.0  0.76969  0.76914  0.31630  1.0000
  H   H2935     1.0  0.76449  0.69801  0.40743  1.0000
  C   C3680     1.0  0.96672  0.94207  0.23187  1.0000
  C   C3681     1.0  0.81100  0.67613  0.13684  1.0000
  C   C3682     1.0  0.75913  0.79036  0.43533  1.0000
  H   H2936     1.0  0.93101  0.77042  0.03484  1.0000
  C   C3683     1.0  0.99224  0.91268  0.15641  1.0000
  H   H2937     1.0  0.85166  0.73404  0.01928  1.0000
  C   C3684     1.0  0.86462  0.75446  0.99615  1.0000
  H   H2938     1.0  0.89669  0.80929  0.99929  1.0000
  C   C3685     1.0  0.82002  0.66533  0.15674  1.0000
  H   H2939     1.0  0.93073  0.97362  0.13091  1.0000
  C   C3686     1.0  0.97892  0.90774  0.28771  1.0000
  H   H2940     1.0  0.95247  0.97157  0.08965  1.0000
  C   C3687     1.0  0.80897  0.67162  0.10627  1.0000
  S   S493      1.0  0.81159  0.66244  0.36720  1.0000
  H   H2941     1.0  0.80523  0.88264  0.44693  1.0000
  H   H2942     1.0  0.98744  0.94419  0.26321  1.0000
  C   C3688     1.0  0.81340  0.89332  0.45137  1.0000
  H   H2943     1.0  0.80220  0.68007  0.09074  1.0000
  C   C3689     1.0  0.98278  0.94762  0.24082  1.0000
  H   H2944     1.0  0.98441  0.93014  0.35286  1.0000
  C   C3690     1.0  0.89526  0.98530  0.26088  1.0000
  H   H2945     1.0  0.82162  0.66915  0.18018  1.0000
  H   H2946     1.0  0.74362  0.85766  0.43250  1.0000
  H   H2947     1.0  0.74734  0.83883  0.29531  1.0000
  C   C3691     1.0  0.98724  0.89178  0.20706  1.0000
  H   H2948     1.0  0.98551  0.90456  0.26667  1.0000
  H   H2949     1.0  0.98571  0.98804  0.24415  1.0000
  H   H2950     1.0  0.95478  0.98506  0.21218  1.0000
  C   C3692     1.0  0.93822  0.76738  0.98766  1.0000
  C   C3693     1.0  0.87561  0.91210  0.47630  1.0000
  H   H2951     1.0  0.97732  0.99076  0.08975  1.0000
  C   C3694     1.0  0.96804  0.99138  0.10813  1.0000
  Fe  Fe248     1.0  0.82480  0.67717  0.91093  1.0000
  H   H2952     1.0  0.75440  0.78555  0.96338  1.0000
  S   S494      1.0  0.83092  0.70438  0.89404  1.0000
  C   C3695     1.0  0.75501  0.84837  0.85681  1.0000
  Fe  Fe249     1.0  0.89257  0.93954  0.67524  1.0000
  S   S495      1.0  0.90185  0.92489  0.71572  1.0000
  S   S496      1.0  0.89032  0.96884  0.67652  1.0000
  Fe  Fe250     1.0  0.88890  0.90642  0.63601  1.0000
  S   S497      1.0  0.89837  0.89001  0.67562  1.0000
  S   S498      1.0  0.88479  0.89476  0.58735  1.0000
  Fe  Fe251     1.0  0.88126  0.90611  0.70584  1.0000
  S   S499      1.0  0.86186  0.89886  0.74334  1.0000
  Fe  Fe252     1.0  0.91839  0.91014  0.68259  1.0000
  S   S500      1.0  0.94572  0.90673  0.70064  1.0000
  S   S501      1.0  0.87082  0.92167  0.66618  1.0000
  S   S502      1.0  0.91003  0.92571  0.64202  1.0000
  Fe  Fe253     1.0  0.82376  0.80807  0.93109  1.0000
  S   S503      1.0  0.80687  0.82538  0.95913  1.0000
  S   S504      1.0  0.82123  0.78010  0.94682  1.0000
  Fe  Fe254     1.0  0.83460  0.83868  0.89122  1.0000
  S   S505      1.0  0.81761  0.85738  0.91687  1.0000
  S   S506      1.0  0.85344  0.84401  0.85169  1.0000
  Fe  Fe255     1.0  0.82800  0.84454  0.95974  1.0000
  H   H2953     1.0  0.78631  0.72081  0.92831  1.0000
  Fe  Fe256     1.0  0.79778  0.83661  0.91459  1.0000
  S   S507      1.0  0.76838  0.83604  0.91198  1.0000
  S   S508      1.0  0.84561  0.82652  0.93425  1.0000
  S   S509      1.0  0.81422  0.81875  0.88668  1.0000
  H   H2954     1.0  0.80424  0.69349  0.49334  1.0000
  H   H2955     1.0  0.75100  0.85836  0.95807  1.0000
  H   H2956     1.0  0.76721  0.85424  0.85287  1.0000
  H   H2957     1.0  0.85548  0.88657  0.92068  1.0000
  C   C3696     1.0  0.96609  0.90767  0.68231  1.0000
  C   C3697     1.0  0.98085  0.90845  0.70037  1.0000
  C   C3698     1.0  0.96801  0.90713  0.65057  1.0000
  H   H2958     1.0  0.97957  0.90880  0.72493  1.0000
  H   H2959     1.0  0.95685  0.90648  0.63630  1.0000
  C   C3699     1.0  0.86011  0.88373  0.77381  1.0000
  C   C3700     1.0  0.84575  0.88457  0.79324  1.0000
  C   C3701     1.0  0.84350  0.87268  0.81724  1.0000
  C   C3702     1.0  0.85558  0.85965  0.82208  1.0000
  C   C3703     1.0  0.87003  0.85890  0.80280  1.0000
  C   C3704     1.0  0.87233  0.87085  0.77891  1.0000
  H   H2960     1.0  0.83622  0.89448  0.78963  1.0000
  H   H2961     1.0  0.83237  0.87356  0.83187  1.0000
  H   H2962     1.0  0.87952  0.84896  0.80634  1.0000
  H   H2963     1.0  0.88344  0.86999  0.76425  1.0000
  C   C3705     1.0  0.87044  0.88497  0.56060  1.0000
  C   C3706     1.0  0.85263  0.88538  0.56405  1.0000
  C   C3707     1.0  0.84199  0.87758  0.54222  1.0000
  C   C3708     1.0  0.84880  0.86901  0.51654  1.0000
  C   C3709     1.0  0.86661  0.86861  0.51310  1.0000
  C   C3710     1.0  0.87724  0.87654  0.53476  1.0000
  H   H2964     1.0  0.84701  0.89180  0.58350  1.0000
  H   H2965     1.0  0.82831  0.87807  0.54544  1.0000
  H   H2966     1.0  0.77696  0.69132  0.91862  1.0000
  H   H2967     1.0  0.89092  0.87597  0.53161  1.0000
  C   C3711     1.0  0.88867  0.91675  0.49597  1.0000
  C   C3712     1.0  0.89209  0.98306  0.70810  1.0000
  C   C3713     1.0  0.89882  0.97786  0.73622  1.0000
  C   C3714     1.0  0.76965  0.70209  0.90972  1.0000
  H   H2968     1.0  0.90328  0.96487  0.73912  1.0000
  C   C3715     1.0  0.82727  0.72532  0.90876  1.0000
  C   C3716     1.0  0.82076  0.72826  0.93807  1.0000
  C   C3717     1.0  0.81882  0.74508  0.94906  1.0000
  C   C3718     1.0  0.82312  0.75924  0.93085  1.0000
  C   C3719     1.0  0.82917  0.75633  0.90120  1.0000
  C   C3720     1.0  0.83145  0.73950  0.89045  1.0000
  H   H2969     1.0  0.81759  0.71755  0.95256  1.0000
  C   C3721     1.0  0.95415  0.95147  0.65551  1.0000
  H   H2970     1.0  0.83239  0.76700  0.88674  1.0000
  C   C3722     1.0  0.93040  0.65860  0.76183  1.0000
  H   H2971     1.0  0.88408  0.96627  0.81429  1.0000
  C   C3723     1.0  0.89361  0.94925  0.84988  1.0000
  C   C3724     1.0  0.87015  0.88770  0.87906  1.0000
  C   C3725     1.0  0.87491  0.80648  0.87268  1.0000
  C   C3726     1.0  0.88901  0.81032  0.89053  1.0000
  H   H2972     1.0  0.85549  0.77843  0.92011  1.0000
  C   C3727     1.0  0.76288  0.74658  0.81510  1.0000
  C   C3728     1.0  0.77311  0.75803  0.83093  1.0000
  C   C3729     1.0  0.78792  0.75186  0.84546  1.0000
  P   P125      1.0  0.76667  0.78007  0.83568  1.0000
  C   C3730     1.0  0.76248  0.78236  0.87596  1.0000
  C   C3731     1.0  0.78315  0.79451  0.82393  1.0000
  C   C3732     1.0  0.79817  0.78873  0.80947  1.0000
  C   C3733     1.0  0.81075  0.80031  0.80096  1.0000
  C   C3734     1.0  0.80829  0.81772  0.80632  1.0000
  C   C3735     1.0  0.79318  0.82357  0.81998  1.0000
  C   C3736     1.0  0.78069  0.81201  0.82883  1.0000
  C   C3737     1.0  0.86007  0.67886  0.82177  1.0000
  H   H2973     1.0  0.74423  0.74055  0.87661  1.0000
  C   C3738     1.0  0.97513  0.97217  0.67102  1.0000
  C   C3739     1.0  0.77217  0.78968  0.92667  1.0000
  C   C3740     1.0  0.77512  0.78856  0.89529  1.0000
  H   H2974     1.0  0.93728  0.66428  0.53623  1.0000
  C   C3741     1.0  0.89992  0.98953  0.76057  1.0000
  C   C3742     1.0  0.94474  0.97779  0.67885  1.0000
  H   H2975     1.0  0.95486  0.94875  0.72766  1.0000
  C   C3743     1.0  0.87241  0.74908  0.94347  1.0000
  C   C3744     1.0  0.77490  0.71868  0.91519  1.0000
  H   H2976     1.0  0.78647  0.71016  0.82520  1.0000
  C   C3745     1.0  0.87958  0.79027  0.92928  1.0000
  P   P126      1.0  0.88680  0.92967  0.83228  1.0000
  H   H2977     1.0  0.74463  0.72287  0.49010  1.0000
  H   H2978     1.0  0.79568  0.76028  0.85890  1.0000
  H   H2979     1.0  0.80028  0.77537  0.80472  1.0000
  H   H2980     1.0  0.82247  0.79582  0.79034  1.0000
  H   H2981     1.0  0.81815  0.82668  0.80025  1.0000
  H   H2982     1.0  0.79129  0.83704  0.82440  1.0000
  H   H2983     1.0  0.76917  0.81670  0.83983  1.0000
  C   C3746     1.0  0.74762  0.68672  0.82319  1.0000
  C   C3747     1.0  0.97114  0.95640  0.65805  1.0000
  C   C3748     1.0  0.74807  0.78224  0.78170  1.0000
  H   H2984     1.0  0.78198  0.79466  0.94132  1.0000
  H   H2985     1.0  0.78732  0.79248  0.88632  1.0000
  H   H2986     1.0  0.95550  0.68899  0.73009  1.0000
  C   C3749     1.0  0.95900  0.97122  0.75487  1.0000
  S   S510      1.0  0.83456  0.85881  0.49009  1.0000
  H   H2987     1.0  0.76340  0.66912  0.79759  1.0000
  H   H2988     1.0  0.98108  0.94767  0.65043  1.0000
  H   H2989     1.0  0.87384  0.70135  0.80958  1.0000
  H   H2990     1.0  0.84947  0.92487  0.82778  1.0000
  C   C3750     1.0  0.87134  0.93450  0.80292  1.0000
  C   C3751     1.0  0.75503  0.69928  0.89255  1.0000
  C   C3752     1.0  0.85836  0.66141  0.81702  1.0000
  H   H2991     1.0  0.75097  0.75070  0.80507  1.0000
  H   H2992     1.0  0.91415  0.89222  0.75541  1.0000
  C   C3753     1.0  0.79030  0.73237  0.51749  1.0000
  C   C3754     1.0  0.75663  0.78451  0.93905  1.0000
  H   H2993     1.0  0.91219  0.93018  0.50049  1.0000
  C   C3755     1.0  0.90840  0.96353  0.89086  1.0000
  C   C3756     1.0  0.89130  0.80233  0.91885  1.0000
  H   H2994     1.0  0.88837  0.91264  0.51968  1.0000
  H   H2995     1.0  0.83899  0.83534  0.55430  1.0000
  C   C3757     1.0  0.93527  0.91228  0.81196  1.0000
  C   C3758     1.0  0.91423  0.67641  0.72672  1.0000
  H   H2996     1.0  0.75851  0.69252  0.83355  1.0000
  H   H2997     1.0  0.85181  0.68536  0.83811  1.0000
  C   C3759     1.0  0.87251  0.68783  0.80572  1.0000
  C   C3760     1.0  0.86292  0.79489  0.88335  1.0000
  H   H2998     1.0  0.91144  0.77180  0.92741  1.0000
  C   C3761     1.0  0.90585  0.97921  0.87619  1.0000
  C   C3762     1.0  0.92142  0.92041  0.82637  1.0000
  H   H2999     1.0  0.94144  0.76463  0.93910  1.0000
  C   C3763     1.0  0.90422  0.77619  0.97452  1.0000
  C   C3764     1.0  0.94496  0.66807  0.75557  1.0000
  H   H3000     1.0  0.89791  0.81981  0.88264  1.0000
  H   H3001     1.0  0.79798  0.90273  0.48858  1.0000
  C   C3765     1.0  0.88174  0.66175  0.78027  1.0000
  C   C3766     1.0  0.87783  0.89822  0.85728  1.0000
  C   C3767     1.0  0.86156  0.89480  0.90403  1.0000
  H   H3002     1.0  0.89005  0.94458  0.77160  1.0000
  C   C3768     1.0  0.95110  0.95589  0.74778  1.0000
  C   C3769     1.0  0.92883  0.68584  0.72047  1.0000
  C   C3770     1.0  0.86834  0.92307  0.88562  1.0000
  H   H3003     1.0  0.85161  0.79249  0.87010  1.0000
  H   H3004     1.0  0.87299  0.81290  0.85099  1.0000
  H   H3005     1.0  0.75999  0.72069  0.80011  1.0000
  H   H3006     1.0  0.91507  0.96293  0.91241  1.0000
  C   C3771     1.0  0.85241  0.83367  0.55955  1.0000
  H   H3007     1.0  0.88971  0.90634  0.78074  1.0000
  C   C3772     1.0  0.93268  0.90222  0.78627  1.0000
  C   C3773     1.0  0.88713  0.82995  0.57240  1.0000
  C   C3774     1.0  0.87582  0.83538  0.59545  1.0000
  C   C3775     1.0  0.85833  0.83683  0.58896  1.0000
  P   P127      1.0  0.88342  0.83808  0.63391  1.0000
  C   C3776     1.0  0.86907  0.85149  0.65573  1.0000
  C   C3777     1.0  0.88477  0.81688  0.64979  1.0000
  C   C3778     1.0  0.86987  0.80871  0.65936  1.0000
  C   C3779     1.0  0.87069  0.79207  0.67086  1.0000
  C   C3780     1.0  0.88636  0.78340  0.67244  1.0000
  C   C3781     1.0  0.90120  0.79131  0.66227  1.0000
  C   C3782     1.0  0.90041  0.80795  0.65074  1.0000
  C   C3783     1.0  0.86574  0.84806  0.68667  1.0000
  C   C3784     1.0  0.85469  0.85871  0.70328  1.0000
  C   C3785     1.0  0.84718  0.87298  0.68931  1.0000
  C   C3786     1.0  0.85093  0.87680  0.65889  1.0000
  C   C3787     1.0  0.86191  0.86615  0.64223  1.0000
  C   C3788     1.0  0.90357  0.84882  0.63506  1.0000
  C   C3789     1.0  0.90859  0.85952  0.61100  1.0000
  C   C3790     1.0  0.92354  0.86889  0.61311  1.0000
  C   C3791     1.0  0.93358  0.86769  0.63928  1.0000
  C   C3792     1.0  0.92862  0.85716  0.66344  1.0000
  C   C3793     1.0  0.91359  0.84787  0.66149  1.0000
  H   H3008     1.0  0.80403  0.72989  0.85465  1.0000
  H   H3009     1.0  0.93444  0.98582  0.68745  1.0000
  H   H3010     1.0  0.90057  0.82816  0.57716  1.0000
  H   H3011     1.0  0.84920  0.84041  0.60646  1.0000
  H   H3012     1.0  0.85759  0.81519  0.65776  1.0000
  H   H3013     1.0  0.85915  0.78586  0.67833  1.0000
  H   H3014     1.0  0.88697  0.77048  0.68124  1.0000
  H   H3015     1.0  0.91331  0.78450  0.66306  1.0000
  H   H3016     1.0  0.91196  0.81373  0.64229  1.0000
  H   H3017     1.0  0.87181  0.83737  0.69815  1.0000
  H   H3018     1.0  0.85223  0.85620  0.72724  1.0000
  H   H3019     1.0  0.83888  0.88139  0.70241  1.0000
  H   H3020     1.0  0.84559  0.88819  0.64836  1.0000
  H   H3021     1.0  0.86494  0.86941  0.61887  1.0000
  H   H3022     1.0  0.90066  0.86118  0.59104  1.0000
  H   H3023     1.0  0.92701  0.87754  0.59482  1.0000
  H   H3024     1.0  0.94494  0.87528  0.64126  1.0000
  H   H3025     1.0  0.93615  0.85669  0.68407  1.0000
  H   H3026     1.0  0.90955  0.84034  0.68092  1.0000
  C   C3794     1.0  0.89092  0.96514  0.83554  1.0000
  C   C3795     1.0  0.94054  0.97446  0.79891  1.0000
  C   C3796     1.0  0.90236  0.90814  0.78966  1.0000
  C   C3797     1.0  0.86518  0.78690  0.91165  1.0000
  H   H3027     1.0  0.90439  0.93655  0.88945  1.0000
  H   H3028     1.0  0.79182  0.74114  0.53622  1.0000
  H   H3029     1.0  0.98575  0.90632  0.61268  1.0000
  C   C3798     1.0  0.90229  0.94862  0.87781  1.0000
  C   C3799     1.0  0.88333  0.67934  0.78506  1.0000
  C   C3800     1.0  0.94420  0.68166  0.73487  1.0000
  H   H3030     1.0  0.76973  0.74534  0.90766  1.0000
  H   H3031     1.0  0.98489  0.95105  0.71736  1.0000
  H   H3032     1.0  0.89295  0.68655  0.77326  1.0000
  C   C3801     1.0  0.86498  0.94585  0.75244  1.0000
  H   H3033     1.0  0.94340  0.89621  0.77460  1.0000
  C   C3802     1.0  0.86063  0.91248  0.90728  1.0000
  H   H3034     1.0  0.83875  0.94490  0.73866  1.0000
  H   H3035     1.0  0.92380  0.92815  0.84609  1.0000
  C   C3803     1.0  0.77980  0.73682  0.49295  1.0000
  H   H3036     1.0  0.75856  0.77522  0.77129  1.0000
  C   C3804     1.0  0.96170  0.98281  0.68146  1.0000
  H   H3037     1.0  0.90507  0.98530  0.78213  1.0000
  C   C3805     1.0  0.75244  0.83868  0.88329  1.0000
  H   H3038     1.0  0.94807  0.91390  0.82050  1.0000
  H   H3039     1.0  0.88402  0.89240  0.83773  1.0000
  H   H3040     1.0  0.96887  0.97599  0.74000  1.0000
  C   C3806     1.0  0.79271  0.73467  0.84318  1.0000
  C   C3807     1.0  0.79729  0.70554  0.49333  1.0000
  C   C3808     1.0  0.87718  0.91600  0.86062  1.0000
  C   C3809     1.0  0.90485  0.91867  0.81494  1.0000
  C   C3810     1.0  0.85401  0.93089  0.80708  1.0000
  C   C3811     1.0  0.91620  0.90001  0.77537  1.0000
  C   C3812     1.0  0.78273  0.72349  0.82665  1.0000
  H   H3041     1.0  0.82900  0.93157  0.78702  1.0000
  C   C3813     1.0  0.84777  0.94221  0.75672  1.0000
  C   C3814     1.0  0.93263  0.95917  0.79168  1.0000
  C   C3815     1.0  0.93788  0.94991  0.76612  1.0000
  H   H3042     1.0  0.77313  0.74899  0.49339  1.0000
  H   H3043     1.0  0.81417  0.74712  0.97204  1.0000
  C   C3816     1.0  0.74704  0.77680  0.88863  1.0000
  H   H3044     1.0  0.99003  0.97572  0.77717  1.0000
  H   H3045     1.0  0.95116  0.93921  0.64587  1.0000
  H   H3046     1.0  0.86531  0.72459  0.92592  1.0000
  H   H3047     1.0  0.74382  0.85838  0.81536  1.0000
  C   C3817     1.0  0.98445  0.90703  0.63722  1.0000
  C   C3818     1.0  0.76551  0.73248  0.90352  1.0000
  S   S511      1.0  0.80752  0.66880  0.94909  1.0000
  H   H3048     1.0  0.86722  0.93674  0.88822  1.0000
  C   C3819     1.0  0.91493  0.66265  0.74732  1.0000
  H   H3049     1.0  0.85913  0.82652  0.51369  1.0000
  H   H3050     1.0  0.89571  0.98630  0.61543  1.0000
  H   H3051     1.0  0.80744  0.71340  0.53640  1.0000
  H   H3052     1.0  0.83653  0.73744  0.86776  1.0000
  C   C3820     1.0  0.76783  0.72943  0.81260  1.0000
  C   C3821     1.0  0.84229  0.93473  0.78401  1.0000
  C   C3822     1.0  0.88115  0.82677  0.54301  1.0000
  H   H3053     1.0  0.87066  0.87398  0.87637  1.0000
  H   H3054     1.0  0.85380  0.91795  0.92653  1.0000
  C   C3823     1.0  0.86380  0.82868  0.53657  1.0000
  C   C3824     1.0  0.87673  0.94190  0.77535  1.0000
  H   H3055     1.0  0.92210  0.95476  0.80545  1.0000
  H   H3056     1.0  0.93154  0.93822  0.76016  1.0000
  H   H3057     1.0  0.86926  0.95148  0.73112  1.0000
  H   H3058     1.0  0.88993  0.82284  0.52515  1.0000
  H   H3059     1.0  0.92821  0.69641  0.70449  1.0000
  C   C3825     1.0  0.74562  0.71304  0.88022  1.0000
  C   C3826     1.0  0.79910  0.71676  0.51762  1.0000
  C   C3827     1.0  0.94097  0.96215  0.66587  1.0000
  H   H3060     1.0  0.92782  0.95820  0.66425  1.0000
  C   C3828     1.0  0.89706  0.98001  0.84862  1.0000
  H   H3061     1.0  0.75120  0.68630  0.88863  1.0000
  H   H3062     1.0  0.90238  0.67981  0.71548  1.0000
  H   H3063     1.0  0.86551  0.90414  0.48509  1.0000
  C   C3829     1.0  0.75098  0.72969  0.88598  1.0000
  C   C3830     1.0  0.75052  0.67359  0.80231  1.0000
  H   H3064     1.0  0.87227  0.86196  0.49396  1.0000
  S   S512      1.0  0.81271  0.66028  0.87581  1.0000
  C   C3831     1.0  0.74840  0.78623  0.81288  1.0000
  H   H3065     1.0  0.95686  0.66484  0.76682  1.0000
  C   C3832     1.0  0.95389  0.98062  0.78056  1.0000
  C   C3833     1.0  0.93264  0.76777  0.95744  1.0000
  H   H3066     1.0  0.90204  0.80578  0.93277  1.0000
  C   C3834     1.0  0.74409  0.77799  0.92006  1.0000
  H   H3067     1.0  0.87827  0.75298  0.92218  1.0000
  C   C3835     1.0  0.91566  0.77198  0.95088  1.0000
  C   C3836     1.0  0.86530  0.73291  0.94558  1.0000
  H   H3068     1.0  0.81690  0.92698  0.49923  1.0000
  P   P128      1.0  0.88208  0.78051  0.96635  1.0000
  H   H3069     1.0  0.74753  0.85582  0.48838  1.0000
  C   C3837     1.0  0.87189  0.76009  0.96861  1.0000
  H   H3070     1.0  0.93575  0.98161  0.81825  1.0000
  C   C3838     1.0  0.85786  0.72749  0.97291  1.0000
  H   H3071     1.0  0.91057  0.99079  0.88623  1.0000
  H   H3072     1.0  0.85217  0.71501  0.97428  1.0000
  C   C3839     1.0  0.90210  0.92661  0.48513  1.0000
  C   C3840     1.0  0.82005  0.91823  0.48095  1.0000
