data_image0
_chemical_formula_structural       Fe2S2FeSCSCSC3H2C3H2C2H2CH2CHCHCHC5HCHSHCPHC2PC2H2C3HCH2C5SHCHSH2CH2C2H2C4HCH3CHC5PC4HC4HCHCH2CH2C2HCH5CHC2H2C2H6CHSFeSHFeS2FeSHS2CSC2SFeSFeSC2HC6H4C3H2CH2C2S2CHC2HC2H4C3H2C2PH2C3HC2H2SC7H3CHFeH2C2FeC2HPC2H3CH4C2HC4HCHC3H2FeSHFeS2FeSFeS4FeSC6H4CHCH2C4HCH2CPHCSHC2H3CH3C3HC3HC2H3CFeH2CHCHC2HCHC2H2CH3C3PHCHC2H3CH3C3HC2FeHC3HC2HCH2C2H2C2PHC3H3C2HCHC7HCH2C4HCHC6SH3CHCHCSHCHCHCHFeS2FeS2FeSFeS3C7H4C3HC3H3CHC3HC4H4C3PC2HC4HCH2CHC2HC2PC2HC3H2C8HCHCH3C2H2CHCH2SPC6HCHC3H5C4H3C3HCH2C3HC3FeC2PCHCH4C7H2CH4CH4C2H7CHCHC2H4CH2CHC9HCHSC2H5C4HC2H3PSC2HC2H3CHCFeCSCHC3SFeS2FeSFeSFeS3C6H5CH3PCHC3HCHCHCH4C4HCHC13H9C2HCH3C2SC3HCPH2SC3HC3H4C2H2CH2C2H2C6H3CH2CH6C2HCHCFe2S2FeSCSH2CH2C2FeCH3CH5SC6H2CHC2SC6PC3HC3H3C3H3CH6C2H2CHC2H3C5HCHCHSCH3C2HC3S2H2C2HCH2CHCH2C2H2C2H3CHCHCH5C2HCSFeSFeS2FeSFeS3C2HFeSCPC6H4C6H5C3H2SH2C3H2C2FeH2C2HC4H3C2HC4SHSC3H2C2H2CH2CHC2HCHC2HC6PCHC3HC3H5CHC2SHCHC2H2CH3CH3CH4FeCHFeHC3HCHC2H2CH4C3HC2PC2HCFeS2FeSCFeSFeS3C2SH2C4H2CHC2H7CHC5H2C4HC2HCH5C2H3CHCH2C2H2CHC2HC4H2C3H2CHC4H2PC5HCH2CH2C2H3C2HC5HCH2C2HC3HCHPCH3C2HC3HCH2CHCHC2HC2HCHCH2CHCFeS2FeS2FeSFeS4C4HCHC6H4C4H3C4H2CH2CH2CPCH4C3HCHC2PHCH2C2H3C4HC2HC3H2C2H2CHC2HCH4FeHCHC2HSHC2HPCHCH5FeS2FeHCFeCFeS3HFeSC2HC7H4CH2CH6SHFeHCHC2SC3HSHCSHC4HPC4H2C12H2CHSHC3H9C4HPC7H2C4SCH2C2H5CHCHC2PC4H2CH2C2FeCHCHCFeS2FeS2FeSFeS3C3H2CHC6H4C3H4CHC7PC4HC13HC2H3C3H12C2HCH2C6H2C2H3CHCH3CHCH2C3HC2HC3HPC2HC3H6C2HCHC4H2C2HCH2C2HCH2C3HSC2HCHC4HCHC2HC3HCHC2H2SFeS2FeSFeSFeS3CHSHC3HC7H4C6H4C9PC3HCHC4H2C4H14CHCH4C2HC2SPCHC4HC2HCH2CH5C2HC4HCFeHC2H2C2H2C4H4SC5HC2PC2HC2H2CH3CHC3HCHC2H
_chemical_formula_sum              "Fe64 S128 C960 H768 P32"
_cell_length_a       41.0098
_cell_length_b       40.944
_cell_length_c       36.7446
_cell_angle_alpha    90.1535
_cell_angle_beta     90.0479
_cell_angle_gamma    89.8354

_space_group_name_H-M_alt    "P 1"
_space_group_IT_number       1

loop_
  _space_group_symop_operation_xyz
  'x, y, z'

loop_
  _atom_site_type_symbol
  _atom_site_label
  _atom_site_symmetry_multiplicity
  _atom_site_fract_x
  _atom_site_fract_y
  _atom_site_fract_z
  _atom_site_occupancy
  Fe  Fe1       1.0  0.45738  0.13479  0.37798  1.0000
  Fe  Fe2       1.0  0.43491  0.10261  0.30595  1.0000
  S   S1        1.0  0.44242  0.14895  0.27362  1.0000
  S   S2        1.0  0.43373  0.05204  0.27939  1.0000
  Fe  Fe3       1.0  0.41828  0.17490  0.32144  1.0000
  S   S3        1.0  0.38632  0.22176  0.32340  1.0000
  C   C1        1.0  0.23944  0.25326  0.18039  1.0000
  S   S4        1.0  0.40792  0.12790  0.35194  1.0000
  C   C2        1.0  0.21504  0.25080  0.20670  1.0000
  S   S5        1.0  0.46649  0.18256  0.35033  1.0000
  C   C3        1.0  0.34805  0.00865  0.24909  1.0000
  C   C4        1.0  0.29871  0.25836  0.42599  1.0000
  C   C5        1.0  0.12584  0.20180  0.02726  1.0000
  H   H1        1.0  0.36070  0.01167  0.12900  1.0000
  H   H2        1.0  0.32751  0.14420  0.30688  1.0000
  C   C6        1.0  0.38587  0.04353  0.16625  1.0000
  C   C7        1.0  0.40387  0.02421  0.26333  1.0000
  C   C8        1.0  0.37046  0.03119  0.26392  1.0000
  H   H3        1.0  0.41703  0.07034  0.20278  1.0000
  H   H4        1.0  0.11134  0.30055  0.27514  1.0000
  C   C9        1.0  0.37226  0.17932  0.46170  1.0000
  C   C10       1.0  0.18268  0.24571  0.19622  1.0000
  H   H5        1.0  0.36196  0.05402  0.27537  1.0000
  H   H6        1.0  0.32269  0.18946  0.35086  1.0000
  C   C11       1.0  0.06431  0.31164  0.13688  1.0000
  H   H7        1.0  0.13184  0.14008  0.22409  1.0000
  H   H8        1.0  0.13225  0.17264  0.11345  1.0000
  C   C12       1.0  0.40605  0.18251  0.46513  1.0000
  H   H9        1.0  0.36135  0.28497  0.34434  1.0000
  C   C13       1.0  0.06763  0.28273  0.24841  1.0000
  H   H10       1.0  0.26113  0.20082  0.37345  1.0000
  C   C14       1.0  0.13184  0.18276  0.18984  1.0000
  H   H11       1.0  0.16402  0.24437  0.21705  1.0000
  C   C15       1.0  0.44371  0.03333  0.17343  1.0000
  C   C16       1.0  0.34900  0.24260  0.31225  1.0000
  C   C17       1.0  0.32497  0.22880  0.28990  1.0000
  C   C18       1.0  0.29560  0.24591  0.28279  1.0000
  C   C19       1.0  0.12715  0.24630  0.07073  1.0000
  H   H12       1.0  0.32900  0.20491  0.27812  1.0000
  C   C20       1.0  0.41218  0.00105  0.13082  1.0000
  H   H13       1.0  0.40307  0.00797  0.01238  1.0000
  S   S6        1.0  0.46533  0.12876  0.43917  1.0000
  H   H14       1.0  0.43627  0.02806  0.40004  1.0000
  C   C21       1.0  0.06596  0.18860  0.20820  1.0000
  P   P1        1.0  0.47869  0.98588  0.13547  1.0000
  H   H15       1.0  0.44100  0.00315  0.33864  1.0000
  C   C22       1.0  0.12918  0.22398  0.09960  1.0000
  C   C23       1.0  0.38405  0.01829  0.14069  1.0000
  P   P2        1.0  0.13220  0.23843  0.14604  1.0000
  C   C24       1.0  0.34309  0.27388  0.32706  1.0000
  C   C25       1.0  0.17439  0.24333  0.15918  1.0000
  H   H16       1.0  0.46279  0.99536  0.05935  1.0000
  H   H17       1.0  0.25163  0.15644  0.44186  1.0000
  C   C26       1.0  0.40579  0.22458  0.41903  1.0000
  C   C27       1.0  0.23149  0.25053  0.14348  1.0000
  C   C28       1.0  0.19906  0.24564  0.13283  1.0000
  H   H18       1.0  0.06524  0.23090  0.17440  1.0000
  C   C29       1.0  0.31375  0.29104  0.31987  1.0000
  H   H19       1.0  0.12641  0.27226  0.07594  1.0000
  H   H20       1.0  0.07537  0.25746  0.24892  1.0000
  C   C30       1.0  0.11098  0.27706  0.15061  1.0000
  C   C31       1.0  0.08804  0.30708  0.26336  1.0000
  C   C32       1.0  0.29182  0.22742  0.41133  1.0000
  C   C33       1.0  0.38557  0.99049  0.00215  1.0000
  C   C34       1.0  0.46255  0.01241  0.35232  1.0000
  S   S7        1.0  0.25155  0.29714  0.28807  1.0000
  H   H21       1.0  0.26446  0.25752  0.18876  1.0000
  C   C35       1.0  0.28201  0.28599  0.41349  1.0000
  H   H22       1.0  0.12873  0.15343  0.04991  1.0000
  S   S8        1.0  0.01184  0.25995  0.21456  1.0000
  H   H23       1.0  0.35936  0.23623  0.39564  1.0000
  H   H24       1.0  0.46632  0.03860  0.18746  1.0000
  C   C36       1.0  0.11744  0.15999  0.21312  1.0000
  H   H25       1.0  0.25052  0.25243  0.12315  1.0000
  H   H26       1.0  0.19338  0.24381  0.10415  1.0000
  C   C37       1.0  0.00051  0.29084  0.01887  1.0000
  C   C38       1.0  0.08026  0.21134  0.18488  1.0000
  H   H27       1.0  0.32170  0.08682  0.32759  1.0000
  H   H28       1.0  0.32226  0.01422  0.24946  1.0000
  C   C39       1.0  0.37193  0.22182  0.41598  1.0000
  C   C40       1.0  0.28965  0.27716  0.29770  1.0000
  C   C41       1.0  0.17484  0.31210  0.04184  1.0000
  C   C42       1.0  0.41454  0.99445  0.24820  1.0000
  H   H29       1.0  0.44926  0.20591  0.44463  1.0000
  C   C43       1.0  0.08452  0.16297  0.22239  1.0000
  H   H30       1.0  0.41882  0.24097  0.40107  1.0000
  H   H31       1.0  0.07066  0.26329  0.11554  1.0000
  H   H32       1.0  0.15736  0.18000  0.18289  1.0000
  C   C44       1.0  0.11340  0.20884  0.17578  1.0000
  H   H33       1.0  0.14580  0.29875  0.18817  1.0000
  C   C45       1.0  0.03039  0.29395  0.03700  1.0000
  C   C46       1.0  0.32186  0.13901  0.33510  1.0000
  C   C47       1.0  0.31891  0.16469  0.36002  1.0000
  C   C48       1.0  0.31219  0.15843  0.39674  1.0000
  C   C49       1.0  0.05989  0.29446  0.01713  1.0000
  P   P3        1.0  0.31232  0.19175  0.42896  1.0000
  C   C50       1.0  0.03738  0.29096  0.23270  1.0000
  C   C51       1.0  0.41577  0.05129  0.18227  1.0000
  C   C52       1.0  0.35492  0.19921  0.43732  1.0000
  C   C53       1.0  0.13027  0.19040  0.09180  1.0000
  H   H34       1.0  0.27731  0.23477  0.26562  1.0000
  C   C54       1.0  0.31007  0.12591  0.40858  1.0000
  C   C55       1.0  0.12539  0.23524  0.03475  1.0000
  C   C56       1.0  0.26736  0.22440  0.38477  1.0000
  C   C57       1.0  0.45986  0.02645  0.38688  1.0000
  H   H35       1.0  0.31702  0.26116  0.44699  1.0000
  C   C58       1.0  0.12842  0.17938  0.05576  1.0000
  H   H36       1.0  0.22119  0.25333  0.23530  1.0000
  C   C59       1.0  0.44231  0.00861  0.14695  1.0000
  H   H37       1.0  0.41946  0.16645  0.48317  1.0000
  H   H38       1.0  0.12325  0.25259  0.01258  1.0000
  C   C60       1.0  0.31877  0.10674  0.34684  1.0000
  H   H39       1.0  0.23255  0.24994  0.35106  1.0000
  H   H40       1.0  0.36399  0.05651  0.17439  1.0000
  C   C61       1.0  0.12341  0.30190  0.17310  1.0000
  C   C62       1.0  0.08126  0.28225  0.13241  1.0000
  H   H41       1.0  0.04041  0.19119  0.21541  1.0000
  C   C63       1.0  0.31297  0.10019  0.38359  1.0000
  H   H42       1.0  0.44033  0.98894  0.24754  1.0000
  H   H43       1.0  0.35991  0.16055  0.47708  1.0000
  H   H44       1.0  0.99295  0.27501  0.28934  1.0000
  H   H45       1.0  0.07334  0.14549  0.24057  1.0000
  H   H46       1.0  0.03057  0.29695  0.06611  1.0000
  C   C64       1.0  0.42287  0.20486  0.44349  1.0000
  H   H47       1.0  0.31146  0.07513  0.39281  1.0000
  C   C65       1.0  0.26103  0.16448  0.46794  1.0000
  C   C66       1.0  0.29045  0.18184  0.46999  1.0000
  H   H48       1.0  0.18709  0.29338  0.05756  1.0000
  H   H49       1.0  0.30693  0.12034  0.43713  1.0000
  C   C67       1.0  0.25808  0.28286  0.38664  1.0000
  C   C68       1.0  0.25071  0.25209  0.37239  1.0000
  H   H50       1.0  0.04095  0.31515  0.12384  1.0000
  H   H51       1.0  0.24563  0.30434  0.37633  1.0000
  H   H52       1.0  0.28769  0.30994  0.42436  1.0000
  H   H53       1.0  0.08269  0.29806  0.03132  1.0000
  H   H54       1.0  0.16549  0.00625  0.01667  1.0000
  H   H55       1.0  0.30974  0.31496  0.33161  1.0000
  C   C69       1.0  0.17952  0.31367  0.00425  1.0000
  H   H56       1.0  0.12397  0.19334  0.99934  1.0000
  S   S9        1.0  0.48307  0.10612  0.33516  1.0000
  Fe  Fe4       1.0  0.36767  0.03906  0.88208  1.0000
  S   S10       1.0  0.31639  0.03622  0.86079  1.0000
  H   H57       1.0  0.34586  0.01472  0.71111  1.0000
  Fe  Fe5       1.0  0.39483  0.06398  0.80791  1.0000
  S   S11       1.0  0.34485  0.06280  0.78166  1.0000
  S   S12       1.0  0.44562  0.06364  0.78158  1.0000
  Fe  Fe6       1.0  0.32582  0.08525  0.83427  1.0000
  S   S13       1.0  0.29212  0.13013  0.84484  1.0000
  H   H58       1.0  0.14229  0.13359  0.83657  1.0000
  S   S14       1.0  0.37664  0.08905  0.85876  1.0000
  S   S15       1.0  0.38930  0.01446  0.83339  1.0000
  C   C70       1.0  0.26625  0.09057  0.92354  1.0000
  S   S16       1.0  0.08231  0.24277  0.86468  1.0000
  C   C71       1.0  0.15500  0.12846  0.86183  1.0000
  C   C72       1.0  0.18336  0.02943  0.92983  1.0000
  S   S17       1.0  0.09628  0.27955  0.78731  1.0000
  Fe  Fe7       1.0  0.05447  0.27591  0.82650  1.0000
  S   S18       1.0  0.99981  0.27403  0.81482  1.0000
  Fe  Fe8       1.0  0.12625  0.25064  0.82836  1.0000
  S   S19       1.0  0.15822  0.20738  0.80807  1.0000
  C   C73       1.0  0.42678  0.01423  0.69064  1.0000
  C   C74       1.0  0.44788  0.05955  0.61633  1.0000
  H   H59       1.0  0.06456  0.27962  0.63541  1.0000
  C   C75       1.0  0.25507  0.15167  0.83356  1.0000
  C   C76       1.0  0.23548  0.14324  0.80371  1.0000
  C   C77       1.0  0.20635  0.16072  0.79633  1.0000
  C   C78       1.0  0.19615  0.18709  0.81841  1.0000
  C   C79       1.0  0.21580  0.19563  0.84818  1.0000
  C   C80       1.0  0.24490  0.17806  0.85563  1.0000
  H   H60       1.0  0.24284  0.12336  0.78611  1.0000
  H   H61       1.0  0.19155  0.15375  0.77322  1.0000
  H   H62       1.0  0.20849  0.21567  0.86560  1.0000
  H   H63       1.0  0.25968  0.18500  0.87877  1.0000
  C   C81       1.0  0.05989  0.29150  0.97891  1.0000
  C   C82       1.0  0.03014  0.28711  0.96096  1.0000
  C   C83       1.0  0.39794  0.02101  0.70943  1.0000
  H   H64       1.0  0.29195  0.19571  0.56160  1.0000
  H   H65       1.0  0.20240  0.11226  0.95138  1.0000
  C   C84       1.0  0.29723  0.09448  0.93878  1.0000
  H   H66       1.0  0.17128  0.08118  0.84448  1.0000
  H   H67       1.0  0.24081  0.16369  0.55783  1.0000
  C   C85       1.0  0.45668  0.12263  0.74538  1.0000
  C   C86       1.0  0.46747  0.09088  0.75289  1.0000
  S   S20       1.0  0.14319  0.29604  0.85802  1.0000
  S   S21       1.0  0.38652  0.02697  0.93926  1.0000
  C   C87       1.0  0.37287  0.99424  0.96679  1.0000
  H   H68       1.0  0.43383  0.13117  0.75666  1.0000
  C   C88       1.0  0.18929  0.11653  0.92625  1.0000
  C   C89       1.0  0.15548  0.15204  0.88935  1.0000
  H   H69       1.0  0.44958  0.02324  0.70166  1.0000
  C   C90       1.0  0.36688  0.99307  0.66296  1.0000
  C   C91       1.0  0.28349  0.18672  0.53547  1.0000
  H   H70       1.0  0.25587  0.99960  0.77138  1.0000
  H   H71       1.0  0.08326  0.27841  0.69966  1.0000
  H   H72       1.0  0.17316  0.16457  0.94268  1.0000
  H   H73       1.0  0.15511  0.01551  0.88249  1.0000
  C   C92       1.0  0.24333  0.15775  0.49957  1.0000
  C   C93       1.0  0.29449  0.03987  0.96351  1.0000
  C   C94       1.0  0.31128  0.06921  0.95895  1.0000
  H   H74       1.0  0.23849  0.08318  0.83919  1.0000
  H   H75       1.0  0.46830  0.19446  0.58048  1.0000
  C   C95       1.0  0.24905  0.06131  0.92826  1.0000
  C   C96       1.0  0.26378  0.03566  0.94763  1.0000
  P   P4        1.0  0.21105  0.05490  0.90454  1.0000
  H   H76       1.0  0.31070  0.11680  0.93394  1.0000
  H   H77       1.0  0.42457  0.05571  0.62934  1.0000
  C   C97       1.0  0.18954  0.09303  0.89833  1.0000
  C   C98       1.0  0.15804  0.01309  0.91168  1.0000
  C   C99       1.0  0.99156  0.30617  0.71052  1.0000
  H   H78       1.0  0.02969  0.28452  0.93165  1.0000
  C   C100      1.0  0.46913  0.04944  0.91585  1.0000
  C   C101      1.0  0.98431  0.29020  0.77359  1.0000
  H   H79       1.0  0.34369  0.98446  0.65264  1.0000
  H   H80       1.0  0.46767  0.16835  0.71876  1.0000
  S   S22       1.0  0.09712  0.29486  0.95435  1.0000
  C   C102      1.0  0.17184  0.09899  0.86628  1.0000
  C   C103      1.0  0.22256  0.03720  0.86140  1.0000
  C   C104      1.0  0.23603  0.05724  0.83449  1.0000
  C   C105      1.0  0.24752  0.04381  0.80192  1.0000
  C   C106      1.0  0.24604  0.01012  0.79619  1.0000
  C   C107      1.0  0.23302  0.98986  0.82303  1.0000
  C   C108      1.0  0.22134  0.00330  0.85560  1.0000
  H   H81       1.0  0.30572  0.02014  0.97864  1.0000
  H   H82       1.0  0.33557  0.07204  0.97022  1.0000
  H   H83       1.0  0.14319  0.17525  0.88519  1.0000
  C   C109      1.0  0.47242  0.04235  0.95284  1.0000
  H   H84       1.0  0.25182  0.01229  0.95012  1.0000
  Fe  Fe9       1.0  0.09790  0.28905  0.89250  1.0000
  H   H85       1.0  0.39884  0.03425  0.73493  1.0000
  H   H86       1.0  0.43868  0.11104  0.61025  1.0000
  C   C110      1.0  0.00450  0.29428  0.74338  1.0000
  C   C111      1.0  0.06765  0.30227  0.65031  1.0000
  Fe  Fe10      1.0  0.33910  0.01433  0.81014  1.0000
  C   C112      1.0  0.30123  0.19352  0.50389  1.0000
  C   C113      1.0  0.45563  0.09118  0.60529  1.0000
  H   H87       1.0  0.44569  0.05721  0.90508  1.0000
  P   P5        1.0  0.46249  0.99383  0.63034  1.0000
  C   C114      1.0  0.00075  0.28676  0.98084  1.0000
  C   C115      1.0  0.47043  0.03390  0.61166  1.0000
  H   H88       1.0  0.00729  0.30901  0.68721  1.0000
  H   H89       1.0  0.21243  0.98711  0.87651  1.0000
  H   H90       1.0  0.45141  0.04468  0.97060  1.0000
  C   C116      1.0  0.25463  0.16874  0.53334  1.0000
  H   H91       1.0  0.47872  0.99180  0.55139  1.0000
  H   H92       1.0  0.25624  0.11011  0.90713  1.0000
  H   H93       1.0  0.03001  0.28780  0.74521  1.0000
  H   H94       1.0  0.25850  0.05950  0.78164  1.0000
  C   C117      1.0  0.07823  0.30155  0.68647  1.0000
  C   C118      1.0  0.36803  0.01027  0.69579  1.0000
  H   H95       1.0  0.46058  0.21033  0.51585  1.0000
  C   C119      1.0  0.18546  0.02742  0.96791  1.0000
  C   C120      1.0  0.17254  0.14606  0.92160  1.0000
  C   C121      1.0  0.39556  0.98704  0.64347  1.0000
  C   C122      1.0  0.47596  0.14369  0.72392  1.0000
  H   H96       1.0  0.32307  0.20821  0.50594  1.0000
  C   C123      1.0  0.42584  0.99723  0.65739  1.0000
  H   H97       1.0  0.20375  0.04109  0.98275  1.0000
  C   C124      1.0  0.13615  0.99369  0.93114  1.0000
  C   C125      1.0  0.13904  0.99095  0.96892  1.0000
  C   C126      1.0  0.16358  0.00795  0.98731  1.0000
  H   H98       1.0  0.19512  0.29598  0.99076  1.0000
  H   H99       1.0  0.22066  0.14429  0.49786  1.0000
  Fe  Fe11      1.0  0.22510  0.34496  0.30482  1.0000
  S   S23       1.0  0.18165  0.34225  0.34274  1.0000
  H   H100      1.0  0.02377  0.43443  0.42730  1.0000
  Fe  Fe12      1.0  0.21176  0.41813  0.29018  1.0000
  S   S24       1.0  0.16859  0.41985  0.32740  1.0000
  S   S25       1.0  0.22618  0.46551  0.26240  1.0000
  Fe  Fe13      1.0  0.19938  0.39045  0.36576  1.0000
  S   S26       1.0  0.20088  0.39742  0.42771  1.0000
  Fe  Fe14      1.0  0.15469  0.37211  0.30096  1.0000
  S   S27       1.0  0.10209  0.37207  0.28075  1.0000
  S   S28       1.0  0.24424  0.39144  0.33026  1.0000
  S   S29       1.0  0.19642  0.37217  0.26149  1.0000
  S   S30       1.0  0.06652  0.60761  0.13188  1.0000
  Fe  Fe15      1.0  0.11618  0.59781  0.15594  1.0000
  S   S31       1.0  0.12298  0.54331  0.16595  1.0000
  C   C127      1.0  0.19761  0.48676  0.23503  1.0000
  C   C128      1.0  0.16855  0.47218  0.22359  1.0000
  C   C129      1.0  0.14639  0.48987  0.20193  1.0000
  C   C130      1.0  0.15240  0.52251  0.19257  1.0000
  C   C131      1.0  0.18138  0.53717  0.20402  1.0000
  C   C132      1.0  0.20408  0.51914  0.22477  1.0000
  H   H101      1.0  0.16333  0.44722  0.23118  1.0000
  H   H102      1.0  0.12422  0.47839  0.19266  1.0000
  H   H103      1.0  0.18638  0.56216  0.19659  1.0000
  H   H104      1.0  0.22661  0.53033  0.23342  1.0000
  C   C133      1.0  0.07811  0.33982  0.26294  1.0000
  H   H105      1.0  0.04036  0.37307  0.24693  1.0000
  C   C134      1.0  0.08823  0.48143  0.27125  1.0000
  H   H106      1.0  0.17895  0.46834  0.06189  1.0000
  H   H107      1.0  0.08393  0.44300  0.08494  1.0000
  C   C135      1.0  0.99975  0.43612  0.09805  1.0000
  C   C136      1.0  0.10422  0.48111  0.02411  1.0000
  C   C137      1.0  0.19998  0.46516  0.43761  1.0000
  C   C138      1.0  0.20008  0.43422  0.45372  1.0000
  H   H108      1.0  0.21638  0.53901  0.38305  1.0000
  C   C139      1.0  0.08187  0.46905  0.30590  1.0000
  H   H109      1.0  0.20059  0.46715  0.40830  1.0000
  H   H110      1.0  0.03951  0.60182  0.23960  1.0000
  C   C140      1.0  0.16810  0.56000  0.29532  1.0000
  P   P6        1.0  0.18748  0.62507  0.29376  1.0000
  H   H111      1.0  0.20522  0.64496  0.16210  1.0000
  C   C141      1.0  0.15406  0.33440  0.05901  1.0000
  S   S32       1.0  0.14254  0.63030  0.11619  1.0000
  H   H112      1.0  0.10512  0.34134  0.38688  1.0000
  C   C142      1.0  0.01976  0.62909  0.02188  1.0000
  C   C143      1.0  0.00923  0.51932  0.21400  1.0000
  H   H113      1.0  0.11989  0.60247  0.30918  1.0000
  H   H114      1.0  0.15592  0.50881  0.29387  1.0000
  H   H115      1.0  0.05804  0.35730  0.34855  1.0000
  C   C144      1.0  0.13288  0.53403  0.42732  1.0000
  H   H116      1.0  0.21573  0.59567  0.36032  1.0000
  H   H117      1.0  0.07445  0.56199  0.28736  1.0000
  H   H118      1.0  0.02370  0.53475  0.23156  1.0000
  C   C145      1.0  0.06973  0.52374  0.32733  1.0000
  C   C146      1.0  0.99908  0.44037  0.26552  1.0000
  C   C147      1.0  0.44480  0.64226  0.37323  1.0000
  H   H119      1.0  0.99856  0.47301  0.31125  1.0000
  C   C148      1.0  0.07673  0.33602  0.15947  1.0000
  C   C149      1.0  0.14314  0.36060  0.00077  1.0000
  C   C150      1.0  0.00188  0.50202  0.37893  1.0000
  H   H120      1.0  0.08527  0.44314  0.31013  1.0000
  C   C151      1.0  0.04863  0.64153  0.00716  1.0000
  C   C152      1.0  0.11518  0.51595  0.40180  1.0000
  H   H121      1.0  0.06631  0.62851  0.30016  1.0000
  H   H122      1.0  0.18701  0.49544  0.34952  1.0000
  H   H123      1.0  0.04369  0.43626  0.19306  1.0000
  C   C153      1.0  0.08607  0.43612  0.11322  1.0000
  Fe  Fe16      1.0  0.06367  0.64877  0.17191  1.0000
  H   H124      1.0  0.05965  0.57687  0.03952  1.0000
  H   H125      1.0  0.04013  0.41487  0.34614  1.0000
  C   C154      1.0  0.07022  0.37552  0.36513  1.0000
  H   H126      1.0  0.01253  0.56648  0.28588  1.0000
  C   C155      1.0  0.11374  0.39022  0.40634  1.0000
  H   H127      1.0  0.06320  0.54064  0.34887  1.0000
  C   C156      1.0  0.04785  0.34784  0.24757  1.0000
  C   C157      1.0  0.00015  0.43492  0.05981  1.0000
  H   H128      1.0  0.01093  0.52026  0.36037  1.0000
  C   C158      1.0  0.11486  0.42141  0.12552  1.0000
  H   H129      1.0  0.14061  0.40185  0.17187  1.0000
  C   C159      1.0  0.07224  0.49006  0.33432  1.0000
  C   C160      1.0  0.00532  0.48367  0.16118  1.0000
  H   H130      1.0  0.17536  0.41856  0.02395  1.0000
  H   H131      1.0  0.99260  0.40438  0.22316  1.0000
  C   C161      1.0  0.09692  0.36653  0.38647  1.0000
  H   H132      1.0  0.12193  0.56239  0.00974  1.0000
  H   H133      1.0  0.06277  0.35814  0.16398  1.0000
  H   H134      1.0  0.12242  0.37561  0.05252  1.0000
  C   C162      1.0  0.07636  0.53603  0.29262  1.0000
  C   C163      1.0  0.11807  0.41265  0.16208  1.0000
  C   C164      1.0  0.19977  0.43215  0.49195  1.0000
  P   P7        1.0  0.06477  0.47454  0.37980  1.0000
  H   H135      1.0  0.27193  0.57814  0.21319  1.0000
  C   C165      1.0  0.00876  0.45381  0.41625  1.0000
  H   H136      1.0  0.08390  0.50491  0.11928  1.0000
  C   C166      1.0  0.10440  0.42305  0.40436  1.0000
  C   C167      1.0  0.99332  0.36851  0.42623  1.0000
  H   H137      1.0  0.20019  0.51728  0.44693  1.0000
  H   H138      1.0  0.00497  0.55210  0.03149  1.0000
  H   H139      1.0  0.43147  0.63343  0.31731  1.0000
  C   C168      1.0  0.08748  0.49836  0.41255  1.0000
  H   H140      1.0  0.07218  0.36950  0.02295  1.0000
  H   H141      1.0  0.00419  0.33038  0.22110  1.0000
  H   H142      1.0  0.25316  0.60796  0.15821  1.0000
  C   C169      1.0  0.07754  0.43230  0.38289  1.0000
  C   C170      1.0  0.19706  0.63595  0.21901  1.0000
  C   C171      1.0  0.02755  0.32368  0.23257  1.0000
  H   H143      1.0  0.11864  0.44092  0.41918  1.0000
  C   C172      1.0  0.10177  0.45282  0.00305  1.0000
  C   C173      1.0  0.06037  0.40821  0.36356  1.0000
  Fe  Fe17      1.0  0.09214  0.64237  0.09468  1.0000
  H   H144      1.0  0.12342  0.51541  0.37387  1.0000
  C   C174      1.0  0.18483  0.58489  0.31386  1.0000
  C   C175      1.0  0.16829  0.52807  0.30871  1.0000
  C   C176      1.0  0.19962  0.49353  0.45959  1.0000
  H   H145      1.0  0.01630  0.45045  0.04442  1.0000
  C   C177      1.0  0.23472  0.59855  0.24793  1.0000
  C   C178      1.0  0.18583  0.52052  0.34015  1.0000
  H   H146      1.0  0.24313  0.58518  0.27157  1.0000
  C   C179      1.0  0.21353  0.63188  0.18601  1.0000
  H   H147      1.0  0.99982  0.37328  0.36848  1.0000
  H   H148      1.0  0.09589  0.46498  0.24978  1.0000
  C   C180      1.0  0.01479  0.60689  0.24822  1.0000
  C   C181      1.0  0.08554  0.51488  0.26457  1.0000
  H   H149      1.0  0.98962  0.33234  0.30936  1.0000
  H   H150      1.0  0.05768  0.48437  0.45860  1.0000
  C   C182      1.0  0.02198  0.47674  0.39196  1.0000
  C   C183      1.0  0.20246  0.54512  0.35890  1.0000
  P   P8        1.0  0.02498  0.46500  0.12241  1.0000
  H   H151      1.0  0.45392  0.61768  0.37747  1.0000
  C   C184      1.0  0.15742  0.46396  0.04541  1.0000
  C   C185      1.0  0.06057  0.44277  0.13762  1.0000
  C   C186      1.0  0.12701  0.42968  0.00338  1.0000
  H   H152      1.0  0.09448  0.41026  0.21434  1.0000
  H   H153      1.0  0.13387  0.50848  0.06205  1.0000
  H   H154      1.0  0.09088  0.52447  0.23773  1.0000
  C   C187      1.0  0.06342  0.43256  0.17396  1.0000
  C   C188      1.0  0.09216  0.41771  0.18613  1.0000
  H   H155      1.0  0.98943  0.50362  0.06766  1.0000
  C   C189      1.0  0.99817  0.63383  0.23387  1.0000
  H   H156      1.0  0.15554  0.56509  0.26997  1.0000
  C   C190      1.0  0.03638  0.49926  0.09437  1.0000
  C   C191      1.0  0.01383  0.51342  0.07023  1.0000
  C   C192      1.0  0.02240  0.54100  0.04994  1.0000
  C   C193      1.0  0.05308  0.55517  0.05455  1.0000
  C   C194      1.0  0.07503  0.54208  0.07963  1.0000
  C   C195      1.0  0.06677  0.51422  0.09941  1.0000
  C   C196      1.0  0.02391  0.50351  0.18452  1.0000
  H   H157      1.0  0.09820  0.55404  0.08453  1.0000
  C   C197      1.0  0.13820  0.35845  0.03860  1.0000
  H   H158      1.0  0.13491  0.41724  0.10692  1.0000
  H   H159      1.0  0.13462  0.38317  0.42262  1.0000
  C   C198      1.0  0.20195  0.57724  0.34590  1.0000
  C   C199      1.0  0.13193  0.48662  0.04549  1.0000
  C   C200      1.0  0.99949  0.58689  0.27426  1.0000
  C   C201      1.0  0.20739  0.61924  0.25026  1.0000
  H   H160      1.0  0.01910  0.62179  0.05015  1.0000
  C   C202      1.0  0.24061  0.61124  0.18391  1.0000
  H   H161      1.0  0.04975  0.50709  0.17974  1.0000
  C   C203      1.0  0.25124  0.59460  0.21489  1.0000
  C   C204      1.0  0.12374  0.53389  0.46393  1.0000
  C   C205      1.0  0.10630  0.33115  0.17751  1.0000
  C   C206      1.0  0.15517  0.43571  0.02414  1.0000
  C   C207      1.0  0.09659  0.51597  0.47500  1.0000
  C   C208      1.0  0.11896  0.62694  0.29839  1.0000
  S   S33       1.0  0.11141  0.63700  0.19848  1.0000
  H   H162      1.0  0.11536  0.34942  0.19632  1.0000
  H   H163      1.0  0.15422  0.54755  0.41894  1.0000
  H   H164      1.0  0.15015  0.33299  0.08815  1.0000
  C   C209      1.0  0.07841  0.49835  0.44942  1.0000
  H   H165      1.0  0.13811  0.54713  0.48387  1.0000
  C   C210      1.0  0.99168  0.62585  0.99992  1.0000
  H   H166      1.0  0.01927  0.36785  0.43188  1.0000
  C   C211      1.0  0.14759  0.64375  0.28896  1.0000
  S   S34       1.0  0.08552  0.64377  0.03266  1.0000
  H   H167      1.0  0.01364  0.45645  0.24887  1.0000
  C   C212      1.0  0.08842  0.64174  0.29373  1.0000
  H   H168      1.0  0.08456  0.49876  0.02365  1.0000
  C   C213      1.0  0.98762  0.41095  0.25121  1.0000
  H   H169      1.0  0.01427  0.35809  0.01244  1.0000
  C   C214      1.0  0.99076  0.44955  0.30093  1.0000
  H   H170      1.0  0.39743  0.49569  0.49210  1.0000
  Fe  Fe18      1.0  0.19941  0.50469  0.66407  1.0000
  S   S35       1.0  0.15877  0.50915  0.62345  1.0000
  S   S36       1.0  0.21028  0.45967  0.69875  1.0000
  Fe  Fe19      1.0  0.22522  0.57438  0.64843  1.0000
  S   S37       1.0  0.18502  0.58405  0.60770  1.0000
  S   S38       1.0  0.26768  0.60629  0.66957  1.0000
  Fe  Fe20      1.0  0.15134  0.55934  0.64761  1.0000
  S   S39       1.0  0.09755  0.56827  0.65954  1.0000
  Fe  Fe21      1.0  0.19528  0.53300  0.58651  1.0000
  S   S40       1.0  0.19728  0.52794  0.52427  1.0000
  S   S41       1.0  0.19024  0.55349  0.69001  1.0000
  S   S42       1.0  0.23717  0.52469  0.62525  1.0000
  C   C215      1.0  0.02653  0.42769  0.68642  1.0000
  C   C216      1.0  0.13787  0.39686  0.76449  1.0000
  C   C217      1.0  0.17082  0.38828  0.76225  1.0000
  C   C218      1.0  0.19257  0.40774  0.74195  1.0000
  C   C219      1.0  0.18167  0.43583  0.72350  1.0000
  C   C220      1.0  0.14862  0.44420  0.72546  1.0000
  C   C221      1.0  0.12689  0.42478  0.74580  1.0000
  H   H171      1.0  0.17966  0.36683  0.77632  1.0000
  H   H172      1.0  0.21805  0.40092  0.74047  1.0000
  H   H173      1.0  0.13982  0.46560  0.71126  1.0000
  H   H174      1.0  0.10136  0.43132  0.74690  1.0000
  C   C222      1.0  0.07927  0.59454  0.69206  1.0000
  C   C223      1.0  0.09350  0.62408  0.70267  1.0000
  C   C224      1.0  0.09624  0.54535  0.96218  1.0000
  H   H175      1.0  0.37296  0.64140  0.61952  1.0000
  C   C225      1.0  0.03187  0.60729  0.72994  1.0000
  C   C226      1.0  0.04838  0.58634  0.70574  1.0000
  C   C227      1.0  0.02350  0.49737  0.94675  1.0000
  H   H176      1.0  0.00831  0.60049  0.74071  1.0000
  H   H177      1.0  0.03711  0.56366  0.69751  1.0000
  H   H178      1.0  0.08021  0.44907  0.98662  1.0000
  C   C228      1.0  0.43538  0.63874  0.54040  1.0000
  H   H179      1.0  0.19876  0.45868  0.54319  1.0000
  C   C229      1.0  0.06126  0.33218  0.63338  1.0000
  C   C230      1.0  0.06210  0.37397  0.99627  1.0000
  C   C231      1.0  0.41991  0.48293  0.54314  1.0000
  H   H180      1.0  0.99948  0.36411  0.62661  1.0000
  C   C232      1.0  0.15950  0.41330  0.61847  1.0000
  C   C233      1.0  0.98920  0.53127  0.63594  1.0000
  C   C234      1.0  0.02058  0.64831  0.94865  1.0000
  C   C235      1.0  0.40944  0.51990  0.59344  1.0000
  H   H181      1.0  0.01725  0.46998  0.79344  1.0000
  H   H182      1.0  0.14310  0.39418  0.53021  1.0000
  H   H183      1.0  0.09916  0.62588  0.61033  1.0000
  H   H184      1.0  0.04781  0.43917  0.56454  1.0000
  C   C236      1.0  0.03574  0.48181  0.71106  1.0000
  C   C237      1.0  0.02776  0.52589  0.92614  1.0000
  C   C238      1.0  0.02794  0.40034  0.59758  1.0000
  P   P9        1.0  0.06370  0.52941  0.89816  1.0000
  C   C239      1.0  0.09875  0.53016  0.92793  1.0000
  C   C240      1.0  0.02751  0.42272  0.56866  1.0000
  H   H185      1.0  0.09448  0.42015  0.84962  1.0000
  C   C241      1.0  0.15706  0.52360  0.93763  1.0000
  C   C242      1.0  0.12950  0.51988  0.91552  1.0000
  C   C243      1.0  0.16493  0.40671  0.58168  1.0000
  C   C244      1.0  0.06626  0.59731  0.89325  1.0000
  H   H186      1.0  0.18481  0.41850  0.83818  1.0000
  C   C245      1.0  0.28451  0.61201  0.54739  1.0000
  H   H187      1.0  0.05510  0.42266  0.79883  1.0000
  H   H188      1.0  0.13243  0.51001  0.88837  1.0000
  C   C246      1.0  0.06129  0.49512  0.86716  1.0000
  H   H189      1.0  0.37146  0.54579  0.51603  1.0000
  C   C247      1.0  0.15188  0.60491  0.90322  1.0000
  C   C248      1.0  0.02902  0.36767  0.99048  1.0000
  H   H190      1.0  0.99878  0.44886  0.73041  1.0000
  C   C249      1.0  0.33024  0.57915  0.56835  1.0000
  C   C250      1.0  0.31207  0.55079  0.56122  1.0000
  P   P10       1.0  0.37036  0.57590  0.58842  1.0000
  C   C251      1.0  0.39020  0.53970  0.57076  1.0000
  C   C252      1.0  0.39417  0.61156  0.57698  1.0000
  H   H191      1.0  0.20041  0.40836  0.50460  1.0000
  C   C253      1.0  0.19361  0.64461  0.88981  1.0000
  C   C254      1.0  0.01856  0.45238  0.71130  1.0000
  C   C255      1.0  0.08183  0.38481  0.96756  1.0000
  H   H192      1.0  0.04164  0.47813  0.94600  1.0000
  H   H193      1.0  0.08164  0.39918  0.91077  1.0000
  C   C256      1.0  0.36675  0.57322  0.63736  1.0000
  C   C257      1.0  0.39304  0.58226  0.65975  1.0000
  C   C258      1.0  0.39023  0.58061  0.69764  1.0000
  C   C259      1.0  0.36125  0.56975  0.71345  1.0000
  C   C260      1.0  0.33515  0.56037  0.69137  1.0000
  C   C261      1.0  0.33784  0.56206  0.65349  1.0000
  C   C262      1.0  0.07637  0.64562  0.72581  1.0000
  C   C263      1.0  0.03445  0.38375  0.92762  1.0000
  H   H194      1.0  0.02159  0.51629  0.83592  1.0000
  C   C264      1.0  0.98383  0.38056  0.82255  1.0000
  H   H195      1.0  0.32187  0.52684  0.56740  1.0000
  C   C265      1.0  0.26683  0.58366  0.53984  1.0000
  H   H196      1.0  0.98889  0.37812  0.85126  1.0000
  H   H197      1.0  0.09001  0.51546  0.50354  1.0000
  H   H198      1.0  0.41566  0.59080  0.64796  1.0000
  C   C266      1.0  0.00846  0.37321  0.79754  1.0000
  C   C267      1.0  0.04703  0.62790  0.61700  1.0000
  H   H199      1.0  0.16318  0.44919  0.94727  1.0000
  H   H200      1.0  0.31693  0.55536  0.63714  1.0000
  C   C268      1.0  0.39038  0.64030  0.59744  1.0000
  H   H201      1.0  0.45291  0.63823  0.51838  1.0000
  C   C269      1.0  0.07172  0.56837  0.83613  1.0000
  H   H202      1.0  0.07924  0.59838  0.78888  1.0000
  H   H203      1.0  0.98994  0.36583  0.95141  1.0000
  S   S43       1.0  0.98376  0.60465  0.83739  1.0000
  P   P11       1.0  0.06148  0.40005  0.62947  1.0000
  C   C270      1.0  0.05201  0.43209  0.66152  1.0000
  C   C271      1.0  0.07528  0.62733  0.83747  1.0000
  C   C272      1.0  0.12788  0.41223  0.63245  1.0000
  C   C273      1.0  0.10130  0.40526  0.60961  1.0000
  C   C274      1.0  0.40095  0.50258  0.52034  1.0000
  C   C275      1.0  0.07093  0.62694  0.87510  1.0000
  H   H204      1.0  0.42025  0.58927  0.53192  1.0000
  C   C276      1.0  0.99194  0.63543  0.96317  1.0000
  H   H205      1.0  0.04472  0.60176  0.61422  1.0000
  C   C277      1.0  0.14495  0.40120  0.93241  1.0000
  C   C278      1.0  0.06056  0.48660  0.68563  1.0000
  C   C279      1.0  0.06863  0.46198  0.66081  1.0000
  H   H206      1.0  0.02400  0.38692  0.90085  1.0000
  H   H207      1.0  0.02936  0.50120  0.72995  1.0000
  H   H208      1.0  0.12431  0.41616  0.66131  1.0000
  H   H209      1.0  0.17987  0.41874  0.63636  1.0000
  H   H210      1.0  0.03212  0.36486  0.80687  1.0000
  C   C280      1.0  0.19924  0.62947  0.85621  1.0000
  C   C281      1.0  0.03784  0.49552  0.83922  1.0000
  C   C282      1.0  0.06624  0.56772  0.87386  1.0000
  C   C283      1.0  0.19893  0.46053  0.51387  1.0000
  H   H211      1.0  0.01281  0.40515  0.68629  1.0000
  H   H212      1.0  0.07343  0.50954  0.68471  1.0000
  H   H213      1.0  0.08765  0.46659  0.64106  1.0000
  C   C284      1.0  0.07606  0.36063  0.68886  1.0000
  C   C285      1.0  0.28513  0.56112  0.80864  1.0000
  C   C286      1.0  0.12395  0.54977  0.98381  1.0000
  H   H214      1.0  0.02119  0.36862  0.74107  1.0000
  C   C287      1.0  0.14321  0.37806  0.90422  1.0000
  H   H215      1.0  0.31232  0.55270  0.70348  1.0000
  H   H216      1.0  0.07311  0.55495  0.97175  1.0000
  C   C288      1.0  0.31605  0.60983  0.56176  1.0000
  C   C289      1.0  0.07584  0.59804  0.81806  1.0000
  C   C290      1.0  0.17565  0.43707  0.89233  1.0000
  H   H217      1.0  0.06285  0.59754  0.92245  1.0000
  C   C291      1.0  0.26043  0.52178  0.76798  1.0000
  C   C292      1.0  0.28798  0.53405  0.78559  1.0000
  C   C293      1.0  0.00056  0.42435  0.54527  1.0000
  Fe  Fe22      1.0  0.11081  0.32435  0.81895  1.0000
  C   C294      1.0  0.22678  0.56367  0.79671  1.0000
  C   C295      1.0  0.23005  0.53651  0.77341  1.0000
  P   P12       1.0  0.18757  0.58386  0.80125  1.0000
  C   C296      1.0  0.15659  0.55367  0.79189  1.0000
  H   H218      1.0  0.25332  0.59707  0.83166  1.0000
  C   C297      1.0  0.15755  0.58958  0.86972  1.0000
  H   H219      1.0  0.17572  0.54206  0.98859  1.0000
  H   H220      1.0  0.09120  0.33034  0.73341  1.0000
  H   H221      1.0  0.08063  0.38288  0.70396  1.0000
  H   H222      1.0  0.00565  0.57221  0.91082  1.0000
  C   C298      1.0  0.13316  0.55884  0.76466  1.0000
  C   C299      1.0  0.11037  0.53460  0.75656  1.0000
  C   C300      1.0  0.11100  0.50492  0.77511  1.0000
  C   C301      1.0  0.13459  0.49928  0.80181  1.0000
  C   C302      1.0  0.15727  0.52360  0.81029  1.0000
  C   C303      1.0  0.13868  0.39949  0.55871  1.0000
  C   C304      1.0  0.20779  0.62250  0.74264  1.0000
  H   H223      1.0  0.22748  0.60520  0.73846  1.0000
  H   H224      1.0  0.35885  0.56897  0.74278  1.0000
  C   C305      1.0  0.01526  0.37211  0.95609  1.0000
  H   H225      1.0  0.00125  0.56725  0.59584  1.0000
  H   H226      1.0  0.26246  0.50094  0.74974  1.0000
  H   H227      1.0  0.31153  0.52264  0.78118  1.0000
  H   H228      1.0  0.32482  0.63638  0.70033  1.0000
  C   C306      1.0  0.42420  0.49163  0.57964  1.0000
  H   H229      1.0  0.20928  0.52654  0.75903  1.0000
  H   H230      1.0  0.14231  0.56927  0.86203  1.0000
  H   H231      1.0  0.13295  0.59607  0.92115  1.0000
  H   H232      1.0  0.15653  0.36637  0.84892  1.0000
  C   C307      1.0  0.15778  0.38433  0.87057  1.0000
  C   C308      1.0  0.99104  0.56320  0.62261  1.0000
  H   H233      1.0  0.13263  0.58123  0.74910  1.0000
  H   H234      1.0  0.09245  0.53878  0.73551  1.0000
  H   H235      1.0  0.09355  0.48611  0.76828  1.0000
  H   H236      1.0  0.13578  0.47571  0.81510  1.0000
  H   H237      1.0  0.17591  0.51871  0.83045  1.0000
  H   H238      1.0  0.05396  0.33237  0.60505  1.0000
  H   H239      1.0  0.30657  0.57079  0.82206  1.0000
  C   C309      1.0  0.15428  0.53854  0.97175  1.0000
  H   H240      1.0  0.11707  0.63087  0.69192  1.0000
  C   C310      1.0  0.08245  0.33074  0.70563  1.0000
  H   H241      1.0  0.08718  0.39138  0.55484  1.0000
  C   C311      1.0  0.01973  0.64778  0.62360  1.0000
  C   C312      1.0  0.25471  0.57597  0.81410  1.0000
  H   H242      1.0  0.32886  0.63211  0.56837  1.0000
  H   H243      1.0  0.18959  0.40679  0.57116  1.0000
  H   H244      1.0  0.16804  0.33836  0.95481  1.0000
  H   H245      1.0  0.26668  0.53112  0.54136  1.0000
  C   C313      1.0  0.07866  0.44128  0.84692  1.0000
  H   H246      1.0  0.18843  0.45977  0.88765  1.0000
  H   H247      1.0  0.13021  0.35528  0.90816  1.0000
  C   C314      1.0  0.16136  0.43081  0.92619  1.0000
  H   H248      1.0  0.18079  0.51581  0.92792  1.0000
  C   C315      1.0  0.17379  0.41384  0.86450  1.0000
  C   C316      1.0  0.00052  0.38056  0.60356  1.0000
  C   C317      1.0  0.99549  0.49320  0.96788  1.0000
  C   C318      1.0  0.28066  0.55309  0.54667  1.0000
  C   C319      1.0  0.06748  0.39032  0.93335  1.0000
  C   C320      1.0  0.10695  0.39843  0.57267  1.0000
  C   C321      1.0  0.06485  0.36156  0.65277  1.0000
  C   C322      1.0  0.03535  0.46934  0.81493  1.0000
  C   C323      1.0  0.08077  0.46714  0.87176  1.0000
  H   H249      1.0  0.09747  0.46496  0.89437  1.0000
  C   C324      1.0  0.00351  0.55015  0.92682  1.0000
  H   H250      1.0  0.07312  0.54623  0.82036  1.0000
  S   S44       1.0  0.10958  0.37480  0.79157  1.0000
  C   C325      1.0  0.05623  0.44253  0.81832  1.0000
  C   C326      1.0  0.41673  0.61101  0.54820  1.0000
  H   H251      1.0  0.41292  0.52599  0.62185  1.0000
  H   H252      1.0  0.99213  0.47102  0.98335  1.0000
  H   H253      1.0  0.00031  0.44161  0.52298  1.0000
  H   H254      1.0  0.41042  0.58809  0.71475  1.0000
  H   H255      1.0  0.43113  0.46085  0.53258  1.0000
  C   C327      1.0  0.29072  0.64136  0.65599  1.0000
  C   C328      1.0  0.38620  0.53089  0.53403  1.0000
  C   C329      1.0  0.04557  0.63729  0.73961  1.0000
  C   C330      1.0  0.00236  0.37550  0.76030  1.0000
  H   H256      1.0  0.99831  0.51104  0.61979  1.0000
  C   C331      1.0  0.07817  0.64159  0.61469  1.0000
  C   C332      1.0  0.18173  0.60138  0.84612  1.0000
  H   H257      1.0  0.24216  0.58525  0.52932  1.0000
  H   H258      1.0  0.27344  0.63571  0.54294  1.0000
  H   H259      1.0  0.43879  0.47629  0.59736  1.0000
  P   P13       1.0  0.12454  0.39366  0.97529  1.0000
  S   S45       1.0  0.06787  0.32132  0.85686  1.0000
  C   C333      1.0  0.18459  0.61784  0.77020  1.0000
  C   C334      1.0  0.16999  0.63227  0.91337  1.0000
  H   H260      1.0  0.14123  0.63775  0.79574  1.0000
  C   C335      1.0  0.15944  0.64088  0.77470  1.0000
  C   C336      1.0  0.16393  0.33789  0.98380  1.0000
  H   H261      1.0  0.21668  0.64025  0.83769  1.0000
  H   H262      1.0  0.16524  0.64428  0.93921  1.0000
  H   H263      1.0  0.07785  0.65037  0.82325  1.0000
  C   C337      1.0  0.19870  0.49141  0.49782  1.0000
  H   H264      1.0  0.07092  0.64975  0.89007  1.0000
  C   C338      1.0  0.20573  0.64980  0.71991  1.0000
  Fe  Fe23      1.0  0.13442  0.67106  0.15707  1.0000
  C   C339      1.0  0.45598  0.78197  0.39125  1.0000
  S   S46       1.0  0.16708  0.71331  0.17821  1.0000
  C   C340      1.0  0.33931  0.72554  0.38036  1.0000
  H   H265      1.0  0.41474  0.84992  0.36395  1.0000
  C   C341      1.0  0.34059  0.73528  0.34392  1.0000
  C   C342      1.0  0.43182  0.76720  0.41267  1.0000
  C   C343      1.0  0.40901  0.71938  0.46777  1.0000
  S   S47       1.0  0.08566  0.68504  0.13290  1.0000
  Fe  Fe24      1.0  0.32811  0.83952  0.15115  1.0000
  S   S48       1.0  0.36844  0.84208  0.10937  1.0000
  S   S49       1.0  0.30234  0.78908  0.15135  1.0000
  Fe  Fe25      1.0  0.34502  0.90948  0.17724  1.0000
  S   S50       1.0  0.38558  0.91605  0.13686  1.0000
  Fe  Fe26      1.0  0.35127  0.89304  0.09656  1.0000
  S   S51       1.0  0.34174  0.90636  0.03682  1.0000
  Fe  Fe27      1.0  0.39940  0.86480  0.15310  1.0000
  S   S52       1.0  0.45297  0.85044  0.15822  1.0000
  S   S53       1.0  0.30920  0.88947  0.13588  1.0000
  S   S54       1.0  0.36082  0.85926  0.19596  1.0000
  C   C344      1.0  0.26297  0.77022  0.15543  1.0000
  C   C345      1.0  0.25848  0.73843  0.14139  1.0000
  C   C346      1.0  0.22870  0.72147  0.14593  1.0000
  C   C347      1.0  0.20308  0.73560  0.16576  1.0000
  C   C348      1.0  0.20747  0.76749  0.17955  1.0000
  C   C349      1.0  0.23689  0.78486  0.17399  1.0000
  H   H266      1.0  0.27835  0.72672  0.12702  1.0000
  H   H267      1.0  0.22607  0.69703  0.13522  1.0000
  H   H268      1.0  0.18803  0.77879  0.19502  1.0000
  H   H269      1.0  0.23962  0.80923  0.18491  1.0000
  H   H270      1.0  0.35244  0.71960  0.32411  1.0000
  C   C350      1.0  0.39520  0.81240  0.39869  1.0000
  H   H271      1.0  0.29748  0.80638  0.35086  1.0000
  H   H272      1.0  0.32247  0.73759  0.43435  1.0000
  H   H273      1.0  0.16677  0.68987  0.26959  1.0000
  P   P14       1.0  0.32672  0.77606  0.28547  1.0000
  C   C351      1.0  0.47140  0.84056  0.20038  1.0000
  H   H274      1.0  0.44854  0.95755  0.00979  1.0000
  C   C352      1.0  0.35325  0.94139  0.01143  1.0000
  C   C353      1.0  0.45436  0.84315  0.23319  1.0000
  C   C354      1.0  0.08619  0.67342  0.27990  1.0000
  H   H275      1.0  0.23400  0.69198  0.21876  1.0000
  C   C355      1.0  0.47067  0.92334  0.10493  1.0000
  H   H276      1.0  0.42938  0.85171  0.23317  1.0000
  C   C356      1.0  0.25983  0.68506  0.33229  1.0000
  H   H277      1.0  0.28369  0.69312  0.32354  1.0000
  C   C357      1.0  0.42567  0.76731  0.27228  1.0000
  H   H278      1.0  0.25580  0.77382  0.28712  1.0000
  H   H279      1.0  0.99134  0.66403  0.12665  1.0000
  H   H280      1.0  0.35051  0.70272  0.38866  1.0000
  H   H281      1.0  0.44762  0.93893  0.18372  1.0000
  C   C358      1.0  0.29775  0.74899  0.26415  1.0000
  C   C359      1.0  0.37575  0.96423  0.02443  1.0000
  C   C360      1.0  0.35885  0.97922  0.23318  1.0000
  C   C361      1.0  0.42908  0.76752  0.23442  1.0000
  H   H282      1.0  0.21554  0.73739  0.25787  1.0000
  C   C362      1.0  0.40159  0.77093  0.21225  1.0000
  H   H283      1.0  0.46097  0.87595  0.08191  1.0000
  C   C363      1.0  0.42222  0.70591  0.36181  1.0000
  C   C364      1.0  0.46204  0.90201  0.07676  1.0000
  C   C365      1.0  0.28507  0.70167  0.22676  1.0000
  C   C366      1.0  0.30806  0.72234  0.24287  1.0000
  C   C367      1.0  0.31529  0.81802  0.27752  1.0000
  C   C368      1.0  0.32924  0.84310  0.29846  1.0000
  C   C369      1.0  0.32086  0.87572  0.29189  1.0000
  C   C370      1.0  0.29886  0.88348  0.26414  1.0000
  C   C371      1.0  0.28580  0.85875  0.24236  1.0000
  C   C372      1.0  0.29424  0.82617  0.24873  1.0000
  C   C373      1.0  0.36685  0.77210  0.26579  1.0000
  C   C374      1.0  0.37058  0.77323  0.22784  1.0000
  C   C375      1.0  0.40132  0.78267  0.41610  1.0000
  H   H284      1.0  0.29602  0.78938  0.41515  1.0000
  H   H285      1.0  0.29293  0.68196  0.20907  1.0000
  H   H286      1.0  0.33367  0.71777  0.23800  1.0000
  H   H287      1.0  0.34687  0.83749  0.31949  1.0000
  H   H288      1.0  0.33184  0.89519  0.30767  1.0000
  H   H289      1.0  0.29264  0.90877  0.25878  1.0000
  H   H290      1.0  0.26989  0.86494  0.21980  1.0000
  H   H291      1.0  0.28495  0.80760  0.23047  1.0000
  H   H292      1.0  0.34955  0.77637  0.21024  1.0000
  C   C376      1.0  0.32341  0.74510  0.40606  1.0000
  C   C377      1.0  0.46937  0.83377  0.26602  1.0000
  H   H293      1.0  0.39279  0.77185  0.31722  1.0000
  C   C378      1.0  0.26428  0.75364  0.27050  1.0000
  H   H294      1.0  0.37168  0.82423  0.40168  1.0000
  H   H295      1.0  0.38210  0.77183  0.43203  1.0000
  H   H296      1.0  0.20442  0.69715  0.39990  1.0000
  C   C379      1.0  0.45379  0.91427  0.04251  1.0000
  C   C380      1.0  0.39154  0.68990  0.46919  1.0000
  S   S55       1.0  0.01675  0.66073  0.20241  1.0000
  C   C381      1.0  0.41940  0.82690  0.37754  1.0000
  C   C382      1.0  0.30987  0.78413  0.35882  1.0000
  C   C383      1.0  0.32641  0.76494  0.33300  1.0000
  H   H297      1.0  0.40436  0.77256  0.18294  1.0000
  C   C384      1.0  0.25183  0.70714  0.23232  1.0000
  P   P15       1.0  0.43853  0.72710  0.43209  1.0000
  H   H298      1.0  0.44728  0.76623  0.28933  1.0000
  H   H299      1.0  0.45318  0.76652  0.22229  1.0000
  S   S56       1.0  0.33003  0.95153  0.21458  1.0000
  C   C385      1.0  0.30865  0.77435  0.39528  1.0000
  C   C386      1.0  0.45496  0.94788  0.03619  1.0000
  C   C387      1.0  0.24614  0.69754  0.36425  1.0000
  H   H300      1.0  0.11284  0.71510  0.26032  1.0000
  C   C388      1.0  0.47168  0.94404  0.19453  1.0000
  C   C389      1.0  0.11455  0.69072  0.27168  1.0000
  C   C390      1.0  0.24142  0.73292  0.25436  1.0000
  H   H301      1.0  0.41383  0.73048  0.35662  1.0000
  H   H302      1.0  0.45564  0.83508  0.29107  1.0000
  H   H303      1.0  0.38573  0.96145  0.05148  1.0000
  H   H304      1.0  0.40068  0.94949  0.22124  1.0000
  C   C391      1.0  0.39473  0.77021  0.28796  1.0000
  C   C392      1.0  0.43491  0.69723  0.39598  1.0000
  H   H305      1.0  0.47674  0.91310  0.13113  1.0000
  H   H306      1.0  0.17349  0.65771  0.36249  1.0000
  C   C393      1.0  0.14512  0.67615  0.27663  1.0000
  H   H307      1.0  0.25945  0.71519  0.38044  1.0000
  H   H308      1.0  0.39482  0.67124  0.44869  1.0000
  C   C394      1.0  0.44973  0.81171  0.37390  1.0000
  C   C395      1.0  0.21119  0.65255  0.32169  1.0000
  H   H309      1.0  0.44617  0.89775  0.02106  1.0000
  H   H310      1.0  0.06244  0.68431  0.27488  1.0000
  C   C396      1.0  0.47043  0.95723  0.09918  1.0000
  C   C397      1.0  0.21513  0.68742  0.37516  1.0000
  C   C398      1.0  0.46309  0.96929  0.06440  1.0000
  C   C399      1.0  0.19768  0.66505  0.35395  1.0000
  C   C400      1.0  0.44631  0.66523  0.40143  1.0000
  C   C401      1.0  0.47966  0.72339  0.44965  1.0000
  H   H311      1.0  0.47945  0.81136  0.45718  1.0000
  H   H312      1.0  0.41170  0.68998  0.30706  1.0000
  H   H313      1.0  0.46597  0.91082  0.23931  1.0000
  C   C402      1.0  0.42090  0.68295  0.33360  1.0000
  H   H314      1.0  0.46845  0.82289  0.35742  1.0000
  H   H315      1.0  0.47812  0.89578  0.36315  1.0000
  C   C403      1.0  0.24250  0.66260  0.31110  1.0000
  H   H316      1.0  0.48084  0.95130  0.39037  1.0000
  H   H317      1.0  0.47962  0.77068  0.38755  1.0000
  H   H318      1.0  0.36952  0.84395  0.00594  1.0000
  H   H319      1.0  0.45673  0.65818  0.42738  1.0000
  H   H320      1.0  0.40998  0.98146  0.11123  1.0000
  H   H321      1.0  0.17656  0.65242  0.21972  1.0000
  C   C404      1.0  0.40399  0.74284  0.49519  1.0000
  C   C405      1.0  0.39221  0.97218  0.23300  1.0000
  H   H322      1.0  0.41726  0.76568  0.49481  1.0000
  C   C406      1.0  0.48203  0.92804  0.22608  1.0000
  H   H323      1.0  0.25349  0.65367  0.28625  1.0000
  C   C407      1.0  0.43215  0.65112  0.33931  1.0000
  Fe  Fe28      1.0  0.44805  0.79946  0.59143  1.0000
  Fe  Fe29      1.0  0.41973  0.83258  0.66047  1.0000
  S   S57       1.0  0.41675  0.78499  0.69092  1.0000
  S   S58       1.0  0.41679  0.88421  0.68352  1.0000
  Fe  Fe30      1.0  0.39732  0.76291  0.63832  1.0000
  S   S59       1.0  0.35173  0.73227  0.62323  1.0000
  C   C408      1.0  0.39100  0.79965  0.93108  1.0000
  S   S60       1.0  0.39718  0.81187  0.60969  1.0000
  H   H324      1.0  0.37904  0.75483  0.54520  1.0000
  H   H325      1.0  0.47295  0.94873  0.50497  1.0000
  C   C409      1.0  0.40912  0.66784  0.58971  1.0000
  H   H326      1.0  0.20715  0.66630  0.89734  1.0000
  H   H327      1.0  0.40601  0.68983  0.60582  1.0000
  C   C410      1.0  0.44041  0.90855  0.57704  1.0000
  C   C411      1.0  0.36500  0.70754  0.52487  1.0000
  Fe  Fe31      1.0  0.46691  0.77595  0.66738  1.0000
  C   C412      1.0  0.35461  0.84424  0.91455  1.0000
  H   H328      1.0  0.35779  0.68511  0.68389  1.0000
  H   H329      1.0  0.37584  0.80998  0.87629  1.0000
  H   H330      1.0  0.07091  0.66100  0.95884  1.0000
  C   C413      1.0  0.40385  0.93546  0.85622  1.0000
  H   H331      1.0  0.44851  0.89524  0.52111  1.0000
  H   H332      1.0  0.34022  0.87539  0.95968  1.0000
  H   H333      1.0  0.43509  0.92811  0.63081  1.0000
  H   H334      1.0  0.42814  0.87679  0.93245  1.0000
  H   H335      1.0  0.13850  0.68617  0.75606  1.0000
  S   S61       1.0  0.47072  0.82427  0.63946  1.0000
  C   C414      1.0  0.38955  0.90532  0.71284  1.0000
  C   C415      1.0  0.35769  0.89473  0.71957  1.0000
  C   C416      1.0  0.33667  0.91373  0.74159  1.0000
  C   C417      1.0  0.34759  0.94290  0.75786  1.0000
  C   C418      1.0  0.37972  0.95272  0.75201  1.0000
  C   C419      1.0  0.40034  0.93445  0.72908  1.0000
  H   H336      1.0  0.34900  0.87248  0.70700  1.0000
  H   H337      1.0  0.31174  0.90607  0.74561  1.0000
  C   C420      1.0  0.46825  0.96870  0.55916  1.0000
  H   H338      1.0  0.42483  0.94302  0.72400  1.0000
  C   C421      1.0  0.45089  0.91430  0.54151  1.0000
  C   C422      1.0  0.35375  0.85404  0.95119  1.0000
  S   S62       1.0  0.02495  0.66476  0.76892  1.0000
  C   C423      1.0  0.28872  0.83577  0.78753  1.0000
  C   C424      1.0  0.28051  0.80356  0.79597  1.0000
  C   C425      1.0  0.28802  0.79089  0.83030  1.0000
  C   C426      1.0  0.30424  0.81023  0.85600  1.0000
  C   C427      1.0  0.31352  0.84222  0.84719  1.0000
  C   C428      1.0  0.30478  0.85518  0.81322  1.0000
  P   P16       1.0  0.33424  0.86777  0.87975  1.0000
  C   C429      1.0  0.32868  0.69729  0.63712  1.0000
  C   C430      1.0  0.36679  0.88947  0.85773  1.0000
  C   C431      1.0  0.37895  0.91822  0.87336  1.0000
  H   H339      1.0  0.41725  0.93117  0.95956  1.0000
  C   C432      1.0  0.34988  0.97185  0.95415  1.0000
  C   C433      1.0  0.40627  0.89440  0.80896  1.0000
  C   C434      1.0  0.38124  0.87716  0.82588  1.0000
  H   H340      1.0  0.40563  0.77869  0.92328  1.0000
  H   H341      1.0  0.38860  0.97480  0.76467  1.0000
  H   H342      1.0  0.32198  0.92885  0.96650  1.0000
  C   C435      1.0  0.27685  0.94821  0.89812  1.0000
  C   C436      1.0  0.30355  0.89515  0.89753  1.0000
  C   C437      1.0  0.30008  0.92688  0.88352  1.0000
  H   H343      1.0  0.23290  0.96365  0.81887  1.0000
  H   H344      1.0  0.05865  0.72127  0.62919  1.0000
  H   H345      1.0  0.08680  0.66899  0.73284  1.0000
  C   C438      1.0  0.28186  0.88437  0.92445  1.0000
  H   H346      1.0  0.28272  0.84576  0.76105  1.0000
  H   H347      1.0  0.26817  0.78851  0.77596  1.0000
  H   H348      1.0  0.28124  0.76607  0.83697  1.0000
  H   H349      1.0  0.30944  0.80020  0.88262  1.0000
  H   H350      1.0  0.31068  0.88027  0.80652  1.0000
  H   H351      1.0  0.34855  0.70287  0.54739  1.0000
  C   C439      1.0  0.18076  0.67268  0.72467  1.0000
  C   C440      1.0  0.44379  0.93282  0.60358  1.0000
  H   H352      1.0  0.37304  0.85456  0.81367  1.0000
  H   H353      1.0  0.43579  0.93782  0.80995  1.0000
  C   C441      1.0  0.37077  0.83636  0.97762  1.0000
  H   H354      1.0  0.31535  0.93543  0.86146  1.0000
  C   C442      1.0  0.45511  0.95512  0.92897  1.0000
  C   C443      1.0  0.15773  0.66830  0.75219  1.0000
  H   H355      1.0  0.29440  0.70238  0.59295  1.0000
  H   H356      1.0  0.28345  0.85969  0.93489  1.0000
  H   H357      1.0  0.98735  0.67363  0.56207  1.0000
  C   C444      1.0  0.45789  0.96304  0.59507  1.0000
  C   C445      1.0  0.34010  0.94570  0.97639  1.0000
  C   C446      1.0  0.25830  0.90564  0.93865  1.0000
  C   C447      1.0  0.46634  0.89413  0.89715  1.0000
  C   C448      1.0  0.41728  0.92380  0.82382  1.0000
  H   H358      1.0  0.23802  0.95417  0.93712  1.0000
  C   C449      1.0  0.47292  0.85631  0.75475  1.0000
  H   H359      1.0  0.33951  0.97487  0.92730  1.0000
  C   C450      1.0  0.43164  0.66711  0.56125  1.0000
  H   H360      1.0  0.27545  0.97304  0.88813  1.0000
  S   S63       1.0  0.45953  0.80907  0.53168  1.0000
  C   C451      1.0  0.43665  0.92821  0.93973  1.0000
  H   H361      1.0  0.35651  0.66116  0.49902  1.0000
  H   H362      1.0  0.36907  0.92745  0.89867  1.0000
  H   H363      1.0  0.41637  0.88544  0.78365  1.0000
  C   C452      1.0  0.48113  0.84070  0.78721  1.0000
  C   C453      1.0  0.36959  0.68409  0.49763  1.0000
  H   H364      1.0  0.44605  0.68862  0.55542  1.0000
  C   C454      1.0  0.38927  0.80909  0.96763  1.0000
  C   C455      1.0  0.02415  0.68169  0.62732  1.0000
  C   C456      1.0  0.08241  0.67515  0.61928  1.0000
  S   S64       1.0  0.32051  0.96700  0.78453  1.0000
  S   S65       1.0  0.44753  0.74986  0.61735  1.0000
  H   H365      1.0  0.41268  0.95792  0.86816  1.0000
  H   H366      1.0  0.24219  0.89742  0.96011  1.0000
  C   C457      1.0  0.37390  0.81727  0.90458  1.0000
  C   C458      1.0  0.25597  0.93764  0.92572  1.0000
  H   H367      1.0  0.12203  0.97596  0.98401  1.0000
  C   C459      1.0  0.44262  0.89762  0.92423  1.0000
  H   H368      1.0  0.17934  0.69379  0.70703  1.0000
  H   H369      1.0  0.10667  0.68551  0.61827  1.0000
  C   C460      1.0  0.47937  0.95158  0.90241  1.0000
  H   H370      1.0  0.42972  0.88520  0.58418  1.0000
  C   C461      1.0  0.46481  0.94436  0.53255  1.0000
  H   H371      1.0  0.39380  0.97491  0.61740  1.0000
  H   H372      1.0  0.00355  0.69780  0.63170  1.0000
  C   C462      1.0  0.05539  0.69522  0.62552  1.0000
  C   C463      1.0  0.33688  0.67843  0.66754  1.0000
  H   H373      1.0  0.40233  0.79539  0.98826  1.0000
  H   H374      1.0  0.11676  0.98099  0.91696  1.0000
  C   C464      1.0  0.38223  0.73687  0.52366  1.0000
  C   C465      1.0  0.47856  0.88970  0.75084  1.0000
  H   H375      1.0  0.46252  0.84246  0.73238  1.0000
  H   H376      1.0  0.99048  0.66424  0.69442  1.0000
  H   H377      1.0  0.26117  0.65391  0.60979  1.0000
  C   C466      1.0  0.28236  0.66036  0.62577  1.0000
  H   H378      1.0  0.22363  0.65328  0.69859  1.0000
  C   C467      1.0  0.30126  0.68796  0.61636  1.0000
  H   H379      1.0  0.02064  0.65659  0.92075  1.0000
  C   C468      1.0  0.04884  0.65104  0.97041  1.0000
  H   H380      1.0  0.47781  0.81454  0.78960  1.0000
  H   H381      1.0  0.46672  0.72942  0.50663  1.0000
  H   H382      1.0  0.47014  0.87027  0.88535  1.0000
  H   H383      1.0  0.47241  0.90166  0.72551  1.0000
  H   H384      1.0  0.44993  0.97892  0.94060  1.0000
  C   C469      1.0  0.31809  0.65070  0.67679  1.0000
  C   C470      1.0  0.77185  0.16158  0.28446  1.0000
  H   H385      1.0  0.58208  0.10097  0.45004  1.0000
  C   C471      1.0  0.50330  0.12509  0.46188  1.0000
  S   S66       1.0  0.54121  0.16180  0.28648  1.0000
  Fe  Fe32      1.0  0.67672  0.01862  0.16758  1.0000
  S   S67       1.0  0.64612  0.03132  0.11881  1.0000
  Fe  Fe33      1.0  0.72396  0.07634  0.15196  1.0000
  S   S68       1.0  0.69518  0.09212  0.10284  1.0000
  S   S69       1.0  0.77208  0.09950  0.17235  1.0000
  Fe  Fe34      1.0  0.65077  0.08310  0.13764  1.0000
  S   S70       1.0  0.60393  0.11287  0.13782  1.0000
  Fe  Fe35      1.0  0.69262  0.03841  0.08850  1.0000
  S   S71       1.0  0.70123  0.02307  0.02924  1.0000
  S   S72       1.0  0.67923  0.07055  0.18765  1.0000
  S   S73       1.0  0.72374  0.02264  0.13584  1.0000
  C   C472      1.0  0.64712  0.18259  0.16333  1.0000
  C   C473      1.0  0.69102  0.98698  0.00474  1.0000
  H   H386      1.0  0.59628  0.26946  0.42805  1.0000
  Fe  Fe36      1.0  0.89741  0.26363  0.15448  1.0000
  S   S74       1.0  0.84767  0.23652  0.15145  1.0000
  C   C474      1.0  0.52630  0.06126  0.22940  1.0000
  P   P17       1.0  0.70537  0.16176  0.26810  1.0000
  C   C475      1.0  0.82818  0.19734  0.15547  1.0000
  C   C476      1.0  0.79613  0.19350  0.14209  1.0000
  C   C477      1.0  0.77893  0.16375  0.14615  1.0000
  C   C478      1.0  0.79321  0.13733  0.16443  1.0000
  C   C479      1.0  0.82524  0.14116  0.17785  1.0000
  C   C480      1.0  0.84271  0.17069  0.17312  1.0000
  H   H387      1.0  0.78446  0.21379  0.12846  1.0000
  H   H388      1.0  0.75450  0.16145  0.13541  1.0000
  H   H389      1.0  0.83669  0.12109  0.19210  1.0000
  H   H390      1.0  0.86716  0.17306  0.18381  1.0000
  C   C481      1.0  0.55621  0.14409  0.24578  1.0000
  C   C482      1.0  0.58786  0.13102  0.24544  1.0000
  C   C483      1.0  0.60217  0.12010  0.21283  1.0000
  C   C484      1.0  0.58539  0.12327  0.17987  1.0000
  C   C485      1.0  0.55348  0.13592  0.18020  1.0000
  C   C486      1.0  0.53876  0.14590  0.21310  1.0000
  H   H391      1.0  0.60160  0.13000  0.27040  1.0000
  H   H392      1.0  0.62677  0.11074  0.21304  1.0000
  H   H393      1.0  0.54027  0.13851  0.15489  1.0000
  H   H394      1.0  0.51451  0.15637  0.21293  1.0000
  H   H395      1.0  0.50813  0.05917  0.28373  1.0000
  C   C487      1.0  0.49257  0.01210  0.33428  1.0000
  C   C488      1.0  0.53138  0.11381  0.44423  1.0000
  C   C489      1.0  0.56063  0.10975  0.46392  1.0000
  H   H396      1.0  0.53045  0.10801  0.41550  1.0000
  H   H397      1.0  0.81526  0.01554  0.10168  1.0000
  S   S75       1.0  0.94644  0.24572  0.13425  1.0000
  H   H398      1.0  0.55119  0.06158  0.17781  1.0000
  H   H399      1.0  0.60891  0.19998  0.19858  1.0000
  C   C490      1.0  0.69565  0.16230  0.19335  1.0000
  C   C491      1.0  0.67259  0.10511  0.28775  1.0000
  C   C492      1.0  0.55267  0.18869  0.40269  1.0000
  H   H400      1.0  0.65280  0.12110  0.29572  1.0000
  H   H401      1.0  0.63843  0.07375  0.41449  1.0000
  C   C493      1.0  0.81170  0.19646  0.25540  1.0000
  C   C494      1.0  0.65098  0.18417  0.22910  1.0000
  Fe  Fe37      1.0  0.94946  0.29264  0.10245  1.0000
  H   H402      1.0  0.54830  0.18045  0.46013  1.0000
  H   H403      1.0  0.60733  0.02833  0.38699  1.0000
  C   C495      1.0  0.56651  0.07791  0.00075  1.0000
  C   C496      1.0  0.56396  0.20950  0.37547  1.0000
  H   H404      1.0  0.59938  0.03160  0.20062  1.0000
  C   C497      1.0  0.72248  0.06305  0.26527  1.0000
  C   C498      1.0  0.66846  0.07129  0.29023  1.0000
  C   C499      1.0  0.80413  0.17197  0.28042  1.0000
  C   C500      1.0  0.57990  0.23842  0.38487  1.0000
  H   H405      1.0  0.66347  0.26024  0.33066  1.0000
  H   H406      1.0  0.73611  0.21178  0.22195  1.0000
  H   H407      1.0  0.53989  0.16652  0.39522  1.0000
  C   C501      1.0  0.62283  0.00699  0.46276  1.0000
  C   C502      1.0  0.51027  0.01201  0.11779  1.0000
  H   H408      1.0  0.83675  0.20413  0.25156  1.0000
  C   C503      1.0  0.57849  0.98688  0.33193  1.0000
  C   C504      1.0  0.72646  0.09688  0.26229  1.0000
  C   C505      1.0  0.63341  0.07884  0.01523  1.0000
  C   C506      1.0  0.67811  0.16844  0.16146  1.0000
  S   S76       1.0  0.96230  0.29541  0.04155  1.0000
  H   H409      1.0  0.62387  0.12350  0.04452  1.0000
  S   S77       1.0  0.89945  0.30970  0.12017  1.0000
  C   C507      1.0  0.58422  0.24676  0.42153  1.0000
  C   C508      1.0  0.53234  0.06553  0.10375  1.0000
  C   C509      1.0  0.55193  0.05364  0.20586  1.0000
  H   H410      1.0  0.64691  0.01397  0.45352  1.0000
  H   H411      1.0  0.69539  0.14400  0.34502  1.0000
  C   C510      1.0  0.66711  0.21946  0.36743  1.0000
  C   C511      1.0  0.68780  0.16910  0.34129  1.0000
  H   H412      1.0  0.58185  0.06605  0.08430  1.0000
  H   H413      1.0  0.74833  0.10617  0.24948  1.0000
  C   C512      1.0  0.70174  0.11818  0.27414  1.0000
  H   H414      1.0  0.89096  0.26247  0.31107  1.0000
  H   H415      1.0  0.71937  0.15064  0.19152  1.0000
  C   C513      1.0  0.63356  0.19044  0.19712  1.0000
  H   H416      1.0  0.48514  0.05112  0.43033  1.0000
  C   C514      1.0  0.57262  0.22612  0.44914  1.0000
  C   C515      1.0  0.68995  0.18404  0.30699  1.0000
  H   H417      1.0  0.94376  0.24027  0.28882  1.0000
  C   C516      1.0  0.57918  0.03681  0.21881  1.0000
  H   H418      1.0  0.67472  0.17521  0.39777  1.0000
  C   C517      1.0  0.78611  0.00858  0.05357  1.0000
  C   C518      1.0  0.60130  0.03080  0.47557  1.0000
  H   H419      1.0  0.63309  0.18632  0.13868  1.0000
  C   C519      1.0  0.59577  0.11660  0.35120  1.0000
  C   C520      1.0  0.61752  0.11036  0.37959  1.0000
  C   C521      1.0  0.62204  0.07840  0.39195  1.0000
  C   C522      1.0  0.60463  0.05269  0.37605  1.0000
  C   C523      1.0  0.58339  0.05868  0.34678  1.0000
  C   C524      1.0  0.57869  0.09092  0.33494  1.0000
  P   P18       1.0  0.55903  0.02630  0.32738  1.0000
  C   C525      1.0  0.55512  0.03499  0.27929  1.0000
  H   H420      1.0  0.68829  0.16167  0.13532  1.0000
  C   C526      1.0  0.52788  0.05205  0.26594  1.0000
  C   C527      1.0  0.50664  0.04614  0.11618  1.0000
  C   C528      1.0  0.74703  0.17514  0.26286  1.0000
  H   H421      1.0  0.79300  0.22969  0.21516  1.0000
  C   C529      1.0  0.52028  0.02566  0.35089  1.0000
  C   C530      1.0  0.51759  0.03866  0.38624  1.0000
  C   C531      1.0  0.58084  0.02750  0.25533  1.0000
  H   H422      1.0  0.76274  0.99851  0.00264  1.0000
  H   H423      1.0  0.76633  0.14273  0.30409  1.0000
  H   H424      1.0  0.60254  0.01502  0.26462  1.0000
  H   H425      1.0  0.59165  0.14142  0.34193  1.0000
  H   H426      1.0  0.63029  0.13039  0.39251  1.0000
  C   C532      1.0  0.78698  0.21084  0.23473  1.0000
  H   H427      1.0  0.56139  0.09643  0.31349  1.0000
  C   C533      1.0  0.53919  0.99765  0.10502  1.0000
  C   C534      1.0  0.56153  0.05101  0.09263  1.0000
  S   S78       1.0  0.91898  0.28946  0.20380  1.0000
  H   H428      1.0  0.63926  0.18890  0.25495  1.0000
  C   C535      1.0  0.58010  0.10365  0.02073  1.0000
  H   H429      1.0  0.53845  0.04912  0.39991  1.0000
  C   C536      1.0  0.75476  0.20032  0.23844  1.0000
  C   C537      1.0  0.55721  0.19680  0.43937  1.0000
  H   H430      1.0  0.55998  0.20336  0.34707  1.0000
  H   H431      1.0  0.82336  0.16084  0.29637  1.0000
  C   C538      1.0  0.69345  0.05023  0.27909  1.0000
  H   H432      1.0  0.74141  0.04682  0.25526  1.0000
  H   H433      1.0  0.68994  0.02400  0.27995  1.0000
  H   H434      1.0  0.64554  0.06151  0.29983  1.0000
  C   C539      1.0  0.68256  0.17086  0.22736  1.0000
  H   H435      1.0  0.49383  0.00213  0.30695  1.0000
  H   H436      1.0  0.58841  0.25458  0.36362  1.0000
  H   H437      1.0  0.53957  0.98981  0.17918  1.0000
  C   C540      1.0  0.61348  0.10395  0.02828  1.0000
  H   H438      1.0  0.76562  0.02254  0.06401  1.0000
  H   H439      1.0  0.50561  0.07531  0.21972  1.0000
  H   H440      1.0  0.58755  0.00607  0.08454  1.0000
  H   H441      1.0  0.68444  0.22953  0.27770  1.0000
  Fe  Fe38      1.0  0.48921  0.15306  0.30522  1.0000
  C   C541      1.0  0.67625  0.18675  0.37133  1.0000
  H   H442      1.0  0.61142  0.17549  0.48082  1.0000
  Fe  Fe39      1.0  0.96792  0.27530  0.18064  1.0000
  H   H443      1.0  0.53009  0.09193  0.10366  1.0000
  C   C542      1.0  0.56482  0.01713  0.09297  1.0000
  C   C543      1.0  0.91241  0.27785  0.31084  1.0000
  C   C544      1.0  0.68177  0.21721  0.30360  1.0000
  H   H444      1.0  0.65821  0.23310  0.39073  1.0000
  C   C545      1.0  0.94213  0.26525  0.29851  1.0000
  H   H445      1.0  0.50739  0.22884  0.47926  1.0000
  C   C546      1.0  0.67004  0.23473  0.33362  1.0000
  C   C547      1.0  0.81409  0.00462  0.07477  1.0000
  H   H446      1.0  0.62773  0.00508  0.32525  1.0000
  H   H447      1.0  0.65935  0.07920  0.02093  1.0000
  C   C548      1.0  0.78461  0.99502  0.01866  1.0000
  H   H448      1.0  0.48437  0.05804  0.12466  1.0000
  H   H449      1.0  0.56470  0.12318  0.03093  1.0000
  H   H450      1.0  0.63179  0.28264  0.48840  1.0000
  H   H451      1.0  0.61072  0.99080  0.02011  1.0000
  C   C549      1.0  0.61013  0.29673  0.49484  1.0000
  C   C550      1.0  0.48741  0.03940  0.40393  1.0000
  C   C551      1.0  0.57049  0.02193  0.48820  1.0000
  H   H452      1.0  0.60884  0.05609  0.47654  1.0000
  C   C552      1.0  0.91031  0.31031  0.32260  1.0000
  C   C553      1.0  0.96987  0.28494  0.29853  1.0000
  P   P19       1.0  0.57713  0.23719  0.49664  1.0000
  C   C554      1.0  0.56121  0.98909  0.48812  1.0000
  C   C555      1.0  0.84058  0.98693  0.06106  1.0000
  H   H453      1.0  0.86234  0.98397  0.07749  1.0000
  C   C556      1.0  0.61259  0.98390  0.32991  1.0000
  Fe  Fe40      1.0  0.65146  0.15321  0.64162  1.0000
  S   S79       1.0  0.65289  0.10429  0.61261  1.0000
  S   S80       1.0  0.70186  0.17861  0.63924  1.0000
  Fe  Fe41      1.0  0.57863  0.14334  0.65987  1.0000
  S   S81       1.0  0.57633  0.09529  0.63133  1.0000
  C   C557      1.0  0.90033  0.25409  0.66862  1.0000
  Fe  Fe42      1.0  0.62386  0.08483  0.65964  1.0000
  S   S82       1.0  0.62343  0.03359  0.68362  1.0000
  Fe  Fe43      1.0  0.60520  0.11899  0.58697  1.0000
  S   S83       1.0  0.59857  0.10900  0.52591  1.0000
  S   S84       1.0  0.62502  0.13221  0.69068  1.0000
  S   S85       1.0  0.60487  0.16852  0.61344  1.0000
  C   C558      1.0  0.75009  0.03144  0.88526  1.0000
  C   C559      1.0  0.76930  0.25199  0.63091  1.0000
  S   S86       1.0  0.53036  0.16076  0.68375  1.0000
  H   H454      1.0  0.69711  0.00302  0.62734  1.0000
  H   H455      1.0  0.73590  0.04769  0.86818  1.0000
  C   C560      1.0  0.75331  0.22140  0.63012  1.0000
  C   C561      1.0  0.65099  0.01524  0.71450  1.0000
  C   C562      1.0  0.67886  0.03118  0.72733  1.0000
  C   C563      1.0  0.70080  0.01461  0.75048  1.0000
  H   H456      1.0  0.93530  0.29522  0.79394  1.0000
  H   H457      1.0  0.52881  0.28878  0.51219  1.0000
  C   C564      1.0  0.78755  0.02294  0.93541  1.0000
  H   H458      1.0  0.68378  0.05598  0.71891  1.0000
  C   C565      1.0  0.87663  0.26815  0.84510  1.0000
  C   C566      1.0  0.50256  0.03233  0.96677  1.0000
  H   H459      1.0  0.87244  0.25286  0.90097  1.0000
  H   H460      1.0  0.80236  0.21188  0.82707  1.0000
  H   H461      1.0  0.51808  0.02104  0.59081  1.0000
  H   H462      1.0  0.55408  0.04059  0.49861  1.0000
  H   H463      1.0  0.84872  0.00110  0.90756  1.0000
  H   H464      1.0  0.73436  0.98801  0.85722  1.0000
  H   H465      1.0  0.77143  0.21547  0.70782  1.0000
  C   C567      1.0  0.78889  0.26885  0.75409  1.0000
  H   H466      1.0  0.53084  0.07687  0.56985  1.0000
  C   C568      1.0  0.71987  0.27687  0.65337  1.0000
  C   C569      1.0  0.70374  0.24634  0.65214  1.0000
  C   C570      1.0  0.72039  0.21825  0.64060  1.0000
  C   C571      1.0  0.60320  0.02995  0.57661  1.0000
  C   C572      1.0  0.49732  0.08031  0.73803  1.0000
  H   H467      1.0  0.67853  0.24450  0.66047  1.0000
  H   H468      1.0  0.76655  0.19998  0.62106  1.0000
  C   C573      1.0  0.61999  0.05317  0.99504  1.0000
  C   C574      1.0  0.50612  0.13326  0.70965  1.0000
  C   C575      1.0  0.58013  0.28109  0.50071  1.0000
  C   C576      1.0  0.75765  0.26021  0.76638  1.0000
  H   H469      1.0  0.53963  0.09285  0.70589  1.0000
  C   C577      1.0  0.80662  0.19943  0.74825  1.0000
  C   C578      1.0  0.75280  0.28003  0.64287  1.0000
  H   H470      1.0  0.56989  0.21686  0.57288  1.0000
  C   C579      1.0  0.51529  0.00737  0.67635  1.0000
  H   H471      1.0  0.89313  0.22822  0.75587  1.0000
  H   H472      1.0  0.77009  0.07014  0.91816  1.0000
  H   H473      1.0  0.53595  0.13644  0.54688  1.0000
  H   H474      1.0  0.79435  0.25384  0.62204  1.0000
  H   H475      1.0  0.89756  0.28357  0.85019  1.0000
  C   C580      1.0  0.85295  0.24621  0.72294  1.0000
  C   C581      1.0  0.65784  0.21852  0.55936  1.0000
  H   H476      1.0  0.57081  0.01320  0.61866  1.0000
  H   H477      1.0  0.82082  0.11952  0.76926  1.0000
  H   H478      1.0  0.55616  0.01799  0.71134  1.0000
  C   C582      1.0  0.62454  0.18823  0.50207  1.0000
  H   H479      1.0  0.56390  0.03339  0.78762  1.0000
  C   C583      1.0  0.65272  0.99845  0.56870  1.0000
  H   H480      1.0  0.87471  0.27977  0.78826  1.0000
  H   H481      1.0  0.75136  0.16023  0.69420  1.0000
  C   C584      1.0  0.83569  0.23062  0.86705  1.0000
  C   C585      1.0  0.78440  0.13637  0.73140  1.0000
  H   H482      1.0  0.81782  0.30758  0.73057  1.0000
  H   H483      1.0  0.70671  0.29826  0.66260  1.0000
  C   C586      1.0  0.86394  0.26546  0.80988  1.0000
  H   H484      1.0  0.75326  0.23642  0.77817  1.0000
  C   C587      1.0  0.51125  0.22196  0.50738  1.0000
  C   C588      1.0  0.76936  0.04403  0.91335  1.0000
  H   H485      1.0  0.52313  0.19762  0.60867  1.0000
  C   C589      1.0  0.63333  0.02537  0.55969  1.0000
  C   C590      1.0  0.95106  0.29842  0.77072  1.0000
  C   C591      1.0  0.63394  0.02369  0.87810  1.0000
  C   C592      1.0  0.56218  0.11704  0.50133  1.0000
  H   H486      1.0  0.49330  0.05267  0.86416  1.0000
  H   H487      1.0  0.82456  0.21740  0.88932  1.0000
  C   C593      1.0  0.55234  0.30009  0.50814  1.0000
  C   C594      1.0  0.54639  0.21507  0.55981  1.0000
  C   C595      1.0  0.52983  0.02955  0.94377  1.0000
  H   H488      1.0  0.50586  0.05580  0.74334  1.0000
  H   H489      1.0  0.80250  0.03315  0.95691  1.0000
  C   C596      1.0  0.61158  0.03198  0.90542  1.0000
  H   H490      1.0  0.58845  0.05101  0.56981  1.0000
  C   C597      1.0  0.88568  0.23798  0.72981  1.0000
  C   C598      1.0  0.51652  0.10128  0.71659  1.0000
  C   C599      1.0  0.66876  0.18851  0.54591  1.0000
  C   C600      1.0  0.54252  0.22338  0.52300  1.0000
  H   H491      1.0  0.71316  0.00434  0.95526  1.0000
  H   H492      1.0  0.91875  0.25813  0.64798  1.0000
  P   P20       1.0  0.56909  0.01830  0.96271  1.0000
  C   C601      1.0  0.95851  0.31468  0.70762  1.0000
  C   C602      1.0  0.93821  0.31097  0.73794  1.0000
  C   C603      1.0  0.59739  0.00752  0.92693  1.0000
  C   C604      1.0  0.78196  0.19485  0.72216  1.0000
  C   C605      1.0  0.52629  0.03678  0.90657  1.0000
  H   H493      1.0  0.54061  0.07837  0.99556  1.0000
  C   C606      1.0  0.64250  0.99102  0.87235  1.0000
  H   H494      1.0  0.64187  0.04324  0.54022  1.0000
  H   H495      1.0  0.81878  0.26226  0.68179  1.0000
  C   C607      1.0  0.48557  0.09742  0.58884  1.0000
  H   H496      1.0  0.64486  0.04260  0.86154  1.0000
  H   H497      1.0  0.54667  0.03496  0.88801  1.0000
  C   C608      1.0  0.77067  0.16348  0.71412  1.0000
  C   C609      1.0  0.59292  0.00829  0.60350  1.0000
  H   H498      1.0  0.65989  0.14952  0.50787  1.0000
  H   H499      1.0  0.93476  0.23734  0.70874  1.0000
  H   H500      1.0  0.62157  0.25608  0.55610  1.0000
  C   C610      1.0  0.82328  0.22743  0.83172  1.0000
  C   C611      1.0  0.83787  0.24420  0.80273  1.0000
  H   H501      1.0  0.70725  0.27476  0.77095  1.0000
  C   C612      1.0  0.90933  0.24246  0.70290  1.0000
  C   C613      1.0  0.86758  0.26070  0.66105  1.0000
  C   C614      1.0  0.50028  0.04031  0.59445  1.0000
  C   C615      1.0  0.53453  0.12957  0.51851  1.0000
  C   C616      1.0  0.73151  0.28194  0.76254  1.0000
  H   H502      1.0  0.86041  0.26881  0.63421  1.0000
  C   C617      1.0  0.84400  0.25690  0.68811  1.0000
  H   H503      1.0  0.72269  0.02677  0.75969  1.0000
  H   H504      1.0  0.49166  0.12219  0.58137  1.0000
  C   C618      1.0  0.79391  0.30013  0.73972  1.0000
  C   C619      1.0  0.51976  0.20446  0.58034  1.0000
  H   H505      1.0  0.68965  0.17665  0.55838  1.0000
  C   C620      1.0  0.55489  0.01140  0.80056  1.0000
  C   C621      1.0  0.61349  0.21849  0.51529  1.0000
  C   C622      1.0  0.49602  0.04670  0.89276  1.0000
  H   H506      1.0  0.51075  0.03301  0.67104  1.0000
  C   C623      1.0  0.48457  0.21166  0.52809  1.0000
  H   H507      1.0  0.84132  0.17484  0.78329  1.0000
  P   P21       1.0  0.82205  0.23990  0.75711  1.0000
  C   C624      1.0  0.50764  0.07191  0.58274  1.0000
  H   H508      1.0  0.63605  0.03402  0.98517  1.0000
  H   H509      1.0  0.73881  0.01666  0.67293  1.0000
  H   H510      1.0  0.60543  0.05745  0.90983  1.0000
  C   C625      1.0  0.80977  0.14062  0.75642  1.0000
  C   C626      1.0  0.82112  0.17202  0.76454  1.0000
  H   H511      1.0  0.77558  0.11209  0.72502  1.0000
  C   C627      1.0  0.52172  0.00833  0.80842  1.0000
  C   C628      1.0  0.86256  0.25073  0.87367  1.0000
  C   C629      1.0  0.58631  0.05222  0.98796  1.0000
  H   H512      1.0  0.48349  0.14166  0.51297  1.0000
  C   C630      1.0  0.63021  0.23338  0.54435  1.0000
  H   H513      1.0  0.50497  0.02791  0.80153  1.0000
  H   H514      1.0  0.67040  0.22977  0.58214  1.0000
  C   C631      1.0  0.65211  0.17337  0.51733  1.0000
  H   H515      1.0  0.50472  0.02720  0.99559  1.0000
  C   C632      1.0  0.74919  0.99780  0.87907  1.0000
  H   H516      1.0  0.95040  0.29356  0.90408  1.0000
  C   C633      1.0  0.73647  0.31258  0.74690  1.0000
  C   C634      1.0  0.54096  0.99900  0.69965  1.0000
  H   H517      1.0  0.90399  0.99398  0.88269  1.0000
  C   C635      1.0  0.50506  0.13288  0.49911  1.0000
  C   C636      1.0  0.48887  0.20269  0.56447  1.0000
  H   H518      1.0  0.67626  0.99558  0.55576  1.0000
  C   C637      1.0  0.78610  0.98899  0.92992  1.0000
  H   H519      1.0  0.97806  0.28340  0.96653  1.0000
  C   C638      1.0  0.73112  0.99154  0.66961  1.0000
  H   H520      1.0  0.60198  0.98799  0.80197  1.0000
  H   H521      1.0  0.92811  0.31090  0.96422  1.0000
  C   C639      1.0  0.57632  0.98586  0.80875  1.0000
  H   H522      1.0  0.66013  0.98454  0.85149  1.0000
  C   C640      1.0  0.70039  0.98433  0.96802  1.0000
  Fe  Fe44      1.0  0.84522  0.53825  0.38400  1.0000
  S   S87       1.0  0.80271  0.54399  0.34556  1.0000
  S   S88       1.0  0.83617  0.52661  0.44392  1.0000
  Fe  Fe45      1.0  0.89419  0.56318  0.32691  1.0000
  S   S89       1.0  0.85512  0.57143  0.28505  1.0000
  S   S90       1.0  0.94899  0.56653  0.31738  1.0000
  Fe  Fe46      1.0  0.82448  0.59254  0.33071  1.0000
  S   S91       1.0  0.80022  0.64339  0.32908  1.0000
  Fe  Fe47      1.0  0.83668  0.52233  0.30324  1.0000
  S   S92       1.0  0.82052  0.48329  0.26281  1.0000
  S   S93       1.0  0.86561  0.58788  0.37141  1.0000
  S   S94       1.0  0.87718  0.51295  0.34303  1.0000
  S   S95       1.0  0.92426  0.38632  0.19026  1.0000
  C   C641      1.0  0.89491  0.38975  0.33129  1.0000
  C   C642      1.0  0.95049  0.61959  0.27059  1.0000
  C   C643      1.0  0.85266  0.42750  0.35133  1.0000
  C   C644      1.0  0.96922  0.50400  0.38963  1.0000
  H   H523      1.0  0.93242  0.62460  0.47898  1.0000
  C   C645      1.0  0.95636  0.48109  0.41368  1.0000
  H   H524      1.0  0.92577  0.62471  0.27916  1.0000
  C   C646      1.0  0.89434  0.41153  0.21142  1.0000
  C   C647      1.0  0.90489  0.43739  0.23372  1.0000
  C   C648      1.0  0.88257  0.45913  0.24991  1.0000
  C   C649      1.0  0.84921  0.45585  0.24326  1.0000
  C   C650      1.0  0.83848  0.43033  0.22047  1.0000
  C   C651      1.0  0.86089  0.40796  0.20501  1.0000
  H   H525      1.0  0.93054  0.44086  0.23849  1.0000
  H   H526      1.0  0.89125  0.47866  0.26723  1.0000
  H   H527      1.0  0.81270  0.42767  0.21503  1.0000
  H   H528      1.0  0.85235  0.38846  0.18754  1.0000
  C   C652      1.0  0.97162  0.48090  0.16710  1.0000
  C   C653      1.0  0.93748  0.36500  0.44707  1.0000
  C   C654      1.0  0.73221  0.63839  0.32293  1.0000
  C   C655      1.0  0.97592  0.51552  0.22051  1.0000
  H   H529      1.0  0.84429  0.44664  0.36950  1.0000
  H   H530      1.0  0.73578  0.61231  0.32027  1.0000
  H   H531      1.0  0.89293  0.42084  0.45556  1.0000
  C   C656      1.0  0.89359  0.58501  0.19667  1.0000
  C   C657      1.0  0.86733  0.46658  0.44939  1.0000
  C   C658      1.0  0.84725  0.48979  0.46609  1.0000
  C   C659      1.0  0.84309  0.39240  0.29940  1.0000
  H   H532      1.0  0.96457  0.52765  0.24356  1.0000
  H   H533      1.0  0.87523  0.47033  0.42168  1.0000
  C   C660      1.0  0.80157  0.65013  0.42671  1.0000
  H   H534      1.0  0.80818  0.42715  0.32008  1.0000
  H   H535      1.0  0.70504  0.62672  0.40157  1.0000
  C   C661      1.0  0.96102  0.39875  0.30865  1.0000
  H   H536      1.0  0.90383  0.54191  0.22812  1.0000
  H   H537      1.0  0.95618  0.46716  0.14882  1.0000
  C   C662      1.0  0.97173  0.42886  0.32247  1.0000
  P   P22       1.0  0.93534  0.37273  0.33587  1.0000
  C   C663      1.0  0.97964  0.41339  0.04107  1.0000
  H   H538      1.0  0.84097  0.52826  0.13582  1.0000
  H   H539      1.0  0.96958  0.61599  0.01151  1.0000
  H   H540      1.0  0.93114  0.48298  0.42205  1.0000
  H   H541      1.0  0.77212  0.57955  0.47574  1.0000
  C   C664      1.0  0.96714  0.59279  0.28505  1.0000
  C   C665      1.0  0.73207  0.54844  0.40263  1.0000
  C   C666      1.0  0.87196  0.53138  0.18294  1.0000
  H   H542      1.0  0.86949  0.50572  0.18965  1.0000
  C   C667      1.0  0.87728  0.43856  0.46866  1.0000
  H   H543      1.0  0.96488  0.43657  0.34958  1.0000
  C   C668      1.0  0.92647  0.36792  0.41115  1.0000
  C   C669      1.0  0.89127  0.55173  0.20459  1.0000
  P   P23       1.0  0.74376  0.64474  0.46688  1.0000
  H   H544      1.0  0.87944  0.64631  0.07909  1.0000
  C   C670      1.0  0.75553  0.57886  0.45280  1.0000
  H   H545      1.0  0.88321  0.36245  0.28234  1.0000
  H   H546      1.0  0.96594  0.43818  0.44558  1.0000
  C   C671      1.0  0.75221  0.54971  0.43326  1.0000
  C   C672      1.0  0.87571  0.59839  0.16773  1.0000
  H   H547      1.0  0.82753  0.38457  0.27721  1.0000
  H   H548      1.0  0.70002  0.57556  0.36733  1.0000
  H   H549      1.0  0.90055  0.36631  0.40575  1.0000
  C   C673      1.0  0.93777  0.33070  0.32103  1.0000
  C   C674      1.0  0.85777  0.57753  0.14490  1.0000
  C   C675      1.0  0.98231  0.37185  0.39037  1.0000
  C   C676      1.0  0.71809  0.60547  0.41119  1.0000
  H   H550      1.0  0.73021  0.52603  0.38699  1.0000
  C   C677      1.0  0.90953  0.64908  0.12757  1.0000
  C   C678      1.0  0.85566  0.54418  0.15275  1.0000
  H   H551      1.0  0.67982  0.63592  0.31679  1.0000
  C   C679      1.0  0.95719  0.49637  0.19698  1.0000
  C   C680      1.0  0.96615  0.64026  0.24555  1.0000
  C   C681      1.0  0.88406  0.41446  0.35504  1.0000
  H   H552      1.0  0.84316  0.59822  0.46933  1.0000
  H   H553      1.0  0.75628  0.64086  0.15198  1.0000
  C   C682      1.0  0.87461  0.37971  0.30261  1.0000
  C   C683      1.0  0.95974  0.39248  0.09827  1.0000
  H   H554      1.0  0.98043  0.41320  0.14663  1.0000
  H   H555      1.0  0.94380  0.37624  0.11315  1.0000
  C   C684      1.0  0.73813  0.60691  0.44220  1.0000
  H   H556      1.0  0.95379  0.52343  0.37924  1.0000
  C   C685      1.0  0.83215  0.41636  0.32363  1.0000
  C   C686      1.0  0.94883  0.37227  0.38262  1.0000
  H   H557      1.0  0.90871  0.60035  0.21372  1.0000
  C   C687      1.0  0.96779  0.31750  0.30981  1.0000
  H   H558      1.0  0.84486  0.58712  0.12151  1.0000
  H   H559      1.0  0.89984  0.42391  0.37616  1.0000
  H   H560      1.0  0.97932  0.36234  0.48238  1.0000
  H   H561      1.0  0.97946  0.41291  0.01164  1.0000
  Fe  Fe48      1.0  0.92374  0.33387  0.16818  1.0000
  H   H562      1.0  0.93134  0.49356  0.20171  1.0000
  C   C688      1.0  0.71508  0.57632  0.39158  1.0000
  H   H563      1.0  0.76593  0.52822  0.44130  1.0000
  C   C689      1.0  0.97088  0.36529  0.45461  1.0000
  C   C690      1.0  0.95953  0.39206  0.06031  1.0000
  H   H564      1.0  0.79753  0.62538  0.41725  1.0000
  S   S96       1.0  0.97380  0.32045  0.14744  1.0000
  H   H565      1.0  0.85177  0.63168  0.23305  1.0000
  C   C691      1.0  0.96853  0.39027  0.27257  1.0000
  C   C692      1.0  0.98026  0.41386  0.11714  1.0000
  H   H566      1.0  0.80956  0.62045  0.17308  1.0000
  P   P24       1.0  0.87666  0.64175  0.15918  1.0000
  C   C693      1.0  0.97608  0.45595  0.42696  1.0000
  H   H567      1.0  0.95891  0.36818  0.26036  1.0000
  C   C694      1.0  0.80876  0.64095  0.15449  1.0000
  H   H568      1.0  0.92002  0.36196  0.46903  1.0000
  H   H569      1.0  0.63575  0.34259  0.49326  1.0000
  H   H570      1.0  0.88723  0.31941  0.33273  1.0000
  H   H571      1.0  0.94402  0.37485  0.04597  1.0000
  H   H572      1.0  0.94717  0.64994  0.16905  1.0000
  Fe  Fe49      1.0  0.85143  0.41160  0.66295  1.0000
  S   S97       1.0  0.89743  0.40318  0.63169  1.0000
  S   S98       1.0  0.84103  0.45996  0.69121  1.0000
  Fe  Fe50      1.0  0.82106  0.34614  0.63861  1.0000
  H   H573      1.0  0.93491  0.58501  0.58678  1.0000
  C   C695      1.0  0.89052  0.51252  0.62595  1.0000
  Fe  Fe51      1.0  0.89463  0.35188  0.65291  1.0000
  C   C696      1.0  0.97920  0.58954  0.64344  1.0000
  Fe  Fe52      1.0  0.86528  0.38592  0.58625  1.0000
  S   S99       1.0  0.88058  0.39800  0.52806  1.0000
  S   S100      1.0  0.85059  0.36146  0.68806  1.0000
  S   S101      1.0  0.81888  0.39756  0.61605  1.0000
  H   H574      1.0  0.79310  0.57165  0.64744  1.0000
  Fe  Fe53      1.0  0.93783  0.58717  0.81024  1.0000
  S   S102      1.0  0.94202  0.53352  0.79399  1.0000
  C   C697      1.0  0.85431  0.63677  0.50752  1.0000
  C   C698      1.0  0.93181  0.60201  0.53183  1.0000
  H   H575      1.0  0.70544  0.60212  0.51366  1.0000
  C   C699      1.0  0.87452  0.58658  0.65665  1.0000
  C   C700      1.0  0.87007  0.48049  0.71848  1.0000
  C   C701      1.0  0.86285  0.51202  0.73140  1.0000
  C   C702      1.0  0.88484  0.52874  0.75417  1.0000
  C   C703      1.0  0.91403  0.51379  0.76468  1.0000
  C   C704      1.0  0.92152  0.48242  0.75133  1.0000
  C   C705      1.0  0.89978  0.46596  0.72796  1.0000
  H   H576      1.0  0.84001  0.52352  0.72396  1.0000
  H   H577      1.0  0.87894  0.55295  0.76410  1.0000
  H   H578      1.0  0.94410  0.47076  0.75930  1.0000
  H   H579      1.0  0.90561  0.44178  0.71793  1.0000
  C   C706      1.0  0.85910  0.64482  0.54412  1.0000
  H   H580      1.0  0.89997  0.40311  0.91907  1.0000
  H   H581      1.0  0.83810  0.45240  0.54878  1.0000
  C   C707      1.0  0.91769  0.49430  0.55922  1.0000
  H   H582      1.0  0.84411  0.61805  0.73558  1.0000
  H   H583      1.0  0.95402  0.54705  0.71783  1.0000
  H   H584      1.0  0.91653  0.58196  0.52303  1.0000
  H   H585      1.0  0.85996  0.62770  0.59905  1.0000
  H   H586      1.0  0.89767  0.58326  0.64298  1.0000
  H   H587      1.0  0.82550  0.49331  0.62378  1.0000
  S   S103      1.0  0.86546  0.33352  0.60500  1.0000
  H   H588      1.0  0.77675  0.45999  0.61356  1.0000
  Fe  Fe54      1.0  0.95131  0.63366  0.87456  1.0000
  H   H589      1.0  0.83857  0.55595  0.51621  1.0000
  C   C708      1.0  0.84442  0.60624  0.70905  1.0000
  H   H590      1.0  0.82031  0.50157  0.51482  1.0000
  C   C709      1.0  0.86694  0.43329  0.50467  1.0000
  C   C710      1.0  0.92783  0.47888  0.59116  1.0000
  S   S104      1.0  0.93594  0.62833  0.77024  1.0000
  C   C711      1.0  0.89394  0.51888  0.56058  1.0000
  C   C712      1.0  0.91424  0.48802  0.62448  1.0000
  C   C713      1.0  0.58477  0.34941  0.50532  1.0000
  H   H591      1.0  0.87932  0.51798  0.65194  1.0000
  S   S105      1.0  0.94437  0.33011  0.66549  1.0000
  H   H592      1.0  0.95251  0.36698  0.58513  1.0000
  C   C714      1.0  0.55472  0.33410  0.51057  1.0000
  S   S106      1.0  0.77168  0.31951  0.64518  1.0000
  H   H593      1.0  0.94662  0.33019  0.85131  1.0000
  C   C715      1.0  0.77173  0.64228  0.57428  1.0000
  C   C716      1.0  0.91303  0.35822  0.94510  1.0000
  C   C717      1.0  0.91134  0.37946  0.91540  1.0000
  C   C718      1.0  0.92389  0.36998  0.88138  1.0000
  H   H594      1.0  0.74972  0.61584  0.61851  1.0000
  P   P25       1.0  0.92003  0.39691  0.84264  1.0000
  C   C719      1.0  0.92202  0.43868  0.85864  1.0000
  C   C720      1.0  0.95262  0.38968  0.81041  1.0000
  C   C721      1.0  0.94682  0.39219  0.77284  1.0000
  C   C722      1.0  0.83649  0.48426  0.50188  1.0000
  H   H595      1.0  0.92113  0.47530  0.64916  1.0000
  H   H596      1.0  0.77131  0.34506  0.72254  1.0000
  C   C723      1.0  0.97365  0.40409  0.55101  1.0000
  C   C724      1.0  0.95203  0.45498  0.86104  1.0000
  C   C725      1.0  0.95318  0.48741  0.87306  1.0000
  C   C726      1.0  0.92452  0.50387  0.88247  1.0000
  C   C727      1.0  0.89467  0.48766  0.88082  1.0000
  C   C728      1.0  0.89341  0.45512  0.86930  1.0000
  C   C729      1.0  0.88134  0.39012  0.82031  1.0000
  C   C730      1.0  0.86770  0.41460  0.79825  1.0000
  C   C731      1.0  0.83810  0.40938  0.78039  1.0000
  C   C732      1.0  0.82177  0.37975  0.78452  1.0000
  C   C733      1.0  0.84637  0.45623  0.52116  1.0000
  C   C734      1.0  0.86494  0.36025  0.82401  1.0000
  H   H597      1.0  0.78553  0.56814  0.55393  1.0000
  H   H598      1.0  0.87501  0.34092  0.84056  1.0000
  C   C735      1.0  0.87395  0.60172  0.69081  1.0000
  H   H599      1.0  0.92304  0.39862  0.76240  1.0000
  S   S107      1.0  0.90495  0.61304  0.85018  1.0000
  H   H600      1.0  0.89638  0.60995  0.70337  1.0000
  C   C736      1.0  0.94251  0.60378  0.56794  1.0000
  C   C737      1.0  0.92701  0.32729  0.94106  1.0000
  C   C738      1.0  0.96415  0.55144  0.69113  1.0000
  H   H601      1.0  0.92540  0.52941  0.89028  1.0000
  H   H602      1.0  0.87243  0.50056  0.88784  1.0000
  H   H603      1.0  0.86999  0.44300  0.86832  1.0000
  H   H604      1.0  0.88004  0.43772  0.79461  1.0000
  H   H605      1.0  0.82791  0.42831  0.76312  1.0000
  H   H606      1.0  0.79874  0.37597  0.77079  1.0000
  H   H607      1.0  0.96631  0.38565  0.71906  1.0000
  H   H608      1.0  0.73736  0.53380  0.54302  1.0000
  H   H609      1.0  0.73268  0.47963  0.57276  1.0000
  C   C739      1.0  0.72410  0.61342  0.53036  1.0000
  C   C740      1.0  0.83520  0.35514  0.80622  1.0000
  C   C741      1.0  0.84462  0.58056  0.52444  1.0000
  C   C742      1.0  0.84955  0.58826  0.56132  1.0000
  H   H610      1.0  0.92718  0.48625  0.53317  1.0000
  P   P26       1.0  0.84633  0.55682  0.59585  1.0000
  C   C743      1.0  0.84542  0.57563  0.64049  1.0000
  C   C744      1.0  0.80962  0.53316  0.58921  1.0000
  C   C745      1.0  0.80649  0.50266  0.60619  1.0000
  C   C746      1.0  0.77875  0.48360  0.60042  1.0000
  C   C747      1.0  0.75390  0.49475  0.57757  1.0000
  C   C748      1.0  0.75655  0.52527  0.56092  1.0000
  C   C749      1.0  0.78413  0.54459  0.56699  1.0000
  H   H611      1.0  0.58660  0.37576  0.50735  1.0000
  H   H612      1.0  0.94539  0.45910  0.59004  1.0000
  C   C750      1.0  0.81582  0.58010  0.65906  1.0000
  C   C751      1.0  0.88012  0.52827  0.59401  1.0000
  C   C752      1.0  0.72517  0.60661  0.56764  1.0000
  C   C753      1.0  0.81539  0.59535  0.69323  1.0000
  S   S108      1.0  0.95587  0.63135  0.93670  1.0000
  C   C754      1.0  0.85662  0.62073  0.57093  1.0000
  H   H613      1.0  0.90325  0.36553  0.97130  1.0000
  H   H614      1.0  0.95678  0.56452  0.94851  1.0000
  C   C755      1.0  0.76768  0.32173  0.73578  1.0000
  C   C756      1.0  0.93747  0.33859  0.87740  1.0000
  H   H615      1.0  0.88560  0.52927  0.53527  1.0000
  H   H616      1.0  0.53323  0.34859  0.51659  1.0000
  H   H617      1.0  0.95248  0.40559  0.53333  1.0000
  H   H618      1.0  0.94970  0.51435  0.98480  1.0000
  H   H619      1.0  0.79258  0.59854  0.70771  1.0000
  C   C757      1.0  0.74895  0.62107  0.58961  1.0000
  H   H620      1.0  0.70754  0.59011  0.57953  1.0000
  C   C758      1.0  0.74654  0.63518  0.51484  1.0000
  H   H621      1.0  0.82253  0.33211  0.80922  1.0000
  C   C759      1.0  0.97558  0.54588  0.94814  1.0000
  C   C760      1.0  0.96315  0.62927  0.57918  1.0000
  P   P27       1.0  0.97912  0.63055  0.62507  1.0000
  C   C761      1.0  0.97155  0.51750  0.96861  1.0000
  C   C762      1.0  0.96608  0.58334  0.67802  1.0000
  C   C763      1.0  0.77056  0.64936  0.53706  1.0000
  C   C764      1.0  0.97364  0.38229  0.58019  1.0000
  H   H622      1.0  0.97608  0.50030  0.87406  1.0000
  H   H623      1.0  0.95732  0.60291  0.69520  1.0000
  C   C765      1.0  0.84696  0.60466  0.49771  1.0000
  H   H624      1.0  0.97346  0.50069  0.68024  1.0000
  H   H625      1.0  0.97447  0.44297  0.85324  1.0000
  C   C766      1.0  0.97543  0.52540  0.67005  1.0000
  C   C767      1.0  0.97158  0.38514  0.74797  1.0000
  Fe  Fe55      1.0  0.98007  0.64716  0.79937  1.0000
  C   C768      1.0  0.94078  0.62608  0.50695  1.0000
  H   H626      1.0  0.71608  0.32904  0.74279  1.0000
  C   C769      1.0  0.93936  0.31753  0.90725  1.0000
  H   H627      1.0  0.91267  0.31743  0.73599  1.0000
  C   C770      1.0  0.61244  0.33073  0.49738  1.0000
  Fe  Fe56      1.0  0.57114  0.79700  0.32086  1.0000
  S   S109      1.0  0.59131  0.83552  0.35831  1.0000
  S   S110      1.0  0.51760  0.80629  0.30770  1.0000
  Fe  Fe57      1.0  0.63242  0.75253  0.33077  1.0000
  S   S111      1.0  0.65518  0.78864  0.36901  1.0000
  S   S112      1.0  0.65442  0.70153  0.32007  1.0000
  Fe  Fe58      1.0  0.60532  0.79361  0.39427  1.0000
  S   S113      1.0  0.59805  0.79099  0.45560  1.0000
  Fe  Fe59      1.0  0.63855  0.82680  0.32874  1.0000
  S   S114      1.0  0.67486  0.86672  0.31388  1.0000
  S   S115      1.0  0.58328  0.75538  0.35856  1.0000
  S   S116      1.0  0.61778  0.79049  0.28882  1.0000
  C   C771      1.0  0.81204  0.71513  0.44726  1.0000
  C   C772      1.0  0.67418  0.96107  0.02069  1.0000
  C   C773      1.0  0.51889  0.81998  0.23374  1.0000
  H   H628      1.0  0.66672  0.96284  0.04886  1.0000
  H   H629      1.0  0.55877  0.90477  0.05165  1.0000
  C   C774      1.0  0.96027  0.66414  0.07931  1.0000
  H   H630      1.0  0.55982  0.90622  0.34222  1.0000
  C   C775      1.0  0.66816  0.89616  0.27928  1.0000
  C   C776      1.0  0.69297  0.91859  0.27091  1.0000
  C   C777      1.0  0.68781  0.94355  0.24511  1.0000
  C   C778      1.0  0.65763  0.94636  0.22766  1.0000
  C   C779      1.0  0.63298  0.92370  0.23574  1.0000
  C   C780      1.0  0.63824  0.89860  0.26120  1.0000
  H   H631      1.0  0.71621  0.91686  0.28474  1.0000
  H   H632      1.0  0.70695  0.96084  0.23913  1.0000
  H   H633      1.0  0.60959  0.92559  0.22226  1.0000
  H   H634      1.0  0.61894  0.88150  0.26729  1.0000
  C   C781      1.0  0.55942  0.79639  0.47634  1.0000
  C   C782      1.0  0.53129  0.80219  0.45576  1.0000
  C   C783      1.0  0.54073  0.91438  0.44025  1.0000
  H   H635      1.0  0.73364  0.89721  0.47876  1.0000
  H   H636      1.0  0.53289  0.80332  0.42642  1.0000
  H   H637      1.0  0.91636  0.73396  0.23436  1.0000
  H   H638      1.0  0.71879  0.73229  0.33084  1.0000
  C   C784      1.0  0.72224  0.70615  0.32878  1.0000
  H   H639      1.0  0.76813  0.71069  0.47863  1.0000
  C   C785      1.0  0.68608  0.67818  0.48568  1.0000
  C   C786      1.0  0.70297  0.82173  0.02548  1.0000
  C   C787      1.0  0.53852  0.88292  0.42506  1.0000
  C   C788      1.0  0.58724  0.94729  0.03865  1.0000
  C   C789      1.0  0.64489  0.85125  0.04842  1.0000
  C   C790      1.0  0.67099  0.84813  0.07299  1.0000
  C   C791      1.0  0.70023  0.83371  0.06103  1.0000
  P   P28       1.0  0.66894  0.86573  0.11817  1.0000
  C   C792      1.0  0.62941  0.88392  0.12610  1.0000
  C   C793      1.0  0.67368  0.83516  0.15331  1.0000
  C   C794      1.0  0.66701  0.84358  0.18962  1.0000
  C   C795      1.0  0.67093  0.82068  0.21740  1.0000
  H   H640      1.0  0.69309  0.75485  0.16659  1.0000
  C   C796      1.0  0.68613  0.77977  0.17296  1.0000
  C   C797      1.0  0.68274  0.80281  0.14510  1.0000
  C   C798      1.0  0.60179  0.86378  0.12802  1.0000
  C   C799      1.0  0.57108  0.87723  0.13520  1.0000
  C   C800      1.0  0.56781  0.91075  0.14119  1.0000
  C   C801      1.0  0.59522  0.93095  0.13967  1.0000
  C   C802      1.0  0.62592  0.91765  0.13194  1.0000
  C   C803      1.0  0.70046  0.89654  0.12107  1.0000
  C   C804      1.0  0.71037  0.91299  0.08944  1.0000
  C   C805      1.0  0.73460  0.93690  0.09112  1.0000
  C   C806      1.0  0.74932  0.94445  0.12434  1.0000
  C   C807      1.0  0.73928  0.92867  0.15605  1.0000
  C   C808      1.0  0.71494  0.90485  0.15451  1.0000
  H   H641      1.0  0.95342  0.66139  0.23520  1.0000
  C   C809      1.0  0.65820  0.71583  0.44535  1.0000
  C   C810      1.0  0.60488  0.89596  0.46632  1.0000
  H   H642      1.0  0.62253  0.86343  0.05616  1.0000
  H   H643      1.0  0.72108  0.83215  0.07910  1.0000
  H   H644      1.0  0.65891  0.86799  0.19655  1.0000
  C   C811      1.0  0.68044  0.78875  0.20912  1.0000
  C   C812      1.0  0.53359  0.95643  0.22323  1.0000
  C   C813      1.0  0.55955  0.95861  0.33630  1.0000
  H   H645      1.0  0.68686  0.79500  0.11741  1.0000
  H   H646      1.0  0.60408  0.83760  0.12429  1.0000
  H   H647      1.0  0.54984  0.86160  0.13684  1.0000
  H   H648      1.0  0.54407  0.92083  0.14758  1.0000
  H   H649      1.0  0.59302  0.95685  0.14544  1.0000
  H   H650      1.0  0.64684  0.93373  0.13152  1.0000
  H   H651      1.0  0.69933  0.90755  0.06341  1.0000
  H   H652      1.0  0.74165  0.94990  0.06672  1.0000
  H   H653      1.0  0.76807  0.96302  0.12563  1.0000
  H   H654      1.0  0.75010  0.93514  0.18200  1.0000
  H   H655      1.0  0.70758  0.89338  0.17958  1.0000
  H   H656      1.0  0.60642  0.94159  0.05792  1.0000
  C   C814      1.0  0.88190  0.66425  0.20109  1.0000
  C   C815      1.0  0.61919  0.89606  0.43161  1.0000
  H   H657      1.0  0.72561  0.81070  0.01638  1.0000
  C   C816      1.0  0.60837  0.92544  0.33794  1.0000
  H   H658      1.0  0.67588  0.83616  0.44314  1.0000
  H   H659      1.0  0.65381  0.91300  0.01259  1.0000
  C   C817      1.0  0.77979  0.66546  0.45082  1.0000
  C   C818      1.0  0.82839  0.66724  0.41313  1.0000
  C   C819      1.0  0.50148  0.82160  0.26638  1.0000
  C   C820      1.0  0.56051  0.92650  0.03498  1.0000
  C   C821      1.0  0.64230  0.85282  0.48434  1.0000
  C   C822      1.0  0.51955  0.93896  0.42768  1.0000
  H   H660      1.0  0.52045  0.96343  0.43860  1.0000
  H   H661      1.0  0.55438  0.86342  0.43430  1.0000
  C   C823      1.0  0.51612  0.87633  0.39732  1.0000
  C   C824      1.0  0.54357  0.71612  0.47621  1.0000
  H   H662      1.0  0.63823  0.73258  0.43994  1.0000
  H   H663      1.0  0.75492  0.93585  0.00119  1.0000
  H   H664      1.0  0.65371  0.95092  0.33110  1.0000
  C   C825      1.0  0.81126  0.97765  0.00435  1.0000
  H   H665      1.0  0.92416  0.66051  0.03697  1.0000
  C   C826      1.0  0.49239  0.96599  0.17668  1.0000
  H   H666      1.0  0.68313  0.77095  0.23077  1.0000
  H   H667      1.0  0.51708  0.82698  0.17561  1.0000
  H   H668      1.0  0.66655  0.82774  0.24542  1.0000
  C   C827      1.0  0.88784  0.70021  0.26591  1.0000
  H   H669      1.0  0.89035  0.71387  0.29104  1.0000
  C   C828      1.0  0.62743  0.95329  0.33318  1.0000
  H   H670      1.0  0.85395  0.71303  0.41190  1.0000
  H   H671      1.0  0.65565  0.87473  0.39635  1.0000
  C   C829      1.0  0.92885  0.65859  0.06596  1.0000
  C   C830      1.0  0.50100  0.80643  0.47321  1.0000
  C   C831      1.0  0.50582  0.71816  0.42557  1.0000
  H   H672      1.0  0.91031  0.70323  0.17706  1.0000
  C   C832      1.0  0.57448  0.92803  0.33931  1.0000
  C   C833      1.0  0.75930  0.65870  0.32763  1.0000
  H   H673      1.0  0.72566  0.68460  0.40438  1.0000
  C   C834      1.0  0.66041  0.69997  0.47888  1.0000
  C   C835      1.0  0.50383  0.82932  0.20088  1.0000
  C   C836      1.0  0.51307  0.93400  0.24028  1.0000
  H   H674      1.0  0.50184  0.71697  0.39645  1.0000
  P   P29       1.0  0.57044  0.92237  0.47569  1.0000
  C   C837      1.0  0.75400  0.69264  0.33067  1.0000
  C   C838      1.0  0.70983  0.67219  0.45886  1.0000
  H   H675      1.0  0.55763  0.96122  0.23429  1.0000
  C   C839      1.0  0.49534  0.90094  0.38482  1.0000
  C   C840      1.0  0.49696  0.93219  0.40011  1.0000
  C   C841      1.0  0.69516  0.68588  0.32367  1.0000
  H   H676      1.0  0.53326  0.95989  0.33693  1.0000
  H   H677      1.0  0.77468  0.70867  0.33424  1.0000
  H   H678      1.0  0.61986  0.90170  0.33999  1.0000
  H   H679      1.0  0.84441  0.65565  0.39350  1.0000
  H   H680      1.0  0.54355  0.81051  0.23363  1.0000
  H   H681      1.0  0.60998  0.91223  0.41078  1.0000
  C   C842      1.0  0.48593  0.72469  0.48724  1.0000
  C   C843      1.0  0.53761  0.71470  0.43884  1.0000
  H   H682      1.0  0.80389  0.71685  0.09170  1.0000
  C   C844      1.0  0.64505  0.87495  0.42343  1.0000
  H   H683      1.0  0.86019  0.96025  0.01593  1.0000
  C   C845      1.0  0.65660  0.85332  0.44982  1.0000
  C   C846      1.0  0.64791  0.83967  0.01272  1.0000
  C   C847      1.0  0.66696  0.93283  0.00009  1.0000
  C   C848      1.0  0.89921  0.69380  0.20158  1.0000
  H   H684      1.0  0.56835  0.71451  0.48633  1.0000
  H   H685      1.0  0.85793  0.66286  0.28994  1.0000
  C   C849      1.0  0.80526  0.69549  0.10900  1.0000
  C   C850      1.0  0.68179  0.71015  0.41870  1.0000
  H   H686      1.0  0.63093  0.95643  0.45256  1.0000
  C   C851      1.0  0.52324  0.97256  0.19172  1.0000
  H   H687      1.0  0.97967  0.67108  0.06091  1.0000
  H   H688      1.0  0.81571  0.74050  0.45457  1.0000
  C   C852      1.0  0.58951  0.97538  0.01721  1.0000
  C   C853      1.0  0.83361  0.69969  0.42330  1.0000
  H   H689      1.0  0.52122  0.92115  0.26439  1.0000
  C   C854      1.0  0.90244  0.71151  0.23399  1.0000
  H   H690      1.0  0.67833  0.92105  0.47364  1.0000
  H   H691      1.0  0.85744  0.69698  0.11293  1.0000
  C   C855      1.0  0.83562  0.68391  0.12073  1.0000
  C   C856      1.0  0.96677  0.66052  0.11639  1.0000
  C   C857      1.0  0.61355  0.97420  0.46230  1.0000
  H   H692      1.0  0.75317  0.68879  0.11090  1.0000
  S   S117      1.0  0.64872  0.97807  0.19649  1.0000
  C   C858      1.0  0.70760  0.68865  0.42546  1.0000
  C   C859      1.0  0.78514  0.69815  0.46085  1.0000
  H   H693      1.0  0.55779  0.71152  0.42012  1.0000
  C   C860      1.0  0.58256  0.96490  0.47485  1.0000
  H   H694      1.0  0.67995  0.72225  0.39260  1.0000
  C   C861      1.0  0.61624  0.87372  0.49244  1.0000
  C   C862      1.0  0.86969  0.67140  0.26535  1.0000
  C   C863      1.0  0.94158  0.65269  0.14041  1.0000
  C   C864      1.0  0.53624  0.93357  0.00946  1.0000
  H   H695      1.0  0.51518  0.85211  0.38531  1.0000
  C   C865      1.0  0.67689  0.82490  0.00126  1.0000
  H   H696      1.0  0.54211  0.97139  0.10506  1.0000
  C   C866      1.0  0.83924  0.97350  0.02600  1.0000
  C   C867      1.0  0.77669  0.67975  0.11987  1.0000
  H   H697      1.0  0.51587  0.91707  0.00604  1.0000
  C   C868      1.0  0.86647  0.65361  0.23303  1.0000
  C   C869      1.0  0.70045  0.65191  0.32089  1.0000
  C   C870      1.0  0.83764  0.65598  0.14273  1.0000
  H   H698      1.0  0.72503  0.88400  0.99868  1.0000
  C   C871      1.0  0.77844  0.65265  0.14284  1.0000
  H   H699      1.0  0.85626  0.65539  0.48673  1.0000
  C   C872      1.0  0.90357  0.65074  0.08995  1.0000
  C   C873      1.0  0.49832  0.80387  0.51123  1.0000
  H   H700      1.0  0.52469  0.79590  0.56112  1.0000
  H   H701      1.0  0.60466  0.96608  0.63504  1.0000
  S   S118      1.0  0.50986  0.75721  0.70094  1.0000
  Fe  Fe60      1.0  0.73064  0.84106  0.83221  1.0000
  S   S119      1.0  0.68038  0.83206  0.85607  1.0000
  S   S120      1.0  0.77513  0.80769  0.84488  1.0000
  Fe  Fe61      1.0  0.71068  0.91110  0.80928  1.0000
  S   S121      1.0  0.66069  0.90588  0.83203  1.0000
  Fe  Fe62      1.0  0.68437  0.88268  0.88039  1.0000
  S   S122      1.0  0.66843  0.89330  0.93920  1.0000
  Fe  Fe63      1.0  0.66074  0.85645  0.80516  1.0000
  S   S123      1.0  0.61365  0.85500  0.77159  1.0000
  S   S124      1.0  0.73486  0.89071  0.85925  1.0000
  S   S125      1.0  0.71064  0.86285  0.77981  1.0000
  C   C874      1.0  0.49937  0.89248  0.81278  1.0000
  H   H702      1.0  0.67934  0.81667  0.97330  1.0000
  S   S126      1.0  0.86136  0.68444  0.78995  1.0000
  H   H703      1.0  0.51923  0.89072  0.61547  1.0000
  C   C875      1.0  0.64204  0.97594  0.59489  1.0000
  C   C876      1.0  0.56671  0.87072  0.85076  1.0000
  C   C877      1.0  0.67692  0.92993  0.96356  1.0000
  H   H704      1.0  0.54446  0.91741  0.92357  1.0000
  C   C878      1.0  0.69502  0.98208  0.76082  1.0000
  C   C879      1.0  0.79862  0.77329  0.82883  1.0000
  C   C880      1.0  0.82557  0.76245  0.84951  1.0000
  C   C881      1.0  0.84494  0.73552  0.83823  1.0000
  C   C882      1.0  0.83774  0.71878  0.80590  1.0000
  C   C883      1.0  0.81081  0.72962  0.78518  1.0000
  C   C884      1.0  0.79142  0.75656  0.79647  1.0000
  H   H705      1.0  0.83155  0.77501  0.87456  1.0000
  H   H706      1.0  0.86544  0.72772  0.85462  1.0000
  H   H707      1.0  0.80481  0.71704  0.76017  1.0000
  H   H708      1.0  0.77089  0.76434  0.78015  1.0000
  C   C885      1.0  0.53881  0.78428  0.72074  1.0000
  C   C886      1.0  0.56556  0.77173  0.74035  1.0000
  C   C887      1.0  0.58881  0.79282  0.75635  1.0000
  C   C888      1.0  0.58522  0.82669  0.75320  1.0000
  C   C889      1.0  0.55817  0.83912  0.73416  1.0000
  C   C890      1.0  0.53550  0.81811  0.71750  1.0000
  H   H709      1.0  0.56843  0.74557  0.74300  1.0000
  H   H710      1.0  0.60947  0.78286  0.77095  1.0000
  H   H711      1.0  0.55476  0.86524  0.73208  1.0000
  H   H712      1.0  0.51532  0.82815  0.70233  1.0000
  C   C891      1.0  0.72090  0.90536  0.50299  1.0000
  C   C892      1.0  0.52640  0.79782  0.53182  1.0000
  C   C893      1.0  0.69363  0.95591  0.94764  1.0000
  C   C894      1.0  0.60642  0.86106  0.61182  1.0000
  C   C895      1.0  0.59779  0.86051  0.64860  1.0000
  C   C896      1.0  0.61026  0.88408  0.67236  1.0000
  C   C897      1.0  0.63135  0.90812  0.65949  1.0000
  C   C898      1.0  0.64054  0.90860  0.62273  1.0000
  C   C899      1.0  0.62774  0.88502  0.59892  1.0000
  P   P30       1.0  0.66663  0.94069  0.60597  1.0000
  C   C900      1.0  0.69640  0.95132  0.64027  1.0000
  C   C901      1.0  0.68785  0.92655  0.56574  1.0000
  C   C902      1.0  0.71921  0.91287  0.56839  1.0000
  H   H713      1.0  0.73118  0.91031  0.59448  1.0000
  C   C903      1.0  0.52889  0.89697  0.58893  1.0000
  H   H714      1.0  0.53217  0.91648  0.69951  1.0000
  C   C904      1.0  0.67301  0.92904  0.53135  1.0000
  C   C905      1.0  0.70949  0.92711  0.66313  1.0000
  C   C906      1.0  0.73299  0.93520  0.68918  1.0000
  C   C907      1.0  0.74599  0.88755  0.98127  1.0000
  H   H715      1.0  0.49370  0.97268  0.89517  1.0000
  H   H716      1.0  0.63544  0.94140  0.89014  1.0000
  C   C908      1.0  0.78073  0.86867  0.93236  1.0000
  C   C909      1.0  0.52755  0.94185  0.69282  1.0000
  C   C910      1.0  0.79767  0.89825  0.93333  1.0000
  C   C911      1.0  0.91273  0.69257  0.69966  1.0000
  H   H717      1.0  0.64069  0.92615  0.67838  1.0000
  H   H718      1.0  0.53746  0.98255  0.49871  1.0000
  H   H719      1.0  0.59664  0.84280  0.59341  1.0000
  H   H720      1.0  0.58170  0.84165  0.65882  1.0000
  H   H721      1.0  0.60401  0.88356  0.70097  1.0000
  H   H722      1.0  0.60438  0.87155  0.51855  1.0000
  H   H723      1.0  0.63435  0.88494  0.57053  1.0000
  H   H724      1.0  0.62815  0.84297  0.99347  1.0000
  H   H725      1.0  0.78834  0.66596  0.52591  1.0000
  H   H726      1.0  0.58049  0.95053  0.54878  1.0000
  H   H727      1.0  0.62042  0.84544  0.91536  1.0000
  H   H728      1.0  0.64858  0.93885  0.52866  1.0000
  H   H729      1.0  0.70140  0.90201  0.66113  1.0000
  H   H730      1.0  0.74218  0.91677  0.70772  1.0000
  C   C912      1.0  0.50183  0.95010  0.66950  1.0000
  H   H731      1.0  0.74072  0.84113  0.95404  1.0000
  C   C913      1.0  0.55686  0.79446  0.51443  1.0000
  H   H732      1.0  0.75982  0.89181  0.53938  1.0000
  H   H733      1.0  0.89688  0.70594  0.71817  1.0000
  H   H734      1.0  0.87495  0.68363  0.66036  1.0000
  H   H735      1.0  0.56144  0.86664  0.82223  1.0000
  C   C914      1.0  0.53131  0.95410  0.83323  1.0000
  C   C915      1.0  0.74396  0.96734  0.69224  1.0000
  H   H736      1.0  0.76617  0.95069  0.89563  1.0000
  C   C916      1.0  0.48457  0.92118  0.88542  1.0000
  C   C917      1.0  0.53199  0.88664  0.52402  1.0000
  S   S127      1.0  0.72444  0.96084  0.78702  1.0000
  P   P31       1.0  0.51562  0.91589  0.85067  1.0000
  C   C918      1.0  0.58315  0.88202  0.92353  1.0000
  H   H737      1.0  0.65030  0.83497  0.50418  1.0000
  C   C919      1.0  0.53838  0.96170  0.98806  1.0000
  C   C920      1.0  0.73561  0.90230  0.53711  1.0000
  C   C921      1.0  0.66669  0.96654  0.74873  1.0000
  C   C922      1.0  0.56464  0.95730  0.82495  1.0000
  H   H738      1.0  0.57847  0.78987  0.53055  1.0000
  C   C923      1.0  0.96556  0.66899  0.68602  1.0000
  C   C924      1.0  0.49167  0.90776  0.77961  1.0000
  H   H739      1.0  0.58168  0.93759  0.83016  1.0000
  C   C925      1.0  0.54877  0.89350  0.87119  1.0000
  H   H740      1.0  0.50293  0.85865  0.56157  1.0000
  H   H741      1.0  0.66203  0.94147  0.75631  1.0000
  C   C926      1.0  0.92067  0.66179  0.64386  1.0000
  H   H742      1.0  0.91562  0.90529  0.94366  1.0000
  H   H743      1.0  0.52249  0.72291  0.52933  1.0000
  H   H744      1.0  0.86476  0.66976  0.55171  1.0000
  H   H745      1.0  0.50111  0.84587  0.84071  1.0000
  H   H746      1.0  0.56667  0.95991  0.72640  1.0000
  C   C927      1.0  0.94541  0.68747  0.70884  1.0000
  C   C928      1.0  0.49425  0.85865  0.81613  1.0000
  H   H747      1.0  0.78689  0.85028  0.91212  1.0000
  C   C929      1.0  0.90040  0.67985  0.66711  1.0000
  C   C930      1.0  0.62847  0.96667  0.89376  1.0000
  C   C931      1.0  0.56313  0.93077  0.55089  1.0000
  C   C932      1.0  0.54704  0.96628  0.70795  1.0000
  H   H748      1.0  0.64217  0.70468  0.49958  1.0000
  C   C933      1.0  0.51981  0.87875  0.55845  1.0000
  Fe  Fe64      1.0  0.90643  0.65655  0.81218  1.0000
  H   H749      1.0  0.95492  0.69695  0.73435  1.0000
  C   C934      1.0  0.76304  0.91705  0.98257  1.0000
  C   C935      1.0  0.91337  0.94926  0.91168  1.0000
  H   H750      1.0  0.81661  0.90234  0.91337  1.0000
  H   H751      1.0  0.59039  0.88706  0.95135  1.0000
  C   C936      1.0  0.55049  0.92301  0.58516  1.0000
  C   C937      1.0  0.85031  0.95707  0.94022  1.0000
  H   H752      1.0  0.62326  0.97077  0.71609  1.0000
  H   H753      1.0  0.55761  0.93688  0.60899  1.0000
  C   C938      1.0  0.55737  0.89930  0.90762  1.0000
  C   C939      1.0  0.86962  0.93017  0.95033  1.0000
  C   C940      1.0  0.55356  0.91292  0.51990  1.0000
  C   C941      1.0  0.89441  0.97620  0.90166  1.0000
  H   H754      1.0  0.76146  0.97369  0.71323  1.0000
  H   H755      1.0  0.70124  0.95413  0.91953  1.0000
  H   H756      1.0  0.49553  0.93356  0.77553  1.0000
  H   H757      1.0  0.60570  0.83554  0.85078  1.0000
  S   S128      1.0  0.95106  0.67842  0.83865  1.0000
  C   C942      1.0  0.59206  0.85311  0.86687  1.0000
  C   C943      1.0  0.60026  0.85868  0.90323  1.0000
  C   C944      1.0  0.61237  0.98153  0.61286  1.0000
  C   C945      1.0  0.86300  0.98014  0.91586  1.0000
  C   C946      1.0  0.78919  0.92257  0.95876  1.0000
  H   H758      1.0  0.59623  0.95532  0.93727  1.0000
  C   C947      1.0  0.95338  0.65610  0.65324  1.0000
  C   C948      1.0  0.68968  0.91884  0.50012  1.0000
  P   P32       1.0  0.80958  0.96166  0.95836  1.0000
  C   C949      1.0  0.50991  0.97983  0.82455  1.0000
  C   C950      1.0  0.75473  0.86344  0.95610  1.0000
  H   H759      1.0  0.86033  0.91208  0.96911  1.0000
  C   C951      1.0  0.76728  0.97664  0.90108  1.0000
  C   C952      1.0  0.60606  0.97478  0.92084  1.0000
  H   H760      1.0  0.68724  0.66640  0.51191  1.0000
  H   H761      1.0  0.51966  0.96625  0.96796  1.0000
  C   C953      1.0  0.90099  0.92627  0.93603  1.0000
  H   H762      1.0  0.93762  0.94614  0.90046  1.0000
  H   H763      1.0  0.52471  0.87199  0.50084  1.0000
  H   H764      1.0  0.48393  0.97763  0.82928  1.0000
  C   C954      1.0  0.51772  0.72089  0.50039  1.0000
  H   H765      1.0  0.48668  0.93074  0.65895  1.0000
  C   C955      1.0  0.64482  0.98311  0.72575  1.0000
  C   C956      1.0  0.97175  0.65357  0.55408  1.0000
  C   C957      1.0  0.56484  0.98315  0.99214  1.0000
  H   H766      1.0  0.96755  0.67063  0.49880  1.0000
  C   C958      1.0  0.96055  0.65197  0.51813  1.0000
  H   H767      1.0  0.91067  0.65186  0.61900  1.0000
  C   C959      1.0  0.49566  0.98295  0.66068  1.0000
  C   C960      1.0  0.70727  0.98366  0.64385  1.0000
  H   H768      1.0  0.79016  0.65347  0.59137  1.0000
