data_image0
_chemical_formula_structural       SFeCFeSFeHFeS2C2H9CHC3H2CH2C4HC8HC9HCHCH6CH6CHC2HC2H2CHPHSHCH3CH2C4HCPHC3H2C4HCHC2HPC2HC2SC2HC5SC4HC4H2C3H3CHC2H2SH3CHCH2C2HC2H2C3SC2H2SC2HCH4CS2CHC2HCH2C5HCHCHCFeSFeS2FeHFeS2H2CFeHSFeCFeHS2C2H5C2H2C5HCHCH3C2HSHCH4C3H2CHCHCH2CHSC2H2CHC2HCH2SCH2SC2FeHC3H2CHC3HCP2C7HCHC8H2CHCHCHC3HC2HSHC3HC2H2C2H2C2HC2HCHC2HSCHCHCFeS2FeHSFeCFeCS2HCHCH2C2PH2C2HCHC4HC2H2CHCHCH3CHC2H2C5HCHC4HC2HCHC3HCHC2HCH3CH2CH3C2HSCPHC8HC3HCHCHSHSC2HCHCH2C5H2C2HCHCH2CPHC2HSCHC4HC2HCH4CH2C3SH2C2H2C4FeCSFeS2FeHFeCS2HC7HCH3C2H2C2HC3PH2C3H4CH3C2HCHC3HCHC2PCH2C3PCHCHC2HC3H2CH4C2HC2H2C6HC3H3CH4CH2C3H7C3HCHCH2PCHCHCHCHC2HCH2C2HCSC3H3CH2SCH2C3SH2PC2H2CSFeCFeSC3FeSFeSCFeSFeS2H2C2SHSC4HC2HCHCHCSHPC2H2CSCH5CHCFeHCH3CHC2HC2H3C4HFeCHC2H2CHC2HCH2C2H2CH2C2HCH2C3HCH2CPHCHC2HSH2C2FeSCHSFeSFeC5FeC2HCHCHC2H3SH3C7H4C5H4C2HC3HCHCHC5HCH4SHC2H4C3HC7HSPC3HCH3C10H3C3H2CH5CH2C2H4CH2CH2C3H2C2HFeS2FeHSFeCFeCS2CHC2H2CH2C2HCSCH2PCH2C4HCH2CSC3H5CH3C2HC2HCH6C2HPC3PCSCHC2HC4H2CH3C2H2C2H2C2HC2HC3HC2HFeHC3H2C5HCHC5H2C2HCHC2H3C3H3FeSFeSCFeSFeS2FeHSFeCFeCS2CHCH3C2HCHC2HCPC2H2C2H2CHCH2C3H3CHSH2SCHC3H2C3H3C11SHC2HCHCH2CH3CH2C2HC8SC3H3CSHC2HCH2C4HCHC2H2CH3C3H2CH2PC2HC2HCH2CSCHS2CH2CFeSHFeSFeSFeC2HC2HCHC2H3C2H3CH2C2H3SCHCSCSHCHCH3PC9H4C2H4CHC2SH3CHC2H2CH2C3PHC7HCHC6SH2C3H2C4H4C3HCH2C4PC2HC4SCH2FeSFeHCS2C2H2C2H2C4HCHCHCHC3FeH4CH3C2H2CSPC4HSH2CHC3HC2FeSH6CH2CHC2H2C2SHC4HC9HCHC3HCH2CHCHCHC3H3CSHCHFeSFeSFeSFeCHSCHFeSFeS2FeHCSH2C2H2CH2C7H2CHCHC2H2C2HCH2CHSHCH3SHCSH6CH4C5H3C7HCHCHC2H3C2H9CH2CHCHCHC6PC3SHCHC3PHC5HSCH3C2H2C2HFeCSC3HFeHSFeS2FeCFeHS2CHC4HCSPCHCH3C2H2SC2HC2HC2H3CH3CHCH3S2CHC2HCHC2PHCHC2H2C2H3C2HC3H3CHC2HCH2C6PC3HC5H4CHCHC6HC5HPC5HC4HCH2CHC2H6C5HC2H3CHPH4C2SC2H2CSC2
_chemical_formula_sum              "S128 Fe64 C960 H768 P32"
_cell_length_a       35.7357
_cell_length_b       36.1987
_cell_length_c       51.0927
_cell_angle_alpha    90.1102
_cell_angle_beta     90.0765
_cell_angle_gamma    89.9894

_space_group_name_H-M_alt    "P 1"
_space_group_IT_number       1

loop_
  _space_group_symop_operation_xyz
  'x, y, z'

loop_
  _atom_site_type_symbol
  _atom_site_label
  _atom_site_symmetry_multiplicity
  _atom_site_fract_x
  _atom_site_fract_y
  _atom_site_fract_z
  _atom_site_occupancy
  S   S1        1.0  0.98254  0.04605  0.27507  1.0000
  Fe  Fe1       1.0  0.10292  0.02471  0.08122  1.0000
  C   C1        1.0  0.12103  0.46356  0.28301  1.0000
  Fe  Fe2       1.0  0.04834  0.09174  0.08478  1.0000
  S   S2        1.0  0.04812  0.15511  0.08799  1.0000
  Fe  Fe3       1.0  0.03275  0.02257  0.11700  1.0000
  H   H1        1.0  0.21214  0.41053  0.27056  1.0000
  Fe  Fe4       1.0  0.02400  0.01983  0.05611  1.0000
  S   S3        1.0  0.08255  0.06052  0.11472  1.0000
  S   S4        1.0  0.07226  0.05931  0.05090  1.0000
  C   C2        1.0  0.01960  0.24841  0.29196  1.0000
  C   C3        1.0  0.24925  0.09717  0.22381  1.0000
  H   H2        1.0  0.16675  0.10317  0.30021  1.0000
  H   H3        1.0  0.02734  0.07627  0.23349  1.0000
  H   H4        1.0  0.05381  0.38800  0.19749  1.0000
  H   H5        1.0  0.02352  0.15638  0.23379  1.0000
  H   H6        1.0  0.36045  0.00100  0.21809  1.0000
  H   H7        1.0  0.27160  0.44404  0.27648  1.0000
  H   H8        1.0  0.03416  0.47320  0.99467  1.0000
  H   H9        1.0  0.34236  0.04034  0.16876  1.0000
  H   H10       1.0  0.27119  0.08789  0.12003  1.0000
  C   C4        1.0  0.10011  0.41654  0.98289  1.0000
  H   H11       1.0  0.02709  0.22669  0.30552  1.0000
  C   C5        1.0  0.01629  0.22392  0.09409  1.0000
  C   C6        1.0  0.08809  0.25054  0.03480  1.0000
  C   C7        1.0  0.16967  0.05823  0.27292  1.0000
  H   H12       1.0  0.04411  0.23246  0.09982  1.0000
  H   H13       1.0  0.42090  0.04895  0.08587  1.0000
  C   C8        1.0  0.02691  0.39784  0.23471  1.0000
  H   H14       1.0  0.05205  0.32990  0.26802  1.0000
  H   H15       1.0  0.05252  0.39573  0.24590  1.0000
  C   C9        1.0  0.02647  0.17215  0.16024  1.0000
  C   C10       1.0  0.34249  0.46867  0.25613  1.0000
  C   C11       1.0  0.09046  0.40105  0.00699  1.0000
  C   C12       1.0  0.25440  0.44997  0.25950  1.0000
  H   H16       1.0  0.06738  0.41249  0.01821  1.0000
  C   C13       1.0  0.20893  0.46489  0.21628  1.0000
  C   C14       1.0  0.45099  0.99455  0.22776  1.0000
  C   C15       1.0  0.18600  0.09781  0.12743  1.0000
  C   C16       1.0  0.22425  0.09538  0.17956  1.0000
  C   C17       1.0  0.23086  0.13348  0.17723  1.0000
  C   C18       1.0  0.24591  0.15334  0.19828  1.0000
  C   C19       1.0  0.25504  0.13522  0.22157  1.0000
  C   C20       1.0  0.01011  0.46464  0.98333  1.0000
  H   H17       1.0  0.39535  0.05226  0.13068  1.0000
  C   C21       1.0  0.15905  0.12429  0.13446  1.0000
  C   C22       1.0  0.13997  0.14419  0.11516  1.0000
  C   C23       1.0  0.14714  0.13734  0.08873  1.0000
  C   C24       1.0  0.17364  0.11082  0.08158  1.0000
  C   C25       1.0  0.19298  0.09109  0.10083  1.0000
  C   C26       1.0  0.27393  0.05925  0.12580  1.0000
  C   C27       1.0  0.99538  0.19226  0.16870  1.0000
  C   C28       1.0  0.01116  0.05408  0.22503  1.0000
  C   C29       1.0  0.36211  0.47069  0.27989  1.0000
  H   H18       1.0  0.99705  0.33531  0.99591  1.0000
  C   C30       1.0  0.23905  0.98824  0.06743  1.0000
  H   H19       1.0  0.19128  0.47053  0.19950  1.0000
  C   C31       1.0  0.39741  0.41595  0.26806  1.0000
  H   H20       1.0  0.09668  0.22839  0.02185  1.0000
  H   H21       1.0  0.40219  0.99396  0.99455  1.0000
  H   H22       1.0  0.40533  0.44633  0.30370  1.0000
  H   H23       1.0  0.22481  0.14788  0.15916  1.0000
  H   H24       1.0  0.25069  0.18281  0.19647  1.0000
  H   H25       1.0  0.26686  0.15064  0.23782  1.0000
  C   C32       1.0  0.16830  0.03980  0.16276  1.0000
  H   H26       1.0  0.46686  0.08646  0.98163  1.0000
  H   H27       1.0  0.15184  0.12867  0.15480  1.0000
  H   H28       1.0  0.11837  0.16380  0.12056  1.0000
  H   H29       1.0  0.13111  0.15164  0.07382  1.0000
  H   H30       1.0  0.17804  0.10425  0.06111  1.0000
  H   H31       1.0  0.21182  0.06930  0.09475  1.0000
  C   C33       1.0  0.14611  0.04981  0.18432  1.0000
  H   H32       1.0  0.40493  0.14861  0.20930  1.0000
  C   C34       1.0  0.11397  0.02951  0.19036  1.0000
  C   C35       1.0  0.14975  0.03144  0.25891  1.0000
  H   H33       1.0  0.17170  0.42374  0.23218  1.0000
  C   C36       1.0  0.12609  0.02140  0.97958  1.0000
  C   C37       1.0  0.01763  0.13414  0.99076  1.0000
  H   H34       1.0  0.25692  0.08305  0.24172  1.0000
  H   H35       1.0  0.38371  0.39136  0.23091  1.0000
  C   C38       1.0  0.98749  0.25054  0.09246  1.0000
  H   H36       1.0  0.02679  0.19957  0.03795  1.0000
  P   P1        1.0  0.02787  0.26062  0.00067  1.0000
  H   H37       1.0  0.22991  0.04772  0.20476  1.0000
  S   S5        1.0  0.99816  0.05503  0.08818  1.0000
  H   H38       1.0  0.13386  0.24145  0.06152  1.0000
  C   C39       1.0  0.98577  0.03450  0.24097  1.0000
  H   H39       1.0  0.19979  0.05989  0.27105  1.0000
  H   H40       1.0  0.03323  0.46985  0.18575  1.0000
  H   H41       1.0  0.10558  0.27846  0.98598  1.0000
  C   C40       1.0  0.10353  0.99938  0.17485  1.0000
  H   H42       1.0  0.03542  0.06058  0.18636  1.0000
  H   H43       1.0  0.33859  0.15278  0.19518  1.0000
  C   C41       1.0  0.19795  0.43837  0.23459  1.0000
  C   C42       1.0  0.15079  0.08265  0.28962  1.0000
  C   C43       1.0  0.06611  0.30650  0.06929  1.0000
  C   C44       1.0  0.39388  0.06105  0.18566  1.0000
  H   H44       1.0  0.15311  0.47293  0.97967  1.0000
  C   C45       1.0  0.42112  0.03739  0.12732  1.0000
  P   P2        1.0  0.41951  0.01859  0.18045  1.0000
  H   H45       1.0  0.04634  0.11995  0.14561  1.0000
  C   C46       1.0  0.38942  0.44430  0.28575  1.0000
  C   C47       1.0  0.00958  0.18653  0.08807  1.0000
  C   C48       1.0  0.11177  0.08031  0.29241  1.0000
  H   H46       1.0  0.01459  0.10445  0.98863  1.0000
  H   H47       1.0  0.17860  0.47433  0.29284  1.0000
  C   C49       1.0  0.10928  0.25790  0.05725  1.0000
  C   C50       1.0  0.36050  0.03675  0.99814  1.0000
  C   C51       1.0  0.41126  0.09196  0.19704  1.0000
  C   C52       1.0  0.02465  0.18796  0.01852  1.0000
  H   H48       1.0  0.07766  0.13369  0.25922  1.0000
  C   C53       1.0  0.39128  0.12486  0.20053  1.0000
  H   H49       1.0  0.11436  0.29124  0.09209  1.0000
  C   C54       1.0  0.98125  0.27887  0.00497  1.0000
  C   C55       1.0  0.11051  0.37088  0.01664  1.0000
  H   H50       1.0  0.05371  0.18518  0.15930  1.0000
  P   P3        1.0  0.20645  0.06887  0.15236  1.0000
  C   C56       1.0  0.25097  0.00540  0.14884  1.0000
  C   C57       1.0  0.22078  0.43081  0.25614  1.0000
  H   H51       1.0  0.15282  0.07387  0.19601  1.0000
  C   C58       1.0  0.23393  0.07728  0.20288  1.0000
  C   C59       1.0  0.99325  0.40570  0.24754  1.0000
  S   S6        1.0  0.97625  0.36241  0.08803  1.0000
  C   C60       1.0  0.30525  0.03913  0.11756  1.0000
  C   C61       1.0  0.44789  0.44880  0.99423  1.0000
  H   H52       1.0  0.33466  0.43718  0.22046  1.0000
  C   C62       1.0  0.02751  0.39334  0.20723  1.0000
  C   C63       1.0  0.98156  0.14687  0.29307  1.0000
  C   C64       1.0  0.05098  0.13730  0.26888  1.0000
  C   C65       1.0  0.24613  0.04229  0.14104  1.0000
  C   C66       1.0  0.09829  0.28587  0.07449  1.0000
  S   S7        1.0  0.98414  0.99608  0.02414  1.0000
  C   C67       1.0  0.15713  0.01005  0.14695  1.0000
  C   C68       1.0  0.98697  0.11883  0.15250  1.0000
  C   C69       1.0  0.45625  0.01513  0.20478  1.0000
  C   C70       1.0  0.09198  0.05374  0.27788  1.0000
  H   H53       1.0  0.09635  0.03779  0.20655  1.0000
  C   C71       1.0  0.05551  0.27097  0.02950  1.0000
  C   C72       1.0  0.11090  0.02919  0.26145  1.0000
  C   C73       1.0  0.12512  0.98966  0.15313  1.0000
  C   C74       1.0  0.26529  0.47727  0.24152  1.0000
  H   H54       1.0  0.06181  0.05167  0.27954  1.0000
  H   H55       1.0  0.02084  0.13218  0.03288  1.0000
  C   C75       1.0  0.02231  0.13538  0.15245  1.0000
  C   C76       1.0  0.08619  0.47904  0.27713  1.0000
  C   C77       1.0  0.01594  0.04513  0.19825  1.0000
  H   H56       1.0  0.15606  0.33315  0.00990  1.0000
  H   H57       1.0  0.05720  0.32784  0.08287  1.0000
  H   H58       1.0  0.04081  0.98979  0.98191  1.0000
  C   C78       1.0  0.35629  0.06369  0.17775  1.0000
  H   H59       1.0  0.32606  0.05192  0.10513  1.0000
  C   C79       1.0  0.47233  0.99932  0.14266  1.0000
  C   C80       1.0  0.99636  0.01549  0.18714  1.0000
  H   H60       1.0  0.10312  0.35908  0.03540  1.0000
  H   H61       1.0  0.97869  0.29770  0.16144  1.0000
  S   S8        1.0  0.99059  0.41236  0.28210  1.0000
  H   H62       1.0  0.98442  0.09037  0.14614  1.0000
  H   H63       1.0  0.06210  0.46105  0.27481  1.0000
  H   H64       1.0  0.99324  0.27909  0.09723  1.0000
  C   C81       1.0  0.12757  0.01032  0.00572  1.0000
  H   H65       1.0  0.42362  0.44323  0.00621  1.0000
  C   C82       1.0  0.02115  0.14971  0.01568  1.0000
  H   H66       1.0  0.30762  0.09842  0.17484  1.0000
  H   H67       1.0  0.12379  0.43390  0.28523  1.0000
  C   C83       1.0  0.30945  0.00222  0.12497  1.0000
  C   C84       1.0  0.04687  0.12851  0.29551  1.0000
  H   H68       1.0  0.24237  0.01237  0.05521  1.0000
  C   C85       1.0  0.33646  0.09662  0.18117  1.0000
  C   C86       1.0  0.34834  0.07114  0.98907  1.0000
  H   H69       1.0  0.34552  0.02282  0.01370  1.0000
  H   H70       1.0  0.07086  0.27869  0.29757  1.0000
  C   C87       1.0  0.35392  0.12721  0.19259  1.0000
  C   C88       1.0  0.04483  0.29921  0.04688  1.0000
  C   C89       1.0  0.34975  0.43934  0.23880  1.0000
  S   S9        1.0  0.99793  0.39397  0.15732  1.0000
  C   C90       1.0  0.99458  0.39656  0.19216  1.0000
  C   C91       1.0  0.02043  0.15033  0.25443  1.0000
  H   H71       1.0  0.41949  0.39638  0.27246  1.0000
  H   H72       1.0  0.08281  0.19185  0.30531  1.0000
  S   S10       1.0  0.98614  0.43363  0.02982  1.0000
  C   C92       1.0  0.04415  0.27773  0.28753  1.0000
  C   C93       1.0  0.14027  0.35629  0.00222  1.0000
  H   H73       1.0  0.44020  0.09092  0.20319  1.0000
  C   C94       1.0  0.02485  0.21106  0.99651  1.0000
  H   H74       1.0  0.13348  0.03038  0.02089  1.0000
  H   H75       1.0  0.01972  0.31524  0.04367  1.0000
  H   H76       1.0  0.32385  0.08394  0.99767  1.0000
  H   H77       1.0  0.99861  0.22083  0.17460  1.0000
  C   C95       1.0  0.37737  0.41328  0.24466  1.0000
  S   S11       1.0  0.00405  0.00005  0.15419  1.0000
  S   S12       1.0  0.16543  0.01179  0.07215  1.0000
  C   C96       1.0  0.46811  0.01552  0.09679  1.0000
  H   H78       1.0  0.09521  0.00833  0.25082  1.0000
  C   C97       1.0  0.03350  0.30665  0.27106  1.0000
  C   C98       1.0  0.01208  0.13392  0.30753  1.0000
  H   H79       1.0  0.23044  0.99170  0.16095  1.0000
  C   C99       1.0  0.43547  0.03559  0.10186  1.0000
  H   H80       1.0  0.16433  0.01231  0.24615  1.0000
  H   H81       1.0  0.98955  0.33003  0.24781  1.0000
  C   C100      1.0  0.39226  0.02039  0.98727  1.0000
  C   C101      1.0  0.98567  0.15480  0.26649  1.0000
  C   C102      1.0  0.98093  0.44546  0.99592  1.0000
  C   C103      1.0  0.99814  0.30653  0.25940  1.0000
  C   C104      1.0  0.98438  0.24805  0.28010  1.0000
  H   H82       1.0  0.98279  0.29585  0.20929  1.0000
  C   C105      1.0  0.43966  0.01949  0.14799  1.0000
  H   H83       1.0  0.17254  0.00332  0.12937  1.0000
  C   C106      1.0  0.28244  0.98549  0.14071  1.0000
  H   H84       1.0  0.33317  0.98616  0.11810  1.0000
  C   C107      1.0  0.24253  0.48424  0.21965  1.0000
  Fe  Fe5       1.0  0.05406  0.34101  0.35469  1.0000
  S   S13       1.0  0.05491  0.27834  0.36081  1.0000
  Fe  Fe6       1.0  0.10849  0.40571  0.34365  1.0000
  S   S14       1.0  0.06043  0.44618  0.34007  1.0000
  S   S15       1.0  0.17074  0.41284  0.33197  1.0000
  Fe  Fe7       1.0  0.03633  0.41863  0.37626  1.0000
  H   H85       1.0  0.07124  0.03194  0.32578  1.0000
  Fe  Fe8       1.0  0.03062  0.40214  0.31661  1.0000
  S   S16       1.0  0.08608  0.38033  0.38100  1.0000
  S   S17       1.0  0.07958  0.36352  0.31784  1.0000
  H   H86       1.0  0.02584  0.03592  0.55650  1.0000
  H   H87       1.0  0.35697  0.23191  0.46883  1.0000
  C   C108      1.0  0.35297  0.25053  0.48521  1.0000
  Fe  Fe9       1.0  0.41882  0.09189  0.57957  1.0000
  H   H88       1.0  0.46627  0.15308  0.64078  1.0000
  S   S18       1.0  0.42258  0.15503  0.57427  1.0000
  Fe  Fe10      1.0  0.36016  0.02945  0.58834  1.0000
  C   C109      1.0  0.98006  0.25897  0.35288  1.0000
  Fe  Fe11      1.0  0.43653  0.02888  0.61807  1.0000
  H   H89       1.0  0.46286  0.07109  0.38478  1.0000
  S   S19       1.0  0.38956  0.07010  0.61545  1.0000
  S   S20       1.0  0.38628  0.05445  0.55202  1.0000
  C   C110      1.0  0.12852  0.05463  0.43051  1.0000
  C   C111      1.0  0.04757  0.05044  0.38869  1.0000
  H   H90       1.0  0.06481  0.00482  0.48034  1.0000
  H   H91       1.0  0.30024  0.22652  0.49651  1.0000
  H   H92       1.0  0.03202  0.34668  0.41979  1.0000
  H   H93       1.0  0.18564  0.16745  0.36822  1.0000
  H   H94       1.0  0.13497  0.04524  0.38911  1.0000
  C   C112      1.0  0.45255  0.22480  0.58018  1.0000
  C   C113      1.0  0.46053  0.18680  0.57796  1.0000
  H   H95       1.0  0.40490  0.39009  0.62375  1.0000
  H   H96       1.0  0.42372  0.23383  0.58015  1.0000
  C   C114      1.0  0.19583  0.02372  0.51720  1.0000
  C   C115      1.0  0.42071  0.40065  0.45363  1.0000
  C   C116      1.0  0.01623  0.24741  0.35950  1.0000
  C   C117      1.0  0.02232  0.20986  0.36507  1.0000
  C   C118      1.0  0.40896  0.39172  0.55717  1.0000
  H   H97       1.0  0.05007  0.20085  0.37056  1.0000
  C   C119      1.0  0.02887  0.45900  0.58789  1.0000
  H   H98       1.0  0.03577  0.44118  0.50005  1.0000
  C   C120      1.0  0.01313  0.45278  0.63373  1.0000
  H   H99       1.0  0.04498  0.10452  0.40610  1.0000
  H   H100      1.0  0.00615  0.41775  0.56217  1.0000
  H   H101      1.0  0.03771  0.03642  0.40612  1.0000
  C   C121      1.0  0.24510  0.43425  0.33111  1.0000
  C   C122      1.0  0.20923  0.44180  0.34133  1.0000
  H   H102      1.0  0.15070  0.11498  0.34905  1.0000
  S   S21       1.0  0.46702  0.05253  0.58313  1.0000
  H   H103      1.0  0.24883  0.41063  0.31840  1.0000
  C   C123      1.0  0.99041  0.40786  0.60234  1.0000
  H   H104      1.0  0.43976  0.25988  0.52291  1.0000
  H   H105      1.0  0.04362  0.42757  0.45261  1.0000
  H   H106      1.0  0.17368  0.04314  0.52154  1.0000
  H   H107      1.0  0.45057  0.35541  0.47058  1.0000
  C   C124      1.0  0.06338  0.10690  0.36597  1.0000
  C   C125      1.0  0.05168  0.08878  0.38866  1.0000
  C   C126      1.0  0.14386  0.14289  0.34312  1.0000
  H   H108      1.0  0.33740  0.31788  0.54333  1.0000
  H   H109      1.0  0.02399  0.27916  0.41396  1.0000
  C   C127      1.0  0.46177  0.47775  0.49516  1.0000
  H   H110      1.0  0.30367  0.45012  0.32960  1.0000
  C   C128      1.0  0.99275  0.18406  0.36397  1.0000
  H   H111      1.0  0.02770  0.28084  0.62992  1.0000
  C   C129      1.0  0.13668  0.03317  0.40847  1.0000
  H   H112      1.0  0.05054  0.00056  0.36593  1.0000
  H   H113      1.0  0.21754  0.03272  0.60598  1.0000
  C   C130      1.0  0.16353  0.17251  0.35415  1.0000
  H   H114      1.0  0.23716  0.05502  0.53872  1.0000
  S   S22       1.0  0.29565  0.02281  0.59366  1.0000
  C   C131      1.0  0.04840  0.02682  0.54389  1.0000
  C   C132      1.0  0.08326  0.01783  0.55458  1.0000
  H   H115      1.0  0.16053  0.99415  0.59982  1.0000
  H   H116      1.0  0.38589  0.44571  0.44095  1.0000
  C   C133      1.0  0.00056  0.33215  0.63991  1.0000
  H   H117      1.0  0.40438  0.27974  0.47846  1.0000
  C   C134      1.0  0.06660  0.04826  0.34317  1.0000
  C   C135      1.0  0.01670  0.45334  0.48606  1.0000
  H   H118      1.0  0.99755  0.15550  0.36907  1.0000
  C   C136      1.0  0.31557  0.27190  0.52168  1.0000
  H   H119      1.0  0.12069  0.08336  0.42824  1.0000
  H   H120      1.0  0.44154  0.00298  0.43367  1.0000
  S   S23       1.0  0.00337  0.37732  0.35229  1.0000
  C   C137      1.0  0.42708  0.37395  0.47288  1.0000
  H   H121      1.0  0.00826  0.12776  0.32796  1.0000
  H   H122      1.0  0.41401  0.41118  0.54149  1.0000
  S   S24       1.0  0.00187  0.45329  0.40592  1.0000
  C   C138      1.0  0.37986  0.27749  0.49082  1.0000
  C   C139      1.0  0.10608  0.00106  0.51141  1.0000
  Fe  Fe12      1.0  0.43327  0.01337  0.55787  1.0000
  H   H123      1.0  0.06601  0.13666  0.36630  1.0000
  C   C140      1.0  0.00385  0.29364  0.63939  1.0000
  C   C141      1.0  0.25539  0.99384  0.58806  1.0000
  C   C142      1.0  0.00036  0.29609  0.41974  1.0000
  H   H124      1.0  0.16834  0.23186  0.35673  1.0000
  H   H125      1.0  0.39931  0.32298  0.61494  1.0000
  C   C143      1.0  0.27637  0.45656  0.33751  1.0000
  H   H126      1.0  0.34244  0.44060  0.47866  1.0000
  C   C144      1.0  0.13026  0.03899  0.45550  1.0000
  C   C145      1.0  0.32096  0.24756  0.50076  1.0000
  C   C146      1.0  0.00872  0.42688  0.58228  1.0000
  H   H127      1.0  0.29054  0.26986  0.53353  1.0000
  C   C147      1.0  0.37531  0.30114  0.51239  1.0000
  P   P4        1.0  0.08639  0.11110  0.31391  1.0000
  P   P5        1.0  0.41005  0.33608  0.51910  1.0000
  C   C148      1.0  0.07086  0.08688  0.34296  1.0000
  C   C149      1.0  0.40322  0.37144  0.49465  1.0000
  C   C150      1.0  0.02125  0.44552  0.45906  1.0000
  C   C151      1.0  0.34243  0.29889  0.52734  1.0000
  C   C152      1.0  0.39036  0.42476  0.45579  1.0000
  C   C153      1.0  0.36607  0.42199  0.47711  1.0000
  C   C154      1.0  0.37229  0.39525  0.49639  1.0000
  H   H128      1.0  0.40121  0.29953  0.56953  1.0000
  C   C155      1.0  0.12496  0.21544  0.32990  1.0000
  H   H129      1.0  0.35304  0.39317  0.51267  1.0000
  C   C156      1.0  0.05507  0.03019  0.36599  1.0000
  C   C157      1.0  0.03099  0.47198  0.61359  1.0000
  C   C158      1.0  0.40553  0.35377  0.55200  1.0000
  C   C159      1.0  0.40203  0.32905  0.57302  1.0000
  C   C160      1.0  0.40089  0.34222  0.59878  1.0000
  C   C161      1.0  0.40387  0.38010  0.60375  1.0000
  C   C162      1.0  0.40794  0.40481  0.58294  1.0000
  C   C163      1.0  0.45669  0.31709  0.51804  1.0000
  H   H130      1.0  0.02234  0.34873  0.63107  1.0000
  H   H131      1.0  0.97821  0.38566  0.43191  1.0000
  C   C164      1.0  0.00490  0.33413  0.42300  1.0000
  H   H132      1.0  0.12410  0.05602  0.47242  1.0000
  C   C165      1.0  0.11166  0.00407  0.53852  1.0000
  H   H133      1.0  0.08780  0.02004  0.57549  1.0000
  C   C166      1.0  0.44419  0.08515  0.44930  1.0000
  H   H134      1.0  0.28890  0.01196  0.52886  1.0000
  C   C167      1.0  0.21987  0.00607  0.59651  1.0000
  C   C168      1.0  0.26117  0.00666  0.52099  1.0000
  C   C169      1.0  0.15390  0.20879  0.34766  1.0000
  H   H135      1.0  0.43962  0.40308  0.43712  1.0000
  C   C170      1.0  0.07071  0.00931  0.50090  1.0000
  C   C171      1.0  0.99729  0.46141  0.44050  1.0000
  H   H136      1.0  0.41208  0.43398  0.58678  1.0000
  S   S25       1.0  0.41855  0.47626  0.35462  1.0000
  H   H137      1.0  0.01452  0.02765  0.50904  1.0000
  C   C172      1.0  0.04207  0.02231  0.51710  1.0000
  C   C173      1.0  0.23189  0.03095  0.52660  1.0000
  C   C174      1.0  0.45665  0.98621  0.44759  1.0000
  H   H138      1.0  0.13766  0.99513  0.54739  1.0000
  C   C175      1.0  0.99296  0.42039  0.62832  1.0000
  C   C176      1.0  0.46281  0.27888  0.52027  1.0000
  H   H139      1.0  0.40953  0.08235  0.41484  1.0000
  H   H140      1.0  0.17778  0.47880  0.36583  1.0000
  C   C177      1.0  0.43780  0.08120  0.42246  1.0000
  C   C178      1.0  0.98800  0.47691  0.49512  1.0000
  H   H141      1.0  0.42090  0.08942  0.46253  1.0000
  H   H142      1.0  0.43177  0.01300  0.48143  1.0000
  C   C179      1.0  0.14691  0.99614  0.41142  1.0000
  C   C180      1.0  0.11466  0.14936  0.32525  1.0000
  H   H143      1.0  0.40697  0.18277  0.62880  1.0000
  C   C181      1.0  0.46783  0.07490  0.40554  1.0000
  C   C182      1.0  0.45101  0.99197  0.47475  1.0000
  H   H144      1.0  0.47470  0.28022  0.58450  1.0000
  C   C183      1.0  0.13974  0.00160  0.45856  1.0000
  H   H145      1.0  0.39578  0.24872  0.63952  1.0000
  C   C184      1.0  0.18858  0.99143  0.50273  1.0000
  C   C185      1.0  0.42796  0.19848  0.63941  1.0000
  H   H146      1.0  0.04169  0.47453  0.57213  1.0000
  S   S26       1.0  0.40588  0.98661  0.59320  1.0000
  C   C186      1.0  0.20505  0.47239  0.35787  1.0000
  H   H147      1.0  0.11684  0.24365  0.32556  1.0000
  C   C187      1.0  0.10555  0.18590  0.31858  1.0000
  H   H148      1.0  0.30992  0.39338  0.80495  1.0000
  C   C188      1.0  0.23057  0.42321  0.76278  1.0000
  Fe  Fe13      1.0  0.36561  0.40630  0.85759  1.0000
  S   S27       1.0  0.41765  0.44158  0.85438  1.0000
  S   S28       1.0  0.31013  0.43928  0.86234  1.0000
  Fe  Fe14      1.0  0.41402  0.33513  0.85857  1.0000
  H   H149      1.0  0.18715  0.40495  0.82349  1.0000
  S   S29       1.0  0.41056  0.27167  0.85595  1.0000
  Fe  Fe15      1.0  0.44222  0.40587  0.88612  1.0000
  C   C189      1.0  0.32964  0.46747  0.79654  1.0000
  Fe  Fe16      1.0  0.43908  0.40008  0.82480  1.0000
  C   C190      1.0  0.18481  0.40388  0.92453  1.0000
  S   S30       1.0  0.38969  0.37171  0.89053  1.0000
  S   S31       1.0  0.38586  0.36724  0.82600  1.0000
  H   H150      1.0  0.13627  0.47827  0.89601  1.0000
  C   C191      1.0  0.01921  0.41242  0.69180  1.0000
  H   H151      1.0  0.30084  0.35518  0.72509  1.0000
  C   C192      1.0  0.03827  0.39628  0.90269  1.0000
  H   H152      1.0  0.42843  0.35372  0.70710  1.0000
  H   H153      1.0  0.17224  0.42103  0.77362  1.0000
  C   C193      1.0  0.42170  0.23565  0.64541  1.0000
  C   C194      1.0  0.44070  0.20151  0.85068  1.0000
  P   P6        1.0  0.30759  0.42656  0.75280  1.0000
  H   H154      1.0  0.41294  0.19367  0.84433  1.0000
  H   H155      1.0  0.42439  0.01631  0.91666  1.0000
  C   C195      1.0  0.25113  0.41336  0.91646  1.0000
  C   C196      1.0  0.01764  0.15692  0.96868  1.0000
  H   H156      1.0  0.44857  0.23023  0.92481  1.0000
  C   C197      1.0  0.26160  0.44610  0.75809  1.0000
  H   H157      1.0  0.42655  0.36724  0.75492  1.0000
  C   C198      1.0  0.31275  0.45352  0.67484  1.0000
  C   C199      1.0  0.26139  0.44525  0.85460  1.0000
  C   C200      1.0  0.44788  0.23869  0.85729  1.0000
  C   C201      1.0  0.04737  0.39144  0.87636  1.0000
  H   H158      1.0  0.39968  0.08931  0.83652  1.0000
  C   C202      1.0  0.04849  0.28099  0.97179  1.0000
  C   C203      1.0  0.98081  0.41096  0.68597  1.0000
  H   H159      1.0  0.36796  0.39135  0.72307  1.0000
  H   H160      1.0  0.30659  0.32906  0.82028  1.0000
  C   C204      1.0  0.24264  0.47721  0.86348  1.0000
  H   H161      1.0  0.42313  0.42530  0.95913  1.0000
  C   C205      1.0  0.41799  0.28685  0.78327  1.0000
  H   H162      1.0  0.38489  0.24416  0.90872  1.0000
  C   C206      1.0  0.08026  0.31081  0.92620  1.0000
  H   H163      1.0  0.37460  0.25748  0.76274  1.0000
  H   H164      1.0  0.39881  0.30004  0.79673  1.0000
  H   H165      1.0  0.22375  0.32912  0.89413  1.0000
  C   C207      1.0  0.44869  0.37248  0.71550  1.0000
  H   H166      1.0  0.35522  0.12966  0.91533  1.0000
  C   C208      1.0  0.40279  0.03502  0.85350  1.0000
  C   C209      1.0  0.42925  0.24446  0.74748  1.0000
  H   H167      1.0  0.41874  0.22540  0.73284  1.0000
  H   H168      1.0  0.13314  0.30438  0.94587  1.0000
  C   C210      1.0  0.34074  0.45273  0.77229  1.0000
  C   C211      1.0  0.44750  0.43857  0.96745  1.0000
  C   C212      1.0  0.19587  0.43869  0.76919  1.0000
  C   C213      1.0  0.40216  0.48042  0.77846  1.0000
  C   C214      1.0  0.18760  0.36854  0.91327  1.0000
  H   H169      1.0  0.33808  0.19399  0.90441  1.0000
  C   C215      1.0  0.30306  0.34991  0.74587  1.0000
  H   H170      1.0  0.17287  0.35980  0.96716  1.0000
  C   C216      1.0  0.00852  0.47297  0.95628  1.0000
  C   C217      1.0  0.22183  0.35599  0.90338  1.0000
  C   C218      1.0  0.45643  0.29350  0.78546  1.0000
  C   C219      1.0  0.06620  0.40468  0.92093  1.0000
  H   H171      1.0  0.03977  0.40642  0.67683  1.0000
  C   C220      1.0  0.32108  0.42882  0.71869  1.0000
  C   C221      1.0  0.24083  0.41924  0.84021  1.0000
  H   H172      1.0  0.25430  0.39423  0.83356  1.0000
  C   C222      1.0  0.14237  0.47056  0.93789  1.0000
  H   H173      1.0  0.41395  0.12162  0.87754  1.0000
  C   C223      1.0  0.41210  0.09181  0.87778  1.0000
  C   C224      1.0  0.47483  0.09421  0.93985  1.0000
  C   C225      1.0  0.41165  0.14326  0.92747  1.0000
  H   H174      1.0  0.30156  0.27755  0.78841  1.0000
  C   C226      1.0  0.30733  0.37913  0.76380  1.0000
  H   H175      1.0  0.14057  0.40871  0.87924  1.0000
  C   C227      1.0  0.10313  0.30082  0.94723  1.0000
  C   C228      1.0  0.10366  0.40854  0.91294  1.0000
  H   H176      1.0  0.23315  0.39345  0.76217  1.0000
  C   C229      1.0  0.18391  0.45761  0.84312  1.0000
  H   H177      1.0  0.01393  0.46425  0.65327  1.0000
  H   H178      1.0  0.01445  0.43883  0.75577  1.0000
  H   H179      1.0  0.06096  0.42462  0.72110  1.0000
  C   C230      1.0  0.43778  0.17211  0.93018  1.0000
  H   H180      1.0  0.30187  0.46238  0.80421  1.0000
  H   H181      1.0  0.41723  0.02569  0.69368  1.0000
  C   C231      1.0  0.42793  0.20832  0.92364  1.0000
  H   H182      1.0  0.38843  0.39651  0.67710  1.0000
  H   H183      1.0  0.21578  0.45355  0.93460  1.0000
  H   H184      1.0  0.27996  0.36933  0.89666  1.0000
  C   C232      1.0  0.41820  0.07168  0.90095  1.0000
  C   C233      1.0  0.36566  0.18786  0.91204  1.0000
  H   H185      1.0  0.29853  0.29094  0.74078  1.0000
  S   S32       1.0  0.47383  0.38055  0.66446  1.0000
  C   C234      1.0  0.41021  0.01471  0.87614  1.0000
  P   P7        1.0  0.42557  0.09546  0.93185  1.0000
  H   H186      1.0  0.46132  0.14806  0.74943  1.0000
  C   C235      1.0  0.36376  0.41136  0.68367  1.0000
  C   C236      1.0  0.11236  0.40426  0.88630  1.0000
  C   C237      1.0  0.40400  0.07357  0.85430  1.0000
  C   C238      1.0  0.41800  0.03288  0.89972  1.0000
  C   C239      1.0  0.44758  0.38003  0.74272  1.0000
  C   C240      1.0  0.30561  0.33481  0.79947  1.0000
  C   C241      1.0  0.39197  0.21619  0.91452  1.0000
  C   C242      1.0  0.04159  0.30576  0.92781  1.0000
  H   H187      1.0  0.38759  0.44784  0.74531  1.0000
  C   C243      1.0  0.44429  0.02600  0.70320  1.0000
  C   C244      1.0  0.20251  0.42538  0.83460  1.0000
  C   C245      1.0  0.37542  0.15155  0.91843  1.0000
  H   H188      1.0  0.39739  0.02098  0.83513  1.0000
  C   C246      1.0  0.44671  0.02688  0.73085  1.0000
  H   H189      1.0  0.09241  0.32240  0.90860  1.0000
  C   C247      1.0  0.30279  0.30582  0.78151  1.0000
  H   H190      1.0  0.44448  0.28492  0.66315  1.0000
  S   S33       1.0  0.13554  0.46404  0.83448  1.0000
  H   H191      1.0  0.02062  0.21240  0.95418  1.0000
  S   S34       1.0  0.47250  0.41706  0.78798  1.0000
  C   C248      1.0  0.35217  0.40863  0.70973  1.0000
  C   C249      1.0  0.03134  0.42242  0.71689  1.0000
  H   H192      1.0  0.35821  0.11598  0.96281  1.0000
  C   C250      1.0  0.30775  0.37132  0.79067  1.0000
  H   H193      1.0  0.09131  0.39337  0.84756  1.0000
  C   C251      1.0  0.46910  0.17432  0.85226  1.0000
  H   H194      1.0  0.29753  0.47096  0.66128  1.0000
  H   H195      1.0  0.16317  0.35102  0.91166  1.0000
  C   C252      1.0  0.02116  0.19527  0.97150  1.0000
  C   C253      1.0  0.36783  0.08914  0.96904  1.0000
  C   C254      1.0  0.30130  0.31338  0.75471  1.0000
  C   C255      1.0  0.39948  0.07261  0.95765  1.0000
  C   C256      1.0  0.40438  0.26257  0.76423  1.0000
  H   H196      1.0  0.02552  0.38590  0.86215  1.0000
  H   H197      1.0  0.27568  0.43099  0.91707  1.0000
  C   C257      1.0  0.25354  0.37848  0.90489  1.0000
  C   C258      1.0  0.08440  0.39549  0.86817  1.0000
  H   H198      1.0  0.11786  0.00387  0.93967  1.0000
  C   C259      1.0  0.21695  0.42611  0.92622  1.0000
  H   H199      1.0  0.42127  0.02768  0.74228  1.0000
  C   C260      1.0  0.08735  0.28606  0.96999  1.0000
  H   H200      1.0  0.05791  0.40867  0.94099  1.0000
  H   H201      1.0  0.99575  0.28651  0.95110  1.0000
  C   C261      1.0  0.02574  0.29073  0.95042  1.0000
  P   P8        1.0  0.14012  0.42077  0.93608  1.0000
  H   H202      1.0  0.27721  0.46692  0.70723  1.0000
  C   C262      1.0  0.00523  0.43014  0.73648  1.0000
  C   C263      1.0  0.14969  0.37152  0.97793  1.0000
  H   H203      1.0  0.00931  0.39460  0.90888  1.0000
  S   S35       1.0  0.02829  0.46843  0.83956  1.0000
  C   C264      1.0  0.19189  0.47698  0.77102  1.0000
  H   H204      1.0  0.08473  0.44024  0.97583  1.0000
  C   C265      1.0  0.44909  0.25596  0.65865  1.0000
  C   C266      1.0  0.46773  0.25056  0.74988  1.0000
  C   C267      1.0  0.30131  0.45114  0.70098  1.0000
  C   C268      1.0  0.34406  0.43380  0.66623  1.0000
  H   H205      1.0  0.47111  0.18135  0.70792  1.0000
  C   C269      1.0  0.37743  0.45919  0.76349  1.0000
  C   C270      1.0  0.12928  0.40150  0.96788  1.0000
  H   H206      1.0  0.46626  0.31224  0.80053  1.0000
  C   C271      1.0  0.46191  0.18172  0.64609  1.0000
  H   H207      1.0  0.43649  0.02525  0.95940  1.0000
  H   H208      1.0  0.25816  0.98634  0.64983  1.0000
  H   H209      1.0  0.46617  0.16687  0.93652  1.0000
  H   H210      1.0  0.46317  0.14601  0.84690  1.0000
  C   C272      1.0  0.11945  0.99531  0.95995  1.0000
  H   H211      1.0  0.02385  0.31339  0.91146  1.0000
  H   H212      1.0  0.01456  0.14480  0.94938  1.0000
  C   C273      1.0  0.41158  0.03817  0.96714  1.0000
  C   C274      1.0  0.47335  0.40454  0.75399  1.0000
  C   C275      1.0  0.97731  0.46266  0.94138  1.0000
  S   S36       1.0  0.46774  0.36685  0.85629  1.0000
  H   H213      1.0  0.13001  0.05019  0.97457  1.0000
  H   H214      1.0  0.35325  0.43608  0.64609  1.0000
  C   C276      1.0  0.20431  0.48339  0.85782  1.0000
  C   C277      1.0  0.97657  0.27164  0.65123  1.0000
  H   H215      1.0  0.97920  0.24180  0.65087  1.0000
  H   H216      1.0  0.41068  0.98482  0.87543  1.0000
  C   C278      1.0  0.02146  0.64897  0.27748  1.0000
  C   C279      1.0  0.38375  0.59276  0.01430  1.0000
  C   C280      1.0  0.36041  0.57763  0.03344  1.0000
  C   C281      1.0  0.08672  0.86644  0.04818  1.0000
  Fe  Fe17      1.0  0.42719  0.83210  0.07766  1.0000
  C   C282      1.0  0.45889  0.54221  0.21673  1.0000
  S   S37       1.0  0.42857  0.76864  0.07250  1.0000
  Fe  Fe18      1.0  0.36906  0.89480  0.08775  1.0000
  S   S38       1.0  0.41498  0.93705  0.09231  1.0000
  S   S39       1.0  0.30584  0.90446  0.09634  1.0000
  Fe  Fe19      1.0  0.44159  0.91101  0.05638  1.0000
  H   H217      1.0  0.14091  0.82307  0.99961  1.0000
  Fe  Fe20      1.0  0.44607  0.89451  0.11644  1.0000
  C   C283      1.0  0.98043  0.50220  0.30015  1.0000
  S   S40       1.0  0.39401  0.87026  0.05088  1.0000
  S   S41       1.0  0.39892  0.85365  0.11403  1.0000
  H   H218      1.0  0.22820  0.90215  0.11138  1.0000
  C   C284      1.0  0.23145  0.92617  0.09902  1.0000
  C   C285      1.0  0.26694  0.93393  0.08825  1.0000
  C   C286      1.0  0.43880  0.65998  0.20632  1.0000
  C   C287      1.0  0.06190  0.86205  0.06912  1.0000
  C   C288      1.0  0.31428  0.57905  0.18825  1.0000
  C   C289      1.0  0.22436  0.84813  0.02623  1.0000
  C   C290      1.0  0.40957  0.63360  0.25378  1.0000
  H   H219      1.0  0.12233  0.96541  0.03284  1.0000
  C   C291      1.0  0.04850  0.91630  0.03144  1.0000
  H   H220      1.0  0.11089  0.57006  0.27937  1.0000
  H   H221      1.0  0.07270  0.58131  0.23067  1.0000
  H   H222      1.0  0.37164  0.60926  0.99878  1.0000
  C   C292      1.0  0.45211  0.89412  0.22978  1.0000
  C   C293      1.0  0.45083  0.89524  0.20208  1.0000
  H   H223      1.0  0.42689  0.88789  0.24058  1.0000
  H   H224      1.0  0.42492  0.88961  0.19192  1.0000
  C   C294      1.0  0.20011  0.94913  0.09410  1.0000
  C   C295      1.0  0.45043  0.65371  0.98829  1.0000
  H   H225      1.0  0.46023  0.65356  0.27132  1.0000
  C   C296      1.0  0.18411  0.90149  0.02113  1.0000
  C   C297      1.0  0.40347  0.64299  0.20702  1.0000
  C   C298      1.0  0.45454  0.69673  0.07541  1.0000
  P   P9        1.0  0.45917  0.67423  0.17551  1.0000
  H   H226      1.0  0.37684  0.49977  0.21444  1.0000
  H   H227      1.0  0.42548  0.68921  0.07294  1.0000
  C   C299      1.0  0.30122  0.53575  0.27363  1.0000
  C   C300      1.0  0.43096  0.65760  0.14857  1.0000
  C   C301      1.0  0.03862  0.58621  0.26547  1.0000
  H   H228      1.0  0.34240  0.61231  0.30013  1.0000
  H   H229      1.0  0.39879  0.62302  0.27211  1.0000
  H   H230      1.0  0.04312  0.69207  0.25273  1.0000
  H   H231      1.0  0.11628  0.96714  0.14054  1.0000
  C   C302      1.0  0.15602  0.87918  0.01001  1.0000
  H   H232      1.0  0.33054  0.58258  0.03273  1.0000
  H   H233      1.0  0.99875  0.92877  0.05346  1.0000
  H   H234      1.0  0.06386  0.49202  0.22601  1.0000
  C   C303      1.0  0.08014  0.89362  0.02909  1.0000
  C   C304      1.0  0.01963  0.61091  0.28202  1.0000
  H   H235      1.0  0.29724  0.97166  0.06369  1.0000
  C   C305      1.0  0.43176  0.67396  0.00781  1.0000
  H   H236      1.0  0.31417  0.90074  0.18671  1.0000
  C   C306      1.0  0.06031  0.63811  0.23946  1.0000
  C   C307      1.0  0.27024  0.53338  0.29048  1.0000
  C   C308      1.0  0.45911  0.66394  0.22972  1.0000
  H   H237      1.0  0.04304  0.93770  0.01721  1.0000
  C   C309      1.0  0.12165  0.97333  0.01239  1.0000
  H   H238      1.0  0.31461  0.95000  0.22064  1.0000
  C   C310      1.0  0.44443  0.65089  0.25332  1.0000
  C   C311      1.0  0.97640  0.52699  0.23622  1.0000
  P   P10       1.0  0.03617  0.53696  0.27050  1.0000
  C   C312      1.0  0.37862  0.66557  0.11865  1.0000
  H   H239      1.0  0.00684  0.66792  0.29035  1.0000
  H   H240      1.0  0.25047  0.50443  0.20515  1.0000
  C   C313      1.0  0.42248  0.58622  0.01496  1.0000
  C   C314      1.0  0.40058  0.67857  0.13939  1.0000
  C   C315      1.0  0.33440  0.92301  0.18573  1.0000
  P   P11       1.0  0.45148  0.60379  0.98896  1.0000
  C   C316      1.0  0.38705  0.95204  0.16418  1.0000
  H   H241      1.0  0.44955  0.90630  0.98075  1.0000
  C   C317      1.0  0.01752  0.48604  0.19984  1.0000
  H   H242      1.0  0.44047  0.75975  0.29123  1.0000
  C   C318      1.0  0.32714  0.56448  0.27716  1.0000
  C   C319      1.0  0.36045  0.92377  0.16541  1.0000
  H   H243      1.0  0.35185  0.56609  0.26496  1.0000
  C   C320      1.0  0.11343  0.54030  0.27964  1.0000
  C   C321      1.0  0.41396  0.54840  0.05366  1.0000
  C   C322      1.0  0.05857  0.60004  0.24396  1.0000
  H   H244      1.0  0.25016  0.51121  0.28885  1.0000
  H   H245      1.0  0.46707  0.55764  0.03534  1.0000
  C   C323      1.0  0.43356  0.71255  0.00808  1.0000
  H   H246      1.0  0.45635  0.76111  0.98990  1.0000
  H   H247      1.0  0.00308  0.60103  0.29829  1.0000
  H   H248      1.0  0.36015  0.90228  0.15063  1.0000
  H   H249      1.0  0.46093  0.60586  0.14437  1.0000
  C   C324      1.0  0.14825  0.52467  0.28553  1.0000
  C   C325      1.0  0.41560  0.60964  0.11700  1.0000
  H   H250      1.0  0.36200  0.61625  0.23097  1.0000
  C   C326      1.0  0.04186  0.66258  0.25626  1.0000
  C   C327      1.0  0.38622  0.63117  0.10738  1.0000
  H   H251      1.0  0.42558  0.52998  0.06827  1.0000
  H   H252      1.0  0.07580  0.64864  0.22285  1.0000
  C   C328      1.0  0.98355  0.97758  0.99127  1.0000
  C   C329      1.0  0.02331  0.91128  0.05203  1.0000
  C   C330      1.0  0.37552  0.55527  0.05306  1.0000
  C   C331      1.0  0.03463  0.49833  0.22291  1.0000
  C   C332      1.0  0.45447  0.73122  0.98921  1.0000
  C   C333      1.0  0.33459  0.95082  0.20474  1.0000
  H   H253      1.0  0.35749  0.54268  0.06754  1.0000
  C   C334      1.0  0.01398  0.51839  0.24152  1.0000
  C   C335      1.0  0.01166  0.52567  0.30031  1.0000
  C   C336      1.0  0.03012  0.88439  0.07099  1.0000
  H   H254      1.0  0.11087  0.84856  0.04709  1.0000
  H   H255      1.0  0.36966  0.62137  0.09102  1.0000
  H   H256      1.0  0.35618  0.68257  0.11100  1.0000
  C   C337      1.0  0.32191  0.59068  0.29700  1.0000
  H   H257      1.0  0.39429  0.70530  0.14787  1.0000
  H   H258      1.0  0.41676  0.66030  0.02339  1.0000
  H   H259      1.0  0.46596  0.72396  0.13074  1.0000
  H   H260      1.0  0.44201  0.56467  0.20933  1.0000
  C   C338      1.0  0.38899  0.62978  0.23066  1.0000
  H   H261      1.0  0.42154  0.58293  0.10838  1.0000
  H   H262      1.0  0.38726  0.63938  0.18934  1.0000
  C   C339      1.0  0.43796  0.62278  0.13748  1.0000
  C   C340      1.0  0.43747  0.56400  0.03479  1.0000
  C   C341      1.0  0.47018  0.80105  0.16839  1.0000
  H   H263      1.0  0.40762  0.95144  0.14869  1.0000
  H   H264      1.0  0.01085  0.88109  0.08717  1.0000
  H   H265      1.0  0.18001  0.93076  0.02409  1.0000
  H   H266      1.0  0.06725  0.84128  0.08388  1.0000
  H   H267      1.0  0.23946  0.90331  0.03793  1.0000
  H   H268      1.0  0.27623  0.56574  0.21939  1.0000
  H   H269      1.0  0.43686  0.54675  0.25617  1.0000
  C   C342      1.0  0.08218  0.51753  0.27524  1.0000
  C   C343      1.0  0.45595  0.53218  0.24339  1.0000
  C   C344      1.0  0.27035  0.96510  0.07218  1.0000
  H   H270      1.0  0.41952  0.72803  0.02338  1.0000
  C   C345      1.0  0.11588  0.94677  0.99276  1.0000
  H   H271      1.0  0.29745  0.60180  0.18110  1.0000
  C   C346      1.0  0.21808  0.88598  0.02915  1.0000
  H   H272      1.0  0.28538  0.95658  0.14583  1.0000
  H   H273      1.0  0.17322  0.94246  0.10255  1.0000
  P   P12       1.0  0.11094  0.89855  0.00124  1.0000
  C   C347      1.0  0.46331  0.72401  0.17313  1.0000
  H   H274      1.0  0.42556  0.97919  0.23113  1.0000
  C   C348      1.0  0.36070  0.97953  0.20329  1.0000
  H   H275      1.0  0.01911  0.55035  0.98389  1.0000
  C   C349      1.0  0.97981  0.49364  0.19514  1.0000
  H   H276      1.0  0.47359  0.63986  0.07710  1.0000
  C   C350      1.0  0.46447  0.73443  0.07606  1.0000
  H   H277      1.0  0.25069  0.83628  0.03267  1.0000
  C   C351      1.0  0.46632  0.74059  0.14837  1.0000
  C   C352      1.0  0.46363  0.74662  0.19556  1.0000
  H   H278      1.0  0.45601  0.82174  0.27349  1.0000
  C   C353      1.0  0.46721  0.78498  0.19314  1.0000
  H   H279      1.0  0.46101  0.73509  0.21493  1.0000
  H   H280      1.0  0.17215  0.54223  0.28948  1.0000
  C   C354      1.0  0.19658  0.82566  0.01534  1.0000
  C   C355      1.0  0.16248  0.84104  0.00739  1.0000
  H   H281      1.0  0.20138  0.79625  0.01331  1.0000
  C   C356      1.0  0.20367  0.98065  0.07843  1.0000
  S   S42       1.0  0.46862  0.95224  0.02691  1.0000
  C   C357      1.0  0.38715  0.98037  0.18297  1.0000
  C   C358      1.0  0.37022  0.54165  0.18550  1.0000
  C   C359      1.0  0.46748  0.76451  0.28226  1.0000
  H   H282      1.0  0.35760  0.58638  0.15929  1.0000
  H   H283      1.0  0.07806  0.98425  0.17917  1.0000
  H   H284      1.0  0.46752  0.80245  0.21041  1.0000
  C   C360      1.0  0.30226  0.55844  0.20983  1.0000
  H   H285      1.0  0.03309  0.88952  0.98317  1.0000
  H   H286      1.0  0.15971  0.54061  0.98107  1.0000
  S   S43       1.0  0.47429  0.48795  0.28661  1.0000
  C   C361      1.0  0.34812  0.57046  0.17597  1.0000
  H   H287      1.0  0.35675  0.49255  0.29387  1.0000
  H   H288      1.0  0.47156  0.79140  0.12678  1.0000
  C   C362      1.0  0.35838  0.52108  0.20711  1.0000
  C   C363      1.0  0.46961  0.77889  0.14603  1.0000
  C   C364      1.0  0.32377  0.52872  0.21910  1.0000
  S   S44       1.0  0.05520  0.98431  0.08538  1.0000
  H   H289      1.0  0.47282  0.83070  0.16649  1.0000
  H   H290      1.0  0.39691  0.53543  0.17629  1.0000
  P   P13       1.0  0.30798  0.50287  0.24738  1.0000
  C   C365      1.0  0.15198  0.48636  0.28733  1.0000
  C   C366      1.0  0.26528  0.55946  0.31039  1.0000
  H   H291      1.0  0.16205  0.82687  0.57421  1.0000
  H   H292      1.0  0.15134  0.85346  0.52318  1.0000
  C   C367      1.0  0.46674  0.61649  0.42255  1.0000
  S   S45       1.0  0.40559  0.55298  0.38800  1.0000
  Fe  Fe21      1.0  0.37431  0.52067  0.35686  1.0000
  C   C368      1.0  0.14877  0.98045  0.43639  1.0000
  Fe  Fe22      1.0  0.43382  0.58289  0.35462  1.0000
  S   S46       1.0  0.43387  0.64545  0.34745  1.0000
  C   C369      1.0  0.35559  0.61346  0.43274  1.0000
  C   C370      1.0  0.45719  0.71773  0.34568  1.0000
  C   C371      1.0  0.37136  0.65585  0.39783  1.0000
  Fe  Fe23      1.0  0.01406  0.91116  0.61704  1.0000
  S   S47       1.0  0.06311  0.87242  0.61395  1.0000
  Fe  Fe24      1.0  0.00789  0.91876  0.55620  1.0000
  S   S48       1.0  0.05583  0.87915  0.55003  1.0000
  C   C372      1.0  0.02590  0.53830  0.32437  1.0000
  Fe  Fe25      1.0  0.02978  0.84428  0.58195  1.0000
  S   S49       1.0  0.97984  0.88167  0.58621  1.0000
  Fe  Fe26      1.0  0.08581  0.91023  0.58243  1.0000
  S   S50       1.0  0.14943  0.92040  0.57568  1.0000
  S   S51       1.0  0.03861  0.95115  0.58753  1.0000
  H   H293      1.0  0.10210  0.82945  0.49334  1.0000
  H   H294      1.0  0.27728  0.95635  0.50160  1.0000
  C   C373      1.0  0.28458  0.93635  0.63663  1.0000
  C   C374      1.0  0.14901  0.90872  0.50786  1.0000
  S   S52       1.0  0.31037  0.51661  0.36313  1.0000
  H   H295      1.0  0.30374  0.59542  0.37832  1.0000
  S   S53       1.0  0.03108  0.78060  0.58231  1.0000
  C   C375      1.0  0.25763  0.95914  0.57591  1.0000
  C   C376      1.0  0.11080  0.85808  0.49208  1.0000
  C   C377      1.0  0.34486  0.63882  0.38165  1.0000
  C   C378      1.0  0.10346  0.91921  0.47354  1.0000
  H   H296      1.0  0.31326  0.57292  0.42341  1.0000
  C   C379      1.0  0.22505  0.93735  0.57228  1.0000
  C   C380      1.0  0.18961  0.94952  0.58086  1.0000
  H   H297      1.0  0.11596  0.77910  0.58746  1.0000
  C   C381      1.0  0.00578  0.70852  0.58409  1.0000
  H   H298      1.0  0.07081  0.87180  0.46205  1.0000
  C   C382      1.0  0.13177  0.93277  0.49005  1.0000
  H   H299      1.0  0.22742  0.91072  0.56279  1.0000
  C   C383      1.0  0.32351  0.60938  0.39105  1.0000
  S   S54       1.0  0.39972  0.55349  0.32386  1.0000
  H   H300      1.0  0.31605  0.68703  0.51118  1.0000
  P   P14       1.0  0.41306  0.66284  0.44401  1.0000
  C   C384      1.0  0.11883  0.79323  0.62839  1.0000
  C   C385      1.0  0.45509  0.60753  0.46884  1.0000
  H   H301      1.0  0.44213  0.49068  0.50840  1.0000
  H   H302      1.0  0.43014  0.72292  0.33691  1.0000
  C   C386      1.0  0.37663  0.64358  0.42361  1.0000
  S   S55       1.0  0.46414  0.97598  0.52789  1.0000
  C   C387      1.0  0.99546  0.74587  0.58113  1.0000
  H   H303      1.0  0.28449  0.94908  0.56929  1.0000
  H   H304      1.0  0.43902  0.50494  0.46078  1.0000
  H   H305      1.0  0.36048  0.60236  0.45211  1.0000
  H   H306      1.0  0.02261  0.92925  0.48183  1.0000
  H   H307      1.0  0.38865  0.67750  0.38970  1.0000
  C   C388      1.0  0.42373  0.76708  0.41411  1.0000
  H   H308      1.0  0.15719  0.95184  0.43838  1.0000
  C   C389      1.0  0.00869  0.52815  0.34785  1.0000
  Fe  Fe27      1.0  0.44600  0.51173  0.32342  1.0000
  H   H309      1.0  0.03487  0.70162  0.58734  1.0000
  C   C390      1.0  0.23629  0.49471  0.36424  1.0000
  H   H310      1.0  0.02185  0.94464  0.43425  1.0000
  H   H311      1.0  0.42969  0.70795  0.53444  1.0000
  H   H312      1.0  0.09780  0.77312  0.63385  1.0000
  C   C391      1.0  0.13866  0.87151  0.50879  1.0000
  H   H313      1.0  0.37875  0.73047  0.42422  1.0000
  C   C392      1.0  0.46669  0.68156  0.35325  1.0000
  C   C393      1.0  0.15517  0.82325  0.59468  1.0000
  H   H314      1.0  0.40533  0.78917  0.40787  1.0000
  C   C394      1.0  0.97749  0.50498  0.34749  1.0000
  C   C395      1.0  0.32887  0.59670  0.41658  1.0000
  H   H315      1.0  0.05084  0.55527  0.32504  1.0000
  H   H316      1.0  0.34199  0.64764  0.36150  1.0000
  H   H317      1.0  0.98762  0.65136  0.58455  1.0000
  C   C396      1.0  0.24850  0.88018  0.64177  1.0000
  C   C397      1.0  0.09320  0.88194  0.47445  1.0000
  C   C398      1.0  0.12913  0.79650  0.60213  1.0000
  C   C399      1.0  0.17100  0.84669  0.61345  1.0000
  H   H318      1.0  0.23258  0.51811  0.37718  1.0000
  Fe  Fe28      1.0  0.45103  0.51003  0.38419  1.0000
  C   C400      1.0  0.39644  0.67552  0.47613  1.0000
  H   H319      1.0  0.28775  0.60754  0.32960  1.0000
  C   C401      1.0  0.40884  0.73370  0.42313  1.0000
  C   C402      1.0  0.35803  0.67588  0.48196  1.0000
  H   H320      1.0  0.46060  0.63022  0.40420  1.0000
  H   H321      1.0  0.16954  0.91888  0.52170  1.0000
  C   C403      1.0  0.40972  0.69864  0.51987  1.0000
  H   H322      1.0  0.36191  0.70689  0.54488  1.0000
  C   C404      1.0  0.00091  0.94681  0.47395  1.0000
  C   C405      1.0  0.37154  0.69814  0.52574  1.0000
  H   H323      1.0  0.30945  0.95053  0.62975  1.0000
  C   C406      1.0  0.42213  0.68759  0.49511  1.0000
  H   H324      1.0  0.33744  0.66828  0.46738  1.0000
  H   H325      1.0  0.21376  0.94320  0.48481  1.0000
  C   C407      1.0  0.28113  0.89813  0.63360  1.0000
  C   C408      1.0  0.34571  0.68688  0.50676  1.0000
  H   H326      1.0  0.08854  0.93762  0.46049  1.0000
  H   H327      1.0  0.02027  0.53705  0.36645  1.0000
  C   C409      1.0  0.16095  0.84353  0.63989  1.0000
  H   H328      1.0  0.14615  0.93401  0.63024  1.0000
  H   H329      1.0  0.18990  0.86818  0.60702  1.0000
  C   C410      1.0  0.00031  0.95561  0.44692  1.0000
  C   C411      1.0  0.97898  0.67985  0.58249  1.0000
  H   H330      1.0  0.30363  0.88258  0.62465  1.0000
  C   C412      1.0  0.21841  0.96769  0.49655  1.0000
  H   H331      1.0  0.43992  0.61380  0.48659  1.0000
  H   H332      1.0  0.15338  0.97953  0.39435  1.0000
  C   C413      1.0  0.45993  0.48596  0.46808  1.0000
  C   C414      1.0  0.44804  0.62694  0.44554  1.0000
  C   C415      1.0  0.43266  0.70469  0.43058  1.0000
  H   H333      1.0  0.45176  0.68866  0.49067  1.0000
  C   C416      1.0  0.27224  0.48692  0.35429  1.0000
  H   H334      1.0  0.04520  0.49777  0.61781  1.0000
  H   H335      1.0  0.24629  0.85053  0.63941  1.0000
  C   C417      1.0  0.25450  0.97518  0.50582  1.0000
  P   P15       1.0  0.14196  0.98154  0.49081  1.0000
  H   H336      1.0  0.09186  0.97565  0.63467  1.0000
  C   C418      1.0  0.47005  0.97034  0.49315  1.0000
  H   H337      1.0  0.02914  0.79712  0.63625  1.0000
  C   C419      1.0  0.47157  0.71020  0.43001  1.0000
  C   C420      1.0  0.46246  0.77206  0.41312  1.0000
  H   H338      1.0  0.24215  0.55668  0.32395  1.0000
  S   S56       1.0  0.98404  0.48562  0.52968  1.0000
  H   H339      1.0  0.47437  0.77510  0.34379  1.0000
  H   H340      1.0  0.47416  0.79769  0.40576  1.0000
  C   C421      1.0  0.29109  0.58805  0.31367  1.0000
  C   C422      1.0  0.18735  0.98415  0.59307  1.0000
  Fe  Fe29      1.0  0.00662  0.51538  0.81493  1.0000
  S   S57       1.0  0.06172  0.54538  0.81533  1.0000
  C   C423      1.0  0.98964  0.76896  0.77067  1.0000
  H   H341      1.0  0.12124  0.88726  0.70583  1.0000
  S   S58       1.0  0.06498  0.52987  0.87917  1.0000
  Fe  Fe30      1.0  0.03953  0.57286  0.85201  1.0000
  S   S59       1.0  0.04468  0.63545  0.85858  1.0000
  Fe  Fe31      1.0  0.08285  0.50011  0.84225  1.0000
  C   C424      1.0  0.22277  0.93881  0.65599  1.0000
  C   C425      1.0  0.99390  0.73355  0.76002  1.0000
  C   C426      1.0  0.01157  0.79117  0.70147  1.0000
  C   C427      1.0  0.97610  0.69171  0.67039  1.0000
  C   C428      1.0  0.09043  0.87505  0.97338  1.0000
  Fe  Fe32      1.0  0.00978  0.50025  0.87532  1.0000
  C   C429      1.0  0.13429  0.81698  0.64717  1.0000
  C   C430      1.0  0.11612  0.90721  0.69052  1.0000
  H   H342      1.0  0.02336  0.87503  0.68561  1.0000
  C   C431      1.0  0.11344  0.86017  0.95370  1.0000
  H   H343      1.0  0.14441  0.54573  0.89774  1.0000
  C   C432      1.0  0.46524  0.93003  0.97409  1.0000
  H   H344      1.0  0.06830  0.93036  0.71045  1.0000
  C   C433      1.0  0.99769  0.60362  0.91984  1.0000
  C   C434      1.0  0.01843  0.70733  0.85844  1.0000
  H   H345      1.0  0.19076  0.50835  0.86453  1.0000
  H   H346      1.0  0.04731  0.71481  0.86191  1.0000
  H   H347      1.0  0.12485  0.81530  0.66724  1.0000
  S   S60       1.0  0.98457  0.93212  0.65453  1.0000
  H   H348      1.0  0.41033  0.51079  0.81424  1.0000
  H   H349      1.0  0.44205  0.96510  0.82557  1.0000
  H   H350      1.0  0.06993  0.56254  0.95195  1.0000
  C   C435      1.0  0.15413  0.52691  0.96260  1.0000
  C   C436      1.0  0.01304  0.96262  0.94927  1.0000
  C   C437      1.0  0.20967  0.80090  0.71868  1.0000
  C   C438      1.0  0.00101  0.87942  0.72501  1.0000
  C   C439      1.0  0.00885  0.66977  0.85562  1.0000
  C   C440      1.0  0.42286  0.60358  0.93770  1.0000
  C   C441      1.0  0.25553  0.95660  0.64795  1.0000
  H   H351      1.0  0.15550  0.57730  0.94014  1.0000
  H   H352      1.0  0.40165  0.60250  0.89814  1.0000
  H   H353      1.0  0.02751  0.52534  0.74539  1.0000
  H   H354      1.0  0.14360  0.86064  0.95569  1.0000
  C   C442      1.0  0.39073  0.49519  0.80239  1.0000
  C   C443      1.0  0.40746  0.54763  0.91378  1.0000
  C   C444      1.0  0.20733  0.86062  0.74000  1.0000
  C   C445      1.0  0.99096  0.73541  0.85703  1.0000
  C   C446      1.0  0.00286  0.52901  0.70666  1.0000
  H   H355      1.0  0.21931  0.52964  0.76749  1.0000
  H   H356      1.0  0.97595  0.73999  0.91784  1.0000
  H   H357      1.0  0.39783  0.53400  0.89608  1.0000
  H   H358      1.0  0.06223  0.79235  0.67878  1.0000
  C   C447      1.0  0.41763  0.52648  0.93547  1.0000
  C   C448      1.0  0.21879  0.90049  0.65257  1.0000
  H   H359      1.0  0.11554  0.83470  0.91550  1.0000
  C   C449      1.0  0.97525  0.89694  0.74185  1.0000
  C   C450      1.0  0.13876  0.90855  0.66808  1.0000
  C   C451      1.0  0.00185  0.52474  0.73415  1.0000
  H   H360      1.0  0.45399  0.94046  0.67928  1.0000
  C   C452      1.0  0.01331  0.56592  0.96625  1.0000
  H   H361      1.0  0.34586  0.49919  0.83038  1.0000
  C   C453      1.0  0.03200  0.79291  0.67823  1.0000
  H   H362      1.0  0.02606  0.78939  0.72003  1.0000
  C   C454      1.0  0.12972  0.93336  0.64799  1.0000
  C   C455      1.0  0.14549  0.52983  0.91570  1.0000
  C   C456      1.0  0.00341  0.88883  0.69817  1.0000
  C   C457      1.0  0.09904  0.95704  0.65048  1.0000
  C   C458      1.0  0.98093  0.91693  0.68785  1.0000
  H   H363      1.0  0.05610  0.59706  0.91106  1.0000
  C   C459      1.0  0.03409  0.59173  0.92514  1.0000
  H   H364      1.0  0.16527  0.48874  0.77696  1.0000
  H   H365      1.0  0.42418  0.63338  0.93820  1.0000
  H   H366      1.0  0.19178  0.90653  0.71572  1.0000
  H   H367      1.0  0.25799  0.49753  0.87473  1.0000
  S   S61       1.0  0.97921  0.92819  0.90659  1.0000
  H   H368      1.0  0.19634  0.80000  0.67777  1.0000
  C   C460      1.0  0.09770  0.84586  0.93072  1.0000
  C   C461      1.0  0.07710  0.95609  0.67307  1.0000
  H   H369      1.0  0.98068  0.67350  0.92588  1.0000
  H   H370      1.0  0.22238  0.80997  0.75945  1.0000
  H   H371      1.0  0.98410  0.71575  0.65910  1.0000
  H   H372      1.0  0.01929  0.85839  0.73285  1.0000
  C   C462      1.0  0.97702  0.57864  0.96130  1.0000
  C   C463      1.0  0.19858  0.81714  0.69508  1.0000
  C   C464      1.0  0.14991  0.48849  0.96175  1.0000
  H   H373      1.0  0.98760  0.71715  0.70738  1.0000
  C   C465      1.0  0.35450  0.48866  0.81145  1.0000
  C   C466      1.0  0.43383  0.58242  0.95941  1.0000
  C   C467      1.0  0.03599  0.86244  0.94611  1.0000
  C   C468      1.0  0.46762  0.90499  0.74030  1.0000
  C   C469      1.0  0.21383  0.82258  0.74117  1.0000
  C   C470      1.0  0.40980  0.58616  0.91495  1.0000
  C   C471      1.0  0.46862  0.93093  0.69663  1.0000
  H   H374      1.0  0.20072  0.95515  0.66472  1.0000
  S   S62       1.0  0.98382  0.54496  0.85038  1.0000
  P   P16       1.0  0.17723  0.87684  0.66367  1.0000
  C   C472      1.0  0.04190  0.57264  0.94824  1.0000
  C   C473      1.0  0.01588  0.64482  0.75719  1.0000
  C   C474      1.0  0.43034  0.54377  0.95830  1.0000
  H   H375      1.0  0.10978  0.93853  0.95080  1.0000
  C   C475      1.0  0.97963  0.94713  0.93932  1.0000
  H   H376      1.0  0.41851  0.91403  0.71653  1.0000
  H   H377      1.0  0.02059  0.72575  0.75165  1.0000
  H   H378      1.0  0.99883  0.76407  0.85948  1.0000
  C   C476      1.0  0.03505  0.61957  0.74116  1.0000
  C   C477      1.0  0.06988  0.60569  0.74886  1.0000
  C   C478      1.0  0.08576  0.61681  0.77261  1.0000
  C   C479      1.0  0.06664  0.64155  0.78881  1.0000
  C   C480      1.0  0.03174  0.65535  0.78126  1.0000
  C   C481      1.0  0.19098  0.85517  0.69396  1.0000
  C   C482      1.0  0.47185  0.67269  0.96962  1.0000
  C   C483      1.0  0.08580  0.93137  0.69315  1.0000
  C   C484      1.0  0.19628  0.87693  0.71643  1.0000
  C   C485      1.0  0.11472  0.95810  0.96644  1.0000
  H   H379      1.0  0.01268  0.78844  0.77057  1.0000
  H   H380      1.0  0.21095  0.87753  0.75735  1.0000
  H   H381      1.0  0.45525  0.92929  0.86600  1.0000
  C   C486      1.0  0.14071  0.49150  0.91482  1.0000
  C   C487      1.0  0.15188  0.54758  0.93958  1.0000
  C   C488      1.0  0.05899  0.84710  0.92690  1.0000
  H   H382      1.0  0.02946  0.53317  0.69702  1.0000
  H   H383      1.0  0.21521  0.77149  0.71950  1.0000
  C   C489      1.0  0.01500  0.97778  0.97488  1.0000
  H   H384      1.0  0.02304  0.61000  0.72292  1.0000
  H   H385      1.0  0.08423  0.58584  0.73656  1.0000
  H   H386      1.0  0.11245  0.60562  0.77880  1.0000
  H   H387      1.0  0.07846  0.64945  0.80756  1.0000
  H   H388      1.0  0.01689  0.67361  0.79452  1.0000
  C   C490      1.0  0.44868  0.91627  0.71769  1.0000
  H   H389      1.0  0.45178  0.89334  0.75632  1.0000
  H   H390      1.0  0.46276  0.91419  0.93330  1.0000
  C   C491      1.0  0.05155  0.87645  0.96920  1.0000
  C   C492      1.0  0.46868  0.92181  0.84774  1.0000
  H   H391      1.0  0.41611  0.49657  0.93447  1.0000
  H   H392      1.0  0.04676  0.83712  0.90877  1.0000
  H   H393      1.0  0.05275  0.97383  0.67476  1.0000
  H   H394      1.0  0.43828  0.52686  0.97493  1.0000
  C   C493      1.0  0.46103  0.94178  0.82499  1.0000
  H   H395      1.0  0.99188  0.61728  0.90140  1.0000
  H   H396      1.0  0.03143  0.48734  0.94693  1.0000
  C   C494      1.0  0.22239  0.49996  0.76583  1.0000
  H   H397      1.0  0.03763  0.96303  0.93696  1.0000
  H   H398      1.0  0.28069  0.50278  0.75589  1.0000
  C   C495      1.0  0.01337  0.79563  0.65429  1.0000
  C   C496      1.0  0.97781  0.69246  0.69777  1.0000
  C   C497      1.0  0.47285  0.93462  0.94707  1.0000
  H   H399      1.0  0.00610  0.86473  0.94267  1.0000
  H   H400      1.0  0.47362  0.94929  0.78441  1.0000
  C   C498      1.0  0.47364  0.71131  0.96999  1.0000
  C   C499      1.0  0.25709  0.48463  0.75929  1.0000
  H   H401      1.0  0.43067  0.48452  0.77181  1.0000
  Fe  Fe33      1.0  0.87871  0.40979  0.09655  1.0000
  S   S63       1.0  0.93427  0.44012  0.09878  1.0000
  S   S64       1.0  0.82735  0.44890  0.10017  1.0000
  Fe  Fe34      1.0  0.91991  0.33567  0.08733  1.0000
  H   H402      1.0  0.96648  0.48312  0.17754  1.0000
  S   S65       1.0  0.91421  0.27292  0.08193  1.0000
  Fe  Fe35      1.0  0.95488  0.39278  0.12366  1.0000
  C   C500      1.0  0.91812  0.01952  0.12068  1.0000
  Fe  Fe36      1.0  0.95088  0.40727  0.06298  1.0000
  C   C501      1.0  0.79505  0.38543  0.98880  1.0000
  S   S66       1.0  0.89880  0.36436  0.12381  1.0000
  S   S67       1.0  0.89518  0.37858  0.05986  1.0000
  C   C502      1.0  0.47919  0.99293  0.24672  1.0000
  H   H403      1.0  0.88172  0.31946  0.01575  1.0000
  C   C503      1.0  0.96029  0.40845  0.23252  1.0000
  C   C504      1.0  0.80540  0.35693  0.03915  1.0000
  H   H404      1.0  0.89305  0.26713  0.30227  1.0000
  H   H405      1.0  0.53387  0.08823  0.99228  1.0000
  C   C505      1.0  0.69761  0.46465  0.09793  1.0000
  H   H406      1.0  0.49521  0.04977  0.18352  1.0000
  H   H407      1.0  0.92814  0.03942  0.15955  1.0000
  C   C506      1.0  0.68751  0.46176  0.03312  1.0000
  C   C507      1.0  0.89986  0.24140  0.26421  1.0000
  H   H408      1.0  0.73225  0.42270  0.03310  1.0000
  C   C508      1.0  0.95151  0.24024  0.08447  1.0000
  S   S68       1.0  0.64739  0.46953  0.09726  1.0000
  C   C509      1.0  0.94473  0.20282  0.07848  1.0000
  H   H409      1.0  0.90791  0.00745  0.07997  1.0000
  H   H410      1.0  0.91708  0.19445  0.07219  1.0000
  P   P17       1.0  0.79546  0.45901  0.00578  1.0000
  C   C510      1.0  0.87872  0.34087  0.24786  1.0000
  H   H411      1.0  0.47854  0.01297  0.07692  1.0000
  H   H412      1.0  0.85511  0.06267  0.17593  1.0000
  C   C511      1.0  0.79612  0.34717  0.99273  1.0000
  C   C512      1.0  0.86511  0.18000  0.28740  1.0000
  C   C513      1.0  0.80121  0.33293  0.01791  1.0000
  C   C514      1.0  0.90813  0.08322  0.13423  1.0000
  H   H413      1.0  0.92641  0.42159  0.99033  1.0000
  C   C515      1.0  0.77718  0.45381  0.09888  1.0000
  H   H414      1.0  0.93997  0.32431  0.29783  1.0000
  H   H415      1.0  0.53526  0.00874  0.25718  1.0000
  C   C516      1.0  0.82087  0.20627  0.13815  1.0000
  S   S69       1.0  0.53933  0.47664  0.10514  1.0000
  C   C517      1.0  0.49818  0.98681  0.98299  1.0000
  C   C518      1.0  0.90729  0.02840  0.09518  1.0000
  C   C519      1.0  0.97070  0.99619  0.20298  1.0000
  H   H416      1.0  0.80176  0.30332  0.02101  1.0000
  H   H417      1.0  0.94300  0.12698  0.21208  1.0000
  H   H418      1.0  0.66881  0.44368  0.04384  1.0000
  H   H419      1.0  0.94550  0.99040  0.24138  1.0000
  H   H420      1.0  0.86658  0.26319  0.21306  1.0000
  C   C520      1.0  0.91867  0.04678  0.14010  1.0000
  H   H421      1.0  0.93413  0.41462  0.24216  1.0000
  H   H422      1.0  0.91040  0.18192  0.12421  1.0000
  H   H423      1.0  0.84229  0.03311  0.21854  1.0000
  C   C521      1.0  0.89438  0.20869  0.24981  1.0000
  C   C522      1.0  0.87647  0.17839  0.26127  1.0000
  H   H424      1.0  0.86886  0.33005  0.22938  1.0000
  C   C523      1.0  0.95163  0.25584  0.01267  1.0000
  C   C524      1.0  0.87093  0.21217  0.30194  1.0000
  H   H425      1.0  0.78512  0.17868  0.16581  1.0000
  C   C525      1.0  0.89714  0.06465  0.08907  1.0000
  H   H426      1.0  0.86567  0.41584  0.28715  1.0000
  H   H427      1.0  0.88962  0.07165  0.06913  1.0000
  H   H428      1.0  0.87936  0.05037  0.25772  1.0000
  H   H429      1.0  0.52422  0.48002  0.19687  1.0000
  H   H430      1.0  0.92911  0.09748  0.25437  1.0000
  H   H431      1.0  0.69523  0.40537  0.09426  1.0000
  C   C526      1.0  0.79962  0.40968  0.01006  1.0000
  C   C527      1.0  0.97344  0.17605  0.08046  1.0000
  H   H432      1.0  0.90454  0.20612  0.22996  1.0000
  P   P18       1.0  0.92633  0.27943  0.25064  1.0000
  C   C528      1.0  0.88323  0.18100  0.13353  1.0000
  C   C529      1.0  0.87513  0.15367  0.15217  1.0000
  C   C530      1.0  0.71354  0.42904  0.09597  1.0000
  P   P19       1.0  0.90948  0.11840  0.15943  1.0000
  C   C531      1.0  0.89970  0.09746  0.19079  1.0000
  S   S70       1.0  0.47807  0.47793  0.03979  1.0000
  C   C532      1.0  0.72370  0.44999  0.02695  1.0000
  H   H433      1.0  0.89031  0.11994  0.10307  1.0000
  C   C533      1.0  0.85619  0.20705  0.12649  1.0000
  C   C534      1.0  0.89160  0.26979  0.20208  1.0000
  H   H434      1.0  0.87445  0.44460  0.01731  1.0000
  C   C535      1.0  0.92046  0.10714  0.21314  1.0000
  C   C536      1.0  0.91274  0.09046  0.23721  1.0000
  C   C537      1.0  0.88462  0.06384  0.23914  1.0000
  C   C538      1.0  0.51052  0.47276  0.98985  1.0000
  H   H435      1.0  0.89326  0.25273  0.02281  1.0000
  H   H436      1.0  0.85229  0.15614  0.29657  1.0000
  C   C539      1.0  0.87654  0.38954  0.28045  1.0000
  H   H437      1.0  0.54530  0.04519  0.21666  1.0000
  H   H438      1.0  0.51898  0.46204  0.24367  1.0000
  H   H439      1.0  0.84307  0.38876  0.24537  1.0000
  C   C540      1.0  0.88798  0.24285  0.29040  1.0000
  C   C541      1.0  0.93867  0.33120  0.00493  1.0000
  H   H440      1.0  0.83220  0.13218  0.17798  1.0000
  H   H441      1.0  0.92728  0.99172  0.12531  1.0000
  C   C542      1.0  0.83950  0.15301  0.16375  1.0000
  C   C543      1.0  0.47940  0.46587  0.00572  1.0000
  H   H442      1.0  0.76425  0.39603  0.09502  1.0000
  H   H443      1.0  0.93619  0.19190  0.17541  1.0000
  C   C544      1.0  0.96510  0.00583  0.22956  1.0000
  C   C545      1.0  0.94944  0.43573  0.98109  1.0000
  H   H444      1.0  0.86268  0.22786  0.11193  1.0000
  C   C546      1.0  0.51880  0.03140  0.21985  1.0000
  C   C547      1.0  0.86584  0.46853  0.02850  1.0000
  H   H445      1.0  0.93526  0.40629  0.19386  1.0000
  C   C548      1.0  0.89764  0.09202  0.10846  1.0000
  C   C549      1.0  0.81259  0.17936  0.15685  1.0000
  C   C550      1.0  0.87129  0.07079  0.19294  1.0000
  H   H446      1.0  0.80920  0.34605  0.05874  1.0000
  C   C551      1.0  0.92133  0.27982  0.16011  1.0000
  C   C552      1.0  0.90382  0.37120  0.29509  1.0000
  H   H447      1.0  0.79993  0.22650  0.13262  1.0000
  Fe  Fe37      1.0  0.94297  0.04114  0.31090  1.0000
  H   H448      1.0  0.86370  0.26432  0.16487  1.0000
  C   C553      1.0  0.90927  0.30806  0.01228  1.0000
  C   C554      1.0  0.80462  0.39513  0.03525  1.0000
  C   C555      1.0  0.75285  0.42363  0.09634  1.0000
  H   H449      1.0  0.87182  0.15338  0.25010  1.0000
  H   H450      1.0  0.80748  0.41334  0.05196  1.0000
  C   C556      1.0  0.92513  0.27856  0.21512  1.0000
  C   C557      1.0  0.95543  0.13913  0.16034  1.0000
  C   C558      1.0  0.88980  0.27036  0.17474  1.0000
  C   C559      1.0  0.86386  0.05404  0.21702  1.0000
  C   C560      1.0  0.90625  0.32226  0.26242  1.0000
  H   H451      1.0  0.96781  0.14751  0.07552  1.0000
  C   C561      1.0  0.49040  0.03370  0.20105  1.0000
  H   H452      1.0  0.95461  0.15038  0.30254  1.0000
  C   C562      1.0  0.86391  0.37431  0.25689  1.0000
  C   C563      1.0  0.91852  0.33768  0.28622  1.0000
  C   C564      1.0  0.91575  0.27041  0.01610  1.0000
  C   C565      1.0  0.95999  0.17580  0.16893  1.0000
  C   C566      1.0  0.51318  0.01100  0.24269  1.0000
  H   H453      1.0  0.96191  0.16441  0.25530  1.0000
  H   H454      1.0  0.96550  0.22580  0.28490  1.0000
  C   C567      1.0  0.96081  0.40360  0.20507  1.0000
  C   C568      1.0  0.74832  0.47359  0.01360  1.0000
  H   H455      1.0  0.95609  0.22682  0.01662  1.0000
  C   C569      1.0  0.48648  0.99738  0.11720  1.0000
  H   H456      1.0  0.93391  0.36052  0.00274  1.0000
  C   C570      1.0  0.95463  0.28908  0.17283  1.0000
  C   C571      1.0  0.95667  0.28825  0.20017  1.0000
  H   H457      1.0  0.50806  0.00733  0.99677  1.0000
  H   H458      1.0  0.92068  0.47629  0.04512  1.0000
  H   H459      1.0  0.91979  0.28073  0.13892  1.0000
  C   C572      1.0  0.97339  0.27708  0.26357  1.0000
  C   C573      1.0  0.97450  0.31674  0.00118  1.0000
  C   C574      1.0  0.82879  0.48136  0.02730  1.0000
  H   H460      1.0  0.92222  0.00904  0.44508  1.0000
  H   H461      1.0  0.80376  0.28280  0.47444  1.0000
  H   H462      1.0  0.66972  0.03838  0.40261  1.0000
  Fe  Fe38      1.0  0.51569  0.38826  0.63012  1.0000
  S   S71       1.0  0.57099  0.35863  0.62878  1.0000
  Fe  Fe39      1.0  0.52268  0.41016  0.57061  1.0000
  S   S72       1.0  0.57800  0.38046  0.56633  1.0000
  C   C575      1.0  0.56966  0.09259  0.60841  1.0000
  Fe  Fe40      1.0  0.55104  0.33491  0.59039  1.0000
  S   S73       1.0  0.55670  0.27252  0.58319  1.0000
  Fe  Fe41      1.0  0.59341  0.40669  0.60509  1.0000
  S   S74       1.0  0.64736  0.43819  0.61718  1.0000
  S   S75       1.0  0.53868  0.43807  0.60875  1.0000
  Fe  Fe42      1.0  0.91972  0.10055  0.35130  1.0000
  H   H463      1.0  0.56400  0.99853  0.47751  1.0000
  S   S76       1.0  0.91848  0.16385  0.35527  1.0000
  Fe  Fe43      1.0  0.86634  0.03455  0.34016  1.0000
  C   C576      1.0  0.90660  0.41821  0.52546  1.0000
  Fe  Fe44      1.0  0.93929  0.02177  0.37080  1.0000
  C   C577      1.0  0.60831  0.19105  0.45818  1.0000
  S   S77       1.0  0.88994  0.05957  0.37736  1.0000
  S   S78       1.0  0.49543  0.36288  0.59217  1.0000
  C   C578      1.0  0.54776  0.02886  0.53928  1.0000
  H   H464      1.0  0.69128  0.42395  0.51400  1.0000
  C   C579      1.0  0.52980  0.28881  0.51869  1.0000
  H   H465      1.0  0.83683  0.06513  0.46940  1.0000
  H   H466      1.0  0.83835  0.38784  0.61502  1.0000
  H   H467      1.0  0.56580  0.20563  0.43010  1.0000
  C   C580      1.0  0.52698  0.20219  0.57956  1.0000
  C   C581      1.0  0.54873  0.08030  0.50911  1.0000
  H   H468      1.0  0.55581  0.19335  0.57860  1.0000
  C   C582      1.0  0.49804  0.17561  0.57797  1.0000
  H   H469      1.0  0.48457  0.08506  0.48019  1.0000
  C   C583      1.0  0.76661  0.47121  0.58833  1.0000
  C   C584      1.0  0.69296  0.45068  0.60513  1.0000
  H   H470      1.0  0.54482  0.10957  0.50572  1.0000
  C   C585      1.0  0.81825  0.06627  0.42930  1.0000
  P   P20       1.0  0.55814  0.07372  0.45511  1.0000
  C   C586      1.0  0.82903  0.04878  0.45248  1.0000
  C   C587      1.0  0.62202  0.05339  0.42635  1.0000
  H   H471      1.0  0.54288  0.01801  0.55874  1.0000
  H   H472      1.0  0.53402  0.41681  0.49476  1.0000
  C   C588      1.0  0.95673  0.19539  0.35691  1.0000
  C   C589      1.0  0.95051  0.23309  0.35168  1.0000
  H   H473      1.0  0.48338  0.37063  0.51632  1.0000
  H   H474      1.0  0.92266  0.24237  0.34670  1.0000
  C   C590      1.0  0.94429  0.99180  0.45289  1.0000
  H   H475      1.0  0.80513  0.99093  0.39081  1.0000
  C   C591      1.0  0.51896  0.24012  0.58209  1.0000
  H   H476      1.0  0.54756  0.34555  0.51632  1.0000
  H   H477      1.0  0.53155  0.43187  0.44738  1.0000
  C   C592      1.0  0.97437  0.35613  0.42997  1.0000
  C   C593      1.0  0.48055  0.08251  0.45928  1.0000
  C   C594      1.0  0.87239  0.41720  0.51227  1.0000
  H   H478      1.0  0.69202  0.41614  0.57093  1.0000
  H   H479      1.0  0.90854  0.43100  0.54463  1.0000
  H   H480      1.0  0.64744  0.16847  0.48599  1.0000
  C   C595      1.0  0.56274  0.14806  0.44057  1.0000
  H   H481      1.0  0.53909  0.14297  0.42781  1.0000
  S   S79       1.0  0.97028  0.06464  0.34716  1.0000
  H   H482      1.0  0.54220  0.00250  0.43088  1.0000
  H   H483      1.0  0.84771  0.42891  0.52146  1.0000
  S   S80       1.0  0.80215  0.02684  0.33524  1.0000
  C   C596      1.0  0.63178  0.43069  0.51883  1.0000
  H   H484      1.0  0.62526  0.40248  0.51340  1.0000
  C   C597      1.0  0.89490  0.46358  0.38113  1.0000
  C   C598      1.0  0.57417  0.15442  0.62626  1.0000
  C   C599      1.0  0.83561  0.34363  0.41609  1.0000
  H   H485      1.0  0.91968  0.42423  0.35458  1.0000
  H   H486      1.0  0.62113  0.10542  0.48390  1.0000
  C   C600      1.0  0.58576  0.04354  0.43441  1.0000
  C   C601      1.0  0.83012  0.01019  0.45378  1.0000
  C   C602      1.0  0.96525  0.27999  0.42347  1.0000
  H   H487      1.0  0.92313  0.99356  0.49255  1.0000
  H   H488      1.0  0.57428  0.44545  0.52630  1.0000
  H   H489      1.0  0.86303  0.21291  0.32243  1.0000
  C   C603      1.0  0.93905  0.34023  0.43407  1.0000
  C   C604      1.0  0.93468  0.30189  0.43076  1.0000
  C   C605      1.0  0.54285  0.08382  0.62722  1.0000
  C   C606      1.0  0.60306  0.45483  0.52602  1.0000
  C   C607      1.0  0.90254  0.38786  0.47487  1.0000
  C   C608      1.0  0.87027  0.40193  0.48712  1.0000
  C   C609      1.0  0.51353  0.43632  0.48766  1.0000
  C   C610      1.0  0.48753  0.34100  0.51688  1.0000
  C   C611      1.0  0.93674  0.38880  0.48840  1.0000
  C   C612      1.0  0.84526  0.32093  0.46019  1.0000
  C   C613      1.0  0.81258  0.29986  0.45817  1.0000
  S   S81       1.0  0.91509  0.99523  0.33402  1.0000
  H   H490      1.0  0.52711  0.06776  0.40194  1.0000
  C   C614      1.0  0.90917  0.42900  0.37415  1.0000
  C   C615      1.0  0.55617  0.05608  0.48818  1.0000
  H   H491      1.0  0.50476  0.14658  0.57620  1.0000
  C   C616      1.0  0.51088  0.07579  0.44245  1.0000
  H   H492      1.0  0.61983  0.21872  0.45922  1.0000
  C   C617      1.0  0.81107  0.00667  0.40836  1.0000
  H   H493      1.0  0.55463  0.24118  0.63575  1.0000
  H   H494      1.0  0.96170  0.25056  0.42033  1.0000
  C   C618      1.0  0.60885  0.12710  0.47207  1.0000
  H   H495      1.0  0.87559  0.44763  0.44508  1.0000
  H   H496      1.0  0.60563  0.28655  0.63804  1.0000
  H   H497      1.0  0.90778  0.28875  0.43331  1.0000
  C   C619      1.0  0.48145  0.25121  0.58275  1.0000
  H   H498      1.0  0.78665  0.32292  0.39623  1.0000
  H   H499      1.0  0.96224  0.37885  0.47953  1.0000
  C   C620      1.0  0.64194  0.03060  0.40907  1.0000
  C   C621      1.0  0.55556  0.00467  0.51867  1.0000
  H   H500      1.0  0.63484  0.07877  0.43299  1.0000
  C   C622      1.0  0.59001  0.98783  0.40787  1.0000
  C   C623      1.0  0.57785  0.18368  0.44180  1.0000
  C   C624      1.0  0.48522  0.46972  0.45057  1.0000
  C   C625      1.0  0.58531  0.12788  0.60793  1.0000
  C   C626      1.0  0.80904  0.04518  0.40732  1.0000
  C   C627      1.0  0.50426  0.07260  0.41542  1.0000
  C   C628      1.0  0.82076  0.98875  0.43174  1.0000
  C   C629      1.0  0.52392  0.32688  0.51695  1.0000
  S   S82       1.0  0.89294  0.07850  0.31465  1.0000
  C   C630      1.0  0.70818  0.43584  0.58215  1.0000
  C   C631      1.0  0.55956  0.01811  0.49319  1.0000
  C   C632      1.0  0.57014  0.01047  0.42512  1.0000
  H   H501      1.0  0.75591  0.43406  0.55616  1.0000
  H   H502      1.0  0.81767  0.09615  0.42818  1.0000
  H   H503      1.0  0.50387  0.23545  0.52276  1.0000
  C   C633      1.0  0.54447  0.06670  0.53452  1.0000
  S   S83       1.0  0.48991  0.44451  0.53988  1.0000
  H   H504      1.0  0.76617  0.28422  0.43357  1.0000
  C   C634      1.0  0.91083  0.40066  0.39265  1.0000
  C   C635      1.0  0.67738  0.47904  0.52667  1.0000
  H   H505      1.0  0.86160  0.31973  0.47806  1.0000
  C   C636      1.0  0.76394  0.99501  0.33963  1.0000
  H   H506      1.0  0.96526  0.40531  0.52365  1.0000
  H   H507      1.0  0.80135  0.05862  0.38912  1.0000
  C   C637      1.0  0.62385  0.16275  0.47327  1.0000
  C   C638      1.0  0.74460  0.44602  0.57387  1.0000
  C   C639      1.0  0.88456  0.44175  0.42532  1.0000
  C   C640      1.0  0.93859  0.40366  0.51364  1.0000
  H   H508      1.0  0.60592  0.13485  0.59322  1.0000
  C   C641      1.0  0.51195  0.44484  0.46065  1.0000
  H   H509      1.0  0.58669  0.18148  0.62517  1.0000
  C   C642      1.0  0.57802  0.11956  0.45583  1.0000
  C   C643      1.0  0.49926  0.26484  0.52026  1.0000
  H   H510      1.0  0.55801  0.27796  0.51989  1.0000
  H   H511      1.0  0.57817  0.07199  0.59421  1.0000
  C   C644      1.0  0.66892  0.44281  0.51913  1.0000
  H   H512      1.0  0.90212  0.36513  0.62468  1.0000
  H   H513      1.0  0.92210  0.37410  0.38685  1.0000
  H   H514      1.0  0.83886  0.99747  0.47190  1.0000
  C   C645      1.0  0.72702  0.00732  0.33511  1.0000
  C   C646      1.0  0.89845  0.40677  0.41840  1.0000
  C   C647      1.0  0.80296  0.32248  0.41413  1.0000
  H   H515      1.0  0.84415  0.36011  0.39949  1.0000
  H   H516      1.0  0.53074  0.05643  0.62749  1.0000
  C   C648      1.0  0.79142  0.30065  0.43516  1.0000
  H   H517      1.0  0.72246  0.03559  0.32906  1.0000
  H   H518      1.0  0.84360  0.40179  0.47704  1.0000
  P   P21       1.0  0.89962  0.36956  0.44192  1.0000
  C   C649      1.0  0.85690  0.34315  0.43921  1.0000
  C   C650      1.0  0.71491  0.47602  0.61952  1.0000
  H   H519      1.0  0.81802  0.44911  0.63100  1.0000
  C   C651      1.0  0.48867  0.45303  0.50526  1.0000
  C   C652      1.0  0.85728  0.40437  0.62679  1.0000
  H   H520      1.0  0.53728  0.08533  0.55038  1.0000
  C   C653      1.0  0.62583  0.99793  0.39972  1.0000
  H   H521      1.0  0.94013  0.47289  0.32335  1.0000
  H   H522      1.0  0.66788  0.99357  0.33438  1.0000
  C   C654      1.0  0.84577  0.43905  0.63572  1.0000
  S   S84       1.0  0.97282  0.98779  0.40151  1.0000
  C   C655      1.0  0.89337  0.39159  0.63241  1.0000
  H   H523      1.0  0.97345  0.38404  0.59747  1.0000
  S   S85       1.0  0.48521  0.47945  0.41613  1.0000
  S   S86       1.0  0.81280  0.48253  0.57685  1.0000
  C   C656      1.0  0.88274  0.46997  0.40671  1.0000
  H   H524      1.0  0.91452  0.38343  0.31295  1.0000
  H   H525      1.0  0.97488  0.28779  0.34865  1.0000
  C   C657      1.0  0.52508  0.15630  0.70007  1.0000
  Fe  Fe45      1.0  0.52379  0.02972  0.81356  1.0000
  S   S87       1.0  0.57215  0.06922  0.81695  1.0000
  H   H526      1.0  0.64832  0.28791  0.67640  1.0000
  Fe  Fe46      1.0  0.52880  0.00876  0.87289  1.0000
  S   S88       1.0  0.57704  0.04768  0.87927  1.0000
  Fe  Fe47      1.0  0.54489  0.08857  0.85426  1.0000
  S   S89       1.0  0.54187  0.15062  0.86413  1.0000
  Fe  Fe48      1.0  0.60090  0.02525  0.84153  1.0000
  C   C658      1.0  0.54587  0.11213  0.73278  1.0000
  C   C659      1.0  0.62608  0.26761  0.67542  1.0000
  H   H527      1.0  0.48686  0.23591  0.73715  1.0000
  C   C660      1.0  0.51005  0.46279  0.96303  1.0000
  C   C661      1.0  0.70223  0.98491  0.84051  1.0000
  H   H528      1.0  0.92515  0.27110  0.67321  1.0000
  C   C662      1.0  0.50151  0.10093  0.92032  1.0000
  H   H529      1.0  0.79036  0.39586  0.96925  1.0000
  C   C663      1.0  0.50502  0.18380  0.86094  1.0000
  C   C664      1.0  0.51217  0.22096  0.86752  1.0000
  H   H530      1.0  0.59532  0.35769  0.68562  1.0000
  H   H531      1.0  0.53977  0.22871  0.87428  1.0000
  H   H532      1.0  0.50856  0.10334  0.76528  1.0000
  C   C665      1.0  0.50199  0.41272  0.71051  1.0000
  C   C666      1.0  0.50073  0.42044  0.73767  1.0000
  H   H533      1.0  0.52296  0.42568  0.69835  1.0000
  H   H534      1.0  0.52098  0.43927  0.74606  1.0000
  H   H535      1.0  0.56627  0.09225  0.73968  1.0000
  C   C667      1.0  0.96958  0.34886  0.65198  1.0000
  H   H536      1.0  0.55974  0.11031  0.91182  1.0000
  H   H537      1.0  0.53198  0.36070  0.78144  1.0000
  C   C668      1.0  0.54063  0.34721  0.79937  1.0000
  C   C669      1.0  0.55119  0.09853  0.95262  1.0000
  H   H538      1.0  0.56819  0.30055  0.86489  1.0000
  H   H539      1.0  0.76193  0.48163  0.91318  1.0000
  H   H540      1.0  0.53707  0.02248  0.68951  1.0000
  S   S90       1.0  0.48240  0.02582  0.77890  1.0000
  C   C670      1.0  0.54701  0.14595  0.64524  1.0000
  H   H541      1.0  0.94688  0.43378  0.74633  1.0000
  C   C671      1.0  0.57309  0.24114  0.65260  1.0000
  S   S91       1.0  0.97346  0.47191  0.90704  1.0000
  C   C672      1.0  0.48155  0.02622  0.74381  1.0000
  S   S92       1.0  0.66526  0.01849  0.83763  1.0000
  H   H542      1.0  0.51040  0.10274  0.65984  1.0000
  C   C673      1.0  0.84295  0.47583  0.96361  1.0000
  H   H543      1.0  0.53238  0.32978  0.68139  1.0000
  C   C674      1.0  0.47680  0.02399  0.68801  1.0000
  H   H544      1.0  0.60665  0.00847  0.77290  1.0000
  H   H545      1.0  0.58997  0.19595  0.70990  1.0000
  H   H546      1.0  0.50548  0.21534  0.79988  1.0000
  P   P22       1.0  0.53266  0.17987  0.66938  1.0000
  C   C675      1.0  0.94781  0.44405  0.95407  1.0000
  C   C676      1.0  0.48158  0.27539  0.76869  1.0000
  C   C677      1.0  0.60193  0.26709  0.65392  1.0000
  C   C678      1.0  0.66201  0.05166  0.90798  1.0000
  C   C679      1.0  0.65858  0.07386  0.93024  1.0000
  C   C680      1.0  0.48677  0.09027  0.96595  1.0000
  C   C681      1.0  0.94271  0.32664  0.66430  1.0000
  C   C682      1.0  0.65924  0.99663  0.93503  1.0000
  C   C683      1.0  0.90659  0.44864  0.65545  1.0000
  H   H547      1.0  0.57669  0.12510  0.69794  1.0000
  H   H548      1.0  0.74565  0.02573  0.83602  1.0000
  H   H549      1.0  0.79256  0.32855  0.97629  1.0000
  H   H550      1.0  0.54115  0.02507  0.73802  1.0000
  C   C684      1.0  0.54796  0.32665  0.69947  1.0000
  C   C685      1.0  0.65687  0.01907  0.95742  1.0000
  H   H551      1.0  0.92359  0.43566  0.94283  1.0000
  H   H552      1.0  0.53438  0.46824  0.95109  1.0000
  H   H553      1.0  0.52188  0.01484  0.94925  1.0000
  H   H554      1.0  0.49294  0.10541  0.90021  1.0000
  C   C686      1.0  0.53194  0.30803  0.72062  1.0000
  H   H555      1.0  0.92502  0.41562  0.70238  1.0000
  C   C687      1.0  0.54936  0.36887  0.82121  1.0000
  C   C688      1.0  0.53944  0.10365  0.92681  1.0000
  S   S93       1.0  0.48001  0.43352  0.91744  1.0000
  H   H556      1.0  0.66445  0.06411  0.88874  1.0000
  H   H557      1.0  0.65823  0.10366  0.92825  1.0000
  H   H558      1.0  0.65611  0.00688  0.97674  1.0000
  C   C689      1.0  0.48668  0.14360  0.73827  1.0000
  H   H559      1.0  0.64019  0.24251  0.71225  1.0000
  C   C690      1.0  0.62142  0.24202  0.69561  1.0000
  C   C691      1.0  0.48397  0.24824  0.86554  1.0000
  H   H560      1.0  0.58065  0.10032  0.95743  1.0000
  H   H561      1.0  0.91920  0.33911  0.67438  1.0000
  C   C692      1.0  0.56111  0.31359  0.84646  1.0000
  H   H562      1.0  0.74807  0.46706  0.95924  1.0000
  H   H563      1.0  0.56543  0.36895  0.86185  1.0000
  C   C693      1.0  0.51168  0.02408  0.70096  1.0000
  C   C694      1.0  0.54260  0.30855  0.80079  1.0000
  C   C695      1.0  0.55254  0.29183  0.82460  1.0000
  P   P23       1.0  0.53149  0.28120  0.77223  1.0000
  H   H564      1.0  0.54686  0.39869  0.82004  1.0000
  C   C696      1.0  0.55183  0.30420  0.74420  1.0000
  C   C697      1.0  0.59287  0.21561  0.69416  1.0000
  C   C698      1.0  0.94609  0.28814  0.66377  1.0000
  C   C699      1.0  0.91802  0.41341  0.64727  1.0000
  C   C700      1.0  0.60337  0.33896  0.72523  1.0000
  C   C701      1.0  0.58770  0.31989  0.74631  1.0000
  C   C702      1.0  0.66224  0.01321  0.91034  1.0000
  H   H565      1.0  0.92593  0.46660  0.66562  1.0000
  C   C703      1.0  0.51334  0.11840  0.74725  1.0000
  H   H566      1.0  0.50378  0.29771  0.71852  1.0000
  C   C704      1.0  0.55132  0.23560  0.77604  1.0000
  C   C705      1.0  0.53214  0.20893  0.79081  1.0000
  C   C706      1.0  0.54783  0.17403  0.79480  1.0000
  C   C707      1.0  0.58269  0.16541  0.78408  1.0000
  C   C708      1.0  0.60186  0.19166  0.76924  1.0000
  C   C709      1.0  0.58632  0.22669  0.76529  1.0000
  S   S94       1.0  0.49559  0.05093  0.85018  1.0000
  H   H567      1.0  0.49001  0.27657  0.87084  1.0000
  H   H568      1.0  0.55351  0.26211  0.82653  1.0000
  C   C710      1.0  0.49243  0.16246  0.71473  1.0000
  C   C711      1.0  0.55970  0.35210  0.84474  1.0000
  C   C712      1.0  0.55165  0.13078  0.70919  1.0000
  H   H569      1.0  0.63073  0.35157  0.72712  1.0000
  H   H570      1.0  0.60332  0.31789  0.76444  1.0000
  C   C713      1.0  0.65613  0.05757  0.95498  1.0000
  C   C714      1.0  0.95477  0.41760  0.70602  1.0000
  C   C715      1.0  0.50611  0.99120  0.95597  1.0000
  C   C716      1.0  0.58346  0.34242  0.70184  1.0000
  H   H571      1.0  0.53320  0.15383  0.80663  1.0000
  H   H572      1.0  0.59498  0.13850  0.78754  1.0000
  H   H573      1.0  0.62903  0.18495  0.76115  1.0000
  H   H574      1.0  0.60191  0.24675  0.75415  1.0000
  C   C717      1.0  0.51410  0.02527  0.72859  1.0000
  C   C718      1.0  0.56871  0.21473  0.67246  1.0000
  C   C719      1.0  0.47866  0.44545  0.95157  1.0000
  H   H575      1.0  0.66526  0.99649  0.89286  1.0000
  C   C720      1.0  0.80589  0.47034  0.97202  1.0000
  H   H576      1.0  0.86622  0.47407  0.97700  1.0000
  H   H577      1.0  0.50335  0.25518  0.67637  1.0000
  C   C721      1.0  0.73978  0.99669  0.83879  1.0000
  C   C722      1.0  0.77679  0.47223  0.95352  1.0000
  C   C723      1.0  0.48275  0.23907  0.66583  1.0000
  C   C724      1.0  0.48978  0.20202  0.65908  1.0000
  P   P24       1.0  0.96538  0.39845  0.65343  1.0000
  C   C725      1.0  0.87047  0.46127  0.64994  1.0000
  C   C726      1.0  0.47561  0.38908  0.69908  1.0000
  H   H578      1.0  0.65421  0.07479  0.97228  1.0000
  C   C727      1.0  0.52485  0.09180  0.97219  1.0000
  C   C728      1.0  0.96701  0.42737  0.73111  1.0000
  C   C729      1.0  0.85060  0.48352  0.93734  1.0000
  C   C730      1.0  0.53145  0.11028  0.64554  1.0000
  S   S95       1.0  0.47571  0.01725  0.65327  1.0000
  C   C731      1.0  0.78454  0.48025  0.92731  1.0000
  H   H579      1.0  0.56535  0.78352  0.25258  1.0000
  H   H580      1.0  0.55847  0.94415  0.00128  1.0000
  Fe  Fe49      1.0  0.55142  0.58050  0.08822  1.0000
  S   S96       1.0  0.55584  0.64350  0.08230  1.0000
  Fe  Fe50      1.0  0.52180  0.52617  0.12941  1.0000
  H   H581      1.0  0.60463  0.61155  0.16441  1.0000
  C   C732      1.0  0.84418  0.52804  0.05989  1.0000
  S   S97       1.0  0.57757  0.55446  0.12407  1.0000
  S   S98       1.0  0.57269  0.53522  0.06114  1.0000
  C   C733      1.0  0.62097  0.68599  0.30530  1.0000
  C   C734      1.0  0.81800  0.51093  0.04348  1.0000
  H   H582      1.0  0.96998  0.49037  0.28213  1.0000
  H   H583      1.0  0.63663  0.85448  0.00649  1.0000
  C   C735      1.0  0.51644  0.91074  0.20154  1.0000
  C   C736      1.0  0.51789  0.90894  0.22921  1.0000
  H   H584      1.0  0.54158  0.91743  0.19076  1.0000
  H   H585      1.0  0.54387  0.91441  0.23939  1.0000
  C   C737      1.0  0.51971  0.67773  0.08057  1.0000
  C   C738      1.0  0.50533  0.49483  0.20967  1.0000
  C   C739      1.0  0.52961  0.71541  0.08136  1.0000
  C   C740      1.0  0.57716  0.62377  0.16679  1.0000
  H   H586      1.0  0.55876  0.72294  0.08345  1.0000
  C   C741      1.0  0.48182  0.66859  0.07780  1.0000
  H   H587      1.0  0.87844  0.62948  0.02204  1.0000
  C   C742      1.0  0.50218  0.48460  0.23628  1.0000
  H   H588      1.0  0.49648  0.61053  0.20024  1.0000
  C   C743      1.0  0.56629  0.65331  0.15099  1.0000
  H   H589      1.0  0.58518  0.66374  0.13615  1.0000
  C   C744      1.0  0.62802  0.88032  0.99766  1.0000
  C   C745      1.0  0.47778  0.95613  0.99237  1.0000
  C   C746      1.0  0.51136  0.80582  0.26141  1.0000
  Fe  Fe51      1.0  0.51802  0.50648  0.06927  1.0000
  H   H590      1.0  0.55932  0.58405  0.19550  1.0000
  H   H591      1.0  0.48697  0.70988  0.29015  1.0000
  H   H592      1.0  0.55538  0.64169  0.23583  1.0000
  H   H593      1.0  0.95522  0.97329  0.19470  1.0000
  C   C747      1.0  0.52080  0.61076  0.01323  1.0000
  H   H594      1.0  0.51054  0.77229  0.07983  1.0000
  H   H595      1.0  0.58211  0.77216  0.30364  1.0000
  H   H596      1.0  0.50420  0.56387  0.28795  1.0000
  C   C748      1.0  0.76129  0.48943  0.10062  1.0000
  C   C749      1.0  0.52958  0.74250  0.27068  1.0000
  H   H597      1.0  0.57937  0.88631  0.02230  1.0000
  H   H598      1.0  0.71051  0.52243  0.10149  1.0000
  C   C750      1.0  0.57707  0.57839  0.00007  1.0000
  S   S99       1.0  0.49601  0.55349  0.09402  1.0000
  P   P25       1.0  0.56520  0.70699  0.27013  1.0000
  C   C751      1.0  0.58871  0.70899  0.23886  1.0000
  C   C752      1.0  0.54535  0.66172  0.27520  1.0000
  C   C753      1.0  0.54452  0.63531  0.25503  1.0000
  C   C754      1.0  0.52958  0.60013  0.25961  1.0000
  H   H599      1.0  0.69087  0.54866  0.00827  1.0000
  S   S100      1.0  0.48403  0.53595  0.16570  1.0000
  H   H600      1.0  0.57478  0.61851  0.03118  1.0000
  H   H601      1.0  0.78425  0.92433  0.98277  1.0000
  C   C755      1.0  0.87385  0.61551  0.00354  1.0000
  H   H602      1.0  0.82654  0.58446  0.01751  1.0000
  C   C756      1.0  0.64469  0.70192  0.21234  1.0000
  C   C757      1.0  0.62680  0.69999  0.23665  1.0000
  C   C758      1.0  0.53792  0.77760  0.26056  1.0000
  H   H603      1.0  0.53922  0.72596  0.21738  1.0000
  C   C759      1.0  0.58690  0.72211  0.19222  1.0000
  C   C760      1.0  0.53055  0.66857  0.15356  1.0000
  Fe  Fe52      1.0  0.59418  0.50678  0.09766  1.0000
  S   S101      1.0  0.48325  0.90679  0.15258  1.0000
  H   H604      1.0  0.61949  0.65901  0.29615  1.0000
  H   H605      1.0  0.50738  0.63059  0.02610  1.0000
  H   H606      1.0  0.57151  0.73102  0.17505  1.0000
  H   H607      1.0  0.63871  0.71485  0.17136  1.0000
  H   H608      1.0  0.93001  0.52009  0.20957  1.0000
  H   H609      1.0  0.52874  0.57969  0.24407  1.0000
  C   C761      1.0  0.50227  0.74355  0.07929  1.0000
  H   H610      1.0  0.60656  0.57271  0.00282  1.0000
  H   H611      1.0  0.78928  0.52017  0.04428  1.0000
  C   C762      1.0  0.53200  0.65214  0.30007  1.0000
  H   H612      1.0  0.51844  0.83302  0.25416  1.0000
  C   C763      1.0  0.55911  0.60409  0.01614  1.0000
  C   C764      1.0  0.56874  0.71944  0.21634  1.0000
  H   H613      1.0  0.67408  0.69494  0.21072  1.0000
  H   H614      1.0  0.64281  0.69157  0.25358  1.0000
  C   C765      1.0  0.88126  0.51585  0.06024  1.0000
  C   C766      1.0  0.55179  0.60852  0.18448  1.0000
  S   S102      1.0  0.48498  0.90003  0.27878  1.0000
  H   H615      1.0  0.91969  0.64278  0.98441  1.0000
  C   C767      1.0  0.60009  0.74946  0.30916  1.0000
  C   C768      1.0  0.48561  0.90092  0.24362  1.0000
  C   C769      1.0  0.69999  0.52100  0.01318  1.0000
  C   C770      1.0  0.49410  0.73616  0.28157  1.0000
  H   H616      1.0  0.52260  0.69076  0.14058  1.0000
  C   C771      1.0  0.50544  0.65456  0.17218  1.0000
  C   C772      1.0  0.95018  0.96205  0.98134  1.0000
  C   C773      1.0  0.48337  0.52345  0.19958  1.0000
  C   C774      1.0  0.84462  0.59012  0.00099  1.0000
  C   C775      1.0  0.51572  0.59111  0.28436  1.0000
  C   C776      1.0  0.73610  0.50917  0.00665  1.0000
  C   C777      1.0  0.51603  0.62373  0.18712  1.0000
  C   C778      1.0  0.47743  0.50300  0.25334  1.0000
  C   C779      1.0  0.62480  0.71314  0.19016  1.0000
  H   H617      1.0  0.92553  0.96166  0.99360  1.0000
  C   C780      1.0  0.59776  0.71489  0.29670  1.0000
  H   H618      1.0  0.83540  0.54991  0.07301  1.0000
  C   C781      1.0  0.72198  0.49487  0.10004  1.0000
  C   C782      1.0  0.95926  0.51421  0.21328  1.0000
  C   C783      1.0  0.50021  0.59218  0.99382  1.0000
  H   H619      1.0  0.96027  0.54336  0.24992  1.0000
  C   C784      1.0  0.59574  0.89815  0.00654  1.0000
  H   H620      1.0  0.48655  0.67656  0.22961  1.0000
  H   H621      1.0  0.90135  0.52853  0.07337  1.0000
  C   C785      1.0  0.48298  0.90390  0.18768  1.0000
  H   H622      1.0  0.64801  0.50648  0.03214  1.0000
  C   C786      1.0  0.58401  0.93091  0.99471  1.0000
  H   H623      1.0  0.77954  0.51307  0.10264  1.0000
  C   C787      1.0  0.67576  0.49730  0.02649  1.0000
  H   H624      1.0  0.53508  0.48548  0.99834  1.0000
  C   C788      1.0  0.51692  0.61713  0.30456  1.0000
  C   C789      1.0  0.47617  0.79938  0.27229  1.0000
  C   C790      1.0  0.89209  0.48620  0.04447  1.0000
  H   H625      1.0  0.48645  0.98418  0.15805  1.0000
  H   H626      1.0  0.71589  0.93417  0.98163  1.0000
  H   H627      1.0  0.75470  0.52796  0.99659  1.0000
  C   C791      1.0  0.89715  0.62296  0.98221  1.0000
  S   S103      1.0  0.47589  0.87133  0.08096  1.0000
  H   H628      1.0  0.51102  0.98067  0.11321  1.0000
  C   C792      1.0  0.55680  0.55961  0.98083  1.0000
  H   H629      1.0  0.47506  0.97678  0.26435  1.0000
  Fe  Fe53      1.0  0.93757  0.53174  0.61908  1.0000
  S   S104      1.0  0.88272  0.56177  0.61387  1.0000
  Fe  Fe54      1.0  0.94524  0.51694  0.55861  1.0000
  S   S105      1.0  0.89151  0.54741  0.55046  1.0000
  Fe  Fe55      1.0  0.91190  0.58989  0.57998  1.0000
  S   S106      1.0  0.90619  0.65287  0.57512  1.0000
  Fe  Fe56      1.0  0.86702  0.51647  0.58500  1.0000
  C   C793      1.0  0.87341  0.70778  0.63040  1.0000
  H   H630      1.0  0.76744  0.50585  0.62258  1.0000
  S   S107      1.0  0.49379  0.87350  0.35033  1.0000
  C   C794      1.0  0.70185  0.88918  0.42863  1.0000
  H   H631      1.0  0.89980  0.88600  0.34379  1.0000
  Fe  Fe57      1.0  0.54533  0.83919  0.35658  1.0000
  S   S108      1.0  0.54892  0.77794  0.36787  1.0000
  Fe  Fe58      1.0  0.59839  0.90553  0.34683  1.0000
  S   S109      1.0  0.54937  0.94397  0.33922  1.0000
  S   S110      1.0  0.66268  0.91497  0.35008  1.0000
  Fe  Fe59      1.0  0.52212  0.91754  0.37472  1.0000
  H   H632      1.0  0.78769  0.87114  0.45419  1.0000
  C   C795      1.0  0.48151  0.95898  0.43821  1.0000
  S   S111      1.0  0.57202  0.88157  0.38328  1.0000
  H   H633      1.0  0.51635  0.74778  0.42032  1.0000
  H   H634      1.0  0.51905  0.54544  0.44623  1.0000
  C   C796      1.0  0.84358  0.91719  0.51016  1.0000
  C   C797      1.0  0.70099  0.94667  0.34577  1.0000
  H   H635      1.0  0.75304  0.61032  0.48605  1.0000
  H   H636      1.0  0.79709  0.94804  0.35079  1.0000
  C   C798      1.0  0.94494  0.98300  0.47992  1.0000
  H   H637      1.0  0.62508  0.54769  0.49090  1.0000
  H   H638      1.0  0.74245  0.90610  0.35645  1.0000
  C   C799      1.0  0.97320  0.96041  0.49075  1.0000
  C   C800      1.0  0.95766  0.75417  0.57687  1.0000
  C   C801      1.0  0.73011  0.87081  0.44234  1.0000
  C   C802      1.0  0.48631  0.74379  0.42132  1.0000
  C   C803      1.0  0.49986  0.56867  0.44621  1.0000
  C   C804      1.0  0.94129  0.68805  0.57778  1.0000
  C   C805      1.0  0.93090  0.72546  0.57504  1.0000
  H   H639      1.0  0.82932  0.92011  0.52873  1.0000
  H   H640      1.0  0.90197  0.73229  0.57116  1.0000
  C   C806      1.0  0.67277  0.58639  0.59043  1.0000
  H   H641      1.0  0.68758  0.93691  0.40573  1.0000
  C   C807      1.0  0.64593  0.69156  0.32605  1.0000
  H   H642      1.0  0.94917  0.78264  0.57444  1.0000
  C   C808      1.0  0.51720  0.74124  0.36099  1.0000
  C   C809      1.0  0.52679  0.70502  0.36850  1.0000
  H   H643      1.0  0.87253  0.49704  0.41230  1.0000
  H   H644      1.0  0.55373  0.69997  0.37749  1.0000
  C   C810      1.0  0.84410  0.92385  0.46276  1.0000
  C   C811      1.0  0.58628  0.59280  0.48852  1.0000
  H   H645      1.0  0.57764  0.58601  0.46874  1.0000
  C   C812      1.0  0.50071  0.93745  0.45661  1.0000
  H   H646      1.0  0.88764  0.76442  0.62372  1.0000
  H   H647      1.0  0.62598  0.78145  0.33977  1.0000
  C   C813      1.0  0.62513  0.75492  0.32984  1.0000
  H   H648      1.0  0.61973  0.51432  0.63247  1.0000
  S   S112      1.0  0.57461  0.86042  0.32061  1.0000
  H   H649      1.0  0.53313  0.67195  0.31595  1.0000
  C   C814      1.0  0.63402  0.53490  0.62075  1.0000
  H   H650      1.0  0.50957  0.64771  0.37057  1.0000
  H   H651      1.0  0.54954  0.63975  0.49156  1.0000
  H   H652      1.0  0.62261  0.50646  0.58499  1.0000
  S   S113      1.0  0.48851  0.95450  0.40348  1.0000
  H   H653      1.0  0.92798  0.89181  0.48538  1.0000
  C   C815      1.0  0.97202  0.97814  0.43607  1.0000
  S   S114      1.0  0.97197  0.94969  0.52513  1.0000
  H   H654      1.0  0.70638  0.48761  0.52714  1.0000
  H   H655      1.0  0.89267  0.95888  0.40983  1.0000
  H   H656      1.0  0.96039  0.79851  0.63467  1.0000
  H   H657      1.0  0.50605  0.61027  0.32372  1.0000
  H   H658      1.0  0.56933  0.65525  0.53689  1.0000
  H   H659      1.0  0.74978  0.96496  0.40915  1.0000
  C   C816      1.0  0.76907  0.95823  0.34739  1.0000
  H   H660      1.0  0.49070  0.68877  0.43619  1.0000
  H   H661      1.0  0.85220  0.90784  0.60525  1.0000
  H   H662      1.0  0.67435  0.87681  0.42656  1.0000
  H   H663      1.0  0.58865  0.50919  0.53912  1.0000
  C   C817      1.0  0.57046  0.62307  0.50139  1.0000
  C   C818      1.0  0.84536  0.92214  0.40456  1.0000
  C   C819      1.0  0.65176  0.56481  0.63279  1.0000
  C   C820      1.0  0.88110  0.91066  0.46236  1.0000
  C   C821      1.0  0.89909  0.90102  0.48569  1.0000
  H   H664      1.0  0.50644  0.57906  0.40503  1.0000
  H   H665      1.0  0.73190  0.53555  0.56597  1.0000
  H   H666      1.0  0.79598  0.55321  0.55327  1.0000
  C   C822      1.0  0.82987  0.89437  0.38861  1.0000
  C   C823      1.0  0.84936  0.88157  0.36667  1.0000
  C   C824      1.0  0.88462  0.89595  0.36073  1.0000
  C   C825      1.0  0.90021  0.92342  0.37656  1.0000
  C   C826      1.0  0.88036  0.93709  0.39804  1.0000
  C   C827      1.0  0.64796  0.72602  0.33834  1.0000
  C   C828      1.0  0.86180  0.88659  0.61857  1.0000
  H   H667      1.0  0.52005  0.91648  0.44993  1.0000
  C   C829      1.0  0.49485  0.94299  0.48378  1.0000
  H   H668      1.0  0.68520  0.61359  0.62698  1.0000
  C   C830      1.0  0.76585  0.88639  0.44424  1.0000
  H   H669      1.0  0.57724  0.96267  0.40057  1.0000
  C   C831      1.0  0.88054  0.90462  0.50958  1.0000
  C   C832      1.0  0.73790  0.93440  0.35049  1.0000
  H   H670      1.0  0.50973  0.92593  0.49768  1.0000
  H   H671      1.0  0.66684  0.73033  0.35467  1.0000
  H   H672      1.0  0.89664  0.90827  0.44434  1.0000
  C   C833      1.0  0.82536  0.92666  0.48686  1.0000
  C   C834      1.0  0.50168  0.67534  0.36476  1.0000
  H   H673      1.0  0.68870  0.59319  0.49841  1.0000
  H   H674      1.0  0.94973  0.49735  0.43556  1.0000
  H   H675      1.0  0.80264  0.88275  0.39278  1.0000
  H   H676      1.0  0.83704  0.86057  0.35423  1.0000
  H   H677      1.0  0.92769  0.93438  0.37214  1.0000
  H   H678      1.0  0.66341  0.66906  0.33279  1.0000
  H   H679      1.0  0.89391  0.48565  0.36687  1.0000
  H   H680      1.0  0.86892  0.70198  0.60983  1.0000
  H   H681      1.0  0.79692  0.93698  0.48766  1.0000
  C   C835      1.0  0.77350  0.92080  0.43270  1.0000
  H   H682      1.0  0.72446  0.84414  0.45107  1.0000
  H   H683      1.0  0.91472  0.91329  0.62604  1.0000
  C   C836      1.0  0.89706  0.88963  0.63019  1.0000
  H   H684      1.0  0.61650  0.61722  0.55944  1.0000
  C   C837      1.0  0.49267  0.58757  0.42294  1.0000
  H   H685      1.0  0.81139  0.85425  0.61560  1.0000
  C   C838      1.0  0.58162  0.63176  0.52691  1.0000
  H   H686      1.0  0.64089  0.98056  0.38596  1.0000
  C   C839      1.0  0.74820  0.59409  0.50351  1.0000
  C   C840      1.0  0.77854  0.58301  0.51893  1.0000
  C   C841      1.0  0.77242  0.56200  0.54140  1.0000
  C   C842      1.0  0.73604  0.55212  0.54856  1.0000
  C   C843      1.0  0.70535  0.56349  0.53338  1.0000
  C   C844      1.0  0.71171  0.58430  0.51063  1.0000
  P   P26       1.0  0.65854  0.55056  0.54310  1.0000
  C   C845      1.0  0.64860  0.50343  0.53385  1.0000
  C   C846      1.0  0.65513  0.55625  0.57818  1.0000
  C   C847      1.0  0.63574  0.53052  0.59358  1.0000
  S   S115      1.0  0.48153  0.54243  0.35271  1.0000
  H   H687      1.0  0.80685  0.59060  0.51350  1.0000
  C   C848      1.0  0.60849  0.61011  0.53965  1.0000
  H   H688      1.0  0.68815  0.60643  0.57899  1.0000
  C   C849      1.0  0.75126  0.48633  0.61120  1.0000
  C   C850      1.0  0.61317  0.57113  0.50117  1.0000
  C   C851      1.0  0.96842  0.48473  0.44957  1.0000
  P   P27       1.0  0.82078  0.93880  0.43309  1.0000
  H   H689      1.0  0.89520  0.89821  0.52762  1.0000
  C   C852      1.0  0.62443  0.57954  0.52688  1.0000
  C   C853      1.0  0.48226  0.74739  0.34945  1.0000
  C   C854      1.0  0.67110  0.59059  0.61763  1.0000
  C   C855      1.0  0.70924  0.92325  0.41699  1.0000
  C   C856      1.0  0.74482  0.93907  0.41901  1.0000
  H   H690      1.0  0.94137  0.51033  0.48307  1.0000
  S   S116      1.0  0.96682  0.56130  0.58602  1.0000
  C   C857      1.0  0.83890  0.85639  0.62438  1.0000
  H   H691      1.0  0.96514  0.49622  0.36580  1.0000
  H   H692      1.0  0.86321  0.65169  0.64212  1.0000
  H   H693      1.0  0.48606  0.56317  0.48698  1.0000
  C   C858      1.0  0.96364  0.49228  0.47660  1.0000
  C   C859      1.0  0.96340  0.49198  0.32367  1.0000
  H   H694      1.0  0.55654  0.97519  0.52226  1.0000
  H   H695      1.0  0.96244  0.65930  0.63622  1.0000
  C   C860      1.0  0.88357  0.74331  0.63844  1.0000
  C   C861      1.0  0.85143  0.82906  0.64164  1.0000
  H   H696      1.0  0.70368  0.48778  0.63733  1.0000
  Fe  Fe60      1.0  0.52404  0.89723  0.31520  1.0000
  C   C862      1.0  0.61136  0.49103  0.53343  1.0000
  S   S117      1.0  0.92065  0.48466  0.59230  1.0000
  C   C863      1.0  0.48116  0.57868  0.46916  1.0000
  C   C864      1.0  0.69586  0.98348  0.33813  1.0000
  C   C865      1.0  0.95208  0.92440  0.73137  1.0000
  H   H697      1.0  0.72131  0.94753  0.89783  1.0000
  Fe  Fe61      1.0  0.91873  0.82394  0.85227  1.0000
  H   H698      1.0  0.89285  0.72708  0.70382  1.0000
  S   S118      1.0  0.91689  0.76025  0.85317  1.0000
  Fe  Fe62      1.0  0.86508  0.89178  0.84656  1.0000
  S   S119      1.0  0.91411  0.93100  0.84054  1.0000
  S   S120      1.0  0.80025  0.89995  0.84665  1.0000
  Fe  Fe63      1.0  0.93904  0.88668  0.81401  1.0000
  C   C866      1.0  0.64232  0.92503  0.90992  1.0000
  Fe  Fe64      1.0  0.94122  0.90073  0.87477  1.0000
  H   H699      1.0  0.84416  0.60623  0.75161  1.0000
  S   S121      1.0  0.88876  0.84976  0.81819  1.0000
  S   S122      1.0  0.89169  0.86296  0.88140  1.0000
  C   C867      1.0  0.55067  0.77022  0.75679  1.0000
  H   H700      1.0  0.83320  0.80610  0.64627  1.0000
  C   C868      1.0  0.88338  0.55037  0.85800  1.0000
  C   C869      1.0  0.58894  0.91759  0.88091  1.0000
  C   C870      1.0  0.50752  0.93404  0.69806  1.0000
  C   C871      1.0  0.94817  0.94698  0.95570  1.0000
  H   H701      1.0  0.92222  0.93530  0.94859  1.0000
  C   C872      1.0  0.76323  0.93356  0.84397  1.0000
  S   S123      1.0  0.97364  0.53072  0.65667  1.0000
  P   P28       1.0  0.90315  0.79665  0.67549  1.0000
  C   C873      1.0  0.51859  0.56658  0.97756  1.0000
  H   H702      1.0  0.66454  0.90985  0.79584  1.0000
  C   C874      1.0  0.87915  0.58876  0.85889  1.0000
  H   H703      1.0  0.89426  0.87178  0.75596  1.0000
  H   H704      1.0  0.94489  0.60390  0.66168  1.0000
  H   H705      1.0  0.59288  0.87370  0.85259  1.0000
  C   C875      1.0  0.52651  0.92330  0.72076  1.0000
  C   C876      1.0  0.65921  0.89407  0.89825  1.0000
  H   H706      1.0  0.55517  0.74104  0.75318  1.0000
  H   H707      1.0  0.93216  0.93831  0.74389  1.0000
  S   S124      1.0  0.50131  0.96937  0.90310  1.0000
  C   C877      1.0  0.94380  0.68876  0.84988  1.0000
  C   C878      1.0  0.73138  0.93389  0.96345  1.0000
  H   H708      1.0  0.91486  0.68137  0.84663  1.0000
  C   C879      1.0  0.88896  0.75108  0.66511  1.0000
  C   C880      1.0  0.91581  0.74075  0.91817  1.0000
  H   H709      1.0  0.89201  0.64880  0.73414  1.0000
  C   C881      1.0  0.97246  0.79239  0.70082  1.0000
  C   C882      1.0  0.92055  0.66417  0.92643  1.0000
  H   H710      1.0  0.86726  0.60333  0.84234  1.0000
  H   H711      1.0  0.66689  0.93752  0.84542  1.0000
  H   H712      1.0  0.50388  0.55177  0.96234  1.0000
  C   C883      1.0  0.84917  0.79297  0.71510  1.0000
  H   H713      1.0  0.95719  0.79072  0.71906  1.0000
  H   H714      1.0  0.93750  0.95620  0.69702  1.0000
  H   H715      1.0  0.93689  0.86556  0.65642  1.0000
  C   C884      1.0  0.50460  0.90331  0.80067  1.0000
  H   H716      1.0  0.94871  0.60440  0.70988  1.0000
  C   C885      1.0  0.49476  0.89307  0.84718  1.0000
  H   H717      1.0  0.85996  0.66576  0.92621  1.0000
  H   H718      1.0  0.59250  0.95926  0.91068  1.0000
  H   H719      1.0  0.87500  0.66427  0.68915  1.0000
  S   S125      1.0  0.96952  0.85951  0.84770  1.0000
  S   S126      1.0  0.97354  0.88315  0.77555  1.0000
  C   C886      1.0  0.89900  0.63095  0.75038  1.0000
  H   H720      1.0  0.90676  0.70005  0.77342  1.0000
  C   C887      1.0  0.88728  0.83146  0.65282  1.0000
  C   C888      1.0  0.60679  0.97880  0.77567  1.0000
  H   H721      1.0  0.83668  0.84095  0.77187  1.0000
  C   C889      1.0  0.69543  0.94715  0.84407  1.0000
  H   H722      1.0  0.92548  0.53696  0.91687  1.0000
  C   C890      1.0  0.90970  0.86231  0.64735  1.0000
  C   C891      1.0  0.95567  0.77938  0.78191  1.0000
  P   P29       1.0  0.92241  0.61465  0.93112  1.0000
  H   H723      1.0  0.90834  0.51217  0.74131  1.0000
  C   C892      1.0  0.87000  0.67942  0.64869  1.0000
  H   H724      1.0  0.81575  0.55281  0.97507  1.0000
  C   C893      1.0  0.93517  0.63147  0.76116  1.0000
  C   C894      1.0  0.73448  0.94148  0.91642  1.0000
  H   H725      1.0  0.88806  0.63832  0.88093  1.0000
  H   H726      1.0  0.85963  0.56482  0.78877  1.0000
  C   C895      1.0  0.57401  0.92000  0.77558  1.0000
  C   C896      1.0  0.57411  0.95833  0.77159  1.0000
  H   H727      1.0  0.65086  0.56767  0.65389  1.0000
  H   H728      1.0  0.85638  0.56563  0.93741  1.0000
  H   H729      1.0  0.92249  0.85311  0.71393  1.0000
  C   C897      1.0  0.90722  0.59006  0.90224  1.0000
  C   C898      1.0  0.96409  0.70822  0.76062  1.0000
  H   H730      1.0  0.71982  0.89270  0.84833  1.0000
  C   C899      1.0  0.95357  0.79570  0.67683  1.0000
  C   C900      1.0  0.84932  0.83221  0.75358  1.0000
  C   C901      1.0  0.79107  0.92956  0.94110  1.0000
  H   H731      1.0  0.52272  0.94578  0.68171  1.0000
  H   H732      1.0  0.85621  0.73303  0.91829  1.0000
  H   H733      1.0  0.54866  0.97247  0.76590  1.0000
  C   C902      1.0  0.63944  0.96117  0.78405  1.0000
  H   H734      1.0  0.90452  0.50226  0.87799  1.0000
  C   C903      1.0  0.91596  0.58509  0.79265  1.0000
  C   C904      1.0  0.60652  0.88772  0.86870  1.0000
  H   H735      1.0  0.91404  0.77005  0.91392  1.0000
  C   C905      1.0  0.77321  0.93616  0.91724  1.0000
  H   H736      1.0  0.56131  0.92626  0.87472  1.0000
  H   H737      1.0  0.87490  0.53505  0.84073  1.0000
  C   C906      1.0  0.60662  0.90262  0.78478  1.0000
  C   C907      1.0  0.72562  0.92176  0.84565  1.0000
  C   C908      1.0  0.89103  0.60860  0.88092  1.0000
  C   C909      1.0  0.51481  0.81942  0.77698  1.0000
  C   C910      1.0  0.63932  0.92316  0.78873  1.0000
  C   C911      1.0  0.87177  0.60709  0.76035  1.0000
  P   P30       1.0  0.53112  0.89446  0.77131  1.0000
  C   C912      1.0  0.89983  0.53184  0.87903  1.0000
  C   C913      1.0  0.51301  0.88408  0.82380  1.0000
  C   C914      1.0  0.95074  0.72373  0.92029  1.0000
  H   H738      1.0  0.59730  0.78749  0.73307  1.0000
  C   C915      1.0  0.93577  0.52206  0.70430  1.0000
  C   C916      1.0  0.95331  0.72631  0.85304  1.0000
  C   C917      1.0  0.95516  0.93447  0.70467  1.0000
  C   C918      1.0  0.88656  0.72220  0.68336  1.0000
  C   C919      1.0  0.50659  0.90930  0.74225  1.0000
  H   H739      1.0  0.83546  0.77185  0.70357  1.0000
  H   H740      1.0  0.60682  0.87343  0.78925  1.0000
  H   H741      1.0  0.78944  0.93734  0.89931  1.0000
  H   H742      1.0  0.67303  0.88066  0.96988  1.0000
  C   C920      1.0  0.64157  0.87584  0.87746  1.0000
  H   H743      1.0  0.80752  0.79097  0.74561  1.0000
  C   C921      1.0  0.86188  0.57956  0.95574  1.0000
  H   H744      1.0  0.82114  0.92557  0.94162  1.0000
  C   C922      1.0  0.94327  0.60878  0.78269  1.0000
  C   C923      1.0  0.88321  0.71976  0.92047  1.0000
  C   C924      1.0  0.53921  0.84579  0.76631  1.0000
  C   C925      1.0  0.56857  0.83405  0.75007  1.0000
  C   C926      1.0  0.57445  0.79638  0.74552  1.0000
  C   C927      1.0  0.88234  0.80969  0.70633  1.0000
  H   H745      1.0  0.58679  0.85405  0.74078  1.0000
  C   C928      1.0  0.88552  0.68168  0.92476  1.0000
  C   C929      1.0  0.60676  0.93629  0.90137  1.0000
  C   C930      1.0  0.91195  0.55162  0.90098  1.0000
  C   C931      1.0  0.89159  0.60475  0.95823  1.0000
  C   C932      1.0  0.77021  0.92870  0.96423  1.0000
  H   H746      1.0  0.53407  0.86260  0.82386  1.0000
  P   P31       1.0  0.66320  0.94720  0.93799  1.0000
  C   C933      1.0  0.87662  0.68659  0.67517  1.0000
  C   C934      1.0  0.96786  0.51804  0.74684  1.0000
  C   C935      1.0  0.88171  0.84964  0.74461  1.0000
  C   C936      1.0  0.63783  0.92902  0.96565  1.0000
  C   C937      1.0  0.88036  0.58394  0.78138  1.0000
  H   H747      1.0  0.55663  0.92621  0.72149  1.0000
  C   C938      1.0  0.89790  0.83874  0.72092  1.0000
  C   C939      1.0  0.83297  0.80400  0.73878  1.0000
  C   C940      1.0  0.71309  0.93927  0.93940  1.0000
  C   C941      1.0  0.92589  0.75446  0.78258  1.0000
  H   H748      1.0  0.95260  0.80663  0.79051  1.0000
  C   C942      1.0  0.96401  0.65986  0.65743  1.0000
  H   H749      1.0  0.68599  0.88393  0.90508  1.0000
  H   H750      1.0  0.92301  0.56672  0.80861  1.0000
  C   C943      1.0  0.52076  0.78175  0.77241  1.0000
  H   H751      1.0  0.91013  0.52112  0.69308  1.0000
  C   C944      1.0  0.49328  0.96520  0.93770  1.0000
  C   C945      1.0  0.93001  0.71900  0.77203  1.0000
  H   H752      1.0  0.87930  0.48734  0.93101  1.0000
  H   H753      1.0  0.96333  0.63205  0.84874  1.0000
  H   H754      1.0  0.89997  0.76242  0.79206  1.0000
  H   H755      1.0  0.65520  0.85255  0.86814  1.0000
  H   H756      1.0  0.66464  0.97716  0.78754  1.0000
  H   H757      1.0  0.57054  0.53929  0.96856  1.0000
  C   C946      1.0  0.96912  0.59835  0.93826  1.0000
  C   C947      1.0  0.76997  0.97138  0.84060  1.0000
  C   C948      1.0  0.93483  0.51722  0.73174  1.0000
  C   C949      1.0  0.95320  0.68565  0.92450  1.0000
  C   C950      1.0  0.97129  0.66069  0.85106  1.0000
  H   H758      1.0  0.97076  0.60859  0.79161  1.0000
  C   C951      1.0  0.95389  0.62868  0.67182  1.0000
  C   C952      1.0  0.95575  0.62926  0.69918  1.0000
  H   H759      1.0  0.95531  0.57238  0.97532  1.0000
  H   H760      1.0  0.79850  0.98119  0.83930  1.0000
  H   H761      1.0  0.82747  0.49184  0.89886  1.0000
  C   C953      1.0  0.60467  0.94613  0.97414  1.0000
  H   H762      1.0  0.59427  0.97080  0.96459  1.0000
  P   P32       1.0  0.97031  0.66192  0.74782  1.0000
  H   H763      1.0  0.50196  0.76149  0.78079  1.0000
  H   H764      1.0  0.49094  0.82786  0.78858  1.0000
  H   H765      1.0  0.50150  0.87854  0.86511  1.0000
  H   H766      1.0  0.86200  0.48869  0.65605  1.0000
  C   C954      1.0  0.96732  0.66138  0.71242  1.0000
  C   C955      1.0  0.82143  0.48594  0.91922  1.0000
  S   S127      1.0  0.96528  0.50715  0.78088  1.0000
  C   C956      1.0  0.47903  0.93269  0.80159  1.0000
  C   C957      1.0  0.96996  0.52719  0.69147  1.0000
  H   H767      1.0  0.48778  0.65753  0.95510  1.0000
  H   H768      1.0  0.49048  0.72579  0.95569  1.0000
  C   C958      1.0  0.64879  0.89546  0.97710  1.0000
  S   S128      1.0  0.55373  0.98430  0.83580  1.0000
  C   C959      1.0  0.83857  0.57227  0.97709  1.0000
  C   C960      1.0  0.97430  0.79670  0.65351  1.0000
