data_image0
_chemical_formula_structural       SHSCFeSFeHCFeH2FeHSHCHCS2HCSFeS2FeS2FeSFeS3C6H5C3SHC7H4C6H4C9H5C2H5C2HCHC2FeCPSH3C2HC5HCH3C7HSCPH2CSHC2HCHCHC3HCHC3H2C5H2CH2C6HFeHCHC2H4CH5C5HC2H2CHPC3H3C4H2CHCH2CH2SC2H2CHC3HCSHCH3C2H2CHCHCSC2H3C3HC2HCH3CHCHCHC2HCHCFeC3H3CH2CHCHCPHC3H5C3HCHSFeSHFeSFeS2C2PFeHSCHFeSCSH2SFeS2FeS2FeSFeS3C6H4C2H2CH2C6H4C6H5C3SC5H2CSC4HC2SH4CHC3H2C4FeC7HC7HCFeCH2CHC3HFeCHC2H2C2H2C8HC2HCHCHC3HSCHCH3C4H3CSHCSC3PHCHCPC3PH3C6H3C2HCH2C2HPCH4C3H3PCHC3HC2H4C6PC9HCHC6H6CH5CH2CH3CHC3H2SH2C3HCHCH3CHCHCH3CH2C2H2C3H2C2H2CHCPHC2HC2HC5HC3H10CH2C2HCHC4HC7HCHSHSHFeSFeSHFeHSFeHFeHS2CHSH2SHCHC2HC2HCH2CH2CHC2HFeHC3HCH3CHC4SH3CH2C4H2C3HCH3CH2C2H3C5H3PCH3C4HCH2C2HCHCHCH2C2HC2PHCHC3H2C3HC3HC4HC2HCSH2C2HC3H4CH4C2FeCH2C2HC2SCHCH2PC3HC2H2CHSHCHC2H2C2HC5H2C2HC2H2CH4C2HC5HC3HCHSC4HC2HCH2CHCHCHC2SCSHFeSFeS2FeS2FeHFeHS2CHS2CH3CH2C2H2C2HC2HCSC3PHC8HC6H2CH2C2HC2PHC3HCHCH3C4H2C5HCHSH5CH2CHCH2CHCHC3FeC2HC2HCH2CHC3H2C4HCHC2H2C2H5C2HCH4CH2CHC7H3CPCHCH2SFeC7H3C3H4CH2C4H3CH3C7H4CHSC2H2CHC2HFeS2FeC3SFeS3CS3FeSH2SHSCFeSHFeS2FeSFeS3C4HC7H4C6H4C6H4C6H6CHCSC4HC2H5CHC2H2C5H7C2HC5HC2HC4FeC2H4C3HC3H3CHCHCH2C3HC2H3CSHCHC2HC3HC9SC2H2C4HCHCHCH2C3HCH6C2H3C8PC3Fe2C13H6C2H10C2H2CH4C2H3PHC5H4C2HC2HC2H2C2HCHC2PH3CPH3CH4CH3C2PHPCHCPHCH3CH4CH2C3HCHCHC5HFeS2FeCH3FeS3FeSCSFeSFeCSCSCFeSCFeS2FeSFeS3CHCHC8H4C7H3C6H4C6H4CPHC2PH2C4HFeHC3HC2HCHC3HC2HCHC3HCHC6HC3SC2H3CHSH2C2HC2HC5HC3HCH2C2H2C2H2C3H3CH4CHCH2CSC7H7C2HCSCH5C6H2C2HSCHC2H3SH5PHC6HPHCSH4CHC2H2C4HCHCH3C3PH2C2PH2CSHC2HCHCH2CH2C2H2CHCHC11HCH5C6H3C2H3SCFeCHCHC2HCH2CHSC3H2CFeH2SHCHSFeSCH2SHS2FeS2FeS2FeSFeS3FeS2FeC2HS2C6H4C3H3CSHFeC2H2FeC10H4C6H4C6H2C2PC3H3C3PC2HC9H3CH9CH3C5HSH2C3PC2HC2HC2H5FeH5C2HC2HSHCSC2HC3HCH4CH2SCH2CH2C2PC2HC2HCHCH2FeC2HC2HC3HC3H3C2FeHC2HC3H2CFeCH3CHCHC6PC3H2C13H2C2H2C3H9C8PC18H6CH12CH2PCH3CPC3HC9SC2HCHC3H2CH4CHCHC2H3C3HCHC2HCH3SCHCHCHC2SC2S2FeSCHCSHSCFeS2FeS2FeSFeS3FeS2FeHFeHS2C6H8C2H2C3H4CH3C6H4C6H4SC5H2CH2SCH2C6PCH2C2HCH2CHCFeCH5C2H2CH2C2HC2H2C2PHSCH3C4H2C2H2C2H2CHC3HC4HCHC4H2CH2SHC2FeC2HC4HCPH3CPC6H2CHC2H5CH2C3H4CHCHCH4C2HCH9C3H2SHCHC2H2C10PC16HFeH4C4HC2HC4PCH2CH3PH2C4H3C4H2C2HC3H5C4HCHC2H2C4FeHC2H2SHC2HC2HSCHCPC2H2CH5CHC3H4C2HCHCH3SFeS2PCFeCS2FeS2FeHFeS3CH3FeC4H2C5H3CHC2HCH3C5PH4C4SHCSHC3HCH3C5H2CHFeCH2C3HCHCHFeC3H2CHC2H2CHC4H3CH2SCHCHC2SH2SCH2CHC4H3CH2CHC3H4C2HPHC2HC2H2CHSC3H2C4SCH3FeH3C3HC5H2C2HCHSCH3C2HC2HCHCHCHC2HCHC3HSHCHSFeS2FeHFeS3FeHSFeC2HS2CH4C2FeH2FeC8H2C3H2CHC2H2C2SHC2H2CPHCHCHC4H2CHC3SPC18H4CH10CFeH2C4HFeCH2SH2C2H2C2H3CH3SH3CSH3C4H4CHC6HC2HCSC3HCHCH2CHC2H3CSHCHC2H4C2H3CHC3FeCSFeHSHSFeS3CS2FeS3FeHFeS2FeS2FeS2FeSFeS3CH2C7HC6H4C6H4C6H4C6H4CH6C4H3CPH2FeCHC7H3C2H5PC2HCHSCH2C6PC18H20CHCHCHC2HCH3C5HCSCHC2HC3HCH2C3HC9PC4HC10HC2HCH3CH11CH2C2H3C3H3C2FeC3H4C2HCH2FeCH3CHCSHC2H2CHC2HPSH2CH2C3HC3H3CHC3HC3HC2HC3H4C2HCH2PH4C2SC5HCHCHC3HFeCHFeS2HSFeS3CSH2SHC2HFeS2FeS2FeS2FeCFeS3C2HC2PCH3C7H4C6H4C6H4C6H4C3H2CH4C4PCHC2HPCHC10H3C7H7C2HCHC6PC13H4C2H2CH11C2H5FeCHC3SCHCH5C5HC4H2C4H2CH2CH4C4HCSC3HPC5H3SC4H3C2H2CHSCH2CHC2HC2HC2HC3FeHCHC2HCHCH6CFeC4HCH2CHCHC2HC2H2C3HCHCH2C2HC4H3CPHCHCHCHC
_chemical_formula_sum              "S256 H1536 C1920 Fe128 P64"
_cell_length_a       53.3949
_cell_length_b       54.0815
_cell_length_c       40.316
_cell_angle_alpha    89.7431
_cell_angle_beta     89.7392
_cell_angle_gamma    89.4786

_space_group_name_H-M_alt    "P 1"
_space_group_IT_number       1

loop_
  _space_group_symop_operation_xyz
  'x, y, z'

loop_
  _atom_site_type_symbol
  _atom_site_label
  _atom_site_symmetry_multiplicity
  _atom_site_fract_x
  _atom_site_fract_y
  _atom_site_fract_z
  _atom_site_occupancy
  S   S1        1.0  0.03184  0.10096  0.34135  1.0000
  H   H1        1.0  0.48383  0.02506  0.17691  1.0000
  S   S2        1.0  0.05061  0.05155  0.38167  1.0000
  C   C1        1.0  0.23769  0.30827  0.41141  1.0000
  Fe  Fe1       1.0  0.05320  0.09300  0.38818  1.0000
  S   S3        1.0  0.09001  0.11389  0.39374  1.0000
  Fe  Fe2       1.0  0.02696  0.05960  0.33633  1.0000
  H   H2        1.0  0.27742  0.26457  0.98461  1.0000
  C   C2        1.0  0.20622  0.30816  0.36795  1.0000
  Fe  Fe3       1.0  0.17354  0.27590  0.00660  1.0000
  H   H3        1.0  0.32325  0.27984  0.46728  1.0000
  H   H4        1.0  0.05778  0.20420  0.43893  1.0000
  Fe  Fe4       1.0  0.21669  0.25195  0.04852  1.0000
  H   H5        1.0  0.24062  0.27866  0.22236  1.0000
  S   S4        1.0  0.23385  0.25863  0.10032  1.0000
  H   H6        1.0  0.25632  0.30355  0.41999  1.0000
  C   C3        1.0  0.19229  0.25161  0.35605  1.0000
  H   H7        1.0  0.11388  0.30897  0.38032  1.0000
  C   C4        1.0  0.50126  0.08270  0.21685  1.0000
  S   S5        1.0  0.21469  0.28344  0.01174  1.0000
  S   S6        1.0  0.17481  0.24652  0.04613  1.0000
  H   H8        1.0  0.31949  0.20877  0.44422  1.0000
  C   C5        1.0  0.01973  0.17079  0.42123  1.0000
  S   S7        1.0  0.47240  0.11540  0.38888  1.0000
  Fe  Fe5       1.0  0.39797  0.26559  0.27229  1.0000
  S   S8        1.0  0.39387  0.23367  0.23733  1.0000
  S   S9        1.0  0.43326  0.28866  0.26462  1.0000
  Fe  Fe6       1.0  0.35171  0.24985  0.31081  1.0000
  S   S10       1.0  0.34501  0.21610  0.27947  1.0000
  S   S11       1.0  0.32933  0.26448  0.35487  1.0000
  Fe  Fe7       1.0  0.38694  0.21035  0.28251  1.0000
  S   S12       1.0  0.40891  0.17397  0.27934  1.0000
  Fe  Fe8       1.0  0.35235  0.24159  0.23594  1.0000
  S   S13       1.0  0.33380  0.23606  0.18469  1.0000
  S   S14       1.0  0.39292  0.24185  0.31760  1.0000
  S   S15       1.0  0.35713  0.27583  0.26720  1.0000
  C   C6        1.0  0.45568  0.13240  0.35810  1.0000
  C   C7        1.0  0.43718  0.14959  0.36793  1.0000
  C   C8        1.0  0.42313  0.16297  0.34420  1.0000
  C   C9        1.0  0.42742  0.15924  0.31031  1.0000
  C   C10       1.0  0.44614  0.14228  0.30050  1.0000
  C   C11       1.0  0.46029  0.12904  0.32421  1.0000
  H   H9        1.0  0.43346  0.15232  0.39406  1.0000
  H   H10       1.0  0.40860  0.17574  0.35212  1.0000
  H   H11       1.0  0.44952  0.13917  0.27437  1.0000
  H   H12       1.0  0.47440  0.11584  0.31626  1.0000
  H   H13       1.0  0.46026  0.00815  0.35529  1.0000
  C   C12       1.0  0.34994  0.26248  0.98869  1.0000
  C   C13       1.0  0.33566  0.25389  0.01549  1.0000
  C   C14       1.0  0.46212  0.24244  0.32485  1.0000
  S   S16       1.0  0.17052  0.23483  0.45473  1.0000
  H   H14       1.0  0.14850  0.17477  0.43868  1.0000
  C   C15       1.0  0.17071  0.31895  0.31446  1.0000
  C   C16       1.0  0.26210  0.25234  0.12290  1.0000
  C   C17       1.0  0.28105  0.23660  0.11104  1.0000
  C   C18       1.0  0.30270  0.23192  0.13031  1.0000
  C   C19       1.0  0.30578  0.24270  0.16182  1.0000
  C   C20       1.0  0.28674  0.25831  0.17379  1.0000
  C   C21       1.0  0.26519  0.26313  0.15439  1.0000
  H   H15       1.0  0.27897  0.22791  0.08713  1.0000
  H   H16       1.0  0.31720  0.21978  0.12074  1.0000
  H   H17       1.0  0.28877  0.26691  0.19776  1.0000
  H   H18       1.0  0.25076  0.27542  0.16372  1.0000
  C   C22       1.0  0.26193  0.22646  0.40353  1.0000
  C   C23       1.0  0.27586  0.21415  0.37893  1.0000
  C   C24       1.0  0.29687  0.22531  0.36416  1.0000
  C   C25       1.0  0.30417  0.24888  0.37413  1.0000
  C   C26       1.0  0.29077  0.26081  0.39963  1.0000
  C   C27       1.0  0.26971  0.24965  0.41432  1.0000
  H   H19       1.0  0.27018  0.19601  0.37104  1.0000
  H   H20       1.0  0.30710  0.21593  0.34463  1.0000
  H   H21       1.0  0.29659  0.27889  0.40774  1.0000
  H   H22       1.0  0.25939  0.25900  0.43377  1.0000
  C   C28       1.0  0.10717  0.03081  0.45536  1.0000
  C   C29       1.0  0.02910  0.01578  0.26107  1.0000
  C   C30       1.0  0.05570  0.08086  0.08273  1.0000
  C   C31       1.0  0.13148  0.16459  0.44332  1.0000
  C   C32       1.0  0.46313  0.21945  0.34057  1.0000
  C   C33       1.0  0.05549  0.29464  0.35248  1.0000
  C   C34       1.0  0.48284  0.25789  0.32523  1.0000
  C   C35       1.0  0.10011  0.13486  0.42468  1.0000
  C   C36       1.0  0.12215  0.14838  0.41908  1.0000
  H   H23       1.0  0.07042  0.12757  0.45949  1.0000
  H   H24       1.0  0.36571  0.30948  0.99084  1.0000
  H   H25       1.0  0.47926  0.31539  0.26618  1.0000
  H   H26       1.0  0.13221  0.14615  0.39593  1.0000
  H   H27       1.0  0.48546  0.19416  0.36934  1.0000
  C   C37       1.0  0.18943  0.32019  0.38959  1.0000
  C   C38       1.0  0.13172  0.30613  0.42798  1.0000
  H   H28       1.0  0.23227  0.15169  0.35664  1.0000
  H   H29       1.0  0.14340  0.29053  0.42115  1.0000
  H   H30       1.0  0.08114  0.25560  0.07820  1.0000
  H   H31       1.0  0.48126  0.27579  0.31331  1.0000
  H   H32       1.0  0.05139  0.23337  0.36856  1.0000
  C   C39       1.0  0.47087  0.20464  0.25104  1.0000
  C   C40       1.0  0.09673  0.25493  0.02895  1.0000
  H   H33       1.0  0.04458  0.28134  0.06250  1.0000
  C   C41       1.0  0.09404  0.26297  0.99623  1.0000
  H   H34       1.0  0.04471  0.07573  0.99989  1.0000
  C   C42       1.0  0.03033  0.30137  0.35567  1.0000
  C   C43       1.0  0.27390  0.26261  0.30503  1.0000
  Fe  Fe9       1.0  0.21163  0.22711  0.46267  1.0000
  C   C44       1.0  0.25386  0.24774  0.31458  1.0000
  P   P1        1.0  0.00933  0.06929  0.05557  1.0000
  S   S17       1.0  0.01912  0.09583  0.42082  1.0000
  H   H35       1.0  0.24281  0.25255  0.33614  1.0000
  H   H36       1.0  0.04823  0.01231  0.44246  1.0000
  H   H37       1.0  0.21637  0.15838  0.23567  1.0000
  C   C45       1.0  0.25835  0.32291  0.27682  1.0000
  C   C46       1.0  0.10955  0.21893  0.39480  1.0000
  H   H38       1.0  0.29165  0.15451  0.29097  1.0000
  C   C47       1.0  0.05444  0.07916  0.02281  1.0000
  C   C48       1.0  0.30953  0.25491  0.01416  1.0000
  C   C49       1.0  0.04233  0.07627  0.05346  1.0000
  C   C50       1.0  0.03364  0.15957  0.39596  1.0000
  C   C51       1.0  0.03552  0.17093  0.36494  1.0000
  H   H39       1.0  0.24366  0.29256  0.36331  1.0000
  C   C52       1.0  0.34289  0.23367  0.47240  1.0000
  H   H40       1.0  0.29645  0.31700  0.46725  1.0000
  H   H41       1.0  0.07822  0.18941  0.03849  1.0000
  H   H42       1.0  0.26049  0.17648  0.32150  1.0000
  C   C53       1.0  0.01944  0.25854  0.36724  1.0000
  C   C54       1.0  0.09279  0.09053  0.05049  1.0000
  C   C55       1.0  0.00832  0.19385  0.41588  1.0000
  C   C56       1.0  0.06267  0.15585  0.01902  1.0000
  C   C57       1.0  0.24621  0.19457  0.21089  1.0000
  C   C58       1.0  0.07862  0.26126  0.05262  1.0000
  C   C59       1.0  0.11673  0.24011  0.41182  1.0000
  H   H43       1.0  0.08307  0.18926  0.39228  1.0000
  S   S18       1.0  0.23446  0.21251  0.41908  1.0000
  C   C60       1.0  0.29129  0.17545  0.24491  1.0000
  P   P2        1.0  0.19613  0.29878  0.32713  1.0000
  H   H44       1.0  0.04277  0.14190  0.40018  1.0000
  H   H45       1.0  0.04578  0.16175  0.34518  1.0000
  C   C61       1.0  0.24022  0.29026  0.24419  1.0000
  S   S19       1.0  0.14330  0.30589  0.01006  1.0000
  H   H46       1.0  0.48513  0.29759  0.36444  1.0000
  C   C62       1.0  0.36463  0.24811  0.47117  1.0000
  C   C63       1.0  0.05525  0.01066  0.98475  1.0000
  H   H47       1.0  0.21745  0.20710  0.12384  1.0000
  C   C64       1.0  0.08734  0.13786  0.45479  1.0000
  H   H48       1.0  0.37019  0.26140  0.99000  1.0000
  C   C65       1.0  0.34096  0.15829  0.23806  1.0000
  H   H49       1.0  0.24125  0.16829  0.13441  1.0000
  C   C66       1.0  0.13385  0.31620  0.45965  1.0000
  C   C67       1.0  0.10318  0.24802  0.43970  1.0000
  C   C68       1.0  0.06757  0.18120  0.01861  1.0000
  H   H50       1.0  0.25959  0.16017  0.18963  1.0000
  C   C69       1.0  0.49533  0.31988  0.40556  1.0000
  H   H51       1.0  0.29589  0.22929  0.23996  1.0000
  C   C70       1.0  0.28394  0.23417  0.26071  1.0000
  C   C71       1.0  0.07421  0.21443  0.43202  1.0000
  C   C72       1.0  0.49608  0.10510  0.20088  1.0000
  H   H52       1.0  0.05111  0.02788  0.21918  1.0000
  H   H53       1.0  0.19628  0.12995  0.33156  1.0000
  C   C73       1.0  0.33637  0.21963  0.44454  1.0000
  C   C74       1.0  0.35147  0.21992  0.41612  1.0000
  C   C75       1.0  0.37299  0.23438  0.41508  1.0000
  C   C76       1.0  0.01538  0.01443  0.12534  1.0000
  C   C77       1.0  0.24882  0.22606  0.29725  1.0000
  H   H54       1.0  0.33509  0.13983  0.28472  1.0000
  H   H55       1.0  0.07651  0.08288  0.47980  1.0000
  C   C78       1.0  0.30195  0.15977  0.26904  1.0000
  H   H56       1.0  0.34610  0.20950  0.39441  1.0000
  H   H57       1.0  0.38424  0.23504  0.39266  1.0000
  C   C79       1.0  0.04497  0.25208  0.36456  1.0000
  C   C80       1.0  0.32667  0.15127  0.26558  1.0000
  C   C81       1.0  0.24497  0.16701  0.31017  1.0000
  C   C82       1.0  0.16964  0.21765  0.33167  1.0000
  C   C83       1.0  0.16243  0.23296  0.30531  1.0000
  C   C84       1.0  0.17017  0.25761  0.30423  1.0000
  H   H58       1.0  0.20758  0.27315  0.26417  1.0000
  Fe  Fe10      1.0  0.18215  0.22003  0.00428  1.0000
  H   H59       1.0  0.18866  0.13326  0.27102  1.0000
  C   C85       1.0  0.22899  0.15297  0.33014  1.0000
  H   H60       1.0  0.02529  0.20229  0.33502  1.0000
  C   C86       1.0  0.02396  0.19386  0.35938  1.0000
  C   C87       1.0  0.04001  0.00356  0.46404  1.0000
  H   H61       1.0  0.16382  0.19850  0.33247  1.0000
  H   H62       1.0  0.15092  0.22569  0.28561  1.0000
  H   H63       1.0  0.16442  0.26922  0.28361  1.0000
  H   H64       1.0  0.13334  0.24992  0.40400  1.0000
  C   C88       1.0  0.05785  0.27570  0.04354  1.0000
  H   H65       1.0  0.39612  0.25990  0.44152  1.0000
  H   H66       1.0  0.09108  0.09129  0.10386  1.0000
  H   H67       1.0  0.36042  0.15250  0.23608  1.0000
  H   H68       1.0  0.27783  0.22041  0.47336  1.0000
  H   H69       1.0  0.06938  0.14439  0.03927  1.0000
  C   C89       1.0  0.18532  0.26714  0.32949  1.0000
  C   C90       1.0  0.22075  0.31993  0.43285  1.0000
  C   C91       1.0  0.11906  0.16718  0.47372  1.0000
  C   C92       1.0  0.05148  0.28754  0.44793  1.0000
  C   C93       1.0  0.23960  0.31990  0.30084  1.0000
  H   H70       1.0  0.12067  0.21224  0.37413  1.0000
  C   C94       1.0  0.18444  0.22702  0.35706  1.0000
  C   C95       1.0  0.23231  0.21629  0.20485  1.0000
  H   H71       1.0  0.04338  0.32090  0.42029  1.0000
  H   H72       1.0  0.34167  0.17963  0.19281  1.0000
  C   C96       1.0  0.01244  0.28349  0.36325  1.0000
  H   H73       1.0  0.45785  0.21598  0.26515  1.0000
  P   P3        1.0  0.26045  0.18908  0.25085  1.0000
  C   C97       1.0  0.07958  0.08614  0.02133  1.0000
  C   C98       1.0  0.25865  0.30810  0.24850  1.0000
  C   C99       1.0  0.33041  0.17353  0.21371  1.0000
  H   H74       1.0  0.29838  0.19464  0.19845  1.0000
  H   H75       1.0  0.19005  0.21516  0.37757  1.0000
  H   H76       1.0  0.11329  0.24445  0.03610  1.0000
  C   C100      1.0  0.20439  0.14274  0.28194  1.0000
  C   C101      1.0  0.47886  0.17752  0.20459  1.0000
  C   C102      1.0  0.46238  0.19237  0.22293  1.0000
  C   C103      1.0  0.46782  0.32225  0.28631  1.0000
  H   H77       1.0  0.08887  0.08773  0.99743  1.0000
  H   H78       1.0  0.02251  0.12057  0.07341  1.0000
  C   C104      1.0  0.48498  0.21191  0.35675  1.0000
  H   H79       1.0  0.30389  0.26778  0.27010  1.0000
  C   C105      1.0  0.50034  0.30281  0.38044  1.0000
  H   H80       1.0  0.47214  0.16806  0.18279  1.0000
  H   H81       1.0  0.44289  0.19423  0.21568  1.0000
  C   C106      1.0  0.22114  0.30178  0.29692  1.0000
  H   H82       1.0  0.44693  0.20756  0.34021  1.0000
  H   H83       1.0  0.06297  0.21555  0.99232  1.0000
  S   S20       1.0  0.15916  0.18458  0.00552  1.0000
  C   C107      1.0  0.26453  0.21856  0.27100  1.0000
  C   C108      1.0  0.07318  0.27718  0.98696  1.0000
  H   H84       1.0  0.23305  0.21505  0.30510  1.0000
  H   H85       1.0  0.27835  0.27903  0.31905  1.0000
  C   C109      1.0  0.04099  0.31114  0.44365  1.0000
  H   H86       1.0  0.12431  0.14443  0.00161  1.0000
  C   C110      1.0  0.05913  0.19591  0.99223  1.0000
  C   C111      1.0  0.12635  0.32945  0.31441  1.0000
  C   C112      1.0  0.06286  0.27005  0.35715  1.0000
  H   H87       1.0  0.22608  0.32401  0.45812  1.0000
  C   C113      1.0  0.05476  0.28354  0.01049  1.0000
  S   S21       1.0  0.22439  0.22307  0.00924  1.0000
  H   H88       1.0  0.09516  0.06402  0.43002  1.0000
  C   C114      1.0  0.50130  0.10774  0.16703  1.0000
  H   H89       1.0  0.48789  0.12029  0.21478  1.0000
  H   H90       1.0  0.22994  0.23013  0.22391  1.0000
  H   H91       1.0  0.01765  0.16142  0.44483  1.0000
  C   C115      1.0  0.08834  0.20605  0.40498  1.0000
  C   C116      1.0  0.11526  0.31688  0.40472  1.0000
  H   H92       1.0  0.25230  0.18271  0.47415  1.0000
  H   H93       1.0  0.10725  0.32532  0.32153  1.0000
  C   C117      1.0  0.30574  0.18206  0.21707  1.0000
  H   H94       1.0  0.08249  0.26496  0.35538  1.0000
  C   C118      1.0  0.44391  0.31219  0.29157  1.0000
  H   H95       1.0  0.06927  0.30861  0.34687  1.0000
  C   C119      1.0  0.22498  0.20327  0.14831  1.0000
  S   S22       1.0  0.03528  0.04333  0.28430  1.0000
  C   C120      1.0  0.20869  0.14082  0.31604  1.0000
  C   C121      1.0  0.08169  0.23532  0.45001  1.0000
  H   H96       1.0  0.01190  0.25764  0.03230  1.0000
  H   H97       1.0  0.21177  0.23770  0.16850  1.0000
  H   H98       1.0  0.41073  0.31374  0.32195  1.0000
  C   C122      1.0  0.28856  0.25609  0.27769  1.0000
  C   C123      1.0  0.05814  0.00298  0.01786  1.0000
  C   C124      1.0  0.03954  0.01324  0.22902  1.0000
  H   H99       1.0  0.06178  0.27932  0.42758  1.0000
  C   C125      1.0  0.14587  0.31319  0.32276  1.0000
  C   C126      1.0  0.23852  0.18149  0.15425  1.0000
  H   H100      1.0  0.50186  0.21108  0.28348  1.0000
  C   C127      1.0  0.02799  0.32248  0.46972  1.0000
  H   H101      1.0  0.02467  0.32057  0.35271  1.0000
  H   H102      1.0  0.04665  0.07917  0.10673  1.0000
  H   H103      1.0  0.11230  0.09584  0.04919  1.0000
  C   C128      1.0  0.08084  0.08790  0.08121  1.0000
  H   H104      1.0  0.50278  0.00024  0.33286  1.0000
  C   C129      1.0  0.22151  0.28712  0.26820  1.0000
  H   H105      1.0  0.34481  0.24642  0.03735  1.0000
  C   C130      1.0  0.23045  0.30222  0.37916  1.0000
  H   H106      1.0  0.17055  0.32478  0.38201  1.0000
  C   C131      1.0  0.22024  0.15698  0.26193  1.0000
  C   C132      1.0  0.24058  0.16943  0.27597  1.0000
  H   H107      1.0  0.20393  0.25817  0.37604  1.0000
  C   C133      1.0  0.37960  0.24844  0.44261  1.0000
  H   H108      1.0  0.44529  0.24845  0.31221  1.0000
  C   C134      1.0  0.29770  0.26419  0.98585  1.0000
  Fe  Fe11      1.0  0.01444  0.05523  0.41051  1.0000
  C   C135      1.0  0.48666  0.01305  0.15587  1.0000
  C   C136      1.0  0.22175  0.22057  0.17364  1.0000
  C   C137      1.0  0.24899  0.17706  0.18548  1.0000
  H   H109      1.0  0.11523  0.02256  0.43327  1.0000
  H   H110      1.0  0.04553  0.12565  0.99324  1.0000
  H   H111      1.0  0.07024  0.01324  0.03414  1.0000
  C   C138      1.0  0.04938  0.14524  0.99301  1.0000
  H   H112      1.0  0.47661  0.32757  0.40837  1.0000
  H   H113      1.0  0.29842  0.24838  0.03496  1.0000
  C   C139      1.0  0.01080  0.20581  0.38508  1.0000
  H   H114      1.0  0.49711  0.12505  0.15456  1.0000
  C   C140      1.0  0.49574  0.20178  0.26126  1.0000
  H   H115      1.0  0.14162  0.29645  0.33639  1.0000
  C   C141      1.0  0.42916  0.32127  0.31762  1.0000
  P   P4        1.0  0.02877  0.30371  0.99937  1.0000
  H   H116      1.0  0.10963  0.26388  0.45337  1.0000
  C   C142      1.0  0.09566  0.05407  0.45345  1.0000
  C   C143      1.0  0.04910  0.27522  0.47850  1.0000
  C   C144      1.0  0.01967  0.02975  0.09792  1.0000
  H   H117      1.0  0.03467  0.02512  0.08077  1.0000
  H   H118      1.0  0.06767  0.32513  0.04300  1.0000
  H   H119      1.0  0.00697  0.20842  0.99354  1.0000
  H   H120      1.0  0.49728  0.08051  0.24314  1.0000
  H   H121      1.0  0.27328  0.31029  0.22997  1.0000
  C   C145      1.0  0.50376  0.17457  0.21471  1.0000
  C   C146      1.0  0.01581  0.01006  0.47419  1.0000
  C   C147      1.0  0.19672  0.32602  0.42186  1.0000
  H   H122      1.0  0.50279  0.01201  0.46265  1.0000
  C   C148      1.0  0.09698  0.15370  0.47926  1.0000
  H   H123      1.0  0.23945  0.33189  0.32228  1.0000
  S   S23       1.0  0.04638  0.09756  0.84737  1.0000
  Fe  Fe12      1.0  0.06039  0.05682  0.92382  1.0000
  S   S24       1.0  0.08917  0.06492  0.88459  1.0000
  H   H124      1.0  0.08069  0.21674  0.54573  1.0000
  Fe  Fe13      1.0  0.07502  0.10403  0.88729  1.0000
  S   S25       1.0  0.10054  0.13763  0.88368  1.0000
  Fe  Fe14      1.0  0.05830  0.05748  0.84781  1.0000
  S   S26       1.0  0.07055  0.03601  0.80101  1.0000
  S   S27       1.0  0.04829  0.09665  0.92919  1.0000
  C   C149      1.0  0.41742  0.23969  0.90194  1.0000
  C   C150      1.0  0.03154  0.00793  0.77457  1.0000
  P   P5        1.0  0.35731  0.28396  0.92659  1.0000
  Fe  Fe15      1.0  0.21012  0.23618  0.53745  1.0000
  H   H125      1.0  0.03171  0.15112  0.94597  1.0000
  S   S28       1.0  0.22922  0.24274  0.58840  1.0000
  C   C151      1.0  0.08498  0.06467  0.48178  1.0000
  H   H126      1.0  0.08539  0.01320  0.86589  1.0000
  Fe  Fe16      1.0  0.16495  0.21153  0.50027  1.0000
  S   S29       1.0  0.13061  0.18653  0.50571  1.0000
  C   C152      1.0  0.45103  0.31696  0.72027  1.0000
  S   S30       1.0  0.16847  0.24377  0.53503  1.0000
  H   H127      1.0  0.01853  0.14360  0.81856  1.0000
  H   H128      1.0  0.46549  0.22349  0.72762  1.0000
  S   S31       1.0  0.47723  0.10458  0.86748  1.0000
  Fe  Fe17      1.0  0.37782  0.25682  0.77299  1.0000
  S   S32       1.0  0.38739  0.23319  0.72872  1.0000
  S   S33       1.0  0.39365  0.29595  0.77607  1.0000
  Fe  Fe18      1.0  0.34545  0.21687  0.80302  1.0000
  S   S34       1.0  0.35311  0.19023  0.76132  1.0000
  S   S35       1.0  0.32301  0.20209  0.84657  1.0000
  Fe  Fe19      1.0  0.39314  0.20233  0.76588  1.0000
  S   S36       1.0  0.42763  0.17716  0.75982  1.0000
  Fe  Fe20      1.0  0.34638  0.22290  0.72720  1.0000
  S   S37       1.0  0.32678  0.21617  0.67672  1.0000
  S   S38       1.0  0.38604  0.22672  0.80991  1.0000
  S   S39       1.0  0.33625  0.24885  0.76907  1.0000
  C   C153      1.0  0.46400  0.12493  0.83729  1.0000
  C   C154      1.0  0.44279  0.13925  0.84575  1.0000
  C   C155      1.0  0.43165  0.15557  0.82258  1.0000
  C   C156      1.0  0.44157  0.15770  0.79052  1.0000
  C   C157      1.0  0.46280  0.14337  0.78206  1.0000
  C   C158      1.0  0.47380  0.12692  0.80517  1.0000
  H   H129      1.0  0.43488  0.13768  0.87042  1.0000
  H   H130      1.0  0.41524  0.16630  0.82940  1.0000
  H   H131      1.0  0.47050  0.14469  0.75726  1.0000
  H   H132      1.0  0.48963  0.11550  0.79805  1.0000
  C   C159      1.0  0.41474  0.30790  0.80603  1.0000
  C   C160      1.0  0.43432  0.01956  0.73567  1.0000
  H   H133      1.0  0.29878  0.15178  0.55074  1.0000
  H   H134      1.0  0.41499  0.27587  0.83787  1.0000
  C   C161      1.0  0.20799  0.31308  0.88185  1.0000
  H   H135      1.0  0.00858  0.24670  0.49128  1.0000
  H   H136      1.0  0.15672  0.19751  0.93528  1.0000
  C   C162      1.0  0.25632  0.23460  0.61273  1.0000
  C   C163      1.0  0.27448  0.21749  0.60209  1.0000
  C   C164      1.0  0.29566  0.21208  0.62202  1.0000
  C   C165      1.0  0.29911  0.22348  0.65309  1.0000
  C   C166      1.0  0.28084  0.24042  0.66389  1.0000
  C   C167      1.0  0.25971  0.24591  0.64387  1.0000
  H   H137      1.0  0.27218  0.20840  0.57850  1.0000
  H   H138      1.0  0.30956  0.19896  0.61324  1.0000
  H   H139      1.0  0.28307  0.24946  0.68755  1.0000
  H   H140      1.0  0.24590  0.25916  0.65253  1.0000
  C   C168      1.0  0.26634  0.24792  0.90665  1.0000
  C   C169      1.0  0.27827  0.25834  0.87887  1.0000
  C   C170      1.0  0.29596  0.24463  0.86049  1.0000
  C   C171      1.0  0.30167  0.22031  0.86964  1.0000
  C   C172      1.0  0.29017  0.21005  0.89785  1.0000
  C   C173      1.0  0.27279  0.22391  0.91657  1.0000
  H   H141      1.0  0.27379  0.27711  0.87150  1.0000
  H   H142      1.0  0.30499  0.25278  0.83908  1.0000
  H   H143      1.0  0.29480  0.19133  0.90535  1.0000
  H   H144      1.0  0.26440  0.21597  0.93859  1.0000
  H   H145      1.0  0.03742  0.00317  0.93830  1.0000
  C   C174      1.0  0.05671  0.01486  0.77259  1.0000
  C   C175      1.0  0.13843  0.11571  0.58102  1.0000
  C   C176      1.0  0.10490  0.23495  0.91630  1.0000
  S   S40       1.0  0.07281  0.03573  0.96966  1.0000
  C   C177      1.0  0.37612  0.31000  0.93871  1.0000
  C   C178      1.0  0.14463  0.18194  0.93955  1.0000
  C   C179      1.0  0.11612  0.15065  0.91814  1.0000
  C   C180      1.0  0.11329  0.14128  0.95032  1.0000
  C   C181      1.0  0.49555  0.21362  0.76090  1.0000
  H   H146      1.0  0.09576  0.28812  0.50143  1.0000
  H   H147      1.0  0.13416  0.17835  0.88814  1.0000
  C   C182      1.0  0.42218  0.29429  0.83398  1.0000
  S   S41       1.0  0.15586  0.30449  0.48884  1.0000
  C   C183      1.0  0.14220  0.17232  0.97163  1.0000
  C   C184      1.0  0.40587  0.21763  0.89289  1.0000
  C   C185      1.0  0.33820  0.27259  0.96052  1.0000
  C   C186      1.0  0.45153  0.31068  0.68672  1.0000
  H   H148      1.0  0.03535  0.27824  0.52889  1.0000
  C   C187      1.0  0.10089  0.10963  0.54871  1.0000
  C   C188      1.0  0.44801  0.32884  0.85285  1.0000
  S   S42       1.0  0.03031  0.04703  0.88745  1.0000
  H   H149      1.0  0.44378  0.29440  0.87922  1.0000
  H   H150      1.0  0.27777  0.24848  0.54544  1.0000
  H   H151      1.0  0.25187  0.28621  0.54616  1.0000
  H   H152      1.0  0.17301  0.30413  0.90561  1.0000
  C   C189      1.0  0.46648  0.23674  0.80984  1.0000
  H   H153      1.0  0.43323  0.32055  0.73244  1.0000
  C   C190      1.0  0.07165  0.00477  0.74699  1.0000
  C   C191      1.0  0.40879  0.02044  0.72751  1.0000
  C   C192      1.0  0.01373  0.30613  0.88680  1.0000
  H   H154      1.0  0.41227  0.27668  0.91957  1.0000
  H   H155      1.0  0.27249  0.08208  0.83363  1.0000
  C   C193      1.0  0.29448  0.16665  0.53353  1.0000
  C   C194      1.0  0.47258  0.22468  0.75270  1.0000
  C   C195      1.0  0.50437  0.16298  0.88613  1.0000
  C   C196      1.0  0.29571  0.14014  0.84081  1.0000
  Fe  Fe21      1.0  0.21987  0.25438  0.97238  1.0000
  C   C197      1.0  0.09781  0.27462  0.52118  1.0000
  C   C198      1.0  0.03101  0.17984  0.50992  1.0000
  C   C199      1.0  0.43850  0.30484  0.85738  1.0000
  C   C200      1.0  0.30953  0.18768  0.53251  1.0000
  C   C201      1.0  0.03644  0.28702  0.50474  1.0000
  C   C202      1.0  0.04573  0.16457  0.84567  1.0000
  C   C203      1.0  0.30381  0.20726  0.51070  1.0000
  H   H156      1.0  0.31719  0.25815  0.57487  1.0000
  C   C204      1.0  0.06384  0.05125  0.61434  1.0000
  C   C205      1.0  0.20667  0.22344  0.77964  1.0000
  C   C206      1.0  0.28227  0.26341  0.52852  1.0000
  C   C207      1.0  0.14460  0.24976  0.82729  1.0000
  C   C208      1.0  0.14991  0.23249  0.85217  1.0000
  C   C209      1.0  0.00714  0.08912  0.50636  1.0000
  C   C210      1.0  0.30285  0.26142  0.50689  1.0000
  H   H157      1.0  0.03289  0.05878  0.50073  1.0000
  C   C211      1.0  0.37981  0.21575  0.89446  1.0000
  Fe  Fe22      1.0  0.02040  0.08782  0.88961  1.0000
  C   C212      1.0  0.22608  0.22461  0.75630  1.0000
  H   H158      1.0  0.12907  0.24674  0.81061  1.0000
  H   H159      1.0  0.13851  0.21611  0.85481  1.0000
  C   C213      1.0  0.24402  0.18686  0.77886  1.0000
  H   H160      1.0  0.06116  0.15963  0.82936  1.0000
  C   C214      1.0  0.24479  0.20638  0.75599  1.0000
  C   C215      1.0  0.04096  0.22267  0.49716  1.0000
  C   C216      1.0  0.30780  0.28091  0.48468  1.0000
  H   H161      1.0  0.28575  0.28076  0.76514  1.0000
  Fe  Fe23      1.0  0.17572  0.26669  0.48948  1.0000
  C   C217      1.0  0.17872  0.32640  0.82264  1.0000
  H   H162      1.0  0.21945  0.21703  0.92522  1.0000
  C   C218      1.0  0.04502  0.08406  0.53892  1.0000
  C   C219      1.0  0.03043  0.18508  0.89537  1.0000
  H   H163      1.0  0.07036  0.06924  0.62194  1.0000
  H   H164      1.0  0.04695  0.32800  0.88350  1.0000
  C   C220      1.0  0.40291  0.25989  0.91246  1.0000
  C   C221      1.0  0.04861  0.19822  0.50340  1.0000
  H   H165      1.0  0.48480  0.27861  0.84526  1.0000
  H   H166      1.0  0.06891  0.18564  0.87792  1.0000
  C   C222      1.0  0.06045  0.22579  0.92069  1.0000
  C   C223      1.0  0.05494  0.24865  0.90562  1.0000
  C   C224      1.0  0.07433  0.26435  0.89571  1.0000
  C   C225      1.0  0.09926  0.25753  0.90115  1.0000
  C   C226      1.0  0.02571  0.31044  0.50024  1.0000
  C   C227      1.0  0.27386  0.16485  0.51252  1.0000
  C   C228      1.0  0.18452  0.25761  0.87053  1.0000
  C   C229      1.0  0.06319  0.04481  0.58061  1.0000
  H   H167      1.0  0.08746  0.15528  0.50282  1.0000
  C   C230      1.0  0.26750  0.28485  0.52893  1.0000
  C   C231      1.0  0.04726  0.01114  0.62944  1.0000
  H   H168      1.0  0.14104  0.29295  0.94013  1.0000
  C   C232      1.0  0.45803  0.23616  0.77715  1.0000
  H   H169      1.0  0.09921  0.01906  0.53756  1.0000
  C   C233      1.0  0.09778  0.02892  0.51420  1.0000
  H   H170      1.0  0.43761  0.24116  0.90072  1.0000
  C   C234      1.0  0.13579  0.09211  0.59481  1.0000
  C   C235      1.0  0.25784  0.26650  0.79866  1.0000
  C   C236      1.0  0.33934  0.29537  0.89176  1.0000
  H   H171      1.0  0.20431  0.18521  0.96481  1.0000
  S   S43       1.0  0.20584  0.20163  0.50661  1.0000
  C   C237      1.0  0.45964  0.04023  0.86091  1.0000
  H   H172      1.0  0.03582  0.25434  0.90118  1.0000
  C   C238      1.0  0.32079  0.31358  0.89673  1.0000
  H   H173      1.0  0.26083  0.32062  0.50696  1.0000
  H   H174      1.0  0.46392  0.00837  0.89265  1.0000
  H   H175      1.0  0.15419  0.12713  0.58775  1.0000
  C   C239      1.0  0.08546  0.25176  0.51993  1.0000
  C   C240      1.0  0.27276  0.10210  0.83449  1.0000
  C   C241      1.0  0.03478  0.31755  0.89977  1.0000
  C   C242      1.0  0.01521  0.22832  0.49705  1.0000
  H   H176      1.0  0.05050  0.11184  0.57665  1.0000
  H   H177      1.0  0.37074  0.19878  0.88709  1.0000
  H   H178      1.0  0.46210  0.05339  0.88084  1.0000
  C   C243      1.0  0.49631  0.31255  0.72281  1.0000
  S   S44       1.0  0.21762  0.26118  0.49339  1.0000
  H   H179      1.0  0.07210  0.28381  0.96172  1.0000
  C   C244      1.0  0.36526  0.23594  0.90476  1.0000
  S   S45       1.0  0.17839  0.24916  0.96468  1.0000
  C   C245      1.0  0.47992  0.05273  0.70710  1.0000
  C   C246      1.0  0.47794  0.05110  0.74182  1.0000
  C   C247      1.0  0.25878  0.30883  0.77917  1.0000
  P   P6        1.0  0.44825  0.04339  0.76064  1.0000
  H   H180      1.0  0.05205  0.01682  0.54572  1.0000
  C   C248      1.0  0.45301  0.03193  0.80240  1.0000
  H   H181      1.0  0.12422  0.22976  0.92084  1.0000
  C   C249      1.0  0.49945  0.29038  0.83580  1.0000
  P   P7        1.0  0.07289  0.06652  0.54898  1.0000
  C   C250      1.0  0.37673  0.31828  0.97169  1.0000
  C   C251      1.0  0.45608  0.04873  0.82847  1.0000
  C   C252      1.0  0.49674  0.30715  0.68877  1.0000
  P   P8        1.0  0.06414  0.24566  0.48607  1.0000
  H   H182      1.0  0.47478  0.30145  0.64473  1.0000
  H   H183      1.0  0.00933  0.05847  0.60400  1.0000
  H   H184      1.0  0.22667  0.23961  0.73838  1.0000
  C   C253      1.0  0.42837  0.07064  0.76225  1.0000
  C   C254      1.0  0.40885  0.07213  0.78568  1.0000
  C   C255      1.0  0.39405  0.09356  0.78798  1.0000
  C   C256      1.0  0.39837  0.11347  0.76658  1.0000
  C   C257      1.0  0.41736  0.11192  0.74276  1.0000
  C   C258      1.0  0.43242  0.09070  0.74066  1.0000
  H   H185      1.0  0.33949  0.29503  0.80717  1.0000
  H   H186      1.0  0.32533  0.18859  0.54911  1.0000
  H   H187      1.0  0.46391  0.04894  0.69157  1.0000
  C   C259      1.0  0.37108  0.23287  0.60393  1.0000
  C   C260      1.0  0.02346  0.30341  0.95512  1.0000
  H   H188      1.0  0.45488  0.24529  0.82878  1.0000
  C   C261      1.0  0.15916  0.27101  0.82403  1.0000
  H   H189      1.0  0.19213  0.23754  0.77979  1.0000
  H   H190      1.0  0.45582  0.06847  0.82373  1.0000
  C   C262      1.0  0.31468  0.31712  0.83742  1.0000
  C   C263      1.0  0.22561  0.29560  0.81665  1.0000
  H   H191      1.0  0.17390  0.22311  0.89311  1.0000
  P   P9        1.0  0.03595  0.20414  0.93123  1.0000
  C   C264      1.0  0.26900  0.28495  0.77947  1.0000
  H   H192      1.0  0.37951  0.09493  0.80671  1.0000
  H   H193      1.0  0.38738  0.13037  0.76880  1.0000
  H   H194      1.0  0.42092  0.12764  0.72665  1.0000
  H   H195      1.0  0.44738  0.09034  0.72256  1.0000
  C   C265      1.0  0.33373  0.29969  0.83219  1.0000
  C   C266      1.0  0.05008  0.17930  0.87342  1.0000
  C   C267      1.0  0.47440  0.30603  0.67087  1.0000
  H   H196      1.0  0.12359  0.14240  0.54638  1.0000
  H   H197      1.0  0.38155  0.23134  0.62686  1.0000
  H   H198      1.0  0.05697  0.03912  0.66475  1.0000
  P   P10       1.0  0.19816  0.30260  0.84146  1.0000
  C   C268      1.0  0.42406  0.33198  0.80174  1.0000
  H   H199      1.0  0.36093  0.27558  0.85433  1.0000
  C   C269      1.0  0.11318  0.28037  0.54797  1.0000
  C   C270      1.0  0.11663  0.26334  0.57367  1.0000
  C   C271      1.0  0.10485  0.24042  0.57246  1.0000
  H   H200      1.0  0.25979  0.20722  0.73774  1.0000
  C   C272      1.0  0.37667  0.25820  0.91364  1.0000
  C   C273      1.0  0.01689  0.11888  0.54890  1.0000
  H   H201      1.0  0.12302  0.29782  0.54825  1.0000
  H   H202      1.0  0.12917  0.26756  0.59389  1.0000
  H   H203      1.0  0.10825  0.22687  0.59182  1.0000
  H   H204      1.0  0.31322  0.14969  0.84472  1.0000
  C   C274      1.0  0.18001  0.11389  0.77205  1.0000
  C   C275      1.0  0.15671  0.11393  0.78802  1.0000
  C   C276      1.0  0.15299  0.12816  0.81648  1.0000
  C   C277      1.0  0.17261  0.14210  0.82929  1.0000
  C   C278      1.0  0.19639  0.14136  0.81415  1.0000
  C   C279      1.0  0.19973  0.12773  0.78488  1.0000
  P   P11       1.0  0.22196  0.15938  0.83010  1.0000
  C   C280      1.0  0.22468  0.18565  0.80257  1.0000
  C   C281      1.0  0.21587  0.16814  0.87246  1.0000
  C   C282      1.0  0.20771  0.15017  0.89526  1.0000
  C   C283      1.0  0.20343  0.15642  0.92839  1.0000
  C   C284      1.0  0.20773  0.18048  0.93912  1.0000
  C   C285      1.0  0.21617  0.19837  0.91674  1.0000
  C   C286      1.0  0.22057  0.19221  0.88355  1.0000
  C   C287      1.0  0.20590  0.20399  0.80261  1.0000
  C   C288      1.0  0.03962  0.31629  0.93379  1.0000
  H   H205      1.0  0.30216  0.27927  0.93723  1.0000
  C   C289      1.0  0.11567  0.07726  0.58561  1.0000
  H   H206      1.0  0.09054  0.20128  0.93658  1.0000
  C   C290      1.0  0.25066  0.14159  0.83247  1.0000
  C   C291      1.0  0.27342  0.15371  0.83788  1.0000
  C   C292      1.0  0.00664  0.17498  0.88989  1.0000
  C   C293      1.0  0.04143  0.15978  0.96625  1.0000
  C   C294      1.0  0.31192  0.27281  0.95902  1.0000
  C   C295      1.0  0.25040  0.11562  0.83152  1.0000
  H   H207      1.0  0.18277  0.10311  0.74971  1.0000
  H   H208      1.0  0.14145  0.10305  0.77832  1.0000
  H   H209      1.0  0.13484  0.12834  0.82872  1.0000
  H   H210      1.0  0.16900  0.15328  0.85102  1.0000
  H   H211      1.0  0.21762  0.12772  0.77207  1.0000
  H   H212      1.0  0.20455  0.13133  0.88742  1.0000
  C   C296      1.0  0.02883  0.07570  0.51413  1.0000
  H   H213      1.0  0.39690  0.03545  0.73603  1.0000
  H   H214      1.0  0.22795  0.20618  0.86693  1.0000
  H   H215      1.0  0.19049  0.20299  0.82009  1.0000
  H   H216      1.0  0.37129  0.21129  0.52493  1.0000
  H   H217      1.0  0.10873  0.25904  0.97837  1.0000
  C   C297      1.0  0.17911  0.27526  0.84588  1.0000
  H   H218      1.0  0.06829  0.19336  0.50210  1.0000
  H   H219      1.0  0.27399  0.17369  0.83995  1.0000
  C   C298      1.0  0.49892  0.05643  0.76132  1.0000
  H   H220      1.0  0.31628  0.31989  0.92153  1.0000
  H   H221      1.0  0.43413  0.30948  0.67308  1.0000
  H   H222      1.0  0.23300  0.10572  0.82899  1.0000
  C   C299      1.0  0.05353  0.02180  0.57158  1.0000
  H   H223      1.0  0.24533  0.32377  0.86645  1.0000
  C   C300      1.0  0.33467  0.24797  0.57420  1.0000
  C   C301      1.0  0.13184  0.17104  0.91292  1.0000
  C   C302      1.0  0.08552  0.05196  0.51226  1.0000
  H   H224      1.0  0.26220  0.14857  0.51323  1.0000
  H   H225      1.0  0.12105  0.31437  0.89194  1.0000
  S   S46       1.0  0.24361  0.26575  0.92795  1.0000
  H   H226      1.0  0.31274  0.10393  0.84138  1.0000
  H   H227      1.0  0.14960  0.08515  0.61221  1.0000
  C   C303      1.0  0.16985  0.23643  0.87375  1.0000
  C   C304      1.0  0.34592  0.28870  0.85918  1.0000
  C   C305      1.0  0.34259  0.23536  0.54556  1.0000
  H   H228      1.0  0.43993  0.24415  0.77088  1.0000
  C   C306      1.0  0.27254  0.30416  0.50683  1.0000
  H   H229      1.0  0.10119  0.12565  0.95469  1.0000
  C   C307      1.0  0.09763  0.08625  0.56322  1.0000
  H   H230      1.0  0.48656  0.15508  0.89342  1.0000
  H   H231      1.0  0.11425  0.26973  0.89362  1.0000
  H   H232      1.0  0.49113  0.28310  0.78478  1.0000
  C   C308      1.0  0.03867  0.10551  0.55672  1.0000
  H   H233      1.0  0.30536  0.32560  0.81641  1.0000
  C   C309      1.0  0.11822  0.32138  0.91676  1.0000
  H   H234      1.0  0.08812  0.11621  0.52982  1.0000
  C   C310      1.0  0.48960  0.22601  0.81809  1.0000
  H   H235      1.0  0.22843  0.25732  0.83266  1.0000
  H   H236      1.0  0.41705  0.20204  0.88438  1.0000
  H   H237      1.0  0.19657  0.14271  0.94582  1.0000
  C   C311      1.0  0.36508  0.22165  0.54643  1.0000
  H   H238      1.0  0.49802  0.05547  0.78812  1.0000
  H   H239      1.0  0.34506  0.23426  0.90553  1.0000
  C   C312      1.0  0.02180  0.15541  0.83971  1.0000
  C   C313      1.0  0.23730  0.31422  0.79792  1.0000
  H   H240      1.0  0.40534  0.05694  0.80261  1.0000
  H   H241      1.0  0.39632  0.20948  0.57623  1.0000
  C   C314      1.0  0.50254  0.05940  0.69215  1.0000
  C   C315      1.0  0.08565  0.21903  0.92572  1.0000
  C   C316      1.0  0.08927  0.23466  0.54583  1.0000
  H   H242      1.0  0.11444  0.05868  0.59559  1.0000
  H   H243      1.0  0.25835  0.17261  0.77746  1.0000
  C   C317      1.0  0.05607  0.03436  0.63866  1.0000
  C   C318      1.0  0.34892  0.24674  0.60318  1.0000
  H   H244      1.0  0.34225  0.25578  0.62555  1.0000
  H   H245      1.0  0.19999  0.26027  0.88740  1.0000
  C   C319      1.0  0.37927  0.22047  0.57549  1.0000
  H   H246      1.0  0.26609  0.24810  0.79947  1.0000
  C   C320      1.0  0.12107  0.12439  0.55782  1.0000
  P   P12       1.0  0.32312  0.23450  0.50895  1.0000
  H   H247      1.0  0.07012  0.28191  0.88387  1.0000
  C   C321      1.0  0.04591  0.00492  0.59591  1.0000
  C   C322      1.0  0.12637  0.15200  0.97688  1.0000
  H   H248      1.0  0.03727  0.16096  0.51397  1.0000
  C   C323      1.0  0.10839  0.01833  0.48576  1.0000
  C   C324      1.0  0.12985  0.30945  0.94383  1.0000
  H   H249      1.0  0.47251  0.32380  0.76401  1.0000
  C   C325      1.0  0.29542  0.11436  0.83896  1.0000
  C   C326      1.0  0.47335  0.31836  0.73819  1.0000
  C   C327      1.0  0.45363  0.00644  0.80938  1.0000
  C   C328      1.0  0.19143  0.31170  0.90886  1.0000
  C   C329      1.0  0.46065  0.01488  0.86756  1.0000
  H   H250      1.0  0.38959  0.31689  0.88871  1.0000
  C   C330      1.0  0.04629  0.18520  0.96562  1.0000
  C   C331      1.0  0.38999  0.32267  0.91442  1.0000
  C   C332      1.0  0.23630  0.27178  0.81729  1.0000
  H   H251      1.0  0.15463  0.28409  0.80456  1.0000
  H   H252      1.0  0.01973  0.01548  0.79398  1.0000
  H   H253      1.0  0.49063  0.17581  0.83922  1.0000
  H   H254      1.0  0.49584  0.22664  0.84359  1.0000
  H   H255      1.0  0.01618  0.31961  0.52059  1.0000
  H   H256      1.0  0.11736  0.00032  0.48730  1.0000
  H   H257      1.0  0.18851  0.31666  0.77206  1.0000
  H   H258      1.0  0.01209  0.13541  0.56268  1.0000
  H   H259      1.0  0.36976  0.25949  0.49206  1.0000
  H   H260      1.0  0.00944  0.30802  0.86064  1.0000
  C   C333      1.0  0.28278  0.20547  0.49012  1.0000
  H   H261      1.0  0.05563  0.32590  0.94354  1.0000
  H   H262      1.0  0.09115  0.00991  0.74519  1.0000
  C   C334      1.0  0.26816  0.18417  0.49066  1.0000
  C   C335      1.0  0.50422  0.21408  0.79374  1.0000
  H   H263      1.0  0.26763  0.32319  0.76455  1.0000
  C   C336      1.0  0.12724  0.31906  0.97576  1.0000
  H   H264      1.0  0.50394  0.06049  0.66536  1.0000
  C   C337      1.0  0.50283  0.29337  0.80159  1.0000
  C   C338      1.0  0.19852  0.32017  0.94009  1.0000
  C   C339      1.0  0.23199  0.32285  0.88663  1.0000
  C   C340      1.0  0.30821  0.32407  0.86969  1.0000
  H   H265      1.0  0.18556  0.31903  0.96084  1.0000
  C   C341      1.0  0.29257  0.30211  0.48454  1.0000
  C   C342      1.0  0.49867  0.00015  0.60351  1.0000
  C   C343      1.0  0.00546  0.18569  0.51002  1.0000
  C   C344      1.0  0.22245  0.32974  0.94473  1.0000
  C   C345      1.0  0.23919  0.33107  0.91803  1.0000
  C   C346      1.0  0.17740  0.32861  0.78792  1.0000
  C   C347      1.0  0.39836  0.00176  0.70816  1.0000
  H   H266      1.0  0.37865  0.00247  0.70195  1.0000
  C   C348      1.0  0.00658  0.21929  0.94162  1.0000
  H   H267      1.0  0.22999  0.33297  0.79803  1.0000
  S   S47       1.0  0.02798  0.37721  0.33380  1.0000
  H   H268      1.0  0.19463  0.34630  0.29123  1.0000
  S   S48       1.0  0.04744  0.42156  0.38125  1.0000
  H   H269      1.0  0.27272  0.33670  0.28016  1.0000
  Fe  Fe24      1.0  0.02271  0.41864  0.33577  1.0000
  S   S49       1.0  0.03276  0.44033  0.28773  1.0000
  Fe  Fe25      1.0  0.05022  0.37980  0.38081  1.0000
  S   S50       1.0  0.08330  0.35257  0.38049  1.0000
  H   H270      1.0  0.48686  0.62153  0.35648  1.0000
  Fe  Fe26      1.0  0.04797  0.59230  0.11166  1.0000
  H   H271      1.0  0.11625  0.36428  0.29190  1.0000
  S   S51       1.0  0.07630  0.62253  0.12244  1.0000
  Fe  Fe27      1.0  0.03961  0.54480  0.07299  1.0000
  H   H272      1.0  0.00730  0.61594  0.00558  1.0000
  Fe  Fe28      1.0  0.01612  0.55012  0.14200  1.0000
  H   H273      1.0  0.07675  0.48421  0.98897  1.0000
  S   S52       1.0  0.03476  0.58487  0.06029  1.0000
  S   S53       1.0  0.05593  0.55221  0.12344  1.0000
  C   C349      1.0  0.07184  0.41724  0.47592  1.0000
  H   H274      1.0  0.22371  0.59400  0.05193  1.0000
  S   S54       1.0  0.46342  0.62468  0.13009  1.0000
  H   H275      1.0  0.07955  0.36788  0.05451  1.0000
  H   H276      1.0  0.02117  0.39468  0.99061  1.0000
  S   S55       1.0  0.47127  0.37641  0.35641  1.0000
  H   H277      1.0  0.10846  0.54712  0.00678  1.0000
  C   C350      1.0  0.46184  0.35086  0.33210  1.0000
  H   H278      1.0  0.50066  0.65269  0.15861  1.0000
  C   C351      1.0  0.46436  0.51070  0.03620  1.0000
  C   C352      1.0  0.15098  0.59125  0.02766  1.0000
  H   H279      1.0  0.10878  0.42173  0.45541  1.0000
  C   C353      1.0  0.20073  0.55908  0.01117  1.0000
  C   C354      1.0  0.21611  0.61162  0.05977  1.0000
  H   H280      1.0  0.02857  0.42759  0.15630  1.0000
  C   C355      1.0  0.44744  0.64029  0.16260  1.0000
  H   H281      1.0  0.16000  0.37456  0.27642  1.0000
  H   H282      1.0  0.05436  0.57814  0.47788  1.0000
  C   C356      1.0  0.45188  0.63466  0.19597  1.0000
  H   H283      1.0  0.49702  0.66273  0.21788  1.0000
  H   H284      1.0  0.46560  0.62061  0.20241  1.0000
  C   C357      1.0  0.09180  0.63938  0.09058  1.0000
  H   H285      1.0  0.05675  0.40282  0.02776  1.0000
  C   C358      1.0  0.03679  0.33508  0.01044  1.0000
  C   C359      1.0  0.08583  0.63649  0.05705  1.0000
  H   H286      1.0  0.37309  0.42066  0.17015  1.0000
  Fe  Fe29      1.0  0.49618  0.59788  0.13821  1.0000
  H   H287      1.0  0.07127  0.62387  0.04996  1.0000
  C   C360      1.0  0.02392  0.46581  0.26126  1.0000
  C   C361      1.0  0.50295  0.41697  0.09679  1.0000
  C   C362      1.0  0.23190  0.66169  0.41300  1.0000
  H   H288      1.0  0.39227  0.34456  0.00581  1.0000
  C   C363      1.0  0.01789  0.49613  0.01731  1.0000
  H   H289      1.0  0.48544  0.54578  0.42839  1.0000
  H   H290      1.0  0.49233  0.49995  0.27443  1.0000
  H   H291      1.0  0.02822  0.41553  0.21537  1.0000
  C   C364      1.0  0.03034  0.47626  0.11786  1.0000
  H   H292      1.0  0.23993  0.63034  0.34101  1.0000
  C   C365      1.0  0.26395  0.62487  0.28148  1.0000
  C   C366      1.0  0.48987  0.60230  0.30997  1.0000
  C   C367      1.0  0.04380  0.49836  0.01371  1.0000
  C   C368      1.0  0.03826  0.49517  0.47481  1.0000
  S   S56       1.0  0.49119  0.55681  0.13607  1.0000
  H   H293      1.0  0.50310  0.66106  0.32053  1.0000
  H   H294      1.0  0.06586  0.40461  0.45677  1.0000
  H   H295      1.0  0.05230  0.58060  0.35478  1.0000
  C   C369      1.0  0.05950  0.45062  0.07143  1.0000
  H   H296      1.0  0.19026  0.55571  0.03382  1.0000
  H   H297      1.0  0.10801  0.48878  0.41203  1.0000
  C   C370      1.0  0.46067  0.48881  0.01874  1.0000
  C   C371      1.0  0.22489  0.63556  0.23756  1.0000
  C   C372      1.0  0.05396  0.57867  0.45095  1.0000
  C   C373      1.0  0.46144  0.47192  0.37554  1.0000
  H   H298      1.0  0.24456  0.61642  0.09700  1.0000
  H   H299      1.0  0.44872  0.45641  0.37599  1.0000
  C   C374      1.0  0.07394  0.47452  0.34384  1.0000
  C   C375      1.0  0.23534  0.61179  0.23865  1.0000
  C   C376      1.0  0.42967  0.44378  0.14708  1.0000
  H   H300      1.0  0.46531  0.48789  0.99256  1.0000
  C   C377      1.0  0.01101  0.42793  0.16982  1.0000
  H   H301      1.0  0.08795  0.47749  0.08164  1.0000
  H   H302      1.0  0.27895  0.62042  0.29859  1.0000
  H   H303      1.0  0.10716  0.45874  0.36564  1.0000
  C   C378      1.0  0.06932  0.47105  0.08771  1.0000
  H   H304      1.0  0.22370  0.65949  0.43750  1.0000
  H   H305      1.0  0.40745  0.57429  0.11962  1.0000
  C   C379      1.0  0.38036  0.45904  0.15949  1.0000
  C   C380      1.0  0.42544  0.56998  0.16691  1.0000
  H   H306      1.0  0.09245  0.55755  0.06274  1.0000
  H   H307      1.0  0.41672  0.53157  0.10160  1.0000
  H   H308      1.0  0.07068  0.44118  0.05288  1.0000
  C   C381      1.0  0.42000  0.66493  0.21307  1.0000
  C   C382      1.0  0.11076  0.65600  0.09921  1.0000
  C   C383      1.0  0.13887  0.57321  0.00868  1.0000
  C   C384      1.0  0.33886  0.66198  0.28087  1.0000
  C   C385      1.0  0.09595  0.42703  0.47509  1.0000
  H   H309      1.0  0.47200  0.52674  0.02360  1.0000
  H   H310      1.0  0.30305  0.65513  0.25936  1.0000
  H   H311      1.0  0.07563  0.52119  0.41637  1.0000
  P   P13       1.0  0.44647  0.49127  0.13182  1.0000
  C   C386      1.0  0.10874  0.56688  0.05289  1.0000
  H   H312      1.0  0.42616  0.34806  0.35702  1.0000
  H   H313      1.0  0.44857  0.48567  0.32838  1.0000
  H   H314      1.0  0.49541  0.34863  0.30256  1.0000
  C   C387      1.0  0.01476  0.65451  0.45953  1.0000
  C   C388      1.0  0.49859  0.49112  0.13596  1.0000
  C   C389      1.0  0.03729  0.54391  0.30885  1.0000
  C   C390      1.0  0.47834  0.50798  0.34775  1.0000
  H   H315      1.0  0.22826  0.59749  0.22252  1.0000
  C   C391      1.0  0.45193  0.46785  0.03532  1.0000
  H   H316      1.0  0.48883  0.43113  0.09243  1.0000
  H   H317      1.0  0.10954  0.34735  0.00529  1.0000
  C   C392      1.0  0.05517  0.49261  0.34643  1.0000
  C   C393      1.0  0.05669  0.48263  0.99172  1.0000
  H   H318      1.0  0.36123  0.46493  0.16425  1.0000
  C   C394      1.0  0.05486  0.48364  0.11121  1.0000
  H   H319      1.0  0.46403  0.52841  0.08349  1.0000
  C   C395      1.0  0.49654  0.58017  0.29442  1.0000
  H   H320      1.0  0.06256  0.49938  0.12391  1.0000
  C   C396      1.0  0.02019  0.45584  0.10143  1.0000
  H   H321      1.0  0.44039  0.45221  0.08164  1.0000
  H   H322      1.0  0.18351  0.33487  0.43865  1.0000
  C   C397      1.0  0.47687  0.47163  0.18189  1.0000
  C   C398      1.0  0.50457  0.54827  0.43650  1.0000
  H   H323      1.0  0.20970  0.63969  0.22060  1.0000
  C   C399      1.0  0.06325  0.59913  0.43379  1.0000
  C   C400      1.0  0.47832  0.47512  0.40147  1.0000
  P   P14       1.0  0.03096  0.53294  0.37622  1.0000
  H   H324      1.0  0.00927  0.48313  0.37513  1.0000
  C   C401      1.0  0.21856  0.64707  0.09623  1.0000
  H   H325      1.0  0.47880  0.46205  0.42196  1.0000
  C   C402      1.0  0.21612  0.54030  0.99844  1.0000
  C   C403      1.0  0.44685  0.46877  0.06938  1.0000
  C   C404      1.0  0.01604  0.63397  0.00505  1.0000
  H   H326      1.0  0.04177  0.55129  0.25647  1.0000
  H   H327      1.0  0.00775  0.50824  0.03395  1.0000
  C   C405      1.0  0.07486  0.50837  0.39596  1.0000
  C   C406      1.0  0.50058  0.58425  0.36331  1.0000
  C   C407      1.0  0.05555  0.50983  0.37245  1.0000
  H   H328      1.0  0.48187  0.36189  0.22926  1.0000
  C   C408      1.0  0.49557  0.37659  0.22936  1.0000
  C   C409      1.0  0.25374  0.64889  0.28028  1.0000
  C   C410      1.0  0.19890  0.58202  0.99480  1.0000
  H   H329      1.0  0.47798  0.52024  0.32660  1.0000
  C   C411      1.0  0.41737  0.56169  0.13601  1.0000
  C   C412      1.0  0.49543  0.49452  0.40042  1.0000
  C   C413      1.0  0.04306  0.55920  0.39869  1.0000
  C   C414      1.0  0.46145  0.48835  0.34870  1.0000
  H   H330      1.0  0.15001  0.61116  0.07439  1.0000
  C   C415      1.0  0.47695  0.34117  0.30680  1.0000
  C   C416      1.0  0.00917  0.46093  0.47495  1.0000
  H   H331      1.0  0.09170  0.36405  0.45100  1.0000
  C   C417      1.0  0.45075  0.49067  0.08723  1.0000
  S   S57       1.0  0.01652  0.37458  0.41304  1.0000
  H   H332      1.0  0.42588  0.66291  0.12888  1.0000
  H   H333      1.0  0.04027  0.49289  0.32822  1.0000
  C   C418      1.0  0.09294  0.47310  0.36747  1.0000
  C   C419      1.0  0.23394  0.65404  0.25839  1.0000
  H   H334      1.0  0.04146  0.65400  0.16628  1.0000
  C   C420      1.0  0.42948  0.65853  0.15464  1.0000
  C   C421      1.0  0.02894  0.55113  0.27740  1.0000
  C   C422      1.0  0.41166  0.42647  0.15649  1.0000
  H   H335      1.0  0.02010  0.34083  0.46660  1.0000
  H   H336      1.0  0.41680  0.40710  0.15897  1.0000
  H   H337      1.0  0.04537  0.49582  0.19134  1.0000
  H   H338      1.0  0.05683  0.53899  0.31208  1.0000
  C   C423      1.0  0.10252  0.34777  0.44456  1.0000
  H   H339      1.0  0.21738  0.52262  0.01113  1.0000
  H   H340      1.0  0.42190  0.58896  0.17428  1.0000
  H   H341      1.0  0.45979  0.46689  0.19491  1.0000
  H   H342      1.0  0.05410  0.50434  0.46381  1.0000
  C   C424      1.0  0.45974  0.51158  0.07031  1.0000
  C   C425      1.0  0.44435  0.52987  0.17773  1.0000
  Fe  Fe30      1.0  0.01152  0.41589  0.41000  1.0000
  C   C426      1.0  0.47609  0.48376  0.15101  1.0000
  H   H343      1.0  0.39278  0.49564  0.14765  1.0000
  H   H344      1.0  0.45533  0.51818  0.19407  1.0000
  C   C427      1.0  0.09338  0.48999  0.39356  1.0000
  C   C428      1.0  0.00796  0.63306  0.44265  1.0000
  H   H345      1.0  0.49854  0.50150  0.11296  1.0000
  C   C429      1.0  0.03941  0.47192  0.23402  1.0000
  C   C430      1.0  0.03518  0.44275  0.07861  1.0000
  S   S58       1.0  0.00920  0.59135  0.13424  1.0000
  C   C431      1.0  0.03312  0.49146  0.21194  1.0000
  H   H346      1.0  0.14577  0.56844  0.98420  1.0000
  C   C432      1.0  0.11781  0.56110  0.02129  1.0000
  H   H347      1.0  0.50210  0.58640  0.38987  1.0000
  H   H348      1.0  0.44540  0.56051  0.21160  1.0000
  P   P15       1.0  0.17877  0.60600  0.01154  1.0000
  C   C433      1.0  0.43866  0.55398  0.18791  1.0000
  C   C434      1.0  0.22799  0.62426  0.08547  1.0000
  C   C435      1.0  0.43812  0.64685  0.22106  1.0000
  H   H349      1.0  0.10107  0.53630  0.47014  1.0000
  C   C436      1.0  0.14151  0.59712  0.05925  1.0000
  C   C437      1.0  0.02574  0.65939  0.15085  1.0000
  H   H350      1.0  0.44865  0.43753  0.14211  1.0000
  H   H351      1.0  0.44139  0.64211  0.24678  1.0000
  C   C438      1.0  0.39834  0.47642  0.15012  1.0000
  H   H352      1.0  0.07098  0.61450  0.44741  1.0000
  S   S59       1.0  0.06061  0.52065  0.03609  1.0000
  H   H353      1.0  0.48323  0.39091  0.27666  1.0000
  C   C439      1.0  0.06249  0.59973  0.39912  1.0000
  H   H354      1.0  0.03861  0.46559  0.43890  1.0000
  C   C440      1.0  0.43707  0.52165  0.14620  1.0000
  C   C441      1.0  0.04394  0.55883  0.43350  1.0000
  H   H355      1.0  0.06977  0.61558  0.38581  1.0000
  H   H356      1.0  0.11554  0.65836  0.12504  1.0000
  C   C442      1.0  0.12066  0.58473  0.07187  1.0000
  C   C443      1.0  0.25483  0.60643  0.26064  1.0000
  H   H357      1.0  0.09373  0.64788  0.00674  1.0000
  C   C444      1.0  0.38702  0.43410  0.16278  1.0000
  C   C445      1.0  0.19476  0.62187  0.04455  1.0000
  C   C446      1.0  0.05249  0.57984  0.38160  1.0000
  C   C447      1.0  0.42322  0.46896  0.14425  1.0000
  C   C448      1.0  0.49983  0.46627  0.19685  1.0000
  H   H358      1.0  0.07348  0.46130  0.32372  1.0000
  H   H359      1.0  0.44963  0.45076  0.02176  1.0000
  C   C449      1.0  0.42291  0.53754  0.12578  1.0000
  C   C450      1.0  0.24122  0.64546  0.35830  1.0000
  H   H360      1.0  0.05644  0.46138  0.22985  1.0000
  C   C451      1.0  0.18557  0.64483  0.05542  1.0000
  C   C452      1.0  0.01148  0.65060  0.03088  1.0000
  H   H361      1.0  0.11352  0.58915  0.09637  1.0000
  H   H362      1.0  0.03690  0.54319  0.44730  1.0000
  C   C453      1.0  0.01089  0.42084  0.20322  1.0000
  H   H363      1.0  0.22201  0.62522  0.39688  1.0000
  H   H364      1.0  0.26286  0.58797  0.26160  1.0000
  H   H365      1.0  0.22782  0.65709  0.11586  1.0000
  H   H366      1.0  0.02830  0.42653  0.06626  1.0000
  C   C454      1.0  0.49197  0.60436  0.34440  1.0000
  C   C455      1.0  0.02956  0.47312  0.46073  1.0000
  H   H367      1.0  0.50031  0.45749  0.22102  1.0000
  C   C456      1.0  0.06373  0.36431  0.03855  1.0000
  C   C457      1.0  0.23093  0.64244  0.39006  1.0000
  C   C458      1.0  0.05090  0.38400  0.02362  1.0000
  C   C459      1.0  0.09864  0.65012  0.03253  1.0000
  C   C460      1.0  0.02041  0.54272  0.33566  1.0000
  H   H368      1.0  0.49512  0.57852  0.26767  1.0000
  C   C461      1.0  0.43800  0.34070  0.33751  1.0000
  C   C462      1.0  0.01109  0.50530  0.21664  1.0000
  C   C463      1.0  0.03086  0.37938  0.00254  1.0000
  H   H369      1.0  0.16930  0.65315  0.04382  1.0000
  C   C464      1.0  0.15607  0.35735  0.28921  1.0000
  H   H370      1.0  0.01947  0.48647  0.13602  1.0000
  S   S60       1.0  0.50479  0.53534  0.22453  1.0000
  C   C465      1.0  0.13143  0.35154  0.29776  1.0000
  C   C466      1.0  0.19730  0.65727  0.08128  1.0000
  C   C467      1.0  0.17567  0.34119  0.29761  1.0000
  C   C468      1.0  0.49627  0.39292  0.25609  1.0000
  H   H371      1.0  0.48315  0.61779  0.29524  1.0000
  C   C469      1.0  0.49548  0.51130  0.37367  1.0000
  C   C470      1.0  0.11899  0.33694  0.46792  1.0000
  H   H372      1.0  0.06188  0.56745  0.99639  1.0000
  C   C471      1.0  0.02385  0.35507  0.99592  1.0000
  H   H373      1.0  0.49883  0.40060  0.04844  1.0000
  H   H374      1.0  0.24754  0.66396  0.03865  1.0000
  C   C472      1.0  0.10097  0.33805  0.41254  1.0000
  H   H375      1.0  0.20710  0.64638  0.98163  1.0000
  C   C473      1.0  0.05680  0.33994  0.03196  1.0000
  H   H376      1.0  0.34924  0.65499  0.25964  1.0000
  C   C474      1.0  0.31265  0.66203  0.28095  1.0000
  H   H377      1.0  0.00905  0.63245  0.41584  1.0000
  C   C475      1.0  0.39165  0.33839  0.98030  1.0000
  C   C476      1.0  0.11168  0.33985  0.98064  1.0000
  S   S61       1.0  0.03345  0.37966  0.83664  1.0000
  C   C477      1.0  0.01788  0.46216  0.97770  1.0000
  S   S62       1.0  0.05303  0.42319  0.88590  1.0000
  H   H378      1.0  0.29382  0.33797  0.87373  1.0000
  Fe  Fe31      1.0  0.03001  0.42132  0.83895  1.0000
  S   S63       1.0  0.04423  0.44534  0.79507  1.0000
  Fe  Fe32      1.0  0.05443  0.38158  0.88485  1.0000
  S   S64       1.0  0.08970  0.35721  0.88631  1.0000
  S   S65       1.0  0.01965  0.37717  0.91573  1.0000
  Fe  Fe33      1.0  0.05708  0.58960  0.61097  1.0000
  S   S66       1.0  0.02454  0.59249  0.64652  1.0000
  S   S67       1.0  0.09120  0.61394  0.61981  1.0000
  Fe  Fe34      1.0  0.02945  0.55272  0.56789  1.0000
  H   H379      1.0  0.12057  0.34496  0.49234  1.0000
  Fe  Fe35      1.0  0.02122  0.55103  0.64329  1.0000
  H   H380      1.0  0.45778  0.64724  0.84880  1.0000
  S   S68       1.0  0.03308  0.59427  0.56618  1.0000
  S   S69       1.0  0.05586  0.54787  0.61114  1.0000
  C   C478      1.0  0.14646  0.47515  0.58067  1.0000
  H   H381      1.0  0.05383  0.45243  0.95694  1.0000
  S   S70       1.0  0.46870  0.59957  0.65649  1.0000
  S   S71       1.0  0.48427  0.41579  0.88721  1.0000
  C   C479      1.0  0.05638  0.55366  0.91419  1.0000
  H   H382      1.0  0.13430  0.36964  0.84310  1.0000
  H   H383      1.0  0.01546  0.66559  0.65461  1.0000
  H   H384      1.0  0.43741  0.49841  0.74982  1.0000
  C   C480      1.0  0.46842  0.61180  0.82853  1.0000
  H   H385      1.0  0.34448  0.65466  0.61059  1.0000
  H   H386      1.0  0.49988  0.47354  0.50659  1.0000
  C   C481      1.0  0.01352  0.65534  0.49431  1.0000
  C   C482      1.0  0.46645  0.65095  0.73100  1.0000
  H   H387      1.0  0.03037  0.55527  0.75176  1.0000
  H   H388      1.0  0.15597  0.40413  0.58877  1.0000
  C   C483      1.0  0.45887  0.62292  0.68496  1.0000
  C   C484      1.0  0.43408  0.63194  0.68367  1.0000
  H   H389      1.0  0.49366  0.55641  0.48691  1.0000
  C   C485      1.0  0.47505  0.63263  0.70872  1.0000
  C   C486      1.0  0.49912  0.42442  0.66128  1.0000
  H   H390      1.0  0.49421  0.62613  0.70983  1.0000
  C   C487      1.0  0.10824  0.63116  0.58961  1.0000
  S   S72       1.0  0.46746  0.34169  0.88401  1.0000
  C   C488      1.0  0.12397  0.63745  0.53339  1.0000
  C   C489      1.0  0.10809  0.62500  0.55592  1.0000
  C   C490      1.0  0.44086  0.34227  0.82469  1.0000
  P   P16       1.0  0.09723  0.47125  0.55730  1.0000
  H   H391      1.0  0.09644  0.61006  0.54750  1.0000
  C   C491      1.0  0.03396  0.46897  0.76666  1.0000
  C   C492      1.0  0.03456  0.48612  0.61272  1.0000
  C   C493      1.0  0.04411  0.49705  0.72022  1.0000
  C   C494      1.0  0.01930  0.50563  0.71898  1.0000
  C   C495      1.0  0.40579  0.35054  0.95605  1.0000
  C   C496      1.0  0.48211  0.38974  0.70812  1.0000
  C   C497      1.0  0.47994  0.55526  0.86664  1.0000
  C   C498      1.0  0.18879  0.64613  0.97021  1.0000
  H   H392      1.0  0.16013  0.34747  0.74655  1.0000
  C   C499      1.0  0.07778  0.59276  0.92187  1.0000
  C   C500      1.0  0.13962  0.65669  0.54399  1.0000
  C   C501      1.0  0.04376  0.46464  0.97359  1.0000
  C   C502      1.0  0.02662  0.50542  0.50299  1.0000
  C   C503      1.0  0.09989  0.50783  0.50772  1.0000
  C   C504      1.0  0.14667  0.35848  0.82765  1.0000
  H   H393      1.0  0.01948  0.48162  0.88150  1.0000
  H   H394      1.0  0.45406  0.52242  0.79621  1.0000
  C   C505      1.0  0.16306  0.34142  0.84236  1.0000
  H   H395      1.0  0.10324  0.51855  0.59086  1.0000
  H   H396      1.0  0.03500  0.62760  0.95868  1.0000
  C   C506      1.0  0.43966  0.59465  0.78855  1.0000
  C   C507      1.0  0.00653  0.49298  0.51761  1.0000
  H   H397      1.0  0.09703  0.49337  0.48980  1.0000
  C   C508      1.0  0.18304  0.66376  0.94588  1.0000
  C   C509      1.0  0.06763  0.50420  0.88655  1.0000
  P   P17       1.0  0.04500  0.52929  0.88760  1.0000
  H   H398      1.0  0.06404  0.44923  0.66898  1.0000
  C   C510      1.0  0.15940  0.66409  0.93121  1.0000
  C   C511      1.0  0.03599  0.65843  0.60962  1.0000
  C   C512      1.0  0.07552  0.59022  0.95630  1.0000
  H   H399      1.0  0.23875  0.57011  0.93029  1.0000
  C   C513      1.0  0.46640  0.54373  0.70585  1.0000
  H   H400      1.0  0.02481  0.47346  0.66169  1.0000
  C   C514      1.0  0.45257  0.52243  0.71215  1.0000
  H   H401      1.0  0.07023  0.57691  0.87433  1.0000
  H   H402      1.0  0.08879  0.45840  0.83536  1.0000
  H   H403      1.0  0.48971  0.42427  0.51471  1.0000
  C   C515      1.0  0.44399  0.50389  0.61763  1.0000
  C   C516      1.0  0.47666  0.55710  0.73205  1.0000
  C   C517      1.0  0.13896  0.66353  0.57741  1.0000
  C   C518      1.0  0.15332  0.42397  0.58653  1.0000
  H   H404      1.0  0.25789  0.33800  0.92189  1.0000
  H   H405      1.0  0.47140  0.57317  0.87054  1.0000
  C   C519      1.0  0.48800  0.54780  0.83495  1.0000
  C   C520      1.0  0.12686  0.45926  0.57219  1.0000
  C   C521      1.0  0.10310  0.46551  0.88430  1.0000
  C   C522      1.0  0.03868  0.47283  0.64196  1.0000
  C   C523      1.0  0.17272  0.43991  0.59491  1.0000
  H   H406      1.0  0.19042  0.43246  0.60366  1.0000
  C   C524      1.0  0.10499  0.55151  0.51901  1.0000
  H   H407      1.0  0.10728  0.56147  0.57058  1.0000
  S   S73       1.0  0.00860  0.52796  0.68899  1.0000
  H   H408      1.0  0.05729  0.49162  0.83737  1.0000
  H   H409      1.0  0.08692  0.60883  0.91143  1.0000
  H   H410      1.0  0.08772  0.36756  0.95776  1.0000
  H   H411      1.0  0.50479  0.51779  0.80698  1.0000
  H   H412      1.0  0.07331  0.55118  0.77426  1.0000
  C   C525      1.0  0.10555  0.54644  0.55299  1.0000
  H   H413      1.0  0.49834  0.65365  0.63434  1.0000
  H   H414      1.0  0.12297  0.64745  0.93005  1.0000
  C   C526      1.0  0.48079  0.41499  0.71518  1.0000
  H   H415      1.0  0.40714  0.61713  0.77762  1.0000
  C   C527      1.0  0.22815  0.56704  0.95291  1.0000
  H   H416      1.0  0.48599  0.61112  0.84186  1.0000
  H   H417      1.0  0.11252  0.47624  0.93404  1.0000
  C   C528      1.0  0.06968  0.48908  0.85837  1.0000
  H   H418      1.0  0.04558  0.53516  0.95988  1.0000
  C   C529      1.0  0.05131  0.47884  0.74377  1.0000
  H   H419      1.0  0.16294  0.33985  0.86909  1.0000
  C   C530      1.0  0.08683  0.45057  0.52511  1.0000
  C   C531      1.0  0.04258  0.66394  0.97789  1.0000
  C   C532      1.0  0.10216  0.53223  0.49639  1.0000
  Fe  Fe36      1.0  0.01641  0.41857  0.91279  1.0000
  C   C533      1.0  0.49311  0.51577  0.88970  1.0000
  C   C534      1.0  0.43887  0.47985  0.62838  1.0000
  H   H420      1.0  0.07977  0.54090  0.83345  1.0000
  C   C535      1.0  0.50307  0.42308  0.53485  1.0000
  C   C536      1.0  0.50081  0.39898  0.65459  1.0000
  H   H421      1.0  0.49846  0.61621  0.77172  1.0000
  C   C537      1.0  0.22983  0.54427  0.96932  1.0000
  H   H422      1.0  0.22810  0.33574  0.96917  1.0000
  H   H423      1.0  0.13281  0.37391  0.78195  1.0000
  C   C538      1.0  0.06827  0.57456  0.90086  1.0000
  H   H424      1.0  0.03656  0.41639  0.50189  1.0000
  C   C539      1.0  0.03770  0.66297  0.57555  1.0000
  C   C540      1.0  0.01247  0.54832  0.79885  1.0000
  C   C541      1.0  0.46862  0.51068  0.61058  1.0000
  H   H425      1.0  0.45397  0.44405  0.64024  1.0000
  H   H426      1.0  0.11557  0.42095  0.56903  1.0000
  C   C542      1.0  0.16112  0.34588  0.77331  1.0000
  C   C543      1.0  0.09940  0.35139  0.95371  1.0000
  C   C544      1.0  0.08759  0.47010  0.85712  1.0000
  C   C545      1.0  0.10296  0.34241  0.92152  1.0000
  H   H427      1.0  0.10632  0.57044  0.51032  1.0000
  C   C546      1.0  0.12359  0.65064  0.60010  1.0000
  H   H428      1.0  0.44772  0.36086  0.82108  1.0000
  C   C547      1.0  0.45813  0.52834  0.77110  1.0000
  C   C548      1.0  0.45841  0.46268  0.63236  1.0000
  H   H429      1.0  0.43452  0.58071  0.77074  1.0000
  H   H430      1.0  0.41756  0.36597  0.96266  1.0000
  C   C549      1.0  0.45257  0.63231  0.83246  1.0000
  C   C550      1.0  0.43036  0.63405  0.81439  1.0000
  H   H431      1.0  0.04910  0.49622  0.56500  1.0000
  H   H432      1.0  0.47263  0.52930  0.60209  1.0000
  H   H433      1.0  0.11642  0.45029  0.88358  1.0000
  H   H434      1.0  0.47651  0.54519  0.91831  1.0000
  H   H435      1.0  0.21171  0.60325  0.95226  1.0000
  C   C551      1.0  0.47295  0.54925  0.76491  1.0000
  C   C552      1.0  0.16928  0.46547  0.59200  1.0000
  H   H436      1.0  0.41974  0.47450  0.63354  1.0000
  C   C553      1.0  0.50108  0.50815  0.85831  1.0000
  H   H437      1.0  0.42891  0.51726  0.61463  1.0000
  H   H438      1.0  0.07049  0.47226  0.74414  1.0000
  H   H439      1.0  0.14435  0.49498  0.57858  1.0000
  H   H440      1.0  0.48704  0.57378  0.72662  1.0000
  C   C554      1.0  0.06371  0.56952  0.96971  1.0000
  H   H441      1.0  0.47352  0.42122  0.73895  1.0000
  H   H442      1.0  0.47557  0.37640  0.72627  1.0000
  C   C555      1.0  0.10320  0.52209  0.56439  1.0000
  H   H443      1.0  0.41848  0.65034  0.81658  1.0000
  C   C556      1.0  0.40479  0.34279  0.92311  1.0000
  C   C557      1.0  0.08329  0.49943  0.91380  1.0000
  C   C558      1.0  0.01591  0.54262  0.83243  1.0000
  C   C559      1.0  0.05249  0.48567  0.58737  1.0000
  C   C560      1.0  0.05735  0.54914  0.79070  1.0000
  C   C561      1.0  0.10349  0.44354  0.49968  1.0000
  C   C562      1.0  0.14574  0.36078  0.79318  1.0000
  H   H444      1.0  0.42137  0.62452  0.66551  1.0000
  H   H445      1.0  0.18431  0.47785  0.59854  1.0000
  H   H446      1.0  0.12442  0.63191  0.50766  1.0000
  C   C563      1.0  0.44833  0.51480  0.74480  1.0000
  P   P18       1.0  0.48406  0.56771  0.79898  1.0000
  C   C564      1.0  0.42553  0.65039  0.70581  1.0000
  H   H447      1.0  0.04914  0.44592  0.54455  1.0000
  C   C565      1.0  0.10085  0.48010  0.91270  1.0000
  H   H448      1.0  0.27305  0.66216  0.71615  1.0000
  H   H449      1.0  0.24173  0.52970  0.95943  1.0000
  S   S74       1.0  0.03753  0.53408  0.51817  1.0000
  Fe  Fe37      1.0  0.49315  0.37537  0.87935  1.0000
  C   C566      1.0  0.03315  0.55148  0.77798  1.0000
  C   C567      1.0  0.07467  0.47183  0.59093  1.0000
  C   C568      1.0  0.07876  0.45856  0.62052  1.0000
  C   C569      1.0  0.46208  0.59274  0.80660  1.0000
  C   C570      1.0  0.14150  0.64672  0.94077  1.0000
  C   C571      1.0  0.13047  0.43357  0.57527  1.0000
  C   C572      1.0  0.42395  0.61527  0.79243  1.0000
  H   H450      1.0  0.05771  0.50427  0.70282  1.0000
  H   H451      1.0  0.00881  0.35193  0.97857  1.0000
  H   H452      1.0  0.09572  0.44789  0.62424  1.0000
  C   C573      1.0  0.06080  0.45916  0.64595  1.0000
  C   C574      1.0  0.44169  0.66003  0.72961  1.0000
  C   C575      1.0  0.03163  0.64057  0.97863  1.0000
  H   H453      1.0  0.46893  0.55006  0.68058  1.0000
  H   H454      1.0  0.12395  0.65548  0.62610  1.0000
  H   H455      1.0  0.08183  0.51032  0.93612  1.0000
  H   H456      1.0  0.44492  0.51204  0.69174  1.0000
  C   C576      1.0  0.10047  0.50256  0.54187  1.0000
  H   H457      1.0  0.01759  0.49710  0.60995  1.0000
  H   H458      1.0  0.41808  0.34291  0.78065  1.0000
  C   C577      1.0  0.05436  0.55125  0.94885  1.0000
  C   C578      1.0  0.06089  0.54340  0.82424  1.0000
  C   C579      1.0  0.06259  0.44072  0.52563  1.0000
  C   C580      1.0  0.04020  0.53990  0.84538  1.0000
  H   H459      1.0  0.47911  0.65826  0.74930  1.0000
  H   H460      1.0  0.48765  0.45178  0.69743  1.0000
  H   H461      1.0  0.48797  0.47748  0.74623  1.0000
  C   C581      1.0  0.48264  0.53933  0.89389  1.0000
  H   H462      1.0  0.13281  0.61627  0.97275  1.0000
  H   H463      1.0  0.04891  0.64561  0.62139  1.0000
  H   H464      1.0  0.12232  0.45082  0.49892  1.0000
  C   C582      1.0  0.49227  0.38173  0.67796  1.0000
  C   C583      1.0  0.49864  0.52411  0.83113  1.0000
  C   C584      1.0  0.48817  0.49356  0.61456  1.0000
  C   C585      1.0  0.49727  0.43326  0.56583  1.0000
  C   C586      1.0  0.48905  0.43225  0.69176  1.0000
  C   C587      1.0  0.05531  0.42388  0.50136  1.0000
  C   C588      1.0  0.48332  0.46952  0.62596  1.0000
  H   H465      1.0  0.49355  0.36214  0.67276  1.0000
  H   H466      1.0  0.47917  0.44202  0.56937  1.0000
  H   H467      1.0  0.41569  0.35227  0.90428  1.0000
  H   H468      1.0  0.38066  0.65062  0.64861  1.0000
  C   C589      1.0  0.00779  0.49392  0.89613  1.0000
  H   H469      1.0  0.05220  0.65360  0.56133  1.0000
  S   S75       1.0  0.49863  0.44526  0.80081  1.0000
  C   C590      1.0  0.14719  0.62903  0.96511  1.0000
  C   C591      1.0  0.01558  0.51797  0.90359  1.0000
  H   H470      1.0  0.49495  0.50335  0.91072  1.0000
  H   H471      1.0  0.08282  0.60427  0.97268  1.0000
  C   C592      1.0  0.00927  0.47790  0.76585  1.0000
  H   H472      1.0  0.40633  0.65688  0.70483  1.0000
  C   C593      1.0  0.21274  0.58586  0.96554  1.0000
  C   C594      1.0  0.17095  0.62856  0.97993  1.0000
  H   H473      1.0  0.06380  0.65754  0.48048  1.0000
  Fe  Fe38      1.0  0.20977  0.72742  0.05649  1.0000
  S   S76       1.0  0.22029  0.75767  0.02045  1.0000
  S   S77       1.0  0.22858  0.71431  0.10396  1.0000
  Fe  Fe39      1.0  0.16446  0.71115  0.01664  1.0000
  C   C595      1.0  0.47255  0.86355  0.31289  1.0000
  C   C596      1.0  0.32634  0.80419  0.02957  1.0000
  C   C597      1.0  0.48548  0.70310  0.26158  1.0000
  S   S78       1.0  0.22732  0.75151  0.42481  1.0000
  Fe  Fe40      1.0  0.17844  0.76572  0.01994  1.0000
  S   S79       1.0  0.16108  0.80452  0.01711  1.0000
  S   S80       1.0  0.20467  0.69904  0.01668  1.0000
  S   S81       1.0  0.16869  0.73757  0.05890  1.0000
  C   C598      1.0  0.50315  0.83199  0.40610  1.0000
  S   S82       1.0  0.05128  0.92681  0.11003  1.0000
  S   S83       1.0  0.01538  0.94110  0.02168  1.0000
  S   S84       1.0  0.02196  0.88187  0.07014  1.0000
  Fe  Fe41      1.0  0.05083  0.88482  0.10993  1.0000
  S   S85       1.0  0.08252  0.85604  0.11537  1.0000
  H   H474      1.0  0.05994  0.78986  0.47373  1.0000
  H   H475      1.0  0.36271  0.83560  0.19483  1.0000
  S   S86       1.0  0.02205  0.88354  0.15088  1.0000
  H   H476      1.0  0.47805  0.78348  0.20341  1.0000
  S   S87       1.0  0.47218  0.86980  0.14895  1.0000
  C   C599      1.0  0.26169  0.73607  0.25242  1.0000
  Fe  Fe42      1.0  0.38100  0.71536  0.24253  1.0000
  S   S88       1.0  0.38716  0.74575  0.20547  1.0000
  H   H477      1.0  0.01165  0.93582  0.41291  1.0000
  Fe  Fe43      1.0  0.34631  0.74764  0.28734  1.0000
  S   S89       1.0  0.35055  0.78078  0.25332  1.0000
  S   S90       1.0  0.32990  0.74600  0.34049  1.0000
  Fe  Fe44      1.0  0.34577  0.75315  0.21184  1.0000
  S   S91       1.0  0.32495  0.76439  0.16505  1.0000
  Fe  Fe45      1.0  0.39161  0.77105  0.24903  1.0000
  S   S92       1.0  0.42533  0.79632  0.25654  1.0000
  S   S93       1.0  0.33905  0.72066  0.24585  1.0000
  S   S94       1.0  0.38791  0.74006  0.28599  1.0000
  C   C600      1.0  0.30380  0.82876  0.16354  1.0000
  C   C601      1.0  0.22604  0.73667  0.28966  1.0000
  C   C602      1.0  0.28846  0.70144  0.99823  1.0000
  C   C603      1.0  0.21793  0.78311  0.11417  1.0000
  H   H478      1.0  0.40170  0.68445  0.17327  1.0000
  C   C604      1.0  0.45093  0.69325  0.29828  1.0000
  C   C605      1.0  0.46028  0.84849  0.17859  1.0000
  C   C606      1.0  0.43726  0.83697  0.17231  1.0000
  C   C607      1.0  0.42651  0.82065  0.19562  1.0000
  C   C608      1.0  0.43848  0.81603  0.22581  1.0000
  C   C609      1.0  0.46157  0.82743  0.23204  1.0000
  C   C610      1.0  0.47257  0.84340  0.20847  1.0000
  H   H479      1.0  0.42765  0.84076  0.14924  1.0000
  H   H480      1.0  0.40882  0.81191  0.19041  1.0000
  H   H481      1.0  0.47112  0.82366  0.25507  1.0000
  H   H482      1.0  0.49032  0.85207  0.21357  1.0000
  C   C611      1.0  0.25622  0.75030  0.40212  1.0000
  C   C612      1.0  0.27907  0.74398  0.41692  1.0000
  C   C613      1.0  0.30128  0.74283  0.39767  1.0000
  C   C614      1.0  0.30104  0.74768  0.36326  1.0000
  C   C615      1.0  0.27814  0.75374  0.34840  1.0000
  C   C616      1.0  0.25599  0.75531  0.36775  1.0000
  H   H483      1.0  0.27965  0.74004  0.44321  1.0000
  H   H484      1.0  0.31881  0.73808  0.40954  1.0000
  H   H485      1.0  0.27746  0.75710  0.32201  1.0000
  H   H486      1.0  0.23846  0.76005  0.35591  1.0000
  C   C617      1.0  0.25640  0.72727  0.11942  1.0000
  C   C618      1.0  0.26612  0.71851  0.14965  1.0000
  C   C619      1.0  0.28749  0.72931  0.16364  1.0000
  C   C620      1.0  0.29905  0.74916  0.14763  1.0000
  C   C621      1.0  0.28957  0.75760  0.11711  1.0000
  C   C622      1.0  0.26847  0.74657  0.10288  1.0000
  H   H487      1.0  0.25693  0.70349  0.16248  1.0000
  H   H488      1.0  0.29487  0.72243  0.18688  1.0000
  H   H489      1.0  0.29854  0.77275  0.10436  1.0000
  H   H490      1.0  0.26120  0.75337  0.07955  1.0000
  C   C623      1.0  0.13709  0.81671  0.04330  1.0000
  C   C624      1.0  0.12296  0.83729  0.03246  1.0000
  C   C625      1.0  0.10503  0.84865  0.05340  1.0000
  C   C626      1.0  0.10184  0.84024  0.08603  1.0000
  C   C627      1.0  0.11556  0.81930  0.09656  1.0000
  C   C628      1.0  0.13281  0.80737  0.07522  1.0000
  H   H491      1.0  0.12601  0.84457  0.00776  1.0000
  H   H492      1.0  0.09424  0.86430  0.04455  1.0000
  H   H493      1.0  0.11319  0.81256  0.12167  1.0000
  H   H494      1.0  0.14356  0.79163  0.08398  1.0000
  H   H495      1.0  0.49577  0.96835  0.08162  1.0000
  H   H496      1.0  0.20923  0.74568  0.29896  1.0000
  C   C629      1.0  0.38910  0.71397  0.09898  1.0000
  H   H497      1.0  0.45975  0.96301  0.11989  1.0000
  C   C630      1.0  0.35317  0.72333  0.04959  1.0000
  S   S95       1.0  0.40209  0.67860  0.24540  1.0000
  C   C631      1.0  0.02013  0.97287  0.22168  1.0000
  C   C632      1.0  0.04555  0.98200  0.02993  1.0000
  C   C633      1.0  0.03047  0.96832  0.00863  1.0000
  C   C634      1.0  0.50114  0.68669  0.27909  1.0000
  H   H498      1.0  0.04791  0.97611  0.05542  1.0000
  C   C635      1.0  0.33867  0.68182  0.33446  1.0000
  C   C636      1.0  0.44529  0.90329  0.22097  1.0000
  H   H499      1.0  0.24386  0.69893  0.42198  1.0000
  H   H500      1.0  0.06562  0.94282  0.22204  1.0000
  H   H501      1.0  0.34062  0.81344  0.09731  1.0000
  H   H502      1.0  0.43625  0.74566  0.46904  1.0000
  H   H503      1.0  0.40289  0.71029  0.11808  1.0000
  C   C637      1.0  0.24453  0.81891  0.11926  1.0000
  H   H504      1.0  0.33514  0.74626  0.08679  1.0000
  C   C638      1.0  0.02497  0.81971  0.09267  1.0000
  C   C639      1.0  0.24329  0.68392  0.40426  1.0000
  H   H505      1.0  0.24044  0.84899  0.23243  1.0000
  H   H506      1.0  0.33952  0.81901  0.03342  1.0000
  C   C640      1.0  0.25107  0.82711  0.27459  1.0000
  C   C641      1.0  0.30378  0.70810  0.02498  1.0000
  C   C642      1.0  0.45173  0.84658  0.36123  1.0000
  C   C643      1.0  0.46114  0.84367  0.32908  1.0000
  C   C644      1.0  0.45418  0.86924  0.37745  1.0000
  H   H507      1.0  0.07005  0.69030  0.05627  1.0000
  H   H508      1.0  0.39744  0.77129  0.46811  1.0000
  H   H509      1.0  0.47852  0.69725  0.16253  1.0000
  H   H510      1.0  0.30911  0.70443  0.07813  1.0000
  H   H511      1.0  0.45392  0.99159  0.16747  1.0000
  H   H512      1.0  0.10781  0.66900  0.47041  1.0000
  H   H513      1.0  0.47980  0.86105  0.28795  1.0000
  C   C645      1.0  0.05692  0.75680  0.08746  1.0000
  C   C646      1.0  0.26884  0.90650  0.16735  1.0000
  H   H514      1.0  0.02097  0.67049  0.44555  1.0000
  C   C647      1.0  0.10118  0.76601  0.00540  1.0000
  C   C648      1.0  0.26337  0.67601  0.03479  1.0000
  C   C649      1.0  0.44772  0.97080  0.34711  1.0000
  C   C650      1.0  0.24165  0.78938  0.16450  1.0000
  C   C651      1.0  0.00982  0.67932  0.10097  1.0000
  H   H515      1.0  0.44260  0.83123  0.37357  1.0000
  C   C652      1.0  0.50466  0.84813  0.43303  1.0000
  C   C653      1.0  0.49742  0.81640  0.10460  1.0000
  H   H516      1.0  0.46701  0.90663  0.37400  1.0000
  C   C654      1.0  0.46956  0.99402  0.15060  1.0000
  C   C655      1.0  0.45647  0.92003  0.19912  1.0000
  C   C656      1.0  0.31805  0.76042  0.02223  1.0000
  C   C657      1.0  0.06608  0.70897  0.06430  1.0000
  Fe  Fe46      1.0  0.01998  0.92525  0.14824  1.0000
  C   C658      1.0  0.09422  0.95924  0.19137  1.0000
  C   C659      1.0  0.26954  0.71348  0.26604  1.0000
  H   H517      1.0  0.44728  0.87134  0.40261  1.0000
  H   H518      1.0  0.22249  0.70567  0.32257  1.0000
  H   H519      1.0  0.01750  0.85502  0.00539  1.0000
  H   H520      1.0  0.25190  0.83577  0.10860  1.0000
  C   C660      1.0  0.25233  0.83405  0.24112  1.0000
  C   C661      1.0  0.12358  0.66966  0.07469  1.0000
  C   C662      1.0  0.23474  0.86758  0.16687  1.0000
  H   H521      1.0  0.04979  0.83467  0.47030  1.0000
  C   C663      1.0  0.23998  0.74769  0.26428  1.0000
  C   C664      1.0  0.47618  0.93470  0.20991  1.0000
  C   C665      1.0  0.45399  0.90100  0.25352  1.0000
  H   H522      1.0  0.44823  0.71870  0.25738  1.0000
  H   H523      1.0  0.29619  0.81742  0.11314  1.0000
  H   H524      1.0  0.31840  0.83972  0.21138  1.0000
  C   C666      1.0  0.11743  0.66690  0.04122  1.0000
  H   H525      1.0  0.11066  0.98103  0.03037  1.0000
  C   C667      1.0  0.05906  0.78052  0.99282  1.0000
  H   H526      1.0  0.45006  0.92138  0.17369  1.0000
  C   C668      1.0  0.00679  0.93172  0.43846  1.0000
  H   H527      1.0  0.22271  0.81043  0.07581  1.0000
  H   H528      1.0  0.23399  0.76525  0.25382  1.0000
  C   C669      1.0  0.04899  0.83468  0.98487  1.0000
  C   C670      1.0  0.45423  0.94728  0.33532  1.0000
  C   C671      1.0  0.47278  0.97796  0.12382  1.0000
  H   H529      1.0  0.27357  0.67649  0.08638  1.0000
  C   C672      1.0  0.23378  0.71402  0.30324  1.0000
  C   C673      1.0  0.49147  0.67377  0.30654  1.0000
  H   H530      1.0  0.30289  0.69009  0.35557  1.0000
  H   H531      1.0  0.28625  0.70465  0.25627  1.0000
  H   H532      1.0  0.21761  0.75822  0.15590  1.0000
  C   C674      1.0  0.16712  0.81444  0.45752  1.0000
  S   S96       1.0  0.13194  0.68465  0.00956  1.0000
  H   H533      1.0  0.50101  0.94306  0.24993  1.0000
  C   C675      1.0  0.26638  0.80803  0.28664  1.0000
  H   H534      1.0  0.05131  0.82991  0.05492  1.0000
  C   C676      1.0  0.22634  0.89191  0.16215  1.0000
  C   C677      1.0  0.22791  0.80474  0.10069  1.0000
  H   H535      1.0  0.04404  0.91954  0.45139  1.0000
  C   C678      1.0  0.25135  0.81147  0.15148  1.0000
  C   C679      1.0  0.31248  0.68165  0.33483  1.0000
  C   C680      1.0  0.28381  0.80227  0.23161  1.0000
  H   H536      1.0  0.29646  0.79227  0.21525  1.0000
  C   C681      1.0  0.27734  0.88218  0.17190  1.0000
  C   C682      1.0  0.36872  0.72960  0.10556  1.0000
  C   C683      1.0  0.35087  0.73428  0.08101  1.0000
  C   C684      1.0  0.28274  0.79563  0.26515  1.0000
  C   C685      1.0  0.25362  0.68698  0.37259  1.0000
  C   C686      1.0  0.22478  0.77547  0.14603  1.0000
  C   C687      1.0  0.34808  0.83206  0.17694  1.0000
  C   C688      1.0  0.35444  0.82474  0.14480  1.0000
  C   C689      1.0  0.33561  0.81976  0.12188  1.0000
  S   S97       1.0  0.01383  0.94542  0.19832  1.0000
  C   C690      1.0  0.46047  0.70635  0.27120  1.0000
  C   C691      1.0  0.21165  0.81913  0.44901  1.0000
  H   H537      1.0  0.29466  0.78084  0.27454  1.0000
  H   H538      1.0  0.27249  0.74456  0.23267  1.0000
  C   C692      1.0  0.08239  0.78408  0.00789  1.0000
  C   C693      1.0  0.39162  0.70302  0.06779  1.0000
  C   C694      1.0  0.03484  0.81908  0.06050  1.0000
  C   C695      1.0  0.41583  0.67083  0.17973  1.0000
  H   H539      1.0  0.28207  0.92159  0.16755  1.0000
  C   C696      1.0  0.11005  0.96265  0.04121  1.0000
  H   H540      1.0  0.43990  0.71561  0.18641  1.0000
  C   C697      1.0  0.24338  0.91135  0.16235  1.0000
  H   H541      1.0  0.20662  0.89571  0.15817  1.0000
  C   C698      1.0  0.47362  0.88679  0.32820  1.0000
  H   H542      1.0  0.37397  0.82253  0.13786  1.0000
  H   H543      1.0  0.40741  0.69083  0.06277  1.0000
  C   C699      1.0  0.26038  0.86249  0.17147  1.0000
  C   C700      1.0  0.03779  0.68073  0.00349  1.0000
  C   C701      1.0  0.29919  0.67158  0.30820  1.0000
  H   H544      1.0  0.19012  0.67508  0.08942  1.0000
  C   C702      1.0  0.25578  0.70236  0.29176  1.0000
  H   H545      1.0  0.26210  0.70442  0.36618  1.0000
  H   H546      1.0  0.21420  0.97041  0.08159  1.0000
  H   H547      1.0  0.34870  0.69042  0.35460  1.0000
  H   H548      1.0  0.24707  0.78271  0.18876  1.0000
  H   H549      1.0  0.44003  0.75874  0.20703  1.0000
  H   H550      1.0  0.29716  0.87887  0.17557  1.0000
  C   C703      1.0  0.30084  0.80955  0.02609  1.0000
  C   C704      1.0  0.32289  0.83419  0.18626  1.0000
  H   H551      1.0  0.25664  0.68053  0.98238  1.0000
  H   H552      1.0  0.23688  0.93017  0.15862  1.0000
  H   H553      1.0  0.22124  0.85275  0.16676  1.0000
  C   C705      1.0  0.02499  0.92239  0.46001  1.0000
  C   C706      1.0  0.02321  0.80503  0.03585  1.0000
  C   C707      1.0  0.16897  0.86005  0.09067  1.0000
  C   C708      1.0  0.17122  0.84656  0.12015  1.0000
  C   C709      1.0  0.16384  0.85720  0.15021  1.0000
  C   C710      1.0  0.15407  0.88129  0.15078  1.0000
  C   C711      1.0  0.15085  0.89462  0.12109  1.0000
  C   C712      1.0  0.15890  0.88401  0.09110  1.0000
  P   P19       1.0  0.13934  0.92614  0.12181  1.0000
  C   C713      1.0  0.11645  0.93123  0.15424  1.0000
  C   C714      1.0  0.16668  0.94509  0.12686  1.0000
  C   C715      1.0  0.17394  0.95303  0.15849  1.0000
  Fe  Fe47      1.0  0.02014  0.92344  0.07250  1.0000
  Fe  Fe48      1.0  0.21269  0.74368  0.47798  1.0000
  C   C716      1.0  0.20292  0.96561  0.10307  1.0000
  C   C717      1.0  0.18170  0.95092  0.09929  1.0000
  C   C718      1.0  0.11226  0.95516  0.16667  1.0000
  C   C719      1.0  0.03691  0.74086  0.08176  1.0000
  C   C720      1.0  0.07984  0.93961  0.20321  1.0000
  C   C721      1.0  0.08318  0.91598  0.19002  1.0000
  C   C722      1.0  0.10133  0.91180  0.16553  1.0000
  C   C723      1.0  0.12278  0.93338  0.08402  1.0000
  C   C724      1.0  0.10707  0.91568  0.07000  1.0000
  C   C725      1.0  0.09314  0.92131  0.04164  1.0000
  C   C726      1.0  0.09481  0.94470  0.02705  1.0000
  C   C727      1.0  0.04129  0.71691  0.06963  1.0000
  C   C728      1.0  0.12379  0.95714  0.06984  1.0000
  H   H554      1.0  0.17442  0.85164  0.06730  1.0000
  H   H555      1.0  0.17823  0.82769  0.11955  1.0000
  H   H556      1.0  0.16535  0.84663  0.17301  1.0000
  H   H557      1.0  0.14871  0.88934  0.17433  1.0000
  H   H558      1.0  0.15714  0.89406  0.06793  1.0000
  H   H559      1.0  0.16323  0.94792  0.18031  1.0000
  C   C729      1.0  0.31037  0.82188  0.13109  1.0000
  C   C730      1.0  0.01420  0.99657  0.27331  1.0000
  H   H560      1.0  0.48264  0.95676  0.40225  1.0000
  H   H561      1.0  0.17693  0.94423  0.07484  1.0000
  H   H562      1.0  0.22579  0.98586  0.13728  1.0000
  H   H563      1.0  0.49256  0.84510  0.45419  1.0000
  H   H564      1.0  0.09097  0.97767  0.20104  1.0000
  H   H565      1.0  0.07126  0.90101  0.19827  1.0000
  H   H566      1.0  0.10313  0.89349  0.15507  1.0000
  H   H567      1.0  0.10501  0.89776  0.08168  1.0000
  H   H568      1.0  0.08043  0.90778  0.03163  1.0000
  H   H569      1.0  0.44442  0.88846  0.27009  1.0000
  C   C731      1.0  0.19511  0.96779  0.16218  1.0000
  C   C732      1.0  0.29250  0.76602  0.01818  1.0000
  H   H570      1.0  0.20533  0.77189  0.09969  1.0000
  H   H571      1.0  0.37612  0.69892  0.01928  1.0000
  C   C733      1.0  0.26891  0.82182  0.21942  1.0000
  H   H572      1.0  0.01812  0.74716  0.08728  1.0000
  H   H573      1.0  0.11127  0.73013  0.98649  1.0000
  H   H574      1.0  0.27910  0.75161  0.01325  1.0000
  H   H575      1.0  0.26563  0.80283  0.31266  1.0000
  C   C734      1.0  0.29827  0.69895  0.05682  1.0000
  C   C735      1.0  0.04526  0.87951  0.98547  1.0000
  H   H576      1.0  0.04358  0.99036  0.18522  1.0000
  H   H577      1.0  0.43137  0.69548  0.30516  1.0000
  H   H578      1.0  0.12270  0.97071  0.15710  1.0000
  P   P20       1.0  0.27129  0.83092  0.17627  1.0000
  H   H579      1.0  0.23837  0.83666  0.29132  1.0000
  C   C736      1.0  0.47880  0.76446  0.19532  1.0000
  C   C737      1.0  0.45698  0.75053  0.19698  1.0000
  C   C738      1.0  0.45693  0.72631  0.18525  1.0000
  C   C739      1.0  0.47883  0.71596  0.17204  1.0000
  C   C740      1.0  0.50039  0.92777  0.43086  1.0000
  H   H580      1.0  0.03484  0.89607  0.99221  1.0000
  H   H581      1.0  0.10509  0.71889  0.06492  1.0000
  H   H582      1.0  0.36662  0.73801  0.12981  1.0000
  H   H583      1.0  0.13476  0.97155  0.08112  1.0000
  C   C741      1.0  0.47475  0.91472  0.26394  1.0000
  C   C742      1.0  0.03522  0.99197  0.20956  1.0000
  H   H584      1.0  0.48471  0.79912  0.14904  1.0000
  C   C743      1.0  0.46641  0.67700  0.31598  1.0000
  C   C744      1.0  0.48547  0.93186  0.24204  1.0000
  H   H585      1.0  0.44013  0.93303  0.33469  1.0000
  C   C745      1.0  0.27815  0.68295  0.06163  1.0000
  C   C746      1.0  0.26849  0.68531  0.00312  1.0000
  H   H586      1.0  0.45884  0.66676  0.33682  1.0000
  H   H587      1.0  0.14984  0.80483  0.45237  1.0000
  C   C747      1.0  0.28394  0.79048  0.02038  1.0000
  C   C748      1.0  0.20949  0.97425  0.13444  1.0000
  H   H588      1.0  0.48374  0.91651  0.43168  1.0000
  C   C749      1.0  0.49305  0.98097  0.10222  1.0000
  H   H589      1.0  0.08615  0.80094  0.02127  1.0000
  C   C750      1.0  0.47860  0.94248  0.32362  1.0000
  C   C751      1.0  0.37375  0.70766  0.04315  1.0000
  P   P21       1.0  0.32952  0.72903  0.01834  1.0000
  H   H590      1.0  0.43011  0.89180  0.21244  1.0000
  H   H591      1.0  0.07229  0.98048  0.47383  1.0000
  H   H592      1.0  0.48451  0.94806  0.19325  1.0000
  C   C752      1.0  0.49977  0.95036  0.41382  1.0000
  P   P22       1.0  0.48645  0.91279  0.30583  1.0000
  H   H593      1.0  0.42889  0.97450  0.35604  1.0000
  H   H594      1.0  0.11932  0.76901  0.01655  1.0000
  H   H595      1.0  0.22542  0.67226  0.25726  1.0000
  C   C753      1.0  0.08604  0.72502  0.06971  1.0000
  H   H596      1.0  0.03359  0.83113  0.11139  1.0000
  H   H597      1.0  0.08365  0.94917  0.00542  1.0000
  H   H598      1.0  0.20032  0.97430  0.18657  1.0000
  H   H599      1.0  0.00601  0.99808  0.29780  1.0000
  C   C754      1.0  0.08146  0.74895  0.08126  1.0000
  H   H600      1.0  0.04896  0.67769  0.11524  1.0000
  H   H601      1.0  0.47922  0.82450  0.09926  1.0000
  H   H602      1.0  0.09694  0.76138  0.08545  1.0000
  C   C755      1.0  0.48937  0.98532  0.33416  1.0000
  C   C756      1.0  0.03553  0.85622  0.99305  1.0000
  P   P23       1.0  0.26526  0.67245  0.30784  1.0000
  H   H603      1.0  0.05347  0.77523  0.09692  1.0000
  P   P24       1.0  0.03569  0.80484  0.99418  1.0000
  C   C757      1.0  0.09662  0.74403  0.98854  1.0000
  H   H604      1.0  0.45910  0.82613  0.31640  1.0000
  C   C758      1.0  0.46523  0.88926  0.36108  1.0000
  P   P25       1.0  0.01543  0.69611  0.06285  1.0000
  H   H605      1.0  0.22884  0.81312  0.43697  1.0000
  C   C759      1.0  0.35185  0.67191  0.30759  1.0000
  H   H606      1.0  0.37214  0.67252  0.30702  1.0000
  H   H607      1.0  0.13797  0.68254  0.08175  1.0000
  H   H608      1.0  0.04600  0.69889  0.00232  1.0000
  C   C760      1.0  0.49595  0.96187  0.32241  1.0000
  H   H609      1.0  0.29419  0.82851  0.02739  1.0000
  H   H610      1.0  0.26420  0.79463  0.01726  1.0000
  H   H611      1.0  0.02691  0.99808  0.12925  1.0000
  H   H612      1.0  0.18905  0.79269  0.42321  1.0000
  C   C761      1.0  0.18919  0.80755  0.44119  1.0000
  H   H613      1.0  0.49025  0.81664  0.40694  1.0000
  H   H614      1.0  0.49258  0.71324  0.24041  1.0000
  C   C762      1.0  0.02992  0.67287  0.12172  1.0000
  C   C763      1.0  0.46532  0.98979  0.34664  1.0000
  C   C764      1.0  0.02239  0.67412  0.03036  1.0000
  H   H615      1.0  0.15252  0.88500  0.47713  1.0000
  C   C765      1.0  0.00976  0.97536  0.25375  1.0000
  H   H616      1.0  0.35479  0.77583  0.03029  1.0000
  C   C766      1.0  0.33494  0.77972  0.02776  1.0000
  H   H617      1.0  0.34032  0.68391  0.98093  1.0000
  C   C767      1.0  0.50093  0.72973  0.17094  1.0000
  C   C768      1.0  0.50108  0.75422  0.18255  1.0000
  C   C769      1.0  0.50071  0.80196  0.13311  1.0000
  C   C770      1.0  0.25266  0.66784  0.34924  1.0000
  C   C771      1.0  0.21207  0.83759  0.47323  1.0000
  H   H618      1.0  0.22981  0.84573  0.47942  1.0000
  Fe  Fe49      1.0  0.21612  0.74365  0.55416  1.0000
  S   S98       1.0  0.20857  0.77362  0.51630  1.0000
  S   S99       1.0  0.23864  0.75781  0.59782  1.0000
  Fe  Fe50      1.0  0.18091  0.70744  0.52103  1.0000
  C   C772      1.0  0.05352  0.82315  0.67023  1.0000
  H   H619      1.0  0.49347  0.71559  0.74887  1.0000
  H   H620      1.0  0.40295  0.72452  0.62457  1.0000
  H   H621      1.0  0.03594  0.75407  0.96708  1.0000
  Fe  Fe51      1.0  0.16829  0.76281  0.52247  1.0000
  S   S100      1.0  0.13410  0.78836  0.52165  1.0000
  S   S101      1.0  0.22274  0.71398  0.51548  1.0000
  S   S102      1.0  0.17532  0.73472  0.56240  1.0000
  Fe  Fe52      1.0  0.03536  0.93629  0.65272  1.0000
  S   S103      1.0  0.07153  0.93302  0.62386  1.0000
  C   C773      1.0  0.34492  0.69956  0.96528  1.0000
  S   S104      1.0  0.04322  0.89163  0.57618  1.0000
  Fe  Fe53      1.0  0.06532  0.89177  0.62327  1.0000
  S   S105      1.0  0.09649  0.86358  0.63322  1.0000
  Fe  Fe54      1.0  0.04720  0.93301  0.57836  1.0000
  C   C774      1.0  0.18298  0.78745  0.68678  1.0000
  S   S106      1.0  0.03120  0.89494  0.65610  1.0000
  C   C775      1.0  0.37459  0.80424  0.64935  1.0000
  S   S107      1.0  0.47565  0.84460  0.63100  1.0000
  C   C776      1.0  0.48273  0.90405  0.50604  1.0000
  Fe  Fe55      1.0  0.39627  0.70684  0.75410  1.0000
  S   S108      1.0  0.38965  0.72819  0.70706  1.0000
  C   C777      1.0  0.50377  0.67077  0.64617  1.0000
  Fe  Fe56      1.0  0.35041  0.73168  0.79068  1.0000
  S   S109      1.0  0.34133  0.75406  0.74490  1.0000
  S   S110      1.0  0.33001  0.74192  0.83989  1.0000
  Fe  Fe57      1.0  0.34907  0.71926  0.71647  1.0000
  S   S111      1.0  0.32606  0.70229  0.67541  1.0000
  Fe  Fe58      1.0  0.38280  0.76100  0.73990  1.0000
  S   S112      1.0  0.39772  0.80033  0.73529  1.0000
  S   S113      1.0  0.35599  0.69598  0.76227  1.0000
  S   S114      1.0  0.39173  0.74038  0.78685  1.0000
  C   C778      1.0  0.23444  0.71089  0.73345  1.0000
  H   H622      1.0  0.35228  0.78224  0.68251  1.0000
  C   C779      1.0  0.49949  0.86291  0.51580  1.0000
  H   H623      1.0  0.34397  0.71357  0.52002  1.0000
  C   C780      1.0  0.40122  0.75915  0.48899  1.0000
  C   C781      1.0  0.21926  0.77736  0.85370  1.0000
  C   C782      1.0  0.45607  0.83170  0.66218  1.0000
  C   C783      1.0  0.44776  0.80722  0.65877  1.0000
  C   C784      1.0  0.43073  0.79690  0.68173  1.0000
  C   C785      1.0  0.42139  0.81122  0.70792  1.0000
  C   C786      1.0  0.43012  0.83551  0.71168  1.0000
  C   C787      1.0  0.44755  0.84564  0.68916  1.0000
  H   H624      1.0  0.45422  0.79627  0.63799  1.0000
  H   H625      1.0  0.42417  0.77820  0.67852  1.0000
  H   H626      1.0  0.42303  0.84671  0.73187  1.0000
  H   H627      1.0  0.45372  0.86450  0.69205  1.0000
  C   C788      1.0  0.26119  0.72476  0.90752  1.0000
  C   C789      1.0  0.26633  0.71025  0.87924  1.0000
  C   C790      1.0  0.28692  0.71533  0.85806  1.0000
  C   C791      1.0  0.30301  0.73494  0.86498  1.0000
  C   C792      1.0  0.29780  0.74952  0.89319  1.0000
  C   C793      1.0  0.27714  0.74451  0.91430  1.0000
  C   C794      1.0  0.35831  0.76394  0.63573  1.0000
  H   H628      1.0  0.29046  0.70392  0.83654  1.0000
  H   H629      1.0  0.30989  0.76486  0.89882  1.0000
  H   H630      1.0  0.27361  0.75594  0.93578  1.0000
  C   C795      1.0  0.26306  0.74202  0.61873  1.0000
  C   C796      1.0  0.27575  0.75430  0.64421  1.0000
  C   C797      1.0  0.29499  0.74234  0.66199  1.0000
  C   C798      1.0  0.30190  0.71807  0.65406  1.0000
  C   C799      1.0  0.28944  0.70592  0.62828  1.0000
  C   C800      1.0  0.27005  0.71783  0.61066  1.0000
  H   H631      1.0  0.27056  0.77311  0.65031  1.0000
  H   H632      1.0  0.30447  0.75184  0.68180  1.0000
  H   H633      1.0  0.29474  0.68716  0.62201  1.0000
  H   H634      1.0  0.26050  0.70828  0.59095  1.0000
  C   C801      1.0  0.12506  0.80977  0.55275  1.0000
  C   C802      1.0  0.10604  0.82703  0.54554  1.0000
  C   C803      1.0  0.09709  0.84344  0.56993  1.0000
  C   C804      1.0  0.10718  0.84296  0.60188  1.0000
  C   C805      1.0  0.12632  0.82574  0.60912  1.0000
  C   C806      1.0  0.13514  0.80913  0.58473  1.0000
  H   H635      1.0  0.09799  0.82757  0.52099  1.0000
  H   H636      1.0  0.08245  0.85652  0.56387  1.0000
  H   H637      1.0  0.13422  0.82515  0.63376  1.0000
  H   H638      1.0  0.14938  0.79555  0.59084  1.0000
  C   C807      1.0  0.25731  0.90301  0.51193  1.0000
  P   P26       1.0  0.02069  0.94884  0.86000  1.0000
  H   H639      1.0  0.45617  0.73000  0.77967  1.0000
  C   C808      1.0  0.03651  0.98124  0.72559  1.0000
  C   C809      1.0  0.18994  0.84462  0.48986  1.0000
  P   P27       1.0  0.02225  0.68323  0.51559  1.0000
  H   H640      1.0  0.07183  0.79829  0.63680  1.0000
  H   H641      1.0  0.09655  0.73668  0.52339  1.0000
  C   C810      1.0  0.04324  0.97419  0.51003  1.0000
  C   C811      1.0  0.36074  0.78342  0.65810  1.0000
  C   C812      1.0  0.28471  0.77914  0.78788  1.0000
  C   C813      1.0  0.01312  0.91440  0.80981  1.0000
  H   H642      1.0  0.45362  0.87655  0.57178  1.0000
  Fe  Fe59      1.0  0.00941  0.89723  0.60857  1.0000
  H   H643      1.0  0.07350  0.98056  0.70427  1.0000
  C   C814      1.0  0.24201  0.68756  0.72220  1.0000
  C   C815      1.0  0.50247  0.75181  0.72905  1.0000
  C   C816      1.0  0.47488  0.78510  0.74749  1.0000
  H   H644      1.0  0.15034  0.83692  0.49525  1.0000
  C   C817      1.0  0.34781  0.74376  0.95605  1.0000
  C   C818      1.0  0.07031  0.67521  0.48916  1.0000
  H   H645      1.0  0.09948  0.86156  0.94769  1.0000
  C   C819      1.0  0.03762  0.91200  0.75920  1.0000
  H   H646      1.0  0.45392  0.91604  0.54006  1.0000
  C   C820      1.0  0.41331  0.98210  0.69695  1.0000
  C   C821      1.0  0.06829  0.88146  0.96917  1.0000
  C   C822      1.0  0.39033  0.70923  0.62074  1.0000
  H   H647      1.0  0.10517  0.99621  0.91672  1.0000
  C   C823      1.0  0.46599  0.90084  0.53249  1.0000
  C   C824      1.0  0.46744  0.74319  0.76600  1.0000
  H   H648      1.0  0.15100  0.67811  0.58602  1.0000
  C   C825      1.0  0.31715  0.75871  0.56751  1.0000
  H   H649      1.0  0.06817  0.93749  0.75517  1.0000
  C   C826      1.0  0.03244  0.80272  0.62481  1.0000
  C   C827      1.0  0.07193  0.83675  0.96790  1.0000
  C   C828      1.0  0.26695  0.67997  0.72553  1.0000
  H   H650      1.0  0.46604  0.68087  0.65975  1.0000
  C   C829      1.0  0.01163  0.80144  0.96317  1.0000
  H   H651      1.0  0.48312  0.84294  0.55689  1.0000
  C   C830      1.0  0.05315  0.93067  0.77080  1.0000
  C   C831      1.0  0.27676  0.71892  0.75172  1.0000
  C   C832      1.0  0.05439  0.69127  0.50690  1.0000
  C   C833      1.0  0.02044  0.67891  0.55995  1.0000
  C   C834      1.0  0.21124  0.75500  0.86733  1.0000
  C   C835      1.0  0.36959  0.76524  0.60425  1.0000
  H   H652      1.0  0.19747  0.79337  0.59620  1.0000
  C   C836      1.0  0.00849  0.92691  0.88985  1.0000
  C   C837      1.0  0.22149  0.73413  0.81589  1.0000
  C   C838      1.0  0.21229  0.73343  0.84842  1.0000
  S   S115      1.0  0.02264  0.96032  0.69692  1.0000
  C   C839      1.0  0.48262  0.85972  0.54206  1.0000
  C   C840      1.0  0.35891  0.71525  0.91206  1.0000
  H   H653      1.0  0.35508  0.67662  0.92361  1.0000
  H   H654      1.0  0.47247  0.98770  0.64060  1.0000
  H   H655      1.0  0.18326  0.81592  0.54656  1.0000
  C   C841      1.0  0.50448  0.98494  0.50247  1.0000
  H   H656      1.0  0.08240  0.82048  0.96037  1.0000
  S   S116      1.0  0.01140  0.93889  0.60675  1.0000
  H   H657      1.0  0.49119  0.89656  0.75423  1.0000
  H   H658      1.0  0.30350  0.68958  0.74305  1.0000
  C   C842      1.0  0.04862  0.94140  0.80176  1.0000
  C   C843      1.0  0.01766  0.90380  0.77874  1.0000
  H   H659      1.0  0.48341  0.92194  0.49403  1.0000
  C   C844      1.0  0.04810  0.96309  0.87757  1.0000
  C   C845      1.0  0.05990  0.95305  0.90576  1.0000
  H   H660      1.0  0.44356  0.77430  0.77801  1.0000
  C   C846      1.0  0.28927  0.74607  0.52356  1.0000
  C   C847      1.0  0.37795  0.66745  0.63434  1.0000
  C   C848      1.0  0.08052  0.96489  0.91969  1.0000
  C   C849      1.0  0.05739  0.98498  0.86355  1.0000
  C   C850      1.0  0.08960  0.98667  0.90550  1.0000
  H   H661      1.0  0.05218  0.76686  0.52547  1.0000
  C   C851      1.0  0.34197  0.72384  0.97711  1.0000
  C   C852      1.0  0.05187  0.79929  0.49494  1.0000
  C   C853      1.0  0.08160  0.86009  0.96034  1.0000
  H   H662      1.0  0.28042  0.77428  0.55928  1.0000
  C   C854      1.0  0.38866  0.74189  0.54229  1.0000
  H   H663      1.0  0.04852  0.99328  0.84203  1.0000
  H   H664      1.0  0.41471  0.71493  0.56289  1.0000
  C   C855      1.0  0.38622  0.80554  0.61828  1.0000
  C   C856      1.0  0.18189  0.79439  0.72011  1.0000
  H   H665      1.0  0.45113  0.99294  0.79006  1.0000
  H   H666      1.0  0.21503  0.71646  0.73069  1.0000
  C   C857      1.0  0.41067  0.72746  0.54262  1.0000
  C   C858      1.0  0.19986  0.78549  0.74249  1.0000
  H   H667      1.0  0.03742  0.78970  0.92458  1.0000
  H   H668      1.0  0.44470  0.71768  0.51673  1.0000
  C   C859      1.0  0.35631  0.73941  0.92370  1.0000
  C   C860      1.0  0.05420  0.75787  0.97731  1.0000
  C   C861      1.0  0.38413  0.75782  0.51530  1.0000
  H   H669      1.0  0.05298  0.93649  0.91764  1.0000
  H   H670      1.0  0.39293  0.78753  0.57187  1.0000
  H   H671      1.0  0.45035  0.96576  0.69669  1.0000
  C   C862      1.0  0.21221  0.86310  0.58647  1.0000
  H   H672      1.0  0.20670  0.71602  0.85949  1.0000
  H   H673      1.0  0.22260  0.71709  0.80201  1.0000
  H   H674      1.0  0.26384  0.93987  0.49352  1.0000
  H   H675      1.0  0.04071  0.90441  0.73465  1.0000
  C   C863      1.0  0.37010  0.71157  0.59875  1.0000
  H   H676      1.0  0.45851  0.97831  0.84692  1.0000
  C   C864      1.0  0.01814  0.90264  0.89102  1.0000
  H   H677      1.0  0.40521  0.96752  0.68220  1.0000
  H   H678      1.0  0.37690  0.81906  0.66708  1.0000
  C   C865      1.0  0.00979  0.88600  0.91527  1.0000
  S   S117      1.0  0.06184  0.95329  0.53304  1.0000
  C   C866      1.0  0.05321  0.73437  0.60511  1.0000
  C   C867      1.0  0.08242  0.76583  0.58763  1.0000
  C   C868      1.0  0.10217  0.74880  0.59029  1.0000
  C   C869      1.0  0.09747  0.72450  0.60014  1.0000
  C   C870      1.0  0.07302  0.71732  0.60765  1.0000
  C   C871      1.0  0.05420  0.80700  0.64326  1.0000
  C   C872      1.0  0.46593  0.87871  0.55050  1.0000
  H   H679      1.0  0.47807  0.71929  0.68747  1.0000
  H   H680      1.0  0.08630  0.78453  0.57972  1.0000
  H   H681      1.0  0.12108  0.75439  0.58408  1.0000
  H   H682      1.0  0.11272  0.71115  0.60164  1.0000
  H   H683      1.0  0.06948  0.69842  0.61521  1.0000
  H   H684      1.0  0.22990  0.85978  0.63430  1.0000
  H   H685      1.0  0.49387  0.85101  0.74726  1.0000
  C   C873      1.0  0.02156  0.99132  0.75118  1.0000
  C   C874      1.0  0.28418  0.69550  0.74069  1.0000
  H   H686      1.0  0.00578  0.99376  0.89573  1.0000
  C   C875      1.0  0.45764  0.99799  0.84179  1.0000
  S   S118      1.0  0.17149  0.73518  0.48124  1.0000
  C   C876      1.0  0.16033  0.88106  0.52959  1.0000
  H   H687      1.0  0.16700  0.80657  0.72864  1.0000
  H   H688      1.0  0.03241  0.89669  0.87355  1.0000
  H   H689      1.0  0.02453  0.83373  0.57134  1.0000
  H   H690      1.0  0.03222  0.85634  0.51924  1.0000
  H   H691      1.0  0.08909  0.95757  0.94198  1.0000
  C   C877      1.0  0.39432  0.68720  0.63825  1.0000
  C   C878      1.0  0.14580  0.88825  0.50213  1.0000
  C   C879      1.0  0.12244  0.89968  0.50681  1.0000
  C   C880      1.0  0.11352  0.90416  0.53886  1.0000
  C   C881      1.0  0.12793  0.89730  0.56624  1.0000
  C   C882      1.0  0.15115  0.88563  0.56172  1.0000
  H   H692      1.0  0.27140  0.74774  0.51104  1.0000
  H   H693      1.0  0.21879  0.79397  0.86861  1.0000
  C   C883      1.0  0.22838  0.77817  0.82114  1.0000
  C   C884      1.0  0.21917  0.76963  0.73160  1.0000
  H   H694      1.0  0.48438  0.98281  0.50367  1.0000
  S   S119      1.0  0.43162  0.68283  0.75864  1.0000
  C   C885      1.0  0.19381  0.82565  0.56519  1.0000
  H   H695      1.0  0.16897  0.79420  0.66947  1.0000
  C   C886      1.0  0.02865  0.93323  0.82170  1.0000
  C   C887      1.0  0.01020  0.81538  0.63321  1.0000
  H   H696      1.0  0.19679  0.67750  0.93883  1.0000
  H   H697      1.0  0.20473  0.75421  0.89283  1.0000
  H   H698      1.0  0.19851  0.79097  0.76818  1.0000
  S   S120      1.0  0.50175  0.94814  0.71979  1.0000
  H   H699      1.0  0.07577  0.89954  0.96339  1.0000
  H   H700      1.0  0.09536  0.91280  0.54258  1.0000
  H   H701      1.0  0.12082  0.90056  0.59109  1.0000
  H   H702      1.0  0.16161  0.88006  0.58345  1.0000
  H   H703      1.0  0.06965  0.72268  0.96196  1.0000
  P   P28       1.0  0.36593  0.73998  0.57558  1.0000
  H   H704      1.0  0.34537  0.76267  0.96408  1.0000
  C   C888      1.0  0.27534  0.79146  0.73137  1.0000
  C   C889      1.0  0.01810  0.79379  0.93097  1.0000
  C   C890      1.0  0.03772  0.79842  0.55238  1.0000
  C   C891      1.0  0.29437  0.76106  0.55077  1.0000
  C   C892      1.0  0.24991  0.92601  0.49925  1.0000
  C   C893      1.0  0.22964  0.75653  0.80199  1.0000
  H   H705      1.0  0.32806  0.81973  0.75893  1.0000
  P   P29       1.0  0.24231  0.75764  0.76035  1.0000
  H   H706      1.0  0.25423  0.69493  0.87355  1.0000
  C   C894      1.0  0.06423  0.71304  0.52014  1.0000
  S   S121      1.0  0.23458  0.71732  0.93311  1.0000
  H   H707      1.0  0.30126  0.81698  0.70895  1.0000
  H   H708      1.0  0.32035  0.77029  0.58884  1.0000
  H   H709      1.0  0.23511  0.75110  0.68866  1.0000
  H   H710      1.0  0.34772  0.74779  0.64303  1.0000
  C   C895      1.0  0.03641  0.83675  0.52068  1.0000
  H   H711      1.0  0.26418  0.79017  0.70914  1.0000
  C   C896      1.0  0.05778  0.75884  0.59500  1.0000
  C   C897      1.0  0.31139  0.80842  0.75936  1.0000
  H   H712      1.0  0.28111  0.76791  0.80970  1.0000
  H   H713      1.0  0.27699  0.89900  0.51599  1.0000
  C   C898      1.0  0.43873  0.98113  0.70498  1.0000
  C   C899      1.0  0.25195  0.72705  0.74738  1.0000
  C   C900      1.0  0.29635  0.80675  0.73116  1.0000
  C   C901      1.0  0.33533  0.74163  0.55659  1.0000
  H   H714      1.0  0.03451  0.72817  0.61064  1.0000
  C   C902      1.0  0.03212  0.82380  0.55027  1.0000
  H   H715      1.0  0.04149  0.99794  0.64829  1.0000
  C   C903      1.0  0.30555  0.79459  0.78768  1.0000
  H   H716      1.0  0.29055  0.73063  0.76317  1.0000
  H   H717      1.0  0.31775  0.79504  0.80912  1.0000
  H   H718      1.0  0.29164  0.70895  0.97360  1.0000
  C   C904      1.0  0.01893  0.98055  0.52002  1.0000
  C   C905      1.0  0.26923  0.77769  0.75986  1.0000
  C   C906      1.0  0.05360  0.98555  0.48184  1.0000
  P   P30       1.0  0.19074  0.86673  0.52343  1.0000
  H   H719      1.0  0.03923  0.98687  0.58875  1.0000
  H   H720      1.0  0.49927  0.77118  0.65655  1.0000
  C   C907      1.0  0.06169  0.98810  0.72368  1.0000
  C   C908      1.0  0.48559  0.68608  0.66057  1.0000
  P   P31       1.0  0.03266  0.78136  0.59050  1.0000
  H   H721      1.0  0.36013  0.75477  0.90709  1.0000
  H   H722      1.0  0.00534  0.88968  0.76936  1.0000
  C   C909      1.0  0.38368  0.78616  0.59569  1.0000
  S   S122      1.0  0.48525  0.91925  0.63514  1.0000
  H   H723      1.0  0.33743  0.69313  0.57923  1.0000
  C   C910      1.0  0.20214  0.77174  0.67576  1.0000
  C   C911      1.0  0.03120  0.83518  0.67890  1.0000
  H   H724      1.0  0.07054  0.82689  0.68378  1.0000
  C   C912      1.0  0.46039  0.76813  0.76518  1.0000
  H   H725      1.0  0.23478  0.79561  0.81106  1.0000
  C   C913      1.0  0.30715  0.72887  0.51270  1.0000
  H   H726      1.0  0.06042  0.95645  0.80940  1.0000
  H   H727      1.0  0.50049  0.99722  0.68754  1.0000
  C   C914      1.0  0.21377  0.89017  0.51431  1.0000
  H   H728      1.0  0.46935  0.80443  0.74693  1.0000
  H   H729      1.0  0.05262  0.72482  0.53551  1.0000
  C   C915      1.0  0.22031  0.76308  0.69791  1.0000
  C   C916      1.0  0.35369  0.69165  0.59498  1.0000
  H   H730      1.0  0.22124  0.81492  0.63992  1.0000
  H   H731      1.0  0.39760  0.82142  0.61205  1.0000
  C   C917      1.0  0.04753  0.78628  0.52441  1.0000
  H   H732      1.0  0.20295  0.76617  0.64997  1.0000
  C   C918      1.0  0.33016  0.72677  0.52898  1.0000
  H   H733      1.0  0.36728  0.76915  0.51453  1.0000
  C   C919      1.0  0.23935  0.88513  0.51936  1.0000
  C   C920      1.0  0.35331  0.69532  0.93286  1.0000
  C   C921      1.0  0.03958  0.99742  0.96384  1.0000
  C   C922      1.0  0.19959  0.85069  0.56104  1.0000
  C   C923      1.0  0.49262  0.70773  0.67683  1.0000
  C   C924      1.0  0.22454  0.93113  0.49391  1.0000
  C   C925      1.0  0.08907  0.71959  0.51377  1.0000
  C   C926      1.0  0.20653  0.91328  0.50129  1.0000
  C   C927      1.0  0.21486  0.82506  0.61827  1.0000
  C   C928      1.0  0.20158  0.81286  0.59358  1.0000
  C   C929      1.0  0.42305  0.74470  0.48949  1.0000
  H   H734      1.0  0.03289  0.90977  0.50945  1.0000
  C   C930      1.0  0.21991  0.85026  0.61491  1.0000
  H   H735      1.0  0.01071  0.97180  0.54159  1.0000
  H   H736      1.0  0.15481  0.67816  0.91296  1.0000
  H   H737      1.0  0.21613  0.88265  0.58433  1.0000
  H   H738      1.0  0.05471  0.66908  0.95744  1.0000
  H   H739      1.0  0.24543  0.86736  0.52908  1.0000
  C   C931      1.0  0.01868  0.91693  0.49286  1.0000
  C   C932      1.0  0.49597  0.77707  0.72973  1.0000
  C   C933      1.0  0.48859  0.73509  0.74838  1.0000
  C   C934      1.0  0.42779  0.72892  0.51633  1.0000
  C   C935      1.0  0.16748  0.83279  0.48185  1.0000
  C   C936      1.0  0.04627  0.82453  0.49305  1.0000
  H   H740      1.0  0.01736  0.86735  0.91620  1.0000
  H   H741      1.0  0.36476  0.71207  0.88661  1.0000
  H   H742      1.0  0.03084  0.84798  0.69948  1.0000
  C   C937      1.0  0.02749  0.97615  0.97564  1.0000
  C   C938      1.0  0.49949  0.88499  0.49726  1.0000
  H   H743      1.0  0.01583  0.96569  0.95911  1.0000
  H   H744      1.0  0.40981  0.68565  0.65542  1.0000
  H   H745      1.0  0.49307  0.97727  0.77776  1.0000
  S   S123      1.0  0.17168  0.73987  0.97722  1.0000
  C   C939      1.0  0.07823  0.99649  0.87720  1.0000
  Fe  Fe60      1.0  0.49865  0.87973  0.63653  1.0000
  C   C940      1.0  0.07310  0.73987  0.97472  1.0000
  H   H746      1.0  0.30315  0.71722  0.49162  1.0000
  C   C941      1.0  0.00537  0.99855  0.50222  1.0000
  H   H747      1.0  0.18703  0.91770  0.49693  1.0000
  C   C942      1.0  0.35764  0.66968  0.61275  1.0000
  C   C943      1.0  0.00961  0.83151  0.66017  1.0000
  H   H748      1.0  0.48659  0.99566  0.58289  1.0000
  C   C944      1.0  0.00812  0.72911  0.48761  1.0000
  H   H749      1.0  0.02773  0.73335  0.48499  1.0000
  H   H750      1.0  0.46888  0.99867  0.73038  1.0000
  C   C945      1.0  0.49071  0.99565  0.63597  1.0000
  H   H751      1.0  0.22864  0.67548  0.71049  1.0000
  S   S124      1.0  0.16066  0.67055  0.51506  1.0000
  C   C946      1.0  0.44921  0.99983  0.72411  1.0000
  C   C947      1.0  0.01725  0.66988  0.62844  1.0000
  C   C948      1.0  0.10459  0.70380  0.49550  1.0000
  H   H752      1.0  0.12404  0.70847  0.49140  1.0000
  H   H753      1.0  0.11116  0.90507  0.48567  1.0000
  C   C949      1.0  0.09530  0.68155  0.48343  1.0000
  Fe  Fe61      1.0  0.21276  0.72966  0.98016  1.0000
  H   H754      1.0  0.21880  0.94896  0.48404  1.0000
  H   H755      1.0  0.85757  0.20401  0.29092  1.0000
  S   S125      1.0  0.89281  0.23547  0.02002  1.0000
  H   H756      1.0  0.89088  0.19695  0.33281  1.0000
  C   C950      1.0  0.98294  0.01553  0.99338  1.0000
  H   H757      1.0  0.62605  0.32272  0.18166  1.0000
  S   S126      1.0  0.79554  0.20587  0.43653  1.0000
  Fe  Fe62      1.0  0.85139  0.22728  0.02236  1.0000
  S   S127      1.0  0.83187  0.22281  0.07346  1.0000
  C   C951      1.0  0.88352  0.21543  0.32853  1.0000
  H   H758      1.0  0.93556  0.27473  0.05665  1.0000
  H   H759      1.0  0.96473  0.22446  0.00542  1.0000
  S   S128      1.0  0.86658  0.22989  0.43763  1.0000
  H   H760      1.0  0.67700  0.16613  0.38453  1.0000
  S   S129      1.0  0.96730  0.13142  0.36816  1.0000
  S   S130      1.0  0.99056  0.06092  0.36498  1.0000
  Fe  Fe63      1.0  0.67989  0.21070  0.24836  1.0000
  S   S131      1.0  0.66959  0.23795  0.20809  1.0000
  S   S132      1.0  0.65834  0.17431  0.24909  1.0000
  Fe  Fe64      1.0  0.72144  0.24348  0.27319  1.0000
  S   S133      1.0  0.71329  0.27307  0.23532  1.0000
  S   S134      1.0  0.75537  0.25397  0.30329  1.0000
  Fe  Fe65      1.0  0.67280  0.26676  0.24804  1.0000
  S   S135      1.0  0.64488  0.29912  0.25051  1.0000
  Fe  Fe66      1.0  0.71113  0.24200  0.19863  1.0000
  S   S136      1.0  0.72642  0.24668  0.14530  1.0000
  S   S137      1.0  0.68095  0.23939  0.28873  1.0000
  S   S138      1.0  0.72130  0.21258  0.23592  1.0000
  Fe  Fe67      1.0  0.56299  0.09381  0.36281  1.0000
  S   S139      1.0  0.52882  0.09571  0.33053  1.0000
  S   S140      1.0  0.59402  0.12298  0.36416  1.0000
  Fe  Fe68      1.0  0.54175  0.05002  0.40461  1.0000
  C   C952      1.0  0.54143  0.16560  0.37124  1.0000
  C   C953      1.0  0.61852  0.28013  0.43961  1.0000
  H   H761      1.0  0.55462  0.09010  0.25114  1.0000
  S   S141      1.0  0.56677  0.05226  0.35908  1.0000
  S   S142      1.0  0.54031  0.09150  0.41009  1.0000
  C   C954      1.0  0.63972  0.16104  0.28117  1.0000
  C   C955      1.0  0.62539  0.14000  0.27412  1.0000
  C   C956      1.0  0.61068  0.12856  0.29889  1.0000
  C   C957      1.0  0.61057  0.13774  0.33126  1.0000
  C   C958      1.0  0.62472  0.15896  0.33822  1.0000
  C   C959      1.0  0.63889  0.17078  0.31324  1.0000
  H   H762      1.0  0.62570  0.13242  0.24934  1.0000
  H   H763      1.0  0.59994  0.11229  0.29315  1.0000
  H   H764      1.0  0.62471  0.16625  0.36315  1.0000
  H   H765      1.0  0.64939  0.18720  0.31885  1.0000
  C   C960      1.0  0.63024  0.31189  0.28645  1.0000
  C   C961      1.0  0.62882  0.29892  0.31649  1.0000
  C   C962      1.0  0.53906  0.31927  0.42084  1.0000
  H   H766      1.0  0.63706  0.28066  0.31831  1.0000
  H   H767      1.0  0.90137  0.28773  0.27829  1.0000
  H   H768      1.0  0.74418  0.28303  0.40024  1.0000
  C   C963      1.0  0.68818  0.20205  0.36681  1.0000
  S   S143      1.0  0.87819  0.30387  0.44788  1.0000
  H   H769      1.0  0.58319  0.09210  0.20232  1.0000
  Fe  Fe69      1.0  0.86614  0.26574  0.46587  1.0000
  C   C964      1.0  0.52474  0.29343  0.37567  1.0000
  C   C965      1.0  0.56047  0.25538  0.34976  1.0000
  H   H770      1.0  0.66989  0.28649  0.35857  1.0000
  H   H771      1.0  0.57619  0.01898  0.02752  1.0000
  Fe  Fe70      1.0  0.53067  0.05405  0.33042  1.0000
  C   C966      1.0  0.60631  0.23086  0.36127  1.0000
  C   C967      1.0  0.56592  0.24543  0.38119  1.0000
  C   C968      1.0  0.97753  0.24518  0.41264  1.0000
  C   C969      1.0  0.86470  0.21940  0.30503  1.0000
  C   C970      1.0  0.80252  0.23024  0.09304  1.0000
  C   C971      1.0  0.79771  0.22111  0.12526  1.0000
  C   C972      1.0  0.77484  0.22625  0.14184  1.0000
  C   C973      1.0  0.75625  0.24055  0.12636  1.0000
  C   C974      1.0  0.76101  0.24966  0.09414  1.0000
  C   C975      1.0  0.78402  0.24481  0.07775  1.0000
  H   H772      1.0  0.81177  0.20980  0.13740  1.0000
  H   H773      1.0  0.77140  0.21880  0.16635  1.0000
  H   H774      1.0  0.74685  0.26076  0.08185  1.0000
  H   H775      1.0  0.78744  0.25247  0.05336  1.0000
  C   C976      1.0  0.78355  0.21962  0.40022  1.0000
  C   C977      1.0  0.76412  0.20814  0.38282  1.0000
  C   C978      1.0  0.75502  0.21850  0.35307  1.0000
  C   C979      1.0  0.76528  0.24041  0.34083  1.0000
  C   C980      1.0  0.78459  0.25184  0.35839  1.0000
  C   C981      1.0  0.79360  0.24159  0.38805  1.0000
  H   H776      1.0  0.75627  0.19112  0.39225  1.0000
  H   H777      1.0  0.74035  0.20942  0.33946  1.0000
  H   H778      1.0  0.79253  0.26881  0.34916  1.0000
  H   H779      1.0  0.80851  0.25052  0.40138  1.0000
  C   C982      1.0  0.67743  0.19300  0.42389  1.0000
  C   C983      1.0  0.92067  0.17506  0.42320  1.0000
  C   C984      1.0  0.93277  0.16291  0.39666  1.0000
  C   C985      1.0  0.95305  0.14668  0.40235  1.0000
  C   C986      1.0  0.96116  0.14276  0.43493  1.0000
  C   C987      1.0  0.86392  0.26320  0.31821  1.0000
  H   H780      1.0  0.90504  0.18742  0.41846  1.0000
  H   H781      1.0  0.92627  0.16593  0.37159  1.0000
  C   C988      1.0  0.85465  0.24311  0.30018  1.0000
  C   C989      1.0  0.53210  0.00799  0.26678  1.0000
  P   P32       1.0  0.69291  0.26697  0.41856  1.0000
  C   C990      1.0  0.54969  0.12962  0.25387  1.0000
  C   C991      1.0  0.91894  0.29594  0.40595  1.0000
  C   C992      1.0  0.98511  0.26492  0.43269  1.0000
  H   H782      1.0  0.91426  0.27656  0.40677  1.0000
  H   H783      1.0  0.79589  0.21704  0.01624  1.0000
  H   H784      1.0  0.51540  0.09044  0.12296  1.0000
  C   C993      1.0  0.87987  0.31391  0.30759  1.0000
  C   C994      1.0  0.58874  0.23322  0.38688  1.0000
  C   C995      1.0  0.56232  0.18328  0.32342  1.0000
  P   P33       1.0  0.54367  0.18086  0.25850  1.0000
  C   C996      1.0  0.55600  0.15271  0.24035  1.0000
  C   C997      1.0  0.51164  0.06298  0.19904  1.0000
  H   H785      1.0  0.99742  0.20206  0.43563  1.0000
  C   C998      1.0  0.99600  0.01997  0.14756  1.0000
  C   C999      1.0  0.95614  0.30392  0.03286  1.0000
  C   C1000     1.0  0.54084  0.00449  0.47697  1.0000
  C   C1001     1.0  0.56404  0.20632  0.24798  1.0000
  C   C1002     1.0  0.59004  0.20344  0.25151  1.0000
  C   C1003     1.0  0.60616  0.22281  0.24372  1.0000
  C   C1004     1.0  0.59654  0.24521  0.23184  1.0000
  C   C1005     1.0  0.57074  0.24809  0.22738  1.0000
  C   C1006     1.0  0.55447  0.22875  0.23546  1.0000
  H   H786      1.0  0.69113  0.19600  0.34150  1.0000
  H   H787      1.0  0.57884  0.19184  0.31336  1.0000
  H   H788      1.0  0.59927  0.31534  0.44219  1.0000
  C   C1007     1.0  0.90928  0.10210  0.43816  1.0000
  H   H789      1.0  0.55251  0.24722  0.40131  1.0000
  H   H790      1.0  0.59789  0.18611  0.26027  1.0000
  H   H791      1.0  0.62615  0.22034  0.24695  1.0000
  H   H792      1.0  0.60913  0.26028  0.22595  1.0000
  H   H793      1.0  0.56346  0.26537  0.21763  1.0000
  H   H794      1.0  0.53458  0.23131  0.23168  1.0000
  H   H795      1.0  0.97190  0.24593  0.05827  1.0000
  H   H796      1.0  0.69378  0.14988  0.31767  1.0000
  H   H797      1.0  0.52268  0.22090  0.36941  1.0000
  C   C1008     1.0  0.95360  0.28050  0.04705  1.0000
  H   H798      1.0  0.72395  0.14774  0.36453  1.0000
  H   H799      1.0  0.00236  0.27455  0.42777  1.0000
  H   H800      1.0  0.99841  0.15957  0.07213  1.0000
  C   C1009     1.0  0.66323  0.28185  0.42802  1.0000
  C   C1010     1.0  0.67435  0.15407  0.98916  1.0000
  C   C1011     1.0  0.68045  0.18523  0.39109  1.0000
  C   C1012     1.0  0.99910  0.05266  0.01921  1.0000
  C   C1013     1.0  0.73497  0.25173  0.45397  1.0000
  H   H801      1.0  0.00007  0.08490  0.98710  1.0000
  S   S144      1.0  0.51930  0.03591  0.28216  1.0000
  H   H802      1.0  0.92809  0.21932  0.27054  1.0000
  H   H803      1.0  0.64187  0.24813  0.43394  1.0000
  C   C1014     1.0  0.96448  0.20700  0.33778  1.0000
  C   C1015     1.0  0.97917  0.31124  0.01963  1.0000
  C   C1016     1.0  0.80938  0.28944  0.27276  1.0000
  P   P34       1.0  0.85266  0.29432  0.31061  1.0000
  C   C1017     1.0  0.98478  0.05597  0.11453  1.0000
  C   C1018     1.0  0.56526  0.00169  0.15386  1.0000
  H   H804      1.0  0.50568  0.14935  0.36206  1.0000
  C   C1019     1.0  0.92254  0.32039  0.28823  1.0000
  C   C1020     1.0  0.94275  0.07053  0.47099  1.0000
  H   H805      1.0  0.55036  0.32096  0.32654  1.0000
  C   C1021     1.0  0.89274  0.23530  0.34666  1.0000
  C   C1022     1.0  0.88318  0.25912  0.34125  1.0000
  H   H806      1.0  0.57627  0.17107  0.20067  1.0000
  H   H807      1.0  0.93908  0.31393  0.27514  1.0000
  H   H808      1.0  0.67942  0.22346  0.45784  1.0000
  H   H809      1.0  0.51559  0.04588  0.21192  1.0000
  H   H810      1.0  0.79997  0.28482  0.29574  1.0000
  Fe  Fe71      1.0  0.99749  0.10143  0.37384  1.0000
  H   H811      1.0  0.77577  0.28516  0.24406  1.0000
  H   H812      1.0  0.65157  0.25284  0.98170  1.0000
  H   H813      1.0  0.90742  0.23230  0.36478  1.0000
  H   H814      1.0  0.89078  0.27445  0.35503  1.0000
  H   H815      1.0  0.89661  0.11469  0.42548  1.0000
  C   C1023     1.0  0.83317  0.30541  0.34433  1.0000
  C   C1024     1.0  0.56184  0.17782  0.35734  1.0000
  H   H816      1.0  0.50588  0.15885  0.30245  1.0000
  C   C1025     1.0  0.90629  0.09742  0.47209  1.0000
  C   C1026     1.0  0.56813  0.05762  0.10059  1.0000
  H   H817      1.0  0.52513  0.06247  0.02341  1.0000
  S   S145      1.0  0.99791  0.03242  0.45265  1.0000
  H   H818      1.0  0.96071  0.06636  0.42353  1.0000
  C   C1027     1.0  0.52727  0.05309  0.07545  1.0000
  S   S146      1.0  0.93174  0.17939  0.99094  1.0000
  C   C1028     1.0  0.53307  0.28887  0.30442  1.0000
  C   C1029     1.0  0.52153  0.16469  0.31744  1.0000
  H   H819      1.0  0.84895  0.28105  0.38195  1.0000
  C   C1030     1.0  0.95280  0.12057  0.04688  1.0000
  C   C1031     1.0  0.52414  0.29271  0.24557  1.0000
  C   C1032     1.0  0.52428  0.27868  0.27474  1.0000
  H   H820      1.0  0.62399  0.22138  0.36560  1.0000
  C   C1033     1.0  0.68965  0.29066  0.35741  1.0000
  H   H821      1.0  0.58052  0.05611  0.12170  1.0000
  H   H822      1.0  0.76044  0.30467  0.35099  1.0000
  H   H823      1.0  0.93136  0.09459  0.39436  1.0000
  H   H824      1.0  0.94499  0.26128  0.28004  1.0000
  C   C1034     1.0  0.80736  0.29462  0.21316  1.0000
  H   H825      1.0  0.57791  0.18182  0.37257  1.0000
  H   H826      1.0  0.92331  0.23101  0.45313  1.0000
  S   S147      1.0  0.85648  0.19392  0.98940  1.0000
  C   C1035     1.0  0.54420  0.30231  0.39556  1.0000
  H   H827      1.0  0.93994  0.31610  0.03114  1.0000
  H   H828      1.0  0.60170  0.26952  0.44385  1.0000
  C   C1036     1.0  0.82096  0.30499  0.40248  1.0000
  H   H829      1.0  0.59362  0.03209  0.23194  1.0000
  H   H830      1.0  0.51613  0.16275  0.20040  1.0000
  C   C1037     1.0  0.72454  0.30839  0.32753  1.0000
  C   C1038     1.0  0.63863  0.31975  0.43299  1.0000
  P   P35       1.0  0.53113  0.27163  0.34277  1.0000
  C   C1039     1.0  0.92888  0.17120  0.45573  1.0000
  C   C1040     1.0  0.97457  0.23062  0.34305  1.0000
  H   H831      1.0  0.73887  0.23947  0.43336  1.0000
  C   C1041     1.0  0.96723  0.25018  0.32206  1.0000
  C   C1042     1.0  0.90120  0.30564  0.29019  1.0000
  H   H832      1.0  0.82318  0.29754  0.42730  1.0000
  C   C1043     1.0  0.96433  0.14259  0.05591  1.0000
  H   H833      1.0  0.97908  0.15357  0.98976  1.0000
  C   C1044     1.0  0.74058  0.30137  0.35328  1.0000
  H   H834      1.0  0.50553  0.00614  0.22676  1.0000
  H   H835      1.0  0.97427  0.26862  0.32538  1.0000
  Fe  Fe72      1.0  0.89708  0.20408  0.98384  1.0000
  C   C1045     1.0  0.84667  0.30046  0.24189  1.0000
  C   C1046     1.0  0.55217  0.00894  0.98697  1.0000
  H   H836      1.0  0.93352  0.12095  0.03853  1.0000
  C   C1047     1.0  0.54306  0.31279  0.30409  1.0000
  C   C1048     1.0  0.56685  0.03590  0.19233  1.0000
  H   H837      1.0  0.94245  0.01543  0.43441  1.0000
  C   C1049     1.0  0.61660  0.30958  0.34418  1.0000
  C   C1050     1.0  0.83495  0.29534  0.27240  1.0000
  C   C1051     1.0  0.98080  0.04079  0.14226  1.0000
  H   H838      1.0  0.86636  0.30478  0.24063  1.0000
  C   C1052     1.0  0.94059  0.24045  0.44744  1.0000
  C   C1053     1.0  0.93892  0.30419  0.38593  1.0000
  C   C1054     1.0  0.95048  0.24610  0.29612  1.0000
  H   H839      1.0  0.61478  0.23909  0.31020  1.0000
  H   H840      1.0  0.53285  0.32762  0.22308  1.0000
  H   H841      1.0  0.61567  0.29937  0.36724  1.0000
  C   C1055     1.0  0.55935  0.10782  0.24013  1.0000
  C   C1056     1.0  0.79560  0.28943  0.24337  1.0000
  Fe  Fe73      1.0  0.82866  0.22395  0.46123  1.0000
  H   H842      1.0  0.94069  0.18455  0.30761  1.0000
  C   C1057     1.0  0.58602  0.02385  0.20974  1.0000
  C   C1058     1.0  0.60106  0.24071  0.32996  1.0000
  H   H843      1.0  0.56055  0.00399  0.30410  1.0000
  C   C1059     1.0  0.94096  0.22248  0.29077  1.0000
  C   C1060     1.0  0.83289  0.30008  0.21241  1.0000
  C   C1061     1.0  0.95519  0.23293  0.42036  1.0000
  H   H844      1.0  0.69879  0.23927  0.35601  1.0000
  H   H845      1.0  0.56958  0.07417  0.01893  1.0000
  C   C1062     1.0  0.90462  0.31292  0.42412  1.0000
  Fe  Fe74      1.0  0.50637  0.09098  0.37706  1.0000
  C   C1063     1.0  0.97029  0.27260  0.45949  1.0000
  H   H846      1.0  0.79666  0.29433  0.19034  1.0000
  H   H847      1.0  0.95709  0.08142  0.04023  1.0000
  H   H848      1.0  0.59364  0.13262  0.17718  1.0000
  C   C1064     1.0  0.57529  0.10891  0.21259  1.0000
  H   H849      1.0  0.54154  0.16039  0.39723  1.0000
  C   C1065     1.0  0.70566  0.28341  0.38332  1.0000
  H   H850      1.0  0.98032  0.32915  0.00788  1.0000
  C   C1066     1.0  0.99266  0.02753  0.02105  1.0000
  C   C1067     1.0  0.99159  0.09792  0.05712  1.0000
  C   C1068     1.0  0.53693  0.06161  0.04524  1.0000
  C   C1069     1.0  0.71395  0.26755  0.45351  1.0000
  C   C1070     1.0  0.69965  0.16068  0.99179  1.0000
  C   C1071     1.0  0.94540  0.32936  0.38479  1.0000
  P   P36       1.0  0.70897  0.18554  0.01876  1.0000
  C   C1072     1.0  0.71737  0.17339  0.05915  1.0000
  C   C1073     1.0  0.73563  0.20062  0.99979  1.0000
  C   C1074     1.0  0.99693  0.27120  0.03353  1.0000
  H   H851      1.0  0.97608  0.28811  0.47440  1.0000
  H   H852      1.0  0.67804  0.31886  0.42272  1.0000
  C   C1075     1.0  0.77872  0.21463  0.00236  1.0000
  C   C1076     1.0  0.75766  0.20461  0.01791  1.0000
  C   C1077     1.0  0.72059  0.18959  0.08594  1.0000
  C   C1078     1.0  0.72659  0.18034  0.11738  1.0000
  C   C1079     1.0  0.72965  0.15493  0.12232  1.0000
  C   C1080     1.0  0.72669  0.13869  0.09579  1.0000
  C   C1081     1.0  0.72056  0.14784  0.06430  1.0000
  C   C1082     1.0  0.68275  0.20685  0.02316  1.0000
  C   C1083     1.0  0.66674  0.20510  0.05087  1.0000
  C   C1084     1.0  0.64595  0.22084  0.05394  1.0000
  C   C1085     1.0  0.64058  0.23811  0.02908  1.0000
  C   C1086     1.0  0.65602  0.23967  0.00112  1.0000
  C   C1087     1.0  0.67709  0.22423  0.99819  1.0000
  H   H853      1.0  0.89815  0.01085  0.41708  1.0000
  H   H854      1.0  0.94931  0.29095  0.37125  1.0000
  C   C1088     1.0  0.53350  0.31672  0.24559  1.0000
  C   C1089     1.0  0.99994  0.29506  0.02016  1.0000
  H   H855      1.0  0.99324  0.28941  0.36674  1.0000
  H   H856      1.0  0.59275  0.22545  0.41111  1.0000
  C   C1090     1.0  0.83564  0.29566  0.37650  1.0000
  C   C1091     1.0  0.92885  0.09084  0.42062  1.0000
  C   C1092     1.0  0.94551  0.07507  0.43706  1.0000
  H   H857      1.0  0.75908  0.19966  0.04386  1.0000
  H   H858      1.0  0.71846  0.20943  0.08266  1.0000
  H   H859      1.0  0.72887  0.19295  0.13796  1.0000
  H   H860      1.0  0.73433  0.14789  0.14674  1.0000
  H   H861      1.0  0.72912  0.11898  0.09966  1.0000
  H   H862      1.0  0.71830  0.13487  0.04422  1.0000
  H   H863      1.0  0.67010  0.19152  0.07019  1.0000
  H   H864      1.0  0.63397  0.21958  0.07567  1.0000
  H   H865      1.0  0.62440  0.25023  0.03149  1.0000
  C   C1093     1.0  0.50511  0.25042  0.34091  1.0000
  C   C1094     1.0  0.51486  0.00163  0.47918  1.0000
  C   C1095     1.0  0.84517  0.10118  0.26205  1.0000
  C   C1096     1.0  0.82873  0.08431  0.24792  1.0000
  C   C1097     1.0  0.80305  0.08952  0.24724  1.0000
  C   C1098     1.0  0.79376  0.11159  0.26070  1.0000
  C   C1099     1.0  0.81013  0.12861  0.27513  1.0000
  C   C1100     1.0  0.83595  0.12326  0.27553  1.0000
  P   P37       1.0  0.79860  0.15750  0.29209  1.0000
  C   C1101     1.0  0.76539  0.15553  0.30071  1.0000
  C   C1102     1.0  0.81511  0.16353  0.33018  1.0000
  C   C1103     1.0  0.81991  0.18787  0.34001  1.0000
  C   C1104     1.0  0.83349  0.19234  0.36891  1.0000
  C   C1105     1.0  0.84162  0.17267  0.38878  1.0000
  C   C1106     1.0  0.83630  0.14841  0.37968  1.0000
  C   C1107     1.0  0.82304  0.14381  0.35053  1.0000
  C   C1108     1.0  0.74815  0.15722  0.27456  1.0000
  C   C1109     1.0  0.72247  0.15509  0.28075  1.0000
  C   C1110     1.0  0.71374  0.15152  0.31310  1.0000
  C   C1111     1.0  0.73072  0.15023  0.33937  1.0000
  C   C1112     1.0  0.75646  0.15217  0.33325  1.0000
  C   C1113     1.0  0.80382  0.18234  0.26273  1.0000
  C   C1114     1.0  0.82290  0.18074  0.23864  1.0000
  C   C1115     1.0  0.82650  0.20007  0.21594  1.0000
  C   C1116     1.0  0.81111  0.22107  0.21706  1.0000
  C   C1117     1.0  0.79210  0.22275  0.24084  1.0000
  C   C1118     1.0  0.78858  0.20360  0.26373  1.0000
  H   H866      1.0  0.86510  0.09716  0.26249  1.0000
  H   H867      1.0  0.83590  0.06721  0.23743  1.0000
  H   H868      1.0  0.79031  0.07643  0.23623  1.0000
  H   H869      1.0  0.77382  0.11511  0.25984  1.0000
  H   H870      1.0  0.84899  0.13620  0.28622  1.0000
  H   H871      1.0  0.81303  0.20348  0.32572  1.0000
  C   C1119     1.0  0.94804  0.26033  0.46692  1.0000
  H   H872      1.0  0.85139  0.17632  0.41175  1.0000
  H   H873      1.0  0.84215  0.13321  0.39551  1.0000
  H   H874      1.0  0.81877  0.12490  0.34412  1.0000
  H   H875      1.0  0.75454  0.16009  0.24929  1.0000
  H   H876      1.0  0.70925  0.15627  0.26045  1.0000
  H   H877      1.0  0.76920  0.15118  0.35403  1.0000
  H   H878      1.0  0.83488  0.16460  0.23696  1.0000
  H   H879      1.0  0.84097  0.19864  0.19707  1.0000
  H   H880      1.0  0.81361  0.23589  0.19915  1.0000
  H   H881      1.0  0.77980  0.23877  0.24136  1.0000
  H   H882      1.0  0.77377  0.20536  0.28205  1.0000
  H   H883      1.0  0.95390  0.15988  0.05459  1.0000
  C   C1120     1.0  0.99568  0.06544  0.98910  1.0000
  H   H884      1.0  0.97655  0.13015  0.43970  1.0000
  H   H885      1.0  0.83701  0.21117  0.37650  1.0000
  P   P38       1.0  0.53050  0.03954  0.14226  1.0000
  C   C1121     1.0  0.58122  0.13177  0.19846  1.0000
  H   H886      1.0  0.83977  0.24563  0.28228  1.0000
  H   H887      1.0  0.99273  0.00803  0.16885  1.0000
  H   H888      1.0  0.59725  0.07110  0.06815  1.0000
  C   C1122     1.0  0.57149  0.15359  0.21209  1.0000
  P   P39       1.0  0.99597  0.23548  0.37717  1.0000
  C   C1123     1.0  0.61711  0.30593  0.43893  1.0000
  C   C1124     1.0  0.68851  0.23490  0.40772  1.0000
  C   C1125     1.0  0.68166  0.21770  0.43227  1.0000
  H   H889      1.0  0.53742  0.12838  0.27514  1.0000
  C   C1126     1.0  0.54215  0.17673  0.30307  1.0000
  C   C1127     1.0  0.94795  0.20295  0.31164  1.0000
  C   C1128     1.0  0.00420  0.05047  0.09208  1.0000
  C   C1129     1.0  0.00304  0.12017  0.06623  1.0000
  C   C1130     1.0  0.66163  0.30781  0.42780  1.0000
  C   C1131     1.0  0.96629  0.09828  0.04766  1.0000
  C   C1132     1.0  0.94913  0.15499  0.46144  1.0000
  C   C1133     1.0  0.51228  0.18642  0.24342  1.0000
  C   C1134     1.0  0.57826  0.25292  0.32416  1.0000
  S   S148      1.0  0.55530  0.02404  0.44665  1.0000
  C   C1135     1.0  0.97407  0.26426  0.04775  1.0000
  C   C1136     1.0  0.69905  0.30307  0.32962  1.0000
  H   H890      1.0  0.56044  0.05368  0.20108  1.0000
  C   C1137     1.0  0.54290  0.05073  0.10326  1.0000
  H   H891      1.0  0.67185  0.17987  0.44285  1.0000
  C   C1138     1.0  0.64146  0.26808  0.43407  1.0000
  C   C1139     1.0  0.98943  0.14240  0.06560  1.0000
  C   C1140     1.0  0.56208  0.06823  0.04269  1.0000
  H   H892      1.0  0.65991  0.16421  0.00242  1.0000
  H   H893      1.0  0.94906  0.21751  0.40555  1.0000
  C   C1141     1.0  0.80390  0.32423  0.39670  1.0000
  H   H894      1.0  0.96936  0.19150  0.35372  1.0000
  H   H895      1.0  0.97264  0.07185  0.11071  1.0000
  H   H896      1.0  0.72324  0.26105  0.98201  1.0000
  H   H897      1.0  0.56347  0.29688  0.39095  1.0000
  C   C1142     1.0  0.73126  0.28883  0.38108  1.0000
  H   H898      1.0  0.57482  0.26064  0.29979  1.0000
  C   C1143     1.0  0.55593  0.02470  0.16459  1.0000
  H   H899      1.0  0.73195  0.31739  0.30557  1.0000
  C   C1144     1.0  0.57766  0.06630  0.07036  1.0000
  C   C1145     1.0  0.69229  0.22675  0.37508  1.0000
  H   H900      1.0  0.99485  0.01696  0.04364  1.0000
  H   H901      1.0  0.79270  0.33148  0.41699  1.0000
  H   H902      1.0  0.96585  0.04504  0.15963  1.0000
  C   C1146     1.0  0.52128  0.15916  0.35131  1.0000
  C   C1147     1.0  0.51459  0.32778  0.42612  1.0000
  C   C1148     1.0  0.51717  0.06539  0.16512  1.0000
  H   H903      1.0  0.68660  0.30827  0.30950  1.0000
  C   C1149     1.0  0.54329  0.32664  0.27472  1.0000
  H   H904      1.0  0.52600  0.00149  0.09069  1.0000
  C   C1150     1.0  0.81610  0.32493  0.33878  1.0000
  C   C1151     1.0  0.59482  0.00078  0.19921  1.0000
  H   H905      1.0  0.51630  0.28511  0.22312  1.0000
  C   C1152     1.0  0.50600  0.22724  0.35683  1.0000
  H   H906      1.0  0.84199  0.30406  0.18892  1.0000
  H   H907      1.0  0.59199  0.32626  0.22306  1.0000
  H   H908      1.0  0.55421  0.32662  0.43544  1.0000
  S   S149      1.0  0.50587  0.04926  0.37530  1.0000
  C   C1153     1.0  0.56343  0.00528  0.01823  1.0000
  H   H909      1.0  0.51689  0.26014  0.27424  1.0000
  C   C1154     1.0  0.51171  0.08797  0.14916  1.0000
  H   H910      1.0  0.50771  0.04804  0.07689  1.0000
  C   C1155     1.0  0.50722  0.01613  0.13440  1.0000
  H   H911      1.0  0.81425  0.33317  0.31436  1.0000
  C   C1156     1.0  0.97280  0.22691  0.98098  1.0000
  C   C1157     1.0  0.62923  0.31552  0.81560  1.0000
  S   S150      1.0  0.88324  0.24944  0.51177  1.0000
  C   C1158     1.0  0.93861  0.29311  0.56457  1.0000
  C   C1159     1.0  0.54956  0.06052  0.57042  1.0000
  S   S151      1.0  0.84366  0.20442  0.50656  1.0000
  S   S152      1.0  0.82662  0.20650  0.90450  1.0000
  Fe  Fe75      1.0  0.84382  0.24217  0.52970  1.0000
  S   S153      1.0  0.83464  0.25105  0.58416  1.0000
  C   C1160     1.0  0.88047  0.09446  0.57246  1.0000
  H   H912      1.0  0.93934  0.31403  0.49683  1.0000
  C   C1161     1.0  0.58322  0.04840  0.51963  1.0000
  S   S154      1.0  0.89103  0.22837  0.93922  1.0000
  H   H913      1.0  0.95100  0.00055  0.58641  1.0000
  S   S155      1.0  0.97993  0.10195  0.88896  1.0000
  C   C1162     1.0  0.56872  0.04309  0.57644  1.0000
  Fe  Fe76      1.0  0.67823  0.22321  0.76485  1.0000
  S   S156      1.0  0.67199  0.24727  0.72005  1.0000
  S   S157      1.0  0.65562  0.18760  0.76455  1.0000
  Fe  Fe77      1.0  0.71749  0.25833  0.79136  1.0000
  S   S158      1.0  0.71395  0.28458  0.74795  1.0000
  S   S159      1.0  0.74190  0.27056  0.83414  1.0000
  Fe  Fe78      1.0  0.67242  0.27939  0.75523  1.0000
  S   S160      1.0  0.64377  0.31085  0.74982  1.0000
  Fe  Fe79      1.0  0.71409  0.25025  0.71639  1.0000
  S   S161      1.0  0.73050  0.24332  0.66418  1.0000
  S   S162      1.0  0.67587  0.25512  0.80029  1.0000
  S   S163      1.0  0.72033  0.22430  0.75962  1.0000
  Fe  Fe80      1.0  0.57169  0.09848  0.87262  1.0000
  S   S164      1.0  0.54613  0.09249  0.82930  1.0000
  S   S165      1.0  0.59858  0.13062  0.88038  1.0000
  Fe  Fe81      1.0  0.55053  0.05362  0.91250  1.0000
  H   H914      1.0  0.53791  0.06622  0.76133  1.0000
  Fe  Fe82      1.0  0.55498  0.05186  0.83650  1.0000
  H   H915      1.0  0.98431  0.12100  0.51741  1.0000
  S   S166      1.0  0.58301  0.05848  0.87711  1.0000
  S   S167      1.0  0.54099  0.09433  0.91050  1.0000
  C   C1163     1.0  0.63892  0.17304  0.79713  1.0000
  C   C1164     1.0  0.62468  0.15205  0.78975  1.0000
  C   C1165     1.0  0.61151  0.13937  0.81481  1.0000
  C   C1166     1.0  0.61263  0.14749  0.84761  1.0000
  C   C1167     1.0  0.62643  0.16882  0.85496  1.0000
  C   C1168     1.0  0.63957  0.18156  0.82984  1.0000
  H   H916      1.0  0.62398  0.14543  0.76449  1.0000
  H   H917      1.0  0.60092  0.12303  0.80886  1.0000
  H   H918      1.0  0.62734  0.17519  0.88029  1.0000
  H   H919      1.0  0.65049  0.19767  0.83582  1.0000
  H   H920      1.0  0.77487  0.26478  0.77673  1.0000
  H   H921      1.0  0.68025  0.10469  0.93754  1.0000
  H   H922      1.0  0.70453  0.23961  0.86629  1.0000
  H   H923      1.0  0.68982  0.14230  0.79286  1.0000
  C   C1169     1.0  0.70160  0.28698  0.95267  1.0000
  C   C1170     1.0  0.57207  0.29106  0.73754  1.0000
  H   H924      1.0  0.72342  0.20347  0.83861  1.0000
  H   H925      1.0  0.64192  0.30034  0.82059  1.0000
  C   C1171     1.0  0.90213  0.04569  0.53552  1.0000
  C   C1172     1.0  0.65154  0.29522  0.90969  1.0000
  C   C1173     1.0  0.92341  0.27241  0.57007  1.0000
  H   H926      1.0  0.56847  0.16661  0.69961  1.0000
  H   H927      1.0  0.58008  0.30759  0.74801  1.0000
  H   H928      1.0  0.53599  0.06495  0.58960  1.0000
  H   H929      1.0  0.61761  0.31954  0.86655  1.0000
  C   C1174     1.0  0.61501  0.27274  0.92924  1.0000
  H   H930      1.0  0.59071  0.23487  0.70837  1.0000
  H   H931      1.0  0.64330  0.10109  0.85422  1.0000
  H   H932      1.0  0.56426  0.33225  0.69866  1.0000
  C   C1175     1.0  0.80538  0.24918  0.60577  1.0000
  C   C1176     1.0  0.80380  0.25742  0.63886  1.0000
  C   C1177     1.0  0.78112  0.25603  0.65705  1.0000
  C   C1178     1.0  0.75967  0.24615  0.64248  1.0000
  C   C1179     1.0  0.76124  0.23808  0.60932  1.0000
  C   C1180     1.0  0.78387  0.23958  0.59108  1.0000
  H   H933      1.0  0.82022  0.26500  0.65050  1.0000
  H   H934      1.0  0.78017  0.26276  0.68221  1.0000
  H   H935      1.0  0.74482  0.23046  0.59769  1.0000
  H   H936      1.0  0.78470  0.23307  0.56577  1.0000
  C   C1181     1.0  0.80397  0.22496  0.88415  1.0000
  C   C1182     1.0  0.79919  0.24938  0.89365  1.0000
  C   C1183     1.0  0.78009  0.26309  0.87803  1.0000
  C   C1184     1.0  0.76599  0.25268  0.85241  1.0000
  C   C1185     1.0  0.77140  0.22859  0.84204  1.0000
  C   C1186     1.0  0.79017  0.21468  0.85813  1.0000
  H   H937      1.0  0.81000  0.25762  0.91326  1.0000
  H   H938      1.0  0.77635  0.28191  0.88566  1.0000
  H   H939      1.0  0.76129  0.22079  0.82149  1.0000
  H   H940      1.0  0.79408  0.19591  0.85039  1.0000
  S   S168      1.0  0.56801  0.02864  0.79249  1.0000
  C   C1187     1.0  0.93295  0.15252  0.93211  1.0000
  C   C1188     1.0  0.94379  0.13510  0.91022  1.0000
  C   C1189     1.0  0.96727  0.12420  0.91695  1.0000
  C   C1190     1.0  0.99236  0.06186  0.59000  1.0000
  C   C1191     1.0  0.95854  0.23811  0.95614  1.0000
  H   H941      1.0  0.91472  0.16046  0.92685  1.0000
  H   H942      1.0  0.93382  0.12988  0.88807  1.0000
  C   C1192     1.0  0.97814  0.08326  0.59558  1.0000
  H   H943      1.0  0.68401  0.27839  0.95880  1.0000
  H   H944      1.0  0.69691  0.15012  0.73372  1.0000
  S   S169      1.0  0.91458  0.18629  0.48997  1.0000
  C   C1193     1.0  0.92402  0.29991  0.90929  1.0000
  H   H945      1.0  0.59023  0.10741  0.66710  1.0000
  H   H946      1.0  0.91344  0.28353  0.90357  1.0000
  C   C1194     1.0  0.57322  0.26283  0.81423  1.0000
  C   C1195     1.0  0.59758  0.25525  0.80637  1.0000
  C   C1196     1.0  0.60261  0.23050  0.79918  1.0000
  C   C1197     1.0  0.58326  0.21328  0.79957  1.0000
  C   C1198     1.0  0.55847  0.22092  0.80583  1.0000
  C   C1199     1.0  0.55368  0.24576  0.81388  1.0000
  P   P40       1.0  0.53331  0.19875  0.80504  1.0000
  C   C1200     1.0  0.63245  0.29165  0.93332  1.0000
  H   H947      1.0  0.55962  0.19912  0.74080  1.0000
  H   H948      1.0  0.99788  0.12278  0.95127  1.0000
  C   C1201     1.0  0.54828  0.16970  0.89692  1.0000
  C   C1202     1.0  0.91132  0.21645  0.85572  1.0000
  H   H949      1.0  0.54457  0.32899  0.86334  1.0000
  C   C1203     1.0  0.53859  0.01505  0.62392  1.0000
  H   H950      1.0  0.78410  0.17117  0.93732  1.0000
  H   H951      1.0  0.76539  0.31729  0.93196  1.0000
  C   C1204     1.0  0.55078  0.18164  0.86626  1.0000
  H   H952      1.0  0.80907  0.12153  0.86117  1.0000
  C   C1205     1.0  0.93366  0.24854  0.56892  1.0000
  Fe  Fe83      1.0  0.51596  0.08594  0.86730  1.0000
  C   C1206     1.0  0.74676  0.28792  0.95819  1.0000
  H   H953      1.0  0.68199  0.15530  0.90380  1.0000
  H   H954      1.0  0.76266  0.17240  0.81435  1.0000
  H   H955      1.0  0.97641  0.02794  0.88216  1.0000
  H   H956      1.0  0.84980  0.23141  0.84638  1.0000
  H   H957      1.0  0.53494  0.25204  0.81973  1.0000
  C   C1207     1.0  0.94956  0.32841  0.62728  1.0000
  C   C1208     1.0  0.52257  0.00953  0.59742  1.0000
  H   H958      1.0  0.62379  0.02241  0.62768  1.0000
  H   H959      1.0  0.60072  0.08881  0.72184  1.0000
  C   C1209     1.0  0.69776  0.32060  0.85239  1.0000
  H   H960      1.0  0.56911  0.18795  0.85864  1.0000
  H   H961      1.0  0.56454  0.16690  0.91251  1.0000
  C   C1210     1.0  0.69951  0.22114  0.87432  1.0000
  C   C1211     1.0  0.81170  0.27171  0.79615  1.0000
  H   H962      1.0  0.75899  0.26675  0.52927  1.0000
  C   C1212     1.0  0.58888  0.08759  0.67073  1.0000
  C   C1213     1.0  0.59496  0.07714  0.70148  1.0000
  H   H963      1.0  0.72195  0.29476  0.52895  1.0000
  H   H964      1.0  0.89282  0.32812  0.72441  1.0000
  C   C1214     1.0  0.57973  0.04677  0.64897  1.0000
  C   C1215     1.0  0.58115  0.07252  0.64460  1.0000
  P   P41       1.0  0.56969  0.02680  0.61571  1.0000
  H   H965      1.0  0.93829  0.30458  0.85937  1.0000
  S   S170      1.0  0.82669  0.26126  0.48553  1.0000
  C   C1216     1.0  0.53255  0.15052  0.78058  1.0000
  H   H966      1.0  0.89732  0.16256  0.55197  1.0000
  H   H967      1.0  0.56955  0.28204  0.82012  1.0000
  H   H968      1.0  0.91545  0.27448  0.82387  1.0000
  C   C1217     1.0  0.65371  0.27866  0.88310  1.0000
  C   C1218     1.0  0.87608  0.01404  0.51108  1.0000
  C   C1219     1.0  0.84539  0.30240  0.91613  1.0000
  C   C1220     1.0  0.53306  0.31889  0.84607  1.0000
  H   H969      1.0  0.85235  0.29808  0.94071  1.0000
  H   H970      1.0  0.60814  0.27350  0.73098  1.0000
  C   C1221     1.0  0.83755  0.26737  0.79254  1.0000
  C   C1222     1.0  0.55226  0.24735  0.71232  1.0000
  H   H971      1.0  0.53089  0.11356  0.76140  1.0000
  H   H972      1.0  0.76397  0.28009  0.96808  1.0000
  C   C1223     1.0  0.72562  0.28286  0.50787  1.0000
  C   C1224     1.0  0.79478  0.26125  0.77392  1.0000
  H   H973      1.0  0.99573  0.02815  0.56221  1.0000
  H   H974      1.0  0.98092  0.28511  0.89771  1.0000
  C   C1225     1.0  0.58804  0.27166  0.72815  1.0000
  H   H975      1.0  0.97244  0.01892  0.94214  1.0000
  C   C1226     1.0  0.54937  0.00612  0.77292  1.0000
  C   C1227     1.0  0.70227  0.30784  0.93183  1.0000
  C   C1228     1.0  0.89281  0.14354  0.55802  1.0000
  H   H976      1.0  0.83569  0.22952  0.72494  1.0000
  C   C1229     1.0  0.61559  0.32659  0.84163  1.0000
  C   C1230     1.0  0.92202  0.23829  0.84385  1.0000
  C   C1231     1.0  0.73522  0.20679  0.96588  1.0000
  C   C1232     1.0  0.94541  0.15906  0.96120  1.0000
  H   H977      1.0  0.76970  0.17907  0.75468  1.0000
  C   C1233     1.0  0.95919  0.24511  0.56265  1.0000
  H   H978      1.0  0.94219  0.24018  0.84336  1.0000
  C   C1234     1.0  0.96440  0.01178  0.83639  1.0000
  C   C1235     1.0  0.61692  0.00445  0.62046  1.0000
  C   C1236     1.0  0.59367  0.05156  0.70599  1.0000
  C   C1237     1.0  0.53631  0.32219  0.81192  1.0000
  H   H979      1.0  0.99142  0.17798  0.90733  1.0000
  H   H980      1.0  0.73482  0.09964  0.87499  1.0000
  C   C1238     1.0  0.86995  0.23346  0.84534  1.0000
  H   H981      1.0  0.55382  0.12370  0.70956  1.0000
  H   H982      1.0  0.62153  0.22473  0.79298  1.0000
  S   S171      1.0  0.52301  0.04457  0.87189  1.0000
  H   H983      1.0  0.52336  0.15044  0.93014  1.0000
  C   C1239     1.0  0.00123  0.11078  0.52353  1.0000
  C   C1240     1.0  0.92333  0.30951  0.94150  1.0000
  Fe  Fe84      1.0  0.88457  0.25920  0.97535  1.0000
  C   C1241     1.0  0.55324  0.18055  0.74552  1.0000
  C   C1242     1.0  0.97992  0.13110  0.94570  1.0000
  H   H984      1.0  0.87686  0.19730  0.86603  1.0000
  C   C1243     1.0  0.97452  0.26556  0.55733  1.0000
  C   C1244     1.0  0.52997  0.18450  0.84539  1.0000
  C   C1245     1.0  0.58641  0.03643  0.67976  1.0000
  C   C1246     1.0  0.51447  0.30321  0.85800  1.0000
  H   H985      1.0  0.86584  0.24784  0.76397  1.0000
  C   C1247     1.0  0.94822  0.07050  0.55377  1.0000
  P   P42       1.0  0.86007  0.28054  0.82077  1.0000
  H   H986      1.0  0.66800  0.13862  0.84398  1.0000
  H   H987      1.0  0.57664  0.08105  0.62105  1.0000
  H   H988      1.0  0.74190  0.17254  0.91262  1.0000
  C   C1248     1.0  0.50654  0.00090  0.66239  1.0000
  P   P43       1.0  0.91866  0.07462  0.53242  1.0000
  C   C1249     1.0  0.96259  0.04891  0.54860  1.0000
  C   C1250     1.0  0.98463  0.04474  0.56646  1.0000
  C   C1251     1.0  0.59151  0.00118  0.61286  1.0000
  C   C1252     1.0  0.82904  0.24132  0.74483  1.0000
  C   C1253     1.0  0.95620  0.08765  0.57751  1.0000
  C   C1254     1.0  0.93800  0.31194  0.88423  1.0000
  H   H989      1.0  0.86718  0.27389  0.89304  1.0000
  H   H990      1.0  0.98922  0.28221  0.95764  1.0000
  C   C1255     1.0  0.68701  0.17351  0.89521  1.0000
  H   H991      1.0  0.80429  0.28276  0.81620  1.0000
  C   C1256     1.0  0.68572  0.12022  0.95271  1.0000
  C   C1257     1.0  0.00239  0.29179  0.94183  1.0000
  H   H992      1.0  0.81772  0.14616  0.91157  1.0000
  H   H993      1.0  0.73692  0.16806  0.71410  1.0000
  H   H994      1.0  0.98412  0.09645  0.61401  1.0000
  H   H995      1.0  0.99174  0.17140  0.51443  1.0000
  H   H996      1.0  0.95661  0.03509  0.53106  1.0000
  C   C1258     1.0  0.52342  0.06424  0.71170  1.0000
  H   H997      1.0  0.94547  0.10425  0.58261  1.0000
  H   H998      1.0  0.86128  0.15348  0.58882  1.0000
  C   C1259     1.0  0.87245  0.13841  0.57871  1.0000
  C   C1260     1.0  0.52511  0.16035  0.90683  1.0000
  C   C1261     1.0  0.82063  0.32848  0.87981  1.0000
  H   H999      1.0  0.91411  0.03807  0.58587  1.0000
  H   H1000     1.0  0.92312  0.20149  0.86480  1.0000
  H   H1001     1.0  0.52856  0.01199  0.57192  1.0000
  H   H1002     1.0  0.95636  0.24745  0.90449  1.0000
  C   C1262     1.0  0.96786  0.23936  0.92382  1.0000
  H   H1003     1.0  0.54103  0.06903  0.70016  1.0000
  C   C1263     1.0  0.80341  0.24604  0.74835  1.0000
  H   H1004     1.0  0.70993  0.06220  0.88443  1.0000
  C   C1264     1.0  0.87815  0.30447  0.80062  1.0000
  H   H1005     1.0  0.61255  0.26856  0.80547  1.0000
  H   H1006     1.0  0.84872  0.33108  0.49795  1.0000
  H   H1007     1.0  0.58768  0.19406  0.79460  1.0000
  H   H1008     1.0  0.66240  0.19148  0.93024  1.0000
  C   C1265     1.0  0.00232  0.16050  0.86192  1.0000
  C   C1266     1.0  0.85393  0.28882  0.88883  1.0000
  H   H1009     1.0  0.92258  0.12861  0.52818  1.0000
  C   C1267     1.0  0.84057  0.31897  0.54776  1.0000
  H   H1010     1.0  0.63780  0.24737  0.85811  1.0000
  H   H1011     1.0  0.89275  0.31859  0.84686  1.0000
  H   H1012     1.0  0.60308  0.24250  0.89851  1.0000
  H   H1013     1.0  0.87521  0.07565  0.57821  1.0000
  H   H1014     1.0  0.76701  0.12279  0.83574  1.0000
  H   H1015     1.0  0.67426  0.23383  0.91249  1.0000
  H   H1016     1.0  0.50608  0.20425  0.74169  1.0000
  H   H1017     1.0  0.59817  0.04344  0.72996  1.0000
  H   H1018     1.0  0.99434  0.26286  0.55276  1.0000
  C   C1268     1.0  0.67594  0.19408  0.91045  1.0000
  C   C1269     1.0  0.68243  0.21790  0.90027  1.0000
  C   C1270     1.0  0.58564  0.03720  0.55081  1.0000
  H   H1019     1.0  0.52286  0.14553  0.80320  1.0000
  H   H1020     1.0  0.85049  0.10999  0.60204  1.0000
  S   S172      1.0  0.55858  0.03678  0.96424  1.0000
  H   H1021     1.0  0.76732  0.23923  0.48131  1.0000
  C   C1271     1.0  0.53726  0.13222  0.75692  1.0000
  H   H1022     1.0  0.56167  0.07343  0.48918  1.0000
  C   C1272     1.0  0.63626  0.25977  0.87909  1.0000
  C   C1273     1.0  0.54033  0.17489  0.77499  1.0000
  H   H1023     1.0  0.66407  0.06277  0.87430  1.0000
  H   H1024     1.0  0.83825  0.30661  0.59846  1.0000
  C   C1274     1.0  0.53623  0.26668  0.72178  1.0000
  C   C1275     1.0  0.88528  0.21403  0.85632  1.0000
  C   C1276     1.0  0.92338  0.08196  0.48900  1.0000
  C   C1277     1.0  0.90671  0.25778  0.83283  1.0000
  C   C1278     1.0  0.78001  0.16024  0.91556  1.0000
  C   C1279     1.0  0.79906  0.14608  0.90102  1.0000
  C   C1280     1.0  0.79420  0.13238  0.87249  1.0000
  C   C1281     1.0  0.77039  0.13318  0.85817  1.0000
  C   C1282     1.0  0.75128  0.14788  0.87220  1.0000
  C   C1283     1.0  0.75619  0.16110  0.90130  1.0000
  P   P44       1.0  0.72106  0.15021  0.85222  1.0000
  C   C1284     1.0  0.72610  0.15572  0.80835  1.0000
  C   C1285     1.0  0.70330  0.12217  0.85872  1.0000
  C   C1286     1.0  0.67741  0.12212  0.85283  1.0000
  C   C1287     1.0  0.66336  0.10083  0.85856  1.0000
  C   C1288     1.0  0.67506  0.07926  0.86996  1.0000
  C   C1289     1.0  0.70086  0.07899  0.87570  1.0000
  C   C1290     1.0  0.71495  0.10035  0.87018  1.0000
  C   C1291     1.0  0.70764  0.14970  0.78513  1.0000
  C   C1292     1.0  0.71165  0.15399  0.75130  1.0000
  C   C1293     1.0  0.73415  0.16419  0.74027  1.0000
  C   C1294     1.0  0.75257  0.17044  0.76317  1.0000
  C   C1295     1.0  0.74846  0.16656  0.79707  1.0000
  C   C1296     1.0  0.70436  0.17657  0.86924  1.0000
  C   C1297     1.0  0.71028  0.20058  0.85868  1.0000
  C   C1298     1.0  0.98621  0.05329  0.96139  1.0000
  C   C1299     1.0  0.87817  0.30750  0.76599  1.0000
  H   H1025     1.0  0.82218  0.33259  0.93294  1.0000
  Fe  Fe85      1.0  0.85003  0.22059  0.94712  1.0000
  H   H1026     1.0  0.54455  0.23045  0.70253  1.0000
  H   H1027     1.0  0.98677  0.00365  0.51026  1.0000
  H   H1028     1.0  0.97768  0.21423  0.50234  1.0000
  H   H1029     1.0  0.94007  0.24543  0.96193  1.0000
  C   C1300     1.0  0.61680  0.25693  0.90199  1.0000
  C   C1301     1.0  0.90361  0.03152  0.56476  1.0000
  C   C1302     1.0  0.54607  0.28898  0.73350  1.0000
  C   C1303     1.0  0.84604  0.25181  0.76691  1.0000
  H   H1030     1.0  0.90356  0.27439  0.57495  1.0000
  C   C1304     1.0  0.89165  0.00866  0.56692  1.0000
  C   C1305     1.0  0.97983  0.02834  0.96353  1.0000
  H   H1031     1.0  0.72515  0.11584  0.94242  1.0000
  C   C1306     1.0  0.89264  0.32036  0.82007  1.0000
  C   C1307     1.0  0.57818  0.24985  0.71547  1.0000
  C   C1308     1.0  0.56396  0.06550  0.51377  1.0000
  C   C1309     1.0  0.99674  0.21765  0.97393  1.0000
  P   P45       1.0  0.92568  0.32416  0.56580  1.0000
  C   C1310     1.0  0.62689  0.32446  0.78323  1.0000
  H   H1032     1.0  0.82073  0.31669  0.54329  1.0000
  H   H1033     1.0  0.86687  0.29593  0.75033  1.0000
  C   C1311     1.0  0.97824  0.01224  0.86567  1.0000
  H   H1034     1.0  0.79433  0.22884  0.95711  1.0000
  H   H1035     1.0  0.93641  0.26632  0.48753  1.0000
  H   H1036     1.0  0.66863  0.28050  0.86509  1.0000
  P   P46       1.0  0.52539  0.31403  0.74538  1.0000
  H   H1037     1.0  0.79018  0.23785  0.73137  1.0000
  H   H1038     1.0  0.92166  0.23269  0.57275  1.0000
  C   C1312     1.0  0.96430  0.28947  0.55824  1.0000
  C   C1313     1.0  0.88052  0.25549  0.83358  1.0000
  C   C1314     1.0  0.53037  0.01051  0.65650  1.0000
  C   C1315     1.0  0.54722  0.07166  0.53920  1.0000
  H   H1039     1.0  0.96703  0.22657  0.56209  1.0000
  H   H1040     1.0  0.75571  0.22221  0.92449  1.0000
  H   H1041     1.0  0.95184  0.02700  0.83042  1.0000
  C   C1316     1.0  0.50676  0.17484  0.85543  1.0000
  C   C1317     1.0  0.93733  0.33079  0.94841  1.0000
  C   C1318     1.0  0.89286  0.32584  0.75113  1.0000
  C   C1319     1.0  0.74650  0.26707  0.50810  1.0000
  H   H1042     1.0  0.99493  0.08259  0.48695  1.0000
  H   H1043     1.0  0.71904  0.20283  0.95091  1.0000
  C   C1320     1.0  0.70199  0.32894  0.82003  1.0000
  C   C1321     1.0  0.88814  0.03684  0.50873  1.0000
  H   H1044     1.0  0.70796  0.30453  0.86118  1.0000
  C   C1322     1.0  0.55013  0.13798  0.72772  1.0000
  C   C1323     1.0  0.72378  0.27709  0.96582  1.0000
  C   C1324     1.0  0.55825  0.16213  0.72209  1.0000
  H   H1045     1.0  0.60024  0.02346  0.55429  1.0000
  H   H1046     1.0  0.58592  0.01659  0.68354  1.0000
  H   H1047     1.0  0.59564  0.04317  0.49945  1.0000
  H   H1048     1.0  0.98401  0.15256  0.85797  1.0000
  H   H1049     1.0  0.51125  0.30155  0.88449  1.0000
  C   C1325     1.0  0.90706  0.12420  0.54454  1.0000
  C   C1326     1.0  0.82857  0.32204  0.91169  1.0000
  C   C1327     1.0  0.99756  0.20990  0.50346  1.0000
  C   C1328     1.0  0.84609  0.29519  0.85665  1.0000
  H   H1050     1.0  0.97644  0.30516  0.55431  1.0000
  C   C1329     1.0  0.74756  0.30891  0.93789  1.0000
  H   H1051     1.0  0.95539  0.15169  0.48652  1.0000
  C   C1330     1.0  0.87618  0.31549  0.58448  1.0000
  C   C1331     1.0  0.86636  0.11390  0.58606  1.0000
  H   H1052     1.0  0.54212  0.01411  0.67757  1.0000
  H   H1053     1.0  0.96138  0.31304  0.61992  1.0000
  C   C1332     1.0  0.52088  0.30986  0.78943  1.0000
  C   C1333     1.0  0.96909  0.14847  0.96761  1.0000
  C   C1334     1.0  0.75610  0.21746  0.95067  1.0000
  C   C1335     1.0  0.90086  0.09947  0.55141  1.0000
  Fe  Fe86      1.0  0.88150  0.21312  0.48490  1.0000
  H   H1054     1.0  0.59985  0.27059  0.94696  1.0000
  C   C1336     1.0  0.71793  0.14665  0.97494  1.0000
  C   C1337     1.0  0.82970  0.31541  0.85235  1.0000
  H   H1055     1.0  0.99854  0.23070  0.89116  1.0000
  H   H1056     1.0  0.63072  0.30365  0.95464  1.0000
  S   S173      1.0  0.84263  0.25346  0.98011  1.0000
  H   H1057     1.0  0.82429  0.32136  0.82768  1.0000
  C   C1338     1.0  0.71096  0.12658  0.95536  1.0000
  C   C1339     1.0  0.68018  0.33252  0.87291  1.0000
  H   H1058     1.0  0.51619  0.26414  0.71996  1.0000
  C   C1340     1.0  0.52161  0.06273  0.74620  1.0000
  C   C1341     1.0  0.77787  0.22125  0.96893  1.0000
  H   H1059     1.0  0.88353  0.31052  0.60862  1.0000
  S   S174      1.0  0.90464  0.29637  0.97368  1.0000
  C   C1342     1.0  0.89229  0.32299  0.55872  1.0000
  H   H1060     1.0  0.95577  0.05797  0.48277  1.0000
  C   C1343     1.0  0.85047  0.31338  0.57892  1.0000
  P   P47       1.0  0.67372  0.32015  0.91390  1.0000
  C   C1344     1.0  0.99761  0.29322  0.90779  1.0000
  C   C1345     1.0  0.66743  0.13404  0.96946  1.0000
  H   H1061     1.0  0.88654  0.04741  0.48596  1.0000
  H   H1062     1.0  0.51436  0.30364  0.67610  1.0000
  C   C1346     1.0  0.94614  0.33225  0.50298  1.0000
  H   H1063     1.0  0.68865  0.22586  0.97635  1.0000
  H   H1064     1.0  0.53205  0.08459  0.53433  1.0000
  H   H1065     1.0  0.98363  0.06331  0.93831  1.0000
  H   H1066     1.0  0.51779  0.00962  0.80600  1.0000
  H   H1067     1.0  0.96827  0.33243  0.67425  1.0000
  C   C1347     1.0  0.99183  0.23009  0.91653  1.0000
  H   H1068     1.0  0.71546  0.31940  0.80439  1.0000
  C   C1348     1.0  0.85636  0.32698  0.52225  1.0000
  C   C1349     1.0  0.88214  0.32894  0.52761  1.0000
  C   C1350     1.0  0.72540  0.31897  0.92494  1.0000
  H   H1069     1.0  0.86527  0.00732  0.49038  1.0000
  H   H1070     1.0  0.89060  0.10594  0.48488  1.0000
  H   H1071     1.0  0.64785  0.12910  0.96722  1.0000
  H   H1072     1.0  0.73762  0.15102  0.97723  1.0000
  C   C1351     1.0  0.70938  0.28316  0.48068  1.0000
  C   C1352     1.0  0.75118  0.25156  0.48112  1.0000
  H   H1073     1.0  0.69327  0.29541  0.48116  1.0000
  C   C1353     1.0  0.52542  0.00025  0.78451  1.0000
  H   H1074     1.0  0.96590  0.39737  0.12515  1.0000
  C   C1354     1.0  0.92277  0.34343  0.30370  1.0000
  H   H1075     1.0  0.94910  0.42956  0.22058  1.0000
  H   H1076     1.0  0.95112  0.52390  0.15309  1.0000
  H   H1077     1.0  0.97344  0.40637  0.00299  1.0000
  S   S175      1.0  0.96646  0.59909  0.04900  1.0000
  Fe  Fe87      1.0  0.55322  0.59269  0.14635  1.0000
  S   S176      1.0  0.52815  0.59627  0.10182  1.0000
  S   S177      1.0  0.58861  0.61610  0.14350  1.0000
  P   P48       1.0  0.98880  0.44598  0.11166  1.0000
  C   C1355     1.0  0.52717  0.38186  0.07731  1.0000
  Fe  Fe88      1.0  0.52512  0.55463  0.10291  1.0000
  C   C1356     1.0  0.57491  0.35824  0.19983  1.0000
  S   S178      1.0  0.55230  0.55080  0.14562  1.0000
  S   S179      1.0  0.52135  0.59718  0.18262  1.0000
  Fe  Fe89      1.0  0.56543  0.38067  0.37343  1.0000
  S   S180      1.0  0.54364  0.38586  0.32655  1.0000
  S   S181      1.0  0.59095  0.34655  0.37773  1.0000
  Fe  Fe90      1.0  0.53966  0.42623  0.40842  1.0000
  H   H1078     1.0  0.53506  0.62983  0.24467  1.0000
  Fe  Fe91      1.0  0.55182  0.42626  0.33387  1.0000
  S   S182      1.0  0.56781  0.44888  0.29141  1.0000
  S   S183      1.0  0.53170  0.38528  0.40688  1.0000
  S   S184      1.0  0.57572  0.42086  0.37938  1.0000
  C   C1357     1.0  0.56494  0.61103  0.31458  1.0000
  H   H1079     1.0  0.97697  0.38040  0.46707  1.0000
  H   H1080     1.0  0.57294  0.59453  0.32573  1.0000
  H   H1081     1.0  0.59857  0.36443  0.30998  1.0000
  Fe  Fe92      1.0  0.99629  0.58180  0.08279  1.0000
  C   C1358     1.0  0.52518  0.50649  0.03053  1.0000
  C   C1359     1.0  0.54702  0.52290  0.35425  1.0000
  C   C1360     1.0  0.98987  0.53331  0.41970  1.0000
  C   C1361     1.0  0.62217  0.64961  0.16794  1.0000
  H   H1082     1.0  0.86466  0.34370  0.33784  1.0000
  H   H1083     1.0  0.51670  0.46659  0.30210  1.0000
  C   C1362     1.0  0.95614  0.47883  0.07870  1.0000
  C   C1363     1.0  0.54850  0.50913  0.23666  1.0000
  C   C1364     1.0  0.56217  0.48991  0.25195  1.0000
  C   C1365     1.0  0.55070  0.47421  0.27522  1.0000
  C   C1366     1.0  0.58754  0.43168  0.19858  1.0000
  H   H1084     1.0  0.95473  0.36865  0.02741  1.0000
  H   H1085     1.0  0.55739  0.52092  0.21842  1.0000
  H   H1086     1.0  0.58167  0.48714  0.24563  1.0000
  C   C1367     1.0  0.51617  0.41647  0.12664  1.0000
  H   H1087     1.0  0.54015  0.65999  0.12816  1.0000
  C   C1368     1.0  0.59469  0.63127  0.20880  1.0000
  C   C1369     1.0  0.60264  0.63325  0.17581  1.0000
  H   H1088     1.0  0.89976  0.35143  0.43640  1.0000
  C   C1370     1.0  0.96630  0.42886  0.20627  1.0000
  H   H1089     1.0  0.57979  0.61869  0.21513  1.0000
  H   H1090     1.0  0.61339  0.48635  0.17498  1.0000
  H   H1091     1.0  0.99737  0.56280  0.24804  1.0000
  C   C1371     1.0  0.94649  0.62526  0.05488  1.0000
  C   C1372     1.0  0.93856  0.63900  0.02702  1.0000
  C   C1373     1.0  0.80156  0.33429  0.36488  1.0000
  C   C1374     1.0  0.60672  0.34609  0.31193  1.0000
  C   C1375     1.0  0.93691  0.63154  0.08608  1.0000
  P   P49       1.0  0.51857  0.53563  0.37198  1.0000
  H   H1092     1.0  0.52397  0.52346  0.98205  1.0000
  H   H1093     1.0  0.94240  0.62077  0.10755  1.0000
  H   H1094     1.0  0.60895  0.49545  0.31814  1.0000
  H   H1095     1.0  0.59312  0.53608  0.29807  1.0000
  C   C1376     1.0  0.57884  0.49051  0.35309  1.0000
  C   C1377     1.0  0.54048  0.38134  0.10715  1.0000
  C   C1378     1.0  0.93123  0.34629  0.40326  1.0000
  C   C1379     1.0  0.62557  0.66200  0.22567  1.0000
  S   S185      1.0  0.98649  0.41483  0.36487  1.0000
  H   H1096     1.0  0.93576  0.36574  0.40233  1.0000
  C   C1380     1.0  0.54571  0.65418  0.28479  1.0000
  S   S186      1.0  0.51651  0.43365  0.36266  1.0000
  H   H1097     1.0  0.58707  0.47873  0.12561  1.0000
  C   C1381     1.0  0.96988  0.52246  0.43672  1.0000
  C   C1382     1.0  0.52544  0.48382  0.04746  1.0000
  C   C1383     1.0  0.52566  0.47834  0.28393  1.0000
  H   H1098     1.0  0.91159  0.65532  0.11342  1.0000
  C   C1384     1.0  0.58302  0.52622  0.31730  1.0000
  H   H1099     1.0  0.51190  0.36624  0.18260  1.0000
  H   H1100     1.0  0.94889  0.44172  0.16140  1.0000
  H   H1101     1.0  0.54646  0.48960  0.38451  1.0000
  C   C1385     1.0  0.98876  0.43595  0.15453  1.0000
  C   C1386     1.0  0.59203  0.50342  0.32868  1.0000
  C   C1387     1.0  0.55369  0.55401  0.45868  1.0000
  C   C1388     1.0  0.52214  0.46100  0.99490  1.0000
  C   C1389     1.0  0.98038  0.42330  0.05031  1.0000
  H   H1102     1.0  0.59676  0.38621  0.12968  1.0000
  H   H1103     1.0  0.96288  0.65148  0.14452  1.0000
  C   C1390     1.0  0.94158  0.50039  0.07611  1.0000
  H   H1104     1.0  0.61397  0.45600  0.22145  1.0000
  Fe  Fe93      1.0  0.51832  0.55578  0.17867  1.0000
  C   C1391     1.0  0.57220  0.44449  0.14462  1.0000
  H   H1105     1.0  0.55473  0.36727  0.11058  1.0000
  H   H1106     1.0  0.51071  0.34135  0.44519  1.0000
  C   C1392     1.0  0.97823  0.48378  0.40877  1.0000
  C   C1393     1.0  0.91932  0.65104  0.08926  1.0000
  C   C1394     1.0  0.95941  0.38075  0.07792  1.0000
  H   H1107     1.0  0.99452  0.59574  0.44743  1.0000
  C   C1395     1.0  0.54925  0.54796  0.42552  1.0000
  H   H1108     1.0  0.93221  0.50485  0.05303  1.0000
  C   C1396     1.0  0.60241  0.45278  0.19988  1.0000
  H   H1109     1.0  0.98494  0.47649  0.00229  1.0000
  Fe  Fe94      1.0  0.51050  0.39249  0.35986  1.0000
  C   C1397     1.0  0.61914  0.33553  0.28442  1.0000
  C   C1398     1.0  0.96890  0.47322  0.10826  1.0000
  C   C1399     1.0  0.95207  0.51109  0.13248  1.0000
  H   H1110     1.0  0.97383  0.46449  0.40483  1.0000
  H   H1111     1.0  0.62847  0.35277  0.13495  1.0000
  C   C1400     1.0  0.96677  0.48966  0.13509  1.0000
  H   H1112     1.0  0.98885  0.41673  0.24767  1.0000
  C   C1401     1.0  0.92115  0.65868  0.03023  1.0000
  C   C1402     1.0  0.57187  0.42762  0.17129  1.0000
  H   H1113     1.0  0.55066  0.34523  0.27491  1.0000
  H   H1114     1.0  0.78634  0.66164  0.03747  1.0000
  C   C1403     1.0  0.96630  0.43587  0.17282  1.0000
  H   H1115     1.0  0.90242  0.36917  0.33437  1.0000
  C   C1404     1.0  0.58713  0.46558  0.14602  1.0000
  C   C1405     1.0  0.55638  0.50008  0.36575  1.0000
  C   C1406     1.0  0.97188  0.40443  0.02972  1.0000
  C   C1407     1.0  0.60552  0.33328  0.34210  1.0000
  H   H1116     1.0  0.56117  0.36037  0.21931  1.0000
  H   H1117     1.0  0.95756  0.46695  0.05736  1.0000
  H   H1118     1.0  0.95128  0.36422  0.08859  1.0000
  C   C1408     1.0  0.53104  0.41431  0.23034  1.0000
  H   H1119     1.0  0.98180  0.54863  0.35080  1.0000
  H   H1120     1.0  0.62852  0.65116  0.14251  1.0000
  S   S187      1.0  0.00206  0.53054  0.18988  1.0000
  C   C1409     1.0  0.52462  0.54492  0.41423  1.0000
  H   H1121     1.0  0.67600  0.65535  0.04813  1.0000
  C   C1410     1.0  0.60206  0.46984  0.17376  1.0000
  H   H1122     1.0  0.96746  0.56142  0.29520  1.0000
  C   C1411     1.0  0.99852  0.49442  0.39219  1.0000
  C   C1412     1.0  0.99559  0.49915  0.24386  1.0000
  S   S188      1.0  0.97047  0.33900  0.35882  1.0000
  H   H1123     1.0  0.63260  0.39821  0.99234  1.0000
  H   H1124     1.0  0.97849  0.50960  0.24791  1.0000
  S   S189      1.0  0.99743  0.43317  0.45802  1.0000
  C   C1413     1.0  0.50518  0.56010  0.31323  1.0000
  H   H1125     1.0  0.58808  0.41869  0.21916  1.0000
  H   H1126     1.0  0.94565  0.63415  0.00271  1.0000
  C   C1414     1.0  0.53536  0.39895  0.13185  1.0000
  H   H1127     1.0  0.52424  0.44409  0.04319  1.0000
  C   C1415     1.0  0.90183  0.35164  0.32150  1.0000
  C   C1416     1.0  0.61324  0.35407  0.15272  1.0000
  C   C1417     1.0  0.59524  0.37293  0.14980  1.0000
  C   C1418     1.0  0.56637  0.63363  0.33107  1.0000
  H   H1128     1.0  0.57453  0.47620  0.46709  1.0000
  H   H1129     1.0  0.58575  0.47270  0.36152  1.0000
  H   H1130     1.0  0.63726  0.33975  0.43148  1.0000
  C   C1419     1.0  0.96139  0.38316  0.04349  1.0000
  H   H1131     1.0  0.78849  0.34938  0.36046  1.0000
  H   H1132     1.0  0.55235  0.59228  0.27066  1.0000
  C   C1420     1.0  0.57562  0.37486  0.17302  1.0000
  H   H1133     1.0  0.99843  0.64119  0.18164  1.0000
  C   C1421     1.0  0.53064  0.39789  0.20349  1.0000
  C   C1422     1.0  0.79757  0.66294  0.98618  1.0000
  C   C1423     1.0  0.60618  0.64550  0.23360  1.0000
  H   H1134     1.0  0.55438  0.55383  0.32124  1.0000
  H   H1135     1.0  0.53151  0.36864  0.05795  1.0000
  H   H1136     1.0  0.53987  0.46963  0.19346  1.0000
  H   H1137     1.0  0.92873  0.53350  0.10068  1.0000
  C   C1424     1.0  0.52214  0.47328  0.18141  1.0000
  C   C1425     1.0  0.93954  0.51651  0.10298  1.0000
  H   H1138     1.0  0.54436  0.42917  0.23144  1.0000
  P   P50       1.0  0.55315  0.39997  0.16989  1.0000
  H   H1139     1.0  0.56509  0.54530  0.40904  1.0000
  C   C1426     1.0  0.54369  0.63124  0.26881  1.0000
  C   C1427     1.0  0.96418  0.49764  0.43143  1.0000
  H   H1140     1.0  0.56100  0.44160  0.12271  1.0000
  C   C1428     1.0  0.51610  0.66134  0.17113  1.0000
  C   C1429     1.0  0.61188  0.33712  0.17894  1.0000
  H   H1141     1.0  0.97685  0.48633  0.15796  1.0000
  H   H1142     1.0  0.81542  0.65380  0.99052  1.0000
  C   C1430     1.0  0.55346  0.60980  0.28356  1.0000
  H   H1143     1.0  0.57537  0.63457  0.35506  1.0000
  S   S190      1.0  0.52772  0.44864  0.45504  1.0000
  C   C1431     1.0  0.97822  0.42125  0.08497  1.0000
  C   C1432     1.0  0.50855  0.39976  0.07203  1.0000
  C   C1433     1.0  0.56075  0.53606  0.33023  1.0000
  H   H1144     1.0  0.53871  0.49223  0.13974  1.0000
  H   H1145     1.0  0.60007  0.64362  0.25908  1.0000
  C   C1434     1.0  0.59265  0.33914  0.20236  1.0000
  C   C1435     1.0  0.96773  0.39970  0.09860  1.0000
  C   C1436     1.0  0.52319  0.51259  0.24444  1.0000
  C   C1437     1.0  0.88043  0.33699  0.32346  1.0000
  S   S191      1.0  0.52559  0.53571  0.05145  1.0000
  C   C1438     1.0  0.98698  0.55671  0.29916  1.0000
  H   H1146     1.0  0.67652  0.38428  0.00130  1.0000
  H   H1147     1.0  0.94903  0.48904  0.44508  1.0000
  H   H1148     1.0  0.96328  0.33765  0.45498  1.0000
  Fe  Fe95      1.0  0.99401  0.37362  0.36654  1.0000
  H   H1149     1.0  0.52695  0.48352  0.07412  1.0000
  H   H1150     1.0  0.98972  0.47539  0.28668  1.0000
  H   H1151     1.0  0.93947  0.35470  0.30268  1.0000
  C   C1439     1.0  0.98153  0.65780  0.13842  1.0000
  C   C1440     1.0  0.98862  0.42150  0.22150  1.0000
  C   C1441     1.0  0.51261  0.37911  0.20308  1.0000
  H   H1152     1.0  0.95895  0.53320  0.45430  1.0000
  C   C1442     1.0  0.52389  0.46136  0.02977  1.0000
  C   C1443     1.0  0.63352  0.66400  0.19268  1.0000
  C   C1444     1.0  0.91081  0.33811  0.42257  1.0000
  C   C1445     1.0  0.52394  0.50614  0.99557  1.0000
  C   C1446     1.0  0.55664  0.65511  0.31638  1.0000
  H   H1153     1.0  0.57271  0.55572  0.46761  1.0000
  H   H1154     1.0  0.51467  0.42428  0.27739  1.0000
  C   C1447     1.0  0.51396  0.41177  0.25650  1.0000
  C   C1448     1.0  0.52150  0.48589  0.15113  1.0000
  H   H1155     1.0  0.62058  0.34603  0.26164  1.0000
  C   C1449     1.0  0.99971  0.61239  0.46038  1.0000
  H   H1156     1.0  0.98877  0.43943  0.03906  1.0000
  S   S192      1.0  0.00023  0.54062  0.09168  1.0000
  C   C1450     1.0  0.00153  0.65205  0.15937  1.0000
  H   H1157     1.0  0.51179  0.43008  0.14542  1.0000
  H   H1158     1.0  0.51054  0.54324  0.30060  1.0000
  H   H1159     1.0  0.99363  0.55266  0.42374  1.0000
  C   C1451     1.0  0.51193  0.49737  0.26842  1.0000
  C   C1452     1.0  0.00194  0.47971  0.26604  1.0000
  H   H1160     1.0  0.74593  0.65128  0.27677  1.0000
  C   C1453     1.0  0.99520  0.54933  0.33061  1.0000
  C   C1454     1.0  0.95944  0.34567  0.47908  1.0000
  H   H1161     1.0  0.99922  0.64503  0.05097  1.0000
  C   C1455     1.0  0.91114  0.66459  0.06136  1.0000
  H   H1162     1.0  0.87733  0.66238  0.20574  1.0000
  C   C1456     1.0  0.76257  0.66244  0.27925  1.0000
  H   H1163     1.0  0.70756  0.66199  0.00407  1.0000
  C   C1457     1.0  0.00383  0.55759  0.27259  1.0000
  H   H1164     1.0  0.50884  0.49604  0.42039  1.0000
  C   C1458     1.0  0.50716  0.56183  0.34790  1.0000
  C   C1459     1.0  0.00491  0.51915  0.39813  1.0000
  H   H1165     1.0  0.76903  0.66499  0.22659  1.0000
  C   C1460     1.0  0.66512  0.37525  0.98286  1.0000
  H   H1166     1.0  0.75933  0.66529  0.33234  1.0000
  C   C1461     1.0  0.50911  0.55434  0.46961  1.0000
  C   C1462     1.0  0.53831  0.66566  0.15384  1.0000
  C   C1463     1.0  0.00500  0.47809  0.99937  1.0000
  H   H1167     1.0  0.69455  0.35050  0.96771  1.0000
  S   S193      1.0  0.96870  0.34819  0.85852  1.0000
  H   H1168     1.0  0.53930  0.63511  0.76002  1.0000
  C   C1464     1.0  0.59990  0.34713  0.83585  1.0000
  H   H1169     1.0  0.55252  0.42088  0.60499  1.0000
  S   S194      1.0  0.97178  0.62713  0.60470  1.0000
  Fe  Fe96      1.0  0.56259  0.59868  0.64926  1.0000
  S   S195      1.0  0.53325  0.59280  0.61026  1.0000
  S   S196      1.0  0.58535  0.63386  0.64497  1.0000
  Fe  Fe97      1.0  0.54856  0.55134  0.68599  1.0000
  H   H1170     1.0  0.93682  0.33849  0.97309  1.0000
  Fe  Fe98      1.0  0.54515  0.55257  0.60951  1.0000
  S   S197      1.0  0.55788  0.53173  0.56196  1.0000
  S   S198      1.0  0.57654  0.55950  0.64563  1.0000
  S   S199      1.0  0.53708  0.59120  0.69221  1.0000
  Fe  Fe99      1.0  0.54975  0.38517  0.87145  1.0000
  H   H1171     1.0  0.85071  0.65654  0.82598  1.0000
  S   S200      1.0  0.58584  0.36208  0.87046  1.0000
  Fe  Fe100     1.0  0.51842  0.41780  0.92012  1.0000
  C   C1465     1.0  0.99788  0.47080  0.50364  1.0000
  C   C1466     1.0  0.98464  0.48546  0.90761  1.0000
  H   H1172     1.0  0.99146  0.59730  0.50874  1.0000
  S   S201      1.0  0.52517  0.37668  0.91531  1.0000
  S   S202      1.0  0.54536  0.42653  0.87821  1.0000
  C   C1467     1.0  0.53636  0.56753  0.79237  1.0000
  H   H1173     1.0  0.62336  0.63497  0.75637  1.0000
  H   H1174     1.0  0.98217  0.46142  0.51489  1.0000
  H   H1175     1.0  0.77267  0.65481  0.54971  1.0000
  H   H1176     1.0  0.76460  0.58715  0.63474  1.0000
  C   C1468     1.0  0.54886  0.50875  0.53229  1.0000
  C   C1469     1.0  0.56661  0.50045  0.50870  1.0000
  Fe  Fe101     1.0  0.00015  0.59507  0.60113  1.0000
  H   H1177     1.0  0.60330  0.60065  0.58132  1.0000
  H   H1178     1.0  0.90124  0.36505  0.60072  1.0000
  Fe  Fe102     1.0  0.51162  0.42224  0.84505  1.0000
  C   C1470     1.0  0.54434  0.50624  0.74987  1.0000
  C   C1471     1.0  0.52034  0.50046  0.73877  1.0000
  C   C1472     1.0  0.66716  0.35330  0.86054  1.0000
  C   C1473     1.0  0.53650  0.47225  0.48391  1.0000
  C   C1474     1.0  0.54078  0.47424  0.79267  1.0000
  C   C1475     1.0  0.55446  0.49310  0.77690  1.0000
  C   C1476     1.0  0.52793  0.36495  0.75298  1.0000
  C   C1477     1.0  0.66063  0.34442  0.93961  1.0000
  H   H1179     1.0  0.54876  0.46425  0.81345  1.0000
  H   H1180     1.0  0.57305  0.49744  0.78557  1.0000
  C   C1478     1.0  0.60535  0.63472  0.70845  1.0000
  C   C1479     1.0  0.60267  0.64677  0.67791  1.0000
  C   C1480     1.0  0.99803  0.61325  0.49493  1.0000
  H   H1181     1.0  0.65317  0.36286  0.87518  1.0000
  H   H1182     1.0  0.59584  0.61744  0.71265  1.0000
  C   C1481     1.0  0.54423  0.41140  0.55461  1.0000
  H   H1183     1.0  0.55076  0.33454  0.80324  1.0000
  C   C1482     1.0  0.95155  0.64248  0.57612  1.0000
  C   C1483     1.0  0.57234  0.48878  0.63017  1.0000
  H   H1184     1.0  0.58530  0.50798  0.50903  1.0000
  H   H1185     1.0  0.56257  0.40339  0.54995  1.0000
  C   C1484     1.0  0.94526  0.63227  0.54549  1.0000
  C   C1485     1.0  0.96731  0.36967  0.48590  1.0000
  S   S203      1.0  0.56267  0.52908  0.73012  1.0000
  H   H1186     1.0  0.95291  0.61446  0.53853  1.0000
  C   C1486     1.0  0.53849  0.42143  0.58567  1.0000
  C   C1487     1.0  0.55675  0.34771  0.71257  1.0000
  H   H1187     1.0  0.60856  0.55768  0.56078  1.0000
  H   H1188     1.0  0.59662  0.49776  0.67085  1.0000
  C   C1488     1.0  0.91983  0.36849  0.64757  1.0000
  P   P51       1.0  0.50856  0.44722  0.63080  1.0000
  H   H1189     1.0  0.53718  0.56146  0.50650  1.0000
  C   C1489     1.0  0.62571  0.37162  0.95396  1.0000
  H   H1190     1.0  0.58252  0.49989  0.61227  1.0000
  C   C1490     1.0  0.56060  0.60281  0.77427  1.0000
  H   H1191     1.0  0.53128  0.40534  0.50471  1.0000
  C   C1491     1.0  0.51865  0.48086  0.50715  1.0000
  C   C1492     1.0  0.53850  0.61635  0.76953  1.0000
  C   C1493     1.0  0.55949  0.57836  0.78541  1.0000
  C   C1494     1.0  0.97677  0.52476  0.93422  1.0000
  H   H1192     1.0  0.57853  0.61110  0.76872  1.0000
  H   H1193     1.0  0.96219  0.35894  0.92925  1.0000
  C   C1495     1.0  0.51678  0.46847  0.78158  1.0000
  H   H1194     1.0  0.80796  0.34402  0.87626  1.0000
  C   C1496     1.0  0.94956  0.36653  0.54118  1.0000
  C   C1497     1.0  0.93870  0.35939  0.66832  1.0000
  C   C1498     1.0  0.67871  0.62806  0.65452  1.0000
  S   S204      1.0  0.99301  0.41917  0.86633  1.0000
  P   P52       1.0  0.67392  0.59514  0.65959  1.0000
  C   C1499     1.0  0.70397  0.57952  0.65967  1.0000
  C   C1500     1.0  0.65834  0.58820  0.69847  1.0000
  C   C1501     1.0  0.63344  0.58000  0.69904  1.0000
  C   C1502     1.0  0.62203  0.57324  0.72898  1.0000
  C   C1503     1.0  0.63523  0.57495  0.75869  1.0000
  C   C1504     1.0  0.65996  0.58318  0.75844  1.0000
  C   C1505     1.0  0.67156  0.58957  0.72845  1.0000
  C   C1506     1.0  0.72510  0.59062  0.64525  1.0000
  C   C1507     1.0  0.74834  0.57847  0.64580  1.0000
  C   C1508     1.0  0.75065  0.55515  0.66063  1.0000
  C   C1509     1.0  0.72971  0.54395  0.67493  1.0000
  C   C1510     1.0  0.70646  0.55606  0.67449  1.0000
  C   C1511     1.0  0.65472  0.58373  0.62621  1.0000
  C   C1512     1.0  0.63521  0.59854  0.61368  1.0000
  C   C1513     1.0  0.61880  0.58926  0.58996  1.0000
  C   C1514     1.0  0.62173  0.56507  0.57851  1.0000
  C   C1515     1.0  0.64123  0.55022  0.59062  1.0000
  C   C1516     1.0  0.65767  0.55946  0.61444  1.0000
  H   H1195     1.0  0.60662  0.37790  0.94958  1.0000
  H   H1196     1.0  0.52165  0.48374  0.95113  1.0000
  H   H1197     1.0  0.00240  0.63522  0.53856  1.0000
  H   H1198     1.0  0.68006  0.63639  0.70713  1.0000
  C   C1517     1.0  0.74628  0.66289  0.72878  1.0000
  H   H1199     1.0  0.62260  0.57892  0.67654  1.0000
  H   H1200     1.0  0.60281  0.56687  0.72908  1.0000
  H   H1201     1.0  0.62626  0.56987  0.78187  1.0000
  H   H1202     1.0  0.67016  0.58458  0.78151  1.0000
  H   H1203     1.0  0.69086  0.59555  0.72864  1.0000
  H   H1204     1.0  0.72379  0.60866  0.63367  1.0000
  H   H1205     1.0  0.76868  0.54577  0.66103  1.0000
  H   H1206     1.0  0.73150  0.52586  0.68642  1.0000
  H   H1207     1.0  0.69040  0.54710  0.68566  1.0000
  H   H1208     1.0  0.63220  0.61709  0.62296  1.0000
  C   C1518     1.0  0.53693  0.46248  0.64367  1.0000
  Fe  Fe103     1.0  0.99841  0.37769  0.86805  1.0000
  H   H1209     1.0  0.64325  0.53136  0.58198  1.0000
  H   H1210     1.0  0.67224  0.54744  0.62400  1.0000
  C   C1519     1.0  0.52658  0.41235  0.52916  1.0000
  C   C1520     1.0  0.00205  0.49602  0.74219  1.0000
  C   C1521     1.0  0.99964  0.53352  0.92215  1.0000
  C   C1522     1.0  0.56711  0.47329  0.68606  1.0000
  H   H1211     1.0  0.99954  0.53972  0.84782  1.0000
  Fe  Fe104     1.0  0.50832  0.58321  0.65358  1.0000
  C   C1523     1.0  0.56616  0.37138  0.70634  1.0000
  H   H1212     1.0  0.51264  0.36278  0.77044  1.0000
  H   H1213     1.0  0.62411  0.34393  0.91632  1.0000
  S   S205      1.0  0.51891  0.43185  0.97437  1.0000
  H   H1214     1.0  0.98283  0.50251  0.74170  1.0000
  H   H1215     1.0  0.52977  0.40442  0.76007  1.0000
  C   C1524     1.0  0.91577  0.35758  0.61668  1.0000
  C   C1525     1.0  0.95169  0.34249  0.92353  1.0000
  H   H1216     1.0  0.66031  0.37679  0.81817  1.0000
  H   H1217     1.0  0.72639  0.33526  0.90926  1.0000
  C   C1526     1.0  0.53796  0.34427  0.73660  1.0000
  C   C1527     1.0  0.00460  0.63475  0.51185  1.0000
  H   H1218     1.0  0.69107  0.35501  0.78212  1.0000
  H   H1219     1.0  0.91911  0.35532  0.75927  1.0000
  H   H1220     1.0  0.53522  0.45083  0.69534  1.0000
  C   C1528     1.0  0.68849  0.34915  0.80764  1.0000
  H   H1221     1.0  0.53616  0.54847  0.80044  1.0000
  H   H1222     1.0  0.97886  0.46677  0.90218  1.0000
  H   H1223     1.0  0.57650  0.56749  0.78807  1.0000
  S   S206      1.0  0.51786  0.54222  0.65023  1.0000
  H   H1224     1.0  0.50701  0.49924  0.60864  1.0000
  H   H1225     1.0  0.51239  0.51042  0.71797  1.0000
  H   H1226     1.0  0.92328  0.63647  0.50093  1.0000
  C   C1529     1.0  0.64038  0.38309  0.97790  1.0000
  S   S207      1.0  0.99453  0.55371  0.59963  1.0000
  H   H1227     1.0  0.94199  0.36801  0.69213  1.0000
  H   H1228     1.0  0.90846  0.38417  0.65531  1.0000
  H   H1229     1.0  0.56401  0.41008  0.71905  1.0000
  C   C1530     1.0  0.67121  0.36143  0.82797  1.0000
  C   C1531     1.0  0.68202  0.64340  0.68214  1.0000
  C   C1532     1.0  0.50663  0.48167  0.75464  1.0000
  C   C1533     1.0  0.61064  0.34460  0.77717  1.0000
  H   H1230     1.0  0.96487  0.53662  0.94924  1.0000
  H   H1231     1.0  0.58105  0.37388  0.68831  1.0000
  H   H1232     1.0  0.67924  0.62676  0.60078  1.0000
  H   H1233     1.0  0.94609  0.37501  0.56501  1.0000
  C   C1534     1.0  0.53741  0.38857  0.74685  1.0000
  H   H1234     1.0  0.95174  0.49374  0.93661  1.0000
  C   C1535     1.0  0.58037  0.48746  0.66303  1.0000
  C   C1536     1.0  0.55661  0.39177  0.72363  1.0000
  C   C1537     1.0  0.52472  0.49890  0.53111  1.0000
  C   C1538     1.0  0.51404  0.58110  0.78830  1.0000
  C   C1539     1.0  0.68117  0.63825  0.62252  1.0000
  C   C1540     1.0  0.67527  0.35603  0.96375  1.0000
  H   H1235     1.0  0.58534  0.37186  0.79849  1.0000
  C   C1541     1.0  0.62080  0.64478  0.73318  1.0000
  C   C1542     1.0  0.96236  0.38009  0.51690  1.0000
  H   H1236     1.0  0.57331  0.47249  0.71161  1.0000
  C   C1543     1.0  0.63573  0.35232  0.93503  1.0000
  S   S208      1.0  0.51816  0.38169  0.83544  1.0000
  C   C1544     1.0  0.59725  0.35597  0.80335  1.0000
  C   C1545     1.0  0.92830  0.64473  0.52433  1.0000
  C   C1546     1.0  0.55086  0.47619  0.62043  1.0000
  H   H1237     1.0  0.60873  0.35172  0.75219  1.0000
  C   C1547     1.0  0.56053  0.48241  0.48473  1.0000
  H   H1238     1.0  0.72945  0.65199  0.72660  1.0000
  C   C1548     1.0  0.96931  0.50070  0.92702  1.0000
  H   H1239     1.0  0.54501  0.47748  0.59478  1.0000
  H   H1240     1.0  0.96839  0.39882  0.52190  1.0000
  C   C1549     1.0  0.54534  0.46106  0.67663  1.0000
  H   H1241     1.0  0.99744  0.50063  0.53935  1.0000
  C   C1550     1.0  0.94080  0.66537  0.58515  1.0000
  C   C1551     1.0  0.51532  0.60550  0.77621  1.0000
  H   H1242     1.0  0.74829  0.65887  0.78185  1.0000
  H   H1243     1.0  0.99375  0.54968  0.78866  1.0000
  H   H1244     1.0  0.89396  0.33465  0.50715  1.0000
  C   C1552     1.0  0.51505  0.43269  0.59139  1.0000
  S   S209      1.0  0.00113  0.43851  0.95796  1.0000
  H   H1245     1.0  0.99565  0.47067  0.78321  1.0000
  C   C1553     1.0  0.52251  0.48362  0.97788  1.0000
  H   H1246     1.0  0.51061  0.50532  0.54838  1.0000
  C   C1554     1.0  0.95354  0.33936  0.65819  1.0000
  C   C1555     1.0  0.68599  0.66345  0.61830  1.0000
  H   H1247     1.0  0.54304  0.66564  0.63583  1.0000
  H   H1248     1.0  0.91899  0.35030  0.82040  1.0000
  H   H1249     1.0  0.50847  0.39237  0.63134  1.0000
  H   H1250     1.0  0.50902  0.48978  0.85490  1.0000
  C   C1556     1.0  0.94135  0.34245  0.53439  1.0000
  C   C1557     1.0  0.93052  0.33736  0.60636  1.0000
  H   H1251     1.0  0.72729  0.66261  0.55870  1.0000
  H   H1252     1.0  0.00478  0.55239  0.92744  1.0000
  H   H1253     1.0  0.83247  0.66550  0.77090  1.0000
  C   C1558     1.0  0.90746  0.33847  0.80515  1.0000
  H   H1254     1.0  0.66351  0.66543  0.89388  1.0000
  C   C1559     1.0  0.90759  0.34122  0.77069  1.0000
  C   C1560     1.0  0.95183  0.33336  0.89113  1.0000
  C   C1561     1.0  0.53365  0.55720  0.48068  1.0000
  Fe  Fe105     1.0  0.86977  0.71600  0.03121  1.0000
  C   C1562     1.0  0.56289  0.97469  0.26778  1.0000
  S   S210      1.0  0.88775  0.68793  0.06689  1.0000
  Fe  Fe106     1.0  0.82834  0.75547  0.03759  1.0000
  H   H1255     1.0  0.99658  0.76398  0.46601  1.0000
  S   S211      1.0  0.79779  0.77285  0.06936  1.0000
  H   H1256     1.0  0.83337  0.80116  0.31932  1.0000
  S   S212      1.0  0.82327  0.76998  0.42853  1.0000
  Fe  Fe107     1.0  0.87816  0.76843  0.00463  1.0000
  S   S213      1.0  0.90744  0.79857  0.99759  1.0000
  S   S214      1.0  0.82863  0.71680  0.01772  1.0000
  S   S215      1.0  0.86817  0.75369  0.05470  1.0000
  C   C1563     1.0  0.75093  0.84541  0.01511  1.0000
  S   S216      1.0  0.96205  0.85411  0.11617  1.0000
  S   S217      1.0  0.98890  0.92414  0.11031  1.0000
  Fe  Fe108     1.0  0.54288  0.91994  0.09994  1.0000
  S   S218      1.0  0.57788  0.91431  0.13071  1.0000
  S   S219      1.0  0.53556  0.93822  0.04891  1.0000
  S   S220      1.0  0.54336  0.87947  0.18165  1.0000
  Fe  Fe109     1.0  0.55220  0.91981  0.17480  1.0000
  H   H1257     1.0  0.82077  0.72731  0.35784  1.0000
  Fe  Fe110     1.0  0.56701  0.87428  0.13611  1.0000
  S   S221      1.0  0.59227  0.84012  0.13071  1.0000
  S   S222      1.0  0.53429  0.87918  0.10164  1.0000
  Fe  Fe111     1.0  0.68374  0.76163  0.24559  1.0000
  S   S223      1.0  0.67357  0.73795  0.28959  1.0000
  S   S224      1.0  0.66615  0.80016  0.24287  1.0000
  Fe  Fe112     1.0  0.71967  0.72301  0.21860  1.0000
  S   S225      1.0  0.71127  0.69659  0.26019  1.0000
  S   S226      1.0  0.74806  0.70742  0.18216  1.0000
  Fe  Fe113     1.0  0.67109  0.70717  0.25227  1.0000
  S   S227      1.0  0.88194  0.73069  0.98130  1.0000
  Fe  Fe114     1.0  0.71492  0.72939  0.29397  1.0000
  S   S228      1.0  0.73476  0.72152  0.34374  1.0000
  S   S229      1.0  0.67895  0.73137  0.20802  1.0000
  S   S230      1.0  0.72548  0.75540  0.25250  1.0000
  C   C1564     1.0  0.80398  0.79349  0.28449  1.0000
  H   H1258     1.0  0.93812  0.74496  0.08535  1.0000
  H   H1259     1.0  0.55975  0.81682  0.18540  1.0000
  C   C1565     1.0  0.54246  0.96574  0.02585  1.0000
  C   C1566     1.0  0.93578  0.88896  0.47641  1.0000
  C   C1567     1.0  0.87101  0.69654  0.38950  1.0000
  C   C1568     1.0  0.55311  0.96496  0.23834  1.0000
  C   C1569     1.0  0.58292  0.74783  0.29526  1.0000
  C   C1570     1.0  0.53257  0.97657  0.22345  1.0000
  C   C1571     1.0  0.83282  0.76263  0.30611  1.0000
  H   H1260     1.0  0.52196  0.89303  0.25606  1.0000
  C   C1572     1.0  0.61067  0.82834  0.16385  1.0000
  C   C1573     1.0  0.61690  0.84303  0.19099  1.0000
  C   C1574     1.0  0.63330  0.83381  0.21548  1.0000
  C   C1575     1.0  0.64364  0.80986  0.21313  1.0000
  C   C1576     1.0  0.63665  0.79482  0.18663  1.0000
  C   C1577     1.0  0.62015  0.80401  0.16222  1.0000
  H   H1261     1.0  0.60968  0.86175  0.19259  1.0000
  H   H1262     1.0  0.63856  0.84555  0.23590  1.0000
  H   H1263     1.0  0.64430  0.77631  0.18464  1.0000
  H   H1264     1.0  0.61491  0.79226  0.14181  1.0000
  C   C1578     1.0  0.79810  0.75643  0.40606  1.0000
  C   C1579     1.0  0.78935  0.76834  0.37711  1.0000
  C   C1580     1.0  0.77027  0.75790  0.35753  1.0000
  C   C1581     1.0  0.75942  0.73545  0.36683  1.0000
  C   C1582     1.0  0.76805  0.72363  0.39593  1.0000
  C   C1583     1.0  0.78719  0.73400  0.41544  1.0000
  H   H1265     1.0  0.79754  0.78570  0.36962  1.0000
  H   H1266     1.0  0.76390  0.76728  0.33533  1.0000
  H   H1267     1.0  0.75982  0.70628  0.40347  1.0000
  H   H1268     1.0  0.79361  0.72455  0.43757  1.0000
  C   C1584     1.0  0.78461  0.75461  0.10122  1.0000
  C   C1585     1.0  0.78953  0.72923  0.10318  1.0000
  C   C1586     1.0  0.77809  0.71493  0.12808  1.0000
  C   C1587     1.0  0.76198  0.72598  0.15141  1.0000
  C   C1588     1.0  0.75730  0.75139  0.14978  1.0000
  C   C1589     1.0  0.76841  0.76561  0.12455  1.0000
  H   H1269     1.0  0.80202  0.72057  0.08543  1.0000
  H   H1270     1.0  0.78182  0.69526  0.12935  1.0000
  H   H1271     1.0  0.74501  0.75996  0.16784  1.0000
  H   H1272     1.0  0.76453  0.78519  0.12332  1.0000
  C   C1590     1.0  0.92324  0.81320  0.03078  1.0000
  C   C1591     1.0  0.93791  0.83414  0.02412  1.0000
  C   C1592     1.0  0.95052  0.84646  0.04980  1.0000
  C   C1593     1.0  0.94819  0.83820  0.08259  1.0000
  C   C1594     1.0  0.93375  0.81710  0.08921  1.0000
  C   C1595     1.0  0.92149  0.80455  0.06347  1.0000
  H   H1273     1.0  0.93925  0.84111  0.99901  1.0000
  H   H1274     1.0  0.96150  0.86270  0.04438  1.0000
  H   H1275     1.0  0.93186  0.81058  0.11445  1.0000
  H   H1276     1.0  0.91029  0.78852  0.06905  1.0000
  C   C1596     1.0  0.72039  0.75031  0.47752  1.0000
  H   H1277     1.0  0.55976  0.96847  0.42633  1.0000
  H   H1278     1.0  0.59236  0.90013  0.30549  1.0000
  H   H1279     1.0  0.97582  0.78115  0.08258  1.0000
  H   H1280     1.0  0.54925  0.88692  0.40248  1.0000
  H   H1281     1.0  0.59480  0.76318  0.30194  1.0000
  H   H1282     1.0  0.60087  0.79060  0.01159  1.0000
  C   C1597     1.0  0.61877  0.79223  0.02393  1.0000
  C   C1598     1.0  0.00263  0.79029  0.04446  1.0000
  C   C1599     1.0  0.55825  0.89485  0.27833  1.0000
  C   C1600     1.0  0.92321  0.86638  0.47670  1.0000
  H   H1283     1.0  0.84757  0.66833  0.25218  1.0000
  H   H1284     1.0  0.92996  0.85110  0.46167  1.0000
  H   H1285     1.0  0.95638  0.73446  0.98271  1.0000
  C   C1601     1.0  0.78117  0.66740  0.01262  1.0000
  P   P53       1.0  0.53320  0.68199  0.26581  1.0000
  H   H1286     1.0  0.51651  0.82346  0.35691  1.0000
  H   H1287     1.0  0.99408  0.71045  0.99826  1.0000
  Fe  Fe115     1.0  0.51128  0.88676  0.14722  1.0000
  C   C1602     1.0  0.53383  0.91398  0.33418  1.0000
  H   H1288     1.0  0.56962  0.76173  0.22452  1.0000
  C   C1603     1.0  0.92958  0.96063  0.47298  1.0000
  C   C1604     1.0  0.94304  0.98148  0.46244  1.0000
  C   C1605     1.0  0.98238  0.93595  0.44991  1.0000
  C   C1606     1.0  0.93168  0.99959  0.44265  1.0000
  C   C1607     1.0  0.89325  0.97623  0.44305  1.0000
  C   C1608     1.0  0.90453  0.95817  0.46317  1.0000
  C   C1609     1.0  0.82435  0.78715  0.30454  1.0000
  H   H1289     1.0  0.50793  0.77582  0.24655  1.0000
  H   H1290     1.0  0.61871  0.71636  0.16608  1.0000
  H   H1291     1.0  0.86523  0.74600  0.25352  1.0000
  C   C1610     1.0  0.79670  0.68507  0.25411  1.0000
  C   C1611     1.0  0.66831  0.71737  0.03732  1.0000
  H   H1292     1.0  0.72068  0.79029  0.47386  1.0000
  H   H1293     1.0  0.76416  0.85645  0.00110  1.0000
  H   H1294     1.0  0.70795  0.79135  0.41501  1.0000
  H   H1295     1.0  0.96848  0.94270  0.43256  1.0000
  H   H1296     1.0  0.99815  0.96075  0.26358  1.0000
  P   P54       1.0  0.52860  0.77332  0.17792  1.0000
  C   C1612     1.0  0.64102  0.78740  0.00658  1.0000
  C   C1613     1.0  0.77567  0.67008  0.25100  1.0000
  H   H1297     1.0  0.99394  0.77842  0.02637  1.0000
  C   C1614     1.0  0.52022  0.79132  0.24246  1.0000
  H   H1298     1.0  0.89375  0.94221  0.47056  1.0000
  S   S231      1.0  0.51794  0.92791  0.14403  1.0000
  C   C1615     1.0  0.82050  0.74409  0.28830  1.0000
  H   H1299     1.0  0.52169  0.73408  0.28357  1.0000
  H   H1300     1.0  0.65728  0.73277  0.04668  1.0000
  C   C1616     1.0  0.80396  0.84568  0.22278  1.0000
  C   C1617     1.0  0.78098  0.83947  0.20868  1.0000
  C   C1618     1.0  0.78016  0.82210  0.18316  1.0000
  C   C1619     1.0  0.80225  0.81068  0.17213  1.0000
  C   C1620     1.0  0.82520  0.81594  0.18718  1.0000
  C   C1621     1.0  0.82607  0.83414  0.21186  1.0000
  P   P55       1.0  0.85337  0.80098  0.17222  1.0000
  C   C1622     1.0  0.84782  0.76861  0.16480  1.0000
  C   C1623     1.0  0.86180  0.81710  0.13455  1.0000
  C   C1624     1.0  0.85273  0.80902  0.10387  1.0000
  C   C1625     1.0  0.85909  0.82154  0.07465  1.0000
  C   C1626     1.0  0.87423  0.84245  0.07591  1.0000
  C   C1627     1.0  0.88279  0.85102  0.10646  1.0000
  C   C1628     1.0  0.87635  0.83859  0.13574  1.0000
  C   C1629     1.0  0.86334  0.75541  0.14282  1.0000
  C   C1630     1.0  0.85917  0.73031  0.13706  1.0000
  C   C1631     1.0  0.83979  0.71814  0.15358  1.0000
  C   C1632     1.0  0.82477  0.73098  0.17628  1.0000
  C   C1633     1.0  0.82885  0.75607  0.18208  1.0000
  C   C1634     1.0  0.87798  0.80097  0.20269  1.0000
  C   C1635     1.0  0.90316  0.80313  0.19296  1.0000
  C   C1636     1.0  0.92217  0.80239  0.21670  1.0000
  C   C1637     1.0  0.91623  0.79888  0.25019  1.0000
  C   C1638     1.0  0.89127  0.79591  0.25994  1.0000
  C   C1639     1.0  0.87222  0.79679  0.23624  1.0000
  H   H1301     1.0  0.80466  0.85961  0.24198  1.0000
  H   H1302     1.0  0.76385  0.84839  0.21711  1.0000
  H   H1303     1.0  0.76246  0.81762  0.17168  1.0000
  H   H1304     1.0  0.80159  0.79771  0.15179  1.0000
  H   H1305     1.0  0.84375  0.83958  0.22251  1.0000
  H   H1306     1.0  0.84083  0.79297  0.10239  1.0000
  H   H1307     1.0  0.85262  0.81477  0.05093  1.0000
  H   H1308     1.0  0.87980  0.85167  0.05314  1.0000
  H   H1309     1.0  0.89495  0.86696  0.10732  1.0000
  H   H1310     1.0  0.88303  0.84563  0.15916  1.0000
  H   H1311     1.0  0.87846  0.76456  0.12978  1.0000
  H   H1312     1.0  0.87079  0.72029  0.11945  1.0000
  H   H1313     1.0  0.83628  0.69881  0.14853  1.0000
  H   H1314     1.0  0.80952  0.72164  0.18875  1.0000
  H   H1315     1.0  0.81700  0.76559  0.19978  1.0000
  H   H1316     1.0  0.90822  0.80531  0.16708  1.0000
  H   H1317     1.0  0.94153  0.80459  0.20905  1.0000
  H   H1318     1.0  0.93100  0.79835  0.26855  1.0000
  H   H1319     1.0  0.88671  0.79289  0.28586  1.0000
  H   H1320     1.0  0.85302  0.79399  0.24400  1.0000
  C   C1640     1.0  0.54328  0.95688  0.42733  1.0000
  H   H1321     1.0  0.56751  0.98151  0.06140  1.0000
  C   C1641     1.0  0.70984  0.77381  0.42785  1.0000
  H   H1322     1.0  0.51523  0.83293  0.06209  1.0000
  C   C1642     1.0  0.85374  0.70777  0.25584  1.0000
  H   H1323     1.0  0.89725  0.67472  0.36118  1.0000
  C   C1643     1.0  0.53221  0.89788  0.27819  1.0000
  C   C1644     1.0  0.53448  0.67778  0.22138  1.0000
  H   H1324     1.0  0.89511  0.73968  0.20754  1.0000
  C   C1645     1.0  0.99050  0.74647  0.47627  1.0000
  H   H1325     1.0  0.52509  0.96936  0.20062  1.0000
  H   H1326     1.0  0.70038  0.75231  0.38484  1.0000
  H   H1327     1.0  0.64852  0.67647  0.18629  1.0000
  C   C1646     1.0  0.87467  0.68060  0.21636  1.0000
  C   C1647     1.0  0.99253  0.79138  0.07648  1.0000
  C   C1648     1.0  0.71717  0.77309  0.46110  1.0000
  C   C1649     1.0  0.84715  0.70599  0.32862  1.0000
  C   C1650     1.0  0.56273  0.74254  0.14463  1.0000
  H   H1328     1.0  0.56722  0.84503  0.23178  1.0000
  C   C1651     1.0  0.54954  0.81416  0.20842  1.0000
  S   S232      1.0  0.56743  0.93867  0.22051  1.0000
  C   C1652     1.0  0.52123  0.96490  0.41203  1.0000
  H   H1329     1.0  0.54867  0.76867  0.29981  1.0000
  C   C1653     1.0  0.51414  0.66724  0.20477  1.0000
  C   C1654     1.0  0.98803  0.71414  0.05123  1.0000
  H   H1330     1.0  0.96252  0.98357  0.46899  1.0000
  C   C1655     1.0  0.55253  0.99627  0.28188  1.0000
  C   C1656     1.0  0.59575  0.73888  0.19812  1.0000
  C   C1657     1.0  0.57210  0.90168  0.30607  1.0000
  H   H1331     1.0  0.91503  0.66886  0.00853  1.0000
  C   C1658     1.0  0.96094  0.73168  0.00863  1.0000
  H   H1332     1.0  0.52463  0.92151  0.35595  1.0000
  H   H1333     1.0  0.58725  0.68739  0.27374  1.0000
  C   C1659     1.0  0.52375  0.80810  0.26832  1.0000
  C   C1660     1.0  0.57354  0.75261  0.20125  1.0000
  C   C1661     1.0  0.88475  0.72413  0.21741  1.0000
  H   H1334     1.0  0.74662  0.68394  0.02828  1.0000
  C   C1662     1.0  0.70850  0.72912  0.42705  1.0000
  C   C1663     1.0  0.55694  0.75092  0.29381  1.0000
  C   C1664     1.0  0.76257  0.77057  0.98451  1.0000
  C   C1665     1.0  0.73046  0.73181  0.06932  1.0000
  C   C1666     1.0  0.71881  0.71805  0.09430  1.0000
  C   C1667     1.0  0.69977  0.72877  0.11340  1.0000
  C   C1668     1.0  0.69251  0.75334  0.10773  1.0000
  C   C1669     1.0  0.70467  0.76750  0.08329  1.0000
  C   C1670     1.0  0.72317  0.75631  0.06345  1.0000
  P   P56       1.0  0.69492  0.79915  0.07629  1.0000
  C   C1671     1.0  0.69285  0.81573  0.11501  1.0000
  C   C1672     1.0  0.71678  0.81655  0.05129  1.0000
  C   C1673     1.0  0.70815  0.83397  0.02794  1.0000
  C   C1674     1.0  0.85767  0.68409  0.24247  1.0000
  H   H1335     1.0  0.80610  0.69126  0.23182  1.0000
  C   C1675     1.0  0.75962  0.82836  0.03861  1.0000
  C   C1676     1.0  0.74261  0.81424  0.05687  1.0000
  C   C1677     1.0  0.67939  0.83813  0.11671  1.0000
  C   C1678     1.0  0.67719  0.85072  0.14681  1.0000
  C   C1679     1.0  0.68892  0.84138  0.17519  1.0000
  C   C1680     1.0  0.70296  0.81950  0.17348  1.0000
  C   C1681     1.0  0.70514  0.80682  0.14346  1.0000
  C   C1682     1.0  0.66508  0.79709  0.05581  1.0000
  C   C1683     1.0  0.64265  0.80140  0.07320  1.0000
  C   C1684     1.0  0.61962  0.79920  0.05724  1.0000
  H   H1336     1.0  0.87405  0.97401  0.43508  1.0000
  C   C1685     1.0  0.53629  0.87164  0.40374  1.0000
  C   C1686     1.0  0.66412  0.78976  0.02248  1.0000
  H   H1337     1.0  0.74569  0.72375  0.05512  1.0000
  C   C1687     1.0  0.69693  0.67766  0.01344  1.0000
  H   H1338     1.0  0.69108  0.71815  0.13313  1.0000
  H   H1339     1.0  0.67778  0.76143  0.12290  1.0000
  H   H1340     1.0  0.73235  0.76646  0.04382  1.0000
  C   C1688     1.0  0.68629  0.72129  0.01256  1.0000
  H   H1341     1.0  0.60909  0.99102  0.21328  1.0000
  H   H1342     1.0  0.57884  0.96576  0.27936  1.0000
  H   H1343     1.0  0.77957  0.82600  0.04284  1.0000
  H   H1344     1.0  0.74968  0.80145  0.07526  1.0000
  H   H1345     1.0  0.67005  0.84557  0.09501  1.0000
  H   H1346     1.0  0.66584  0.86740  0.14835  1.0000
  H   H1347     1.0  0.68652  0.85067  0.19878  1.0000
  H   H1348     1.0  0.71145  0.81197  0.19576  1.0000
  H   H1349     1.0  0.71613  0.78996  0.14274  1.0000
  H   H1350     1.0  0.64279  0.80653  0.09908  1.0000
  H   H1351     1.0  0.60247  0.80308  0.07085  1.0000
  C   C1689     1.0  0.53448  0.85566  0.37669  1.0000
  H   H1352     1.0  0.57604  0.67865  0.15693  1.0000
  H   H1353     1.0  0.68124  0.78596  0.00882  1.0000
  C   C1690     1.0  0.83754  0.71596  0.35819  1.0000
  C   C1691     1.0  0.79213  0.77532  0.26588  1.0000
  H   H1354     1.0  0.79720  0.81241  0.28361  1.0000
  H   H1355     1.0  0.77635  0.78022  0.25030  1.0000
  H   H1356     1.0  0.79057  0.73690  0.25347  1.0000
  C   C1692     1.0  0.59367  0.72487  0.28803  1.0000
  C   C1693     1.0  0.57852  0.70507  0.27913  1.0000
  C   C1694     1.0  0.54384  0.93455  0.44494  1.0000
  H   H1357     1.0  0.70577  0.71214  0.41335  1.0000
  H   H1358     1.0  0.61384  0.72234  0.28921  1.0000
  H   H1359     1.0  0.71844  0.86165  0.99183  1.0000
  C   C1695     1.0  0.00364  0.80614  0.10053  1.0000
  C   C1696     1.0  0.60154  0.72711  0.16827  1.0000
  Fe  Fe116     1.0  0.99315  0.88267  0.11057  1.0000
  C   C1697     1.0  0.55243  0.70802  0.27714  1.0000
  C   C1698     1.0  0.54171  0.73117  0.28460  1.0000
  C   C1699     1.0  0.52229  0.91990  0.44707  1.0000
  H   H1360     1.0  0.76943  0.76942  0.47552  1.0000
  H   H1361     1.0  0.51883  0.95537  0.98508  1.0000
  H   H1362     1.0  0.55798  0.67248  0.32948  1.0000
  H   H1363     1.0  0.99543  0.80749  0.12511  1.0000
  C   C1700     1.0  0.80028  0.75070  0.26781  1.0000
  C   C1701     1.0  0.55849  0.67632  0.17005  1.0000
  H   H1364     1.0  0.92835  0.75158  0.02604  1.0000
  C   C1702     1.0  0.84948  0.71135  0.38842  1.0000
  H   H1365     1.0  0.79628  0.69138  0.33827  1.0000
  H   H1366     1.0  0.55010  0.74370  0.12371  1.0000
  Fe  Fe117     1.0  0.84679  0.75896  0.47429  1.0000
  C   C1703     1.0  0.71594  0.72829  0.46026  1.0000
  H   H1367     1.0  0.51438  0.95924  0.31155  1.0000
  H   H1368     1.0  0.54591  0.85870  0.35477  1.0000
  H   H1369     1.0  0.84875  0.75817  0.32163  1.0000
  C   C1704     1.0  0.98230  0.71807  0.01762  1.0000
  H   H1370     1.0  0.57302  0.68963  0.21577  1.0000
  C   C1705     1.0  0.79128  0.68513  0.31379  1.0000
  S   S233      1.0  0.88736  0.74750  0.46931  1.0000
  H   H1371     1.0  0.56112  0.92893  0.45683  1.0000
  C   C1706     1.0  0.75855  0.67999  0.00721  1.0000
  C   C1707     1.0  0.97221  0.72440  0.07563  1.0000
  H   H1372     1.0  0.97009  0.67445  0.09250  1.0000
  H   H1373     1.0  0.56783  0.88833  0.25621  1.0000
  C   C1708     1.0  0.66474  0.69365  0.05030  1.0000
  H   H1374     1.0  0.56754  0.85629  0.45760  1.0000
  C   C1709     1.0  0.80496  0.69242  0.28560  1.0000
  C   C1710     1.0  0.53132  0.96929  0.99449  1.0000
  H   H1375     1.0  0.88017  0.69298  0.41306  1.0000
  P   P57       1.0  0.83175  0.71245  0.28953  1.0000
  S   S234      1.0  0.63887  0.68000  0.25771  1.0000
  H   H1376     1.0  0.76699  0.73251  0.99786  1.0000
  H   H1377     1.0  0.97816  0.99612  0.99508  1.0000
  C   C1711     1.0  0.52142  0.86799  0.43216  1.0000
  H   H1378     1.0  0.54357  0.84041  0.28458  1.0000
  H   H1379     1.0  0.60860  0.73739  0.21882  1.0000
  C   C1712     1.0  0.72520  0.84823  0.00979  1.0000
  C   C1713     1.0  0.54057  0.82756  0.26450  1.0000
  C   C1714     1.0  0.94508  0.74134  0.03306  1.0000
  H   H1380     1.0  0.59105  0.97165  0.16344  1.0000
  C   C1715     1.0  0.88817  0.70061  0.20378  1.0000
  C   C1716     1.0  0.55375  0.83031  0.23473  1.0000
  C   C1717     1.0  0.51795  0.83581  0.37789  1.0000
  H   H1381     1.0  0.77948  0.77602  0.99726  1.0000
  H   H1382     1.0  0.97635  0.72197  0.10171  1.0000
  H   H1383     1.0  0.52074  0.98267  0.39941  1.0000
  C   C1718     1.0  0.52443  0.79214  0.14103  1.0000
  H   H1384     1.0  0.51762  0.72127  0.16058  1.0000
  C   C1719     1.0  0.55859  0.98395  0.03757  1.0000
  C   C1720     1.0  0.70549  0.75183  0.41086  1.0000
  C   C1721     1.0  0.86763  0.72769  0.24335  1.0000
  H   H1385     1.0  0.72497  0.69927  0.09949  1.0000
  C   C1722     1.0  0.70110  0.70155  0.00084  1.0000
  C   C1723     1.0  0.53258  0.79464  0.21192  1.0000
  C   C1724     1.0  0.95065  0.73763  0.06652  1.0000
  H   H1386     1.0  0.58947  0.71963  0.11847  1.0000
  C   C1725     1.0  0.96494  0.74130  0.47809  1.0000
  C   C1726     1.0  0.58506  0.72898  0.14151  1.0000
  H   H1387     1.0  0.57068  0.91678  0.35538  1.0000
  C   C1727     1.0  0.55694  0.75479  0.17439  1.0000
  C   C1728     1.0  0.54492  0.79789  0.12052  1.0000
  C   C1729     1.0  0.54150  0.81222  0.09190  1.0000
  H   H1388     1.0  0.68829  0.83689  0.02407  1.0000
  H   H1389     1.0  0.56371  0.79201  0.12696  1.0000
  H   H1390     1.0  0.55748  0.81722  0.07675  1.0000
  H   H1391     1.0  0.84204  0.71933  0.41110  1.0000
  C   C1730     1.0  0.55665  0.68242  0.20363  1.0000
  C   C1731     1.0  0.55989  0.91114  0.33406  1.0000
  H   H1392     1.0  0.98135  0.81553  0.99398  1.0000
  C   C1732     1.0  0.86876  0.69099  0.32991  1.0000
  H   H1393     1.0  0.65092  0.69061  0.06965  1.0000
  H   H1394     1.0  0.71855  0.71047  0.47209  1.0000
  P   P58       1.0  0.52348  0.88961  0.46608  1.0000
  H   H1395     1.0  0.95209  0.89092  0.46063  1.0000
  H   H1396     1.0  0.87653  0.68282  0.30766  1.0000
  H   H1397     1.0  0.90110  0.69793  0.18326  1.0000
  H   H1398     1.0  0.68875  0.73978  0.00297  1.0000
  C   C1733     1.0  0.88061  0.68631  0.36025  1.0000
  C   C1734     1.0  0.67897  0.67379  0.03825  1.0000
  S   S235      1.0  0.83793  0.77341  0.98872  1.0000
  C   C1735     1.0  0.51772  0.82125  0.08376  1.0000
  C   C1736     1.0  0.75533  0.74580  0.98482  1.0000
  C   C1737     1.0  0.98568  0.67104  0.10906  1.0000
  C   C1738     1.0  0.52180  0.99769  0.23802  1.0000
  C   C1739     1.0  0.51988  0.90787  0.30595  1.0000
  H   H1399     1.0  0.95128  0.75478  0.46940  1.0000
  C   C1740     1.0  0.90679  0.99696  0.43288  1.0000
  H   H1400     1.0  0.51358  0.80583  0.29141  1.0000
  C   C1741     1.0  0.77023  0.67017  0.31057  1.0000
  H   H1401     1.0  0.55751  0.99260  0.13245  1.0000
  C   C1742     1.0  0.58459  0.98982  0.17113  1.0000
  C   C1743     1.0  0.57013  0.86749  0.47945  1.0000
  C   C1744     1.0  0.51022  0.99988  0.10750  1.0000
  H   H1402     1.0  0.64034  0.78190  0.98078  1.0000
  Fe  Fe118     1.0  0.88020  0.72144  0.51195  1.0000
  C   C1745     1.0  0.59475  0.87690  0.52814  1.0000
  H   H1403     1.0  0.68238  0.67407  0.94818  1.0000
  Fe  Fe119     1.0  0.85096  0.76057  0.55009  1.0000
  S   S236      1.0  0.85653  0.78933  0.51025  1.0000
  S   S237      1.0  0.83297  0.77371  0.59814  1.0000
  H   H1404     1.0  0.68020  0.68525  0.84281  1.0000
  S   S238      1.0  0.82358  0.72130  0.91962  1.0000
  Fe  Fe120     1.0  0.89629  0.77564  0.50852  1.0000
  S   S239      1.0  0.93087  0.79979  0.50115  1.0000
  S   S240      1.0  0.83879  0.73096  0.51454  1.0000
  S   S241      1.0  0.89160  0.74878  0.55067  1.0000
  C   C1746     1.0  0.68738  0.66848  0.67778  1.0000
  S   S242      1.0  0.97268  0.87590  0.60787  1.0000
  H   H1405     1.0  0.53380  0.82884  0.75905  1.0000
  H   H1406     1.0  0.96789  0.68415  0.51321  1.0000
  S   S243      1.0  0.54430  0.93586  0.63811  1.0000
  H   H1407     1.0  0.96236  0.73724  0.64334  1.0000
  C   C1747     1.0  0.51980  0.97102  0.52410  1.0000
  C   C1748     1.0  0.99321  0.75593  0.61972  1.0000
  H   H1408     1.0  0.98586  0.95773  0.80425  1.0000
  Fe  Fe121     1.0  0.55347  0.89486  0.63887  1.0000
  S   S244      1.0  0.59341  0.87968  0.63651  1.0000
  S   S245      1.0  0.52755  0.88652  0.59668  1.0000
  Fe  Fe122     1.0  0.66850  0.77049  0.73686  1.0000
  S   S246      1.0  0.67022  0.74773  0.78388  1.0000
  S   S247      1.0  0.63409  0.79617  0.73586  1.0000
  Fe  Fe123     1.0  0.71283  0.74126  0.70702  1.0000
  S   S248      1.0  0.71675  0.71671  0.75195  1.0000
  S   S249      1.0  0.73361  0.72900  0.66046  1.0000
  Fe  Fe124     1.0  0.67464  0.71492  0.75035  1.0000
  C   C1749     1.0  0.76870  0.68355  0.94876  1.0000
  Fe  Fe125     1.0  0.71225  0.75164  0.78149  1.0000
  S   S250      1.0  0.73390  0.76341  0.82834  1.0000
  S   S251      1.0  0.67094  0.73726  0.70385  1.0000
  S   S252      1.0  0.71036  0.77680  0.73626  1.0000
  C   C1750     1.0  0.94743  0.97314  0.54805  1.0000
  C   C1751     1.0  0.72655  0.78113  0.95095  1.0000
  H   H1409     1.0  0.54848  0.69288  0.72822  1.0000
  C   C1752     1.0  0.51809  0.71382  0.67970  1.0000
  C   C1753     1.0  0.83685  0.68066  0.78730  1.0000
  P   P59       1.0  0.81656  0.71164  0.73840  1.0000
  C   C1754     1.0  0.89409  0.88228  0.51765  1.0000
  H   H1410     1.0  0.85946  0.69084  0.86495  1.0000
  H   H1411     1.0  0.61251  0.67905  0.64941  1.0000
  H   H1412     1.0  0.86413  0.68293  0.73133  1.0000
  C   C1755     1.0  0.68909  0.67855  0.64594  1.0000
  C   C1756     1.0  0.60410  0.85562  0.66336  1.0000
  C   C1757     1.0  0.58925  0.84663  0.68935  1.0000
  C   C1758     1.0  0.59863  0.82811  0.71079  1.0000
  C   C1759     1.0  0.62288  0.81821  0.70650  1.0000
  C   C1760     1.0  0.63760  0.82685  0.68016  1.0000
  C   C1761     1.0  0.62827  0.84552  0.65881  1.0000
  H   H1413     1.0  0.57062  0.85407  0.69320  1.0000
  H   H1414     1.0  0.58707  0.82151  0.73101  1.0000
  H   H1415     1.0  0.65634  0.81950  0.67665  1.0000
  H   H1416     1.0  0.63994  0.85233  0.63883  1.0000
  C   C1762     1.0  0.79848  0.73329  0.89466  1.0000
  C   C1763     1.0  0.79036  0.71970  0.86696  1.0000
  C   C1764     1.0  0.77104  0.72870  0.84607  1.0000
  C   C1765     1.0  0.75928  0.75142  0.85273  1.0000
  C   C1766     1.0  0.76727  0.76489  0.88056  1.0000
  C   C1767     1.0  0.78667  0.75595  0.90132  1.0000
  H   H1417     1.0  0.79911  0.70206  0.86158  1.0000
  H   H1418     1.0  0.76506  0.71794  0.82507  1.0000
  H   H1419     1.0  0.75836  0.78243  0.88613  1.0000
  H   H1420     1.0  0.79264  0.76672  0.92234  1.0000
  C   C1768     1.0  0.80510  0.76132  0.61476  1.0000
  C   C1769     1.0  0.79396  0.74044  0.60114  1.0000
  C   C1770     1.0  0.77215  0.73070  0.61565  1.0000
  C   C1771     1.0  0.76123  0.74183  0.64372  1.0000
  C   C1772     1.0  0.77231  0.76275  0.65730  1.0000
  C   C1773     1.0  0.79418  0.77245  0.64281  1.0000
  H   H1421     1.0  0.80228  0.73171  0.57963  1.0000
  H   H1422     1.0  0.76371  0.71445  0.60506  1.0000
  H   H1423     1.0  0.76406  0.77143  0.67892  1.0000
  H   H1424     1.0  0.80272  0.78864  0.65341  1.0000
  C   C1774     1.0  0.94287  0.82013  0.53164  1.0000
  C   C1775     1.0  0.96422  0.83426  0.52424  1.0000
  C   C1776     1.0  0.97360  0.85140  0.54726  1.0000
  C   C1777     1.0  0.96198  0.85429  0.57816  1.0000
  C   C1778     1.0  0.94076  0.84005  0.58562  1.0000
  C   C1779     1.0  0.93125  0.82305  0.56254  1.0000
  H   H1425     1.0  0.97330  0.83225  0.50036  1.0000
  H   H1426     1.0  0.98956  0.86264  0.54096  1.0000
  H   H1427     1.0  0.93153  0.84222  0.60938  1.0000
  H   H1428     1.0  0.91480  0.81236  0.56858  1.0000
  C   C1780     1.0  0.52092  0.96972  0.74037  1.0000
  C   C1781     1.0  0.73353  0.73849  0.96824  1.0000
  C   C1782     1.0  0.94947  0.98105  0.58093  1.0000
  H   H1429     1.0  0.83917  0.75729  0.71216  1.0000
  H   H1430     1.0  0.96025  0.79510  0.89561  1.0000
  C   C1783     1.0  0.83243  0.71595  0.67250  1.0000
  H   H1431     1.0  0.55788  0.96315  0.53797  1.0000
  H   H1432     1.0  0.76481  0.69044  0.92408  1.0000
  H   H1433     1.0  0.56270  0.77081  0.74112  1.0000
  H   H1434     1.0  0.55582  0.70359  0.66468  1.0000
  C   C1784     1.0  0.51882  0.77621  0.65432  1.0000
  C   C1785     1.0  0.76950  0.71477  0.52406  1.0000
  C   C1786     1.0  0.74399  0.71960  0.52993  1.0000
  C   C1787     1.0  0.76461  0.67278  0.54401  1.0000
  P   P60       1.0  0.73070  0.74959  0.52016  1.0000
  C   C1788     1.0  0.75481  0.77244  0.52578  1.0000
  H   H1435     1.0  0.50677  0.79064  0.71621  1.0000
  C   C1789     1.0  0.98267  0.91775  0.93812  1.0000
  C   C1790     1.0  0.67931  0.67780  0.89549  1.0000
  H   H1436     1.0  0.69261  0.69812  0.64275  1.0000
  P   P61       1.0  0.72405  0.70645  0.96833  1.0000
  C   C1791     1.0  0.96824  0.80565  0.94583  1.0000
  H   H1437     1.0  0.78160  0.72895  0.51412  1.0000
  C   C1792     1.0  0.94836  0.93859  0.59979  1.0000
  C   C1793     1.0  0.79352  0.80654  0.53478  1.0000
  C   C1794     1.0  0.77761  0.80062  0.56116  1.0000
  C   C1795     1.0  0.75836  0.78361  0.55678  1.0000
  C   C1796     1.0  0.70483  0.75641  0.54796  1.0000
  C   C1797     1.0  0.70614  0.74935  0.58147  1.0000
  C   C1798     1.0  0.68658  0.75508  0.60336  1.0000
  C   C1799     1.0  0.66544  0.76785  0.59199  1.0000
  C   C1800     1.0  0.66384  0.77484  0.55864  1.0000
  C   C1801     1.0  0.68344  0.76918  0.53668  1.0000
  H   H1438     1.0  0.99334  0.81315  0.61865  1.0000
  H   H1439     1.0  0.94674  0.91087  0.56215  1.0000
  H   H1440     1.0  0.80448  0.66846  0.93401  1.0000
  C   C1802     1.0  0.90646  0.90498  0.51725  1.0000
  C   C1803     1.0  0.99067  0.93432  0.91360  1.0000
  C   C1804     1.0  0.00232  0.76684  0.59041  1.0000
  C   C1805     1.0  0.52948  0.89998  0.76992  1.0000
  C   C1806     1.0  0.68872  0.68889  0.86669  1.0000
  C   C1807     1.0  0.98377  0.97258  0.82194  1.0000
  C   C1808     1.0  0.99492  0.99291  0.87315  1.0000
  H   H1441     1.0  0.80888  0.81914  0.53858  1.0000
  H   H1442     1.0  0.74688  0.77882  0.57796  1.0000
  H   H1443     1.0  0.72247  0.73968  0.59086  1.0000
  H   H1444     1.0  0.68798  0.74982  0.62928  1.0000
  H   H1445     1.0  0.65039  0.77241  0.60913  1.0000
  H   H1446     1.0  0.64744  0.78478  0.54988  1.0000
  H   H1447     1.0  0.68181  0.77489  0.51105  1.0000
  C   C1809     1.0  0.57719  0.89493  0.53729  1.0000
  C   C1810     1.0  0.94692  0.93058  0.56695  1.0000
  H   H1448     1.0  0.93712  0.71484  0.49290  1.0000
  C   C1811     1.0  0.75199  0.68798  0.97511  1.0000
  H   H1449     1.0  0.61079  0.87326  0.54390  1.0000
  C   C1812     1.0  0.55549  0.96366  0.84817  1.0000
  C   C1813     1.0  0.54922  0.95204  0.87805  1.0000
  C   C1814     1.0  0.55124  0.92633  0.88090  1.0000
  C   C1815     1.0  0.56004  0.91229  0.85410  1.0000
  C   C1816     1.0  0.56750  0.92393  0.82448  1.0000
  C   C1817     1.0  0.56423  0.94965  0.82135  1.0000
  P   P62       1.0  0.57871  0.90539  0.79004  1.0000
  C   C1818     1.0  0.59047  0.92424  0.75643  1.0000
  C   C1819     1.0  0.60513  0.88578  0.80068  1.0000
  C   C1820     1.0  0.61656  0.87138  0.77583  1.0000
  C   C1821     1.0  0.63701  0.85607  0.78330  1.0000
  C   C1822     1.0  0.64650  0.85526  0.81549  1.0000
  C   C1823     1.0  0.63578  0.87009  0.84016  1.0000
  C   C1824     1.0  0.61529  0.88547  0.83278  1.0000
  C   C1825     1.0  0.58485  0.91856  0.72335  1.0000
  C   C1826     1.0  0.59569  0.93207  0.69743  1.0000
  C   C1827     1.0  0.61187  0.95152  0.70427  1.0000
  C   C1828     1.0  0.61784  0.95705  0.73709  1.0000
  C   C1829     1.0  0.60756  0.94318  0.76305  1.0000
  C   C1830     1.0  0.55218  0.88767  0.77638  1.0000
  H   H1450     1.0  0.83314  0.74355  0.79348  1.0000
  H   H1451     1.0  0.95095  0.75858  0.54191  1.0000
  H   H1452     1.0  0.78535  0.68512  0.78744  1.0000
  H   H1453     1.0  0.89988  0.91963  0.53338  1.0000
  C   C1831     1.0  0.55354  0.86185  0.77277  1.0000
  C   C1832     1.0  0.84737  0.71920  0.83092  1.0000
  H   H1454     1.0  0.98595  0.88087  0.95805  1.0000
  H   H1455     1.0  0.56113  0.89235  0.85651  1.0000
  C   C1833     1.0  0.71047  0.69900  0.92855  1.0000
  H   H1456     1.0  0.60956  0.87182  0.75064  1.0000
  H   H1457     1.0  0.64544  0.84470  0.76409  1.0000
  H   H1458     1.0  0.66225  0.84318  0.82117  1.0000
  H   H1459     1.0  0.64340  0.86971  0.86501  1.0000
  H   H1460     1.0  0.60777  0.89715  0.85212  1.0000
  H   H1461     1.0  0.57261  0.90337  0.71740  1.0000
  H   H1462     1.0  0.59181  0.92720  0.67197  1.0000
  H   H1463     1.0  0.62003  0.96203  0.68412  1.0000
  H   H1464     1.0  0.98533  0.69430  0.62774  1.0000
  H   H1465     1.0  0.61292  0.94722  0.78832  1.0000
  H   H1466     1.0  0.60020  0.76035  0.77399  1.0000
  C   C1834     1.0  0.95432  0.74613  0.59242  1.0000
  C   C1835     1.0  0.99794  0.97297  0.85123  1.0000
  H   H1467     1.0  0.78526  0.69759  0.68153  1.0000
  H   H1468     1.0  0.57059  0.85169  0.77801  1.0000
  H   H1469     1.0  0.88211  0.69335  0.62856  1.0000
  H   H1470     1.0  0.96945  0.92379  0.95700  1.0000
  H   H1471     1.0  0.93576  0.73821  0.59320  1.0000
  Fe  Fe126     1.0  0.84043  0.73456  0.96920  1.0000
  C   C1836     1.0  0.71909  0.75642  0.95149  1.0000
  H   H1472     1.0  0.76005  0.78063  0.76929  1.0000
  C   C1837     1.0  0.97446  0.70152  0.50301  1.0000
  C   C1838     1.0  0.79015  0.79550  0.50388  1.0000
  C   C1839     1.0  0.54578  0.97396  0.52203  1.0000
  S   S253      1.0  0.65341  0.67900  0.75887  1.0000
  C   C1840     1.0  0.85222  0.69476  0.84035  1.0000
  H   H1473     1.0  0.82581  0.80089  0.71419  1.0000
  C   C1841     1.0  0.82155  0.76198  0.72405  1.0000
  H   H1474     1.0  0.98331  0.95301  0.91384  1.0000
  H   H1475     1.0  0.98812  0.70286  0.56792  1.0000
  H   H1476     1.0  0.54258  0.96296  0.89888  1.0000
  H   H1477     1.0  0.55250  0.96606  0.70742  1.0000
  H   H1478     1.0  0.89178  0.67499  0.68357  1.0000
  C   C1842     1.0  0.79133  0.67104  0.95431  1.0000
  C   C1843     1.0  0.83719  0.72446  0.79974  1.0000
  C   C1844     1.0  0.77809  0.68163  0.76292  1.0000
  C   C1845     1.0  0.62526  0.96115  0.60926  1.0000
  C   C1846     1.0  0.87518  0.68646  0.68055  1.0000
  H   H1479     1.0  0.94922  0.92508  0.61977  1.0000
  C   C1847     1.0  0.84846  0.71163  0.64558  1.0000
  C   C1848     1.0  0.58863  0.74569  0.76427  1.0000
  C   C1849     1.0  0.80635  0.74355  0.73805  1.0000
  C   C1850     1.0  0.62949  0.67985  0.69782  1.0000
  H   H1480     1.0  0.71576  0.79472  0.93713  1.0000
  H   H1481     1.0  0.94889  0.81028  0.95160  1.0000
  C   C1851     1.0  0.99210  0.89358  0.93886  1.0000
  C   C1852     1.0  0.77978  0.69151  0.53132  1.0000
  C   C1853     1.0  0.60012  0.95791  0.60108  1.0000
  C   C1854     1.0  0.54493  0.97545  0.72892  1.0000
  H   H1482     1.0  0.71628  0.71357  0.84638  1.0000
  H   H1483     1.0  0.57954  0.90501  0.56021  1.0000
  C   C1855     1.0  0.55233  0.88550  0.48867  1.0000
  H   H1484     1.0  0.78623  0.81278  0.74282  1.0000
  H   H1485     1.0  0.95661  0.99169  0.79166  1.0000
  C   C1856     1.0  0.77701  0.77537  0.75617  1.0000
  H   H1486     1.0  0.00463  0.78517  0.88204  1.0000
  H   H1487     1.0  0.59357  0.93982  0.59386  1.0000
  H   H1488     1.0  0.70230  0.75125  0.93833  1.0000
  H   H1489     1.0  0.52801  0.91988  0.77252  1.0000
  C   C1857     1.0  0.75691  0.66677  0.75991  1.0000
  C   C1858     1.0  0.72870  0.70048  0.54187  1.0000
  C   C1859     1.0  0.81419  0.78683  0.72550  1.0000
  C   C1860     1.0  0.78408  0.75046  0.75432  1.0000
  H   H1490     1.0  0.61217  0.71644  0.78358  1.0000
  C   C1861     1.0  0.53256  0.84869  0.76229  1.0000
  S   S254      1.0  0.89566  0.68217  0.50634  1.0000
  C   C1862     1.0  0.78929  0.69217  0.73461  1.0000
  C   C1863     1.0  0.85928  0.69094  0.70763  1.0000
  C   C1864     1.0  0.59538  0.72099  0.76971  1.0000
  H   H1491     1.0  0.63851  0.69729  0.69340  1.0000
  P   P63       1.0  0.52787  0.74056  0.70310  1.0000
  C   C1865     1.0  0.55330  0.73268  0.73090  1.0000
  C   C1866     1.0  0.53715  0.76393  0.67327  1.0000
  C   C1867     1.0  0.56243  0.77044  0.66906  1.0000
  C   C1868     1.0  0.56894  0.79021  0.64834  1.0000
  C   C1869     1.0  0.55042  0.80311  0.63086  1.0000
  H   H1492     1.0  0.80274  0.79976  0.48351  1.0000
  H   H1493     1.0  0.94704  0.98685  0.52855  1.0000
  H   H1494     1.0  0.68718  0.67137  0.59366  1.0000
  S   S255      1.0  0.52541  0.88569  0.67844  1.0000
  C   C1870     1.0  0.77805  0.68866  0.70356  1.0000
  C   C1871     1.0  0.86977  0.69678  0.64953  1.0000
  C   C1872     1.0  0.56744  0.75154  0.74542  1.0000
  C   C1873     1.0  0.92762  0.90839  0.49692  1.0000
  H   H1495     1.0  0.56811  0.95906  0.79825  1.0000
  H   H1496     1.0  0.99005  0.91731  0.53026  1.0000
  H   H1497     1.0  0.91591  0.69547  0.57123  1.0000
  C   C1874     1.0  0.53612  0.69897  0.66368  1.0000
  C   C1875     1.0  0.94985  0.96379  0.60680  1.0000
  H   H1498     1.0  0.57724  0.76065  0.68196  1.0000
  H   H1499     1.0  0.58834  0.79582  0.64633  1.0000
  C   C1876     1.0  0.77106  0.77837  0.49942  1.0000
  H   H1500     1.0  0.63063  0.97192  0.74247  1.0000
  S   S256      1.0  0.50534  0.95015  0.55268  1.0000
  C   C1877     1.0  0.98695  0.76767  0.56225  1.0000
  H   H1501     1.0  0.58584  0.68298  0.76134  1.0000
  H   H1502     1.0  0.00207  0.98622  0.75287  1.0000
  C   C1878     1.0  0.96935  0.74553  0.62064  1.0000
  H   H1503     1.0  0.78079  0.80855  0.58540  1.0000
  C   C1879     1.0  0.52544  0.79581  0.63339  1.0000
  C   C1880     1.0  0.79191  0.79353  0.74153  1.0000
  H   H1504     1.0  0.55541  0.81884  0.61549  1.0000
  C   C1881     1.0  0.58334  0.97790  0.60255  1.0000
  C   C1882     1.0  0.55617  0.99058  0.49867  1.0000
  H   H1505     1.0  0.54242  0.91308  0.52539  1.0000
  C   C1883     1.0  0.00020  0.70658  0.50151  1.0000
  C   C1884     1.0  0.83173  0.70520  0.77767  1.0000
  H   H1506     1.0  0.81605  0.72756  0.66889  1.0000
  C   C1885     1.0  0.83763  0.70566  0.70381  1.0000
  C   C1886     1.0  0.55613  0.89934  0.51758  1.0000
  C   C1887     1.0  0.96710  0.99191  0.81460  1.0000
  Fe  Fe127     1.0  0.51639  0.92677  0.59838  1.0000
  H   H1507     1.0  0.77236  0.73675  0.76615  1.0000
  C   C1888     1.0  0.58060  0.70212  0.75696  1.0000
  H   H1508     1.0  0.60490  0.84923  0.49218  1.0000
  C   C1889     1.0  0.00027  0.68606  0.61323  1.0000
  C   C1890     1.0  0.96302  0.75737  0.56339  1.0000
  H   H1509     1.0  0.51109  0.80573  0.61970  1.0000
  C   C1891     1.0  0.99441  0.92152  0.50461  1.0000
  H   H1510     1.0  0.85073  0.73403  0.84834  1.0000
  C   C1892     1.0  0.55953  0.70788  0.73783  1.0000
  H   H1511     1.0  0.54592  0.91731  0.90391  1.0000
  H   H1512     1.0  0.63814  0.94554  0.60825  1.0000
  H   H1513     1.0  0.84440  0.71995  0.62163  1.0000
  H   H1514     1.0  0.70883  0.70355  0.54566  1.0000
  H   H1515     1.0  0.56398  0.97511  0.59579  1.0000
  H   H1516     1.0  0.86879  0.98211  0.54172  1.0000
  C   C1893     1.0  0.97465  0.79710  0.91425  1.0000
  Fe  Fe128     1.0  0.51412  0.92591  0.67464  1.0000
  C   C1894     1.0  0.61461  0.66948  0.67286  1.0000
  C   C1895     1.0  0.75669  0.67405  0.70069  1.0000
  C   C1896     1.0  0.59133  0.86332  0.49910  1.0000
  C   C1897     1.0  0.00180  0.69062  0.57910  1.0000
  H   H1517     1.0  0.95184  0.96980  0.63227  1.0000
  C   C1898     1.0  0.92410  0.67799  0.56383  1.0000
  H   H1518     1.0  0.73566  0.72227  0.90047  1.0000
  H   H1519     1.0  0.55351  0.98357  0.84568  1.0000
  C   C1899     1.0  0.55912  0.99349  0.74526  1.0000
  H   H1520     1.0  0.99298  0.77676  0.53966  1.0000
  C   C1900     1.0  0.94623  0.94778  0.54075  1.0000
  H   H1521     1.0  0.79958  0.68805  0.52713  1.0000
  C   C1901     1.0  0.73905  0.67722  0.54913  1.0000
  C   C1902     1.0  0.71996  0.70979  0.89941  1.0000
  H   H1522     1.0  0.52720  0.99312  0.95135  1.0000
  C   C1903     1.0  0.70907  0.70483  0.86868  1.0000
  C   C1904     1.0  0.63316  0.66733  0.72787  1.0000
  H   H1523     1.0  0.68952  0.68030  0.69922  1.0000
  H   H1524     1.0  0.99252  0.84162  0.66597  1.0000
  C   C1905     1.0  0.69011  0.68280  0.92631  1.0000
  C   C1906     1.0  0.51140  0.98198  0.76842  1.0000
  C   C1907     1.0  0.52897  0.67743  0.64726  1.0000
  H   H1525     1.0  0.87828  0.87939  0.53412  1.0000
  C   C1908     1.0  0.98669  0.80820  0.97004  1.0000
  H   H1526     1.0  0.89305  0.99768  0.58943  1.0000
  C   C1909     1.0  0.90252  0.86297  0.49747  1.0000
  H   H1527     1.0  0.65326  0.98701  0.62473  1.0000
  H   H1528     1.0  0.74780  0.67208  0.67674  1.0000
  C   C1910     1.0  0.51004  0.86114  0.75579  1.0000
  C   C1911     1.0  0.53609  0.99069  0.97520  1.0000
  H   H1529     1.0  0.94522  0.67326  0.60897  1.0000
  C   C1912     1.0  0.50849  0.88676  0.75977  1.0000
  C   C1913     1.0  0.99962  0.79141  0.90671  1.0000
  C   C1914     1.0  0.91754  0.66759  0.53341  1.0000
  C   C1915     1.0  0.95695  0.71883  0.49143  1.0000
  H   H1530     1.0  0.99705  0.90841  0.82411  1.0000
  H   H1531     1.0  0.51310  0.84844  0.51067  1.0000
  H   H1532     1.0  0.75441  0.80719  0.96633  1.0000
  C   C1916     1.0  0.74832  0.78818  0.96735  1.0000
  P   P64       1.0  0.94466  0.93713  0.49829  1.0000
  H   H1533     1.0  0.57629  0.99243  0.49705  1.0000
  C   C1917     1.0  0.63371  0.98446  0.61870  1.0000
  H   H1534     1.0  0.89340  0.84512  0.49839  1.0000
  C   C1918     1.0  0.84710  0.67550  0.81849  1.0000
  H   H1535     1.0  0.57782  0.99752  0.73665  1.0000
  C   C1919     1.0  0.97620  0.93167  0.48338  1.0000
  H   H1536     1.0  0.00449  0.75575  0.64200  1.0000
  C   C1920     1.0  0.87799  0.99987  0.54004  1.0000
