data_image0
_chemical_formula_structural       FeS2FeS2FeSFeS3FeS2FeSCFeCFeSCSCFeCSCS2H4C6H7C6HC6H4FeC6H3C2H2C2HCH2C6PC18H11CH3C2HPH2C3SH2CPC5H2C6HCHCHCHCH2C2H3C4H2C3SHCH2CHC4H2C3SPC2HC3HC2H2CHCH2CH2CH5CH2C4H3FeCSH2C3HCH3CHCHCH3C2HC8H4CH3C2H3SH6CHC2HPCH3C2HCH3C2H2CSFeS2FeS2FeSFeS3FeS2FeS2HCFeS3C6HCH2C6H4CHCH2C6H4C6H2CH4CPHCPH2C2H3CH4C8HCHC5H6CHCHCH3C2H2CH3C5HCH4C13HCHC2HPC3HCH6CH4CH3CHCHCHCHC2HFeCHC3H2SH2CHC2H2C8HPCHC5HCHC3H2C3HPCH3C2HCHCH5C2H4C8H4CH2CHC2HC2HCHPCHCH2CHC2H2C3HC3HC2H2FeS2FeS2FeSFeS3FeS2HSCFePFeS3HFeHSHCS2HCHC6H4C2HC2HC3HC6H5C6H2C3HC3H5C4H3CHCPCH2C2H2CFeHCSC3HCHCH2CH3C2HPHCFeC2HCHCHC2PC18SC3H9CH6CSCH2CHC6PC2HCH2C14H4CH4CH5C2HC3HCHCHC2H4CH2C4H2SHCHC4HCH2CHCHCH4C2H3C2H2CH2C6H3C2HC8H2CH2CHC2HCSFeS2FeS2FeSFeS3FeS2FeHCSCFeS3C6H4C6H4C3HC7H7C2HPHC3HC2H5CH3C7H3C3H2CHC4H7C3HC3HC5FeHCH7CH4C3SH4C3HC4H2CH2CH2C2HC3H2CHC2HC6PC8H2C8H13C2H5C2HCHC3PC3H2C14HCH4SHCH8PC14H2CH4C5HCHC5HPCHC5H2CH3CHCHC2H5CH2C2HC4HC2FeS2FeSCFeSFeS3HPHSHC4H2C6H7C2HC2H3SCFeSHFeS2FeS2FeCFeS3FeCHSCH2C3HC7H5C6PC18H7C2H11C2HC2HCHCHC3SCHCH3CP2HC2PH2CHCHSCHCHC3HCHC5HC2H3SH4C5H2CHCH3C2HC4HSH2CHSH2CH3C2HCH2C3HC2H3C3HCH3C2FeCH3C2H2CH2CHC2H3C5PC7HC3HC2HC4H4C2H3CHC3HCHC2HCH3FeHSFeHFeS2CFeSCFeSHFeSFeCSHC3HC3HC3PCHC4HCH3C2SC4H2SFeS2FeSFeSHCFeC2FeS2FeCFeS3C2SHSCH3C4SH4C2SH3C4H3CHC8H2C3H2C2HC6HC2H2C4H2CH5CHCFeCH2C4H2C2H2C2H3CH2CHSHCHCH2CH3C2H3SH4C4H3CH2CH4C2H2SH2SH2C2HPCHCH5C3HC2HC4PC18H8CH2C2HC6PC10PC2H3C2H2CH3CSH4C2H2C2HCHCH2CSHC2H5C2HCHCHCH3C6HCH3C2HCH3C2FeS2FeS2FeCFeS4C2SC5H2C6H4C2H3CHC3HSPFeSHFeS2FeS2FeCFeCS2CH2CH4CHSHC6H4CHCHCH3C2HC2HC5H2CHC3PC7H2C11HCH5CHCH3CHC6PC18H20CHC4PC8H2C2HCH8CHCFeH2CHCHC5SCSCSC2HCHCHCH4CFeHC2FeH4C2H2C7PCHC2HCHCH2SHCH2CHC4H3CH4CHC2H3C2H3CFeCHC2HCHC3H3C4FeHSFeCFeS2HFeS2FeSCFeSFeHSC4HC2H2C4H2C6H5C5H4S2C3SCHFeSHFeS2FeHFeS3C3SHCH3C3H2FeH2C5H2C3HCHCHC2H2CH3C2H5C3H4C2HSHC2SCHCH2CH2C4H3C4SCHC4H6C2HCHC3H2CH2SFeH2CPC2HC2HCPC2H3C6PC9HC8H11CHCHC3H2C2H2C2FeH2C3H2PCH2SCHC2SCHCHCH2CHSC2HCHCSC2FeCSHC2SFeSCFeS2FeSFeS3FeS2FeS2FeSFeS3C2HCH3C7HCHC6H3CH2CHC2HC11H4C6H3C4H2CHCH3CPCH2SH2CH7CH2CH4CH2C7HC10HCH3CHCHCH2PSHC2HSC2H2C4HCHCH2CH2C5H3CH2CH2C3HC5HCH2CH2CHCH2CH2C3HPC2HC2H2C4HC2H4CHC3H2CH3C2H2CHCH2C2H2CHC2HC7PC4PC11H2CH4C2H5CH3CH2CHC2H4C3H5C7H2CHC2H2C5PCFeC3H2CFeS2FeS2FeSFeS3FeS2FeS2FeSFeS3FeSHCHCH2C6H4C4H6C6H5CHC3H2C2HC4PC6HC7H4CH9CHC4HCH2C2H2SC2HC6H4CHCHCH2CH4C3HC4PC14HC4H11CH3C2H3CH2C3H3C2PHCH3C3H2CH2CH2C5H2C4SCH2C2HCH2C2HC2H2C3HCPCHC2H3CHC3H4C6H2CHCHCH4SHFeHSH3SFeSCFeS2FeSFeS3FeS2FeS2FeSFeS3CHC2H3C6H4C6H3CHC2HCH2PCHCHC6H4C6H5PC2H3CHCH3CH3C6PC18H20C6HCHC2HC3HCHC9SH3CH4CH2C3HCH6CPH3C3HCHCH2PH2C3H2SC2HC2H6CHC3H2C2SC2H2C3H2CSC2HC3HC4HCHC3HCH2C6H3C6H5PHC5H5CHCH2C4H2CHCHC2HCFeS2FeS2FeSFeS3FeS2FeSHFeCFeS3FeSH3C2HC6H4C3HC2H4C6H5CH2C3H3C4PHC4HC4H2CH2CHC6PC11HC4HCH2CH8C3H4CHC2H3CHCHCH2CHC3HC3HC3HFeC2HC2H2CHC2HC2HCPHCH3C3HC2H2CHC2HCHCHSHCH2CHC2HCHCHC2H5C6PC9SCHC2HC3H4CH9CPHSH2CHCHC3HC2HCSH2C4HC2HCPC2H3C2HC2H5C4HC6H4CHC3HCH3PSHC8HCH2
_chemical_formula_sum              "Fe128 S256 C1920 H1536 P64"
_cell_length_a       44.9143
_cell_length_b       44.9807
_cell_length_c       35.0976
_cell_angle_alpha    90.2055
_cell_angle_beta     90.5589
_cell_angle_gamma    92.7005

_space_group_name_H-M_alt    "P 1"
_space_group_IT_number       1

loop_
  _space_group_symop_operation_xyz
  'x, y, z'

loop_
  _atom_site_type_symbol
  _atom_site_label
  _atom_site_symmetry_multiplicity
  _atom_site_fract_x
  _atom_site_fract_y
  _atom_site_fract_z
  _atom_site_occupancy
  Fe  Fe1       1.0  0.23119  0.38795  0.31134  1.0000
  S   S1        1.0  0.19615  0.35924  0.34056  1.0000
  S   S2        1.0  0.26970  0.41051  0.34390  1.0000
  Fe  Fe2       1.0  0.19779  0.38443  0.23495  1.0000
  S   S3        1.0  0.15983  0.35599  0.25824  1.0000
  S   S4        1.0  0.20048  0.39958  0.17377  1.0000
  Fe  Fe3       1.0  0.16322  0.38616  0.30931  1.0000
  S   S5        1.0  0.12657  0.40673  0.34235  1.0000
  Fe  Fe4       1.0  0.19637  0.33187  0.28709  1.0000
  S   S6        1.0  0.19398  0.28203  0.28681  1.0000
  S   S7        1.0  0.19815  0.41703  0.28358  1.0000
  S   S8        1.0  0.23426  0.35818  0.26035  1.0000
  Fe  Fe5       1.0  0.06814  0.13651  0.47761  1.0000
  S   S9        1.0  0.10057  0.10782  0.44801  1.0000
  S   S10       1.0  0.06684  0.14966  0.54007  1.0000
  Fe  Fe6       1.0  0.03046  0.14402  0.40517  1.0000
  S   S11       1.0  0.05938  0.11588  0.36982  1.0000
  C   C1        1.0  0.30554  0.23192  0.46403  1.0000
  Fe  Fe7       1.0  0.05953  0.08584  0.42080  1.0000
  C   C2        1.0  0.03804  0.03208  0.55885  1.0000
  Fe  Fe8       1.0  0.09761  0.14019  0.39961  1.0000
  S   S12       1.0  0.13432  0.16207  0.36476  1.0000
  C   C3        1.0  0.24601  0.33135  0.12895  1.0000
  S   S13       1.0  0.06857  0.17098  0.43145  1.0000
  C   C4        1.0  0.29420  0.03792  0.45248  1.0000
  Fe  Fe9       1.0  0.28582  0.11865  0.28999  1.0000
  C   C5        1.0  0.30885  0.06483  0.39547  1.0000
  S   S14       1.0  0.24618  0.09186  0.31302  1.0000
  C   C6        1.0  0.29903  0.22523  0.19018  1.0000
  S   S15       1.0  0.31916  0.22596  0.30802  1.0000
  S   S16       1.0  0.28399  0.15772  0.25096  1.0000
  H   H1        1.0  0.25182  0.30206  0.55587  1.0000
  H   H2        1.0  0.17277  0.45663  0.39767  1.0000
  H   H3        1.0  0.16289  0.11575  0.25340  1.0000
  H   H4        1.0  0.12359  0.12233  0.52905  1.0000
  C   C7        1.0  0.16517  0.14207  0.35089  1.0000
  C   C8        1.0  0.18737  0.15643  0.32886  1.0000
  C   C9        1.0  0.21257  0.14137  0.31777  1.0000
  C   C10       1.0  0.21558  0.11173  0.32837  1.0000
  C   C11       1.0  0.19342  0.09740  0.35060  1.0000
  C   C12       1.0  0.16827  0.11254  0.36190  1.0000
  H   H5        1.0  0.18519  0.17941  0.32069  1.0000
  H   H6        1.0  0.22946  0.15257  0.30066  1.0000
  H   H7        1.0  0.19557  0.07452  0.35900  1.0000
  H   H8        1.0  0.15125  0.10134  0.37894  1.0000
  H   H9        1.0  0.02240  0.39824  0.38083  1.0000
  H   H10       1.0  0.23567  0.32936  0.18847  1.0000
  H   H11       1.0  0.04117  0.46827  0.38512  1.0000
  C   C13       1.0  0.18351  0.37521  0.13977  1.0000
  C   C14       1.0  0.18125  0.38458  0.10188  1.0000
  C   C15       1.0  0.16175  0.32674  0.12112  1.0000
  C   C16       1.0  0.17346  0.34631  0.14944  1.0000
  C   C17       1.0  0.01959  0.01991  0.41428  1.0000
  C   C18       1.0  0.01929  0.27826  0.40939  1.0000
  H   H12       1.0  0.17527  0.33880  0.17854  1.0000
  C   C19       1.0  0.22861  0.26665  0.29446  1.0000
  C   C20       1.0  0.25392  0.28472  0.30343  1.0000
  C   C21       1.0  0.28156  0.27193  0.30868  1.0000
  C   C22       1.0  0.28398  0.24119  0.30463  1.0000
  C   C23       1.0  0.25842  0.22310  0.29740  1.0000
  C   C24       1.0  0.23081  0.23581  0.29211  1.0000
  H   H13       1.0  0.25222  0.30846  0.30646  1.0000
  H   H14       1.0  0.30117  0.28590  0.31511  1.0000
  H   H15       1.0  0.25970  0.19931  0.29646  1.0000
  H   H16       1.0  0.21110  0.22172  0.28647  1.0000
  Fe  Fe10      1.0  0.31959  0.17827  0.28890  1.0000
  C   C25       1.0  0.04030  0.38698  0.36750  1.0000
  C   C26       1.0  0.06847  0.40153  0.36420  1.0000
  C   C27       1.0  0.09174  0.38752  0.34612  1.0000
  C   C28       1.0  0.08690  0.35863  0.33182  1.0000
  C   C29       1.0  0.05869  0.34401  0.33517  1.0000
  C   C30       1.0  0.31510  0.28423  0.56027  1.0000
  H   H17       1.0  0.07214  0.42392  0.37514  1.0000
  H   H18       1.0  0.10484  0.34769  0.31801  1.0000
  H   H19       1.0  0.15438  0.30431  0.12864  1.0000
  C   C31       1.0  0.29884  0.38873  0.36005  1.0000
  C   C32       1.0  0.31794  0.40005  0.38900  1.0000
  H   H20       1.0  0.02783  0.49530  0.30590  1.0000
  H   H21       1.0  0.03548  0.17654  0.30693  1.0000
  C   C33       1.0  0.32671  0.34376  0.35859  1.0000
  C   C34       1.0  0.30322  0.36048  0.34486  1.0000
  H   H22       1.0  0.31458  0.42182  0.40088  1.0000
  C   C35       1.0  0.08412  0.17922  0.21606  1.0000
  H   H23       1.0  0.05655  0.01965  0.56917  1.0000
  H   H24       1.0  0.28870  0.35166  0.32237  1.0000
  C   C36       1.0  0.14301  0.35768  0.42702  1.0000
  C   C37       1.0  0.16774  0.36421  0.45054  1.0000
  C   C38       1.0  0.18434  0.34116  0.46494  1.0000
  C   C39       1.0  0.17662  0.31161  0.45515  1.0000
  C   C40       1.0  0.15244  0.30496  0.43040  1.0000
  C   C41       1.0  0.13515  0.32815  0.41727  1.0000
  P   P1        1.0  0.14257  0.26671  0.41814  1.0000
  C   C42       1.0  0.12220  0.26483  0.37353  1.0000
  C   C43       1.0  0.17572  0.24636  0.40965  1.0000
  C   C44       1.0  0.20167  0.26106  0.39567  1.0000
  C   C45       1.0  0.22684  0.24503  0.38754  1.0000
  C   C46       1.0  0.22619  0.21425  0.39251  1.0000
  C   C47       1.0  0.20037  0.19943  0.40580  1.0000
  C   C48       1.0  0.17509  0.21531  0.41359  1.0000
  C   C49       1.0  0.13145  0.28296  0.34303  1.0000
  C   C50       1.0  0.11599  0.28146  0.30827  1.0000
  C   C51       1.0  0.09116  0.26184  0.30370  1.0000
  C   C52       1.0  0.08196  0.24347  0.33382  1.0000
  C   C53       1.0  0.09772  0.24455  0.36839  1.0000
  C   C54       1.0  0.11899  0.25225  0.45597  1.0000
  C   C55       1.0  0.08985  0.26196  0.45905  1.0000
  C   C56       1.0  0.07048  0.24951  0.48625  1.0000
  C   C57       1.0  0.08008  0.22737  0.51066  1.0000
  C   C58       1.0  0.10943  0.21858  0.50900  1.0000
  C   C59       1.0  0.12898  0.23134  0.48223  1.0000
  H   H25       1.0  0.20340  0.34620  0.48335  1.0000
  H   H26       1.0  0.18970  0.29399  0.46650  1.0000
  H   H27       1.0  0.11582  0.32367  0.39909  1.0000
  H   H28       1.0  0.20219  0.28468  0.38961  1.0000
  H   H29       1.0  0.24652  0.25619  0.37579  1.0000
  H   H30       1.0  0.24533  0.20179  0.38473  1.0000
  H   H31       1.0  0.19939  0.17540  0.40832  1.0000
  H   H32       1.0  0.15474  0.20311  0.42142  1.0000
  H   H33       1.0  0.15093  0.29799  0.34583  1.0000
  H   H34       1.0  0.12374  0.29520  0.28471  1.0000
  H   H35       1.0  0.07950  0.26054  0.27659  1.0000
  C   C60       1.0  0.14157  0.45429  0.48590  1.0000
  H   H36       1.0  0.09102  0.22920  0.39074  1.0000
  H   H37       1.0  0.08188  0.27863  0.43974  1.0000
  H   H38       1.0  0.01704  0.45756  0.49788  1.0000
  C   C61       1.0  0.27678  0.50192  0.34989  1.0000
  C   C62       1.0  0.02978  0.38302  0.53565  1.0000
  H   H39       1.0  0.15155  0.22435  0.48174  1.0000
  P   P2        1.0  0.08233  0.45683  0.51021  1.0000
  H   H40       1.0  0.12426  0.03649  0.30318  1.0000
  H   H41       1.0  0.08206  0.46808  0.42859  1.0000
  C   C63       1.0  0.24400  0.28602  0.16596  1.0000
  C   C64       1.0  0.21511  0.26976  0.55866  1.0000
  C   C65       1.0  0.03529  0.35825  0.35281  1.0000
  S   S17       1.0  0.02724  0.11215  0.45387  1.0000
  H   H42       1.0  0.08987  0.17295  0.31235  1.0000
  H   H43       1.0  0.08291  0.50590  0.56720  1.0000
  C   C66       1.0  0.30544  0.49183  0.35567  1.0000
  P   P3        1.0  0.25352  0.22976  0.13615  1.0000
  C   C67       1.0  0.24991  0.26943  0.13313  1.0000
  C   C68       1.0  0.22832  0.21163  0.16952  1.0000
  C   C69       1.0  0.20253  0.22524  0.18175  1.0000
  C   C70       1.0  0.14241  0.04721  0.28774  1.0000
  C   C71       1.0  0.23428  0.18317  0.18305  1.0000
  H   H44       1.0  0.07698  0.41048  0.44964  1.0000
  H   H45       1.0  0.24469  0.40710  0.10636  1.0000
  C   C72       1.0  0.03538  0.18041  0.24536  1.0000
  C   C73       1.0  0.25567  0.28441  0.09873  1.0000
  C   C74       1.0  0.04885  0.17736  0.28129  1.0000
  C   C75       1.0  0.11184  0.45895  0.47559  1.0000
  C   C76       1.0  0.33830  0.31732  0.51364  1.0000
  C   C77       1.0  0.33126  0.25508  0.39768  1.0000
  H   H46       1.0  0.09790  0.18000  0.19087  1.0000
  C   C78       1.0  0.04853  0.37554  0.47208  1.0000
  H   H47       1.0  0.14787  0.45088  0.51527  1.0000
  C   C79       1.0  0.20091  0.24459  0.54188  1.0000
  H   H48       1.0  0.12129  0.17486  0.25492  1.0000
  C   C80       1.0  0.09719  0.46088  0.55810  1.0000
  H   H49       1.0  0.33927  0.32671  0.48519  1.0000
  C   C81       1.0  0.16739  0.03158  0.27693  1.0000
  H   H50       1.0  0.19665  0.24662  0.17069  1.0000
  H   H51       1.0  0.25789  0.48601  0.34809  1.0000
  C   C82       1.0  0.25349  0.37110  0.43164  1.0000
  C   C83       1.0  0.04156  0.06303  0.55598  1.0000
  H   H52       1.0  0.28181  0.22456  0.21163  1.0000
  H   H53       1.0  0.04785  0.25653  0.48784  1.0000
  H   H54       1.0  0.11669  0.20126  0.52793  1.0000
  C   C84       1.0  0.09235  0.13407  0.57205  1.0000
  C   C85       1.0  0.31792  0.34000  0.22735  1.0000
  C   C86       1.0  0.31921  0.31042  0.23894  1.0000
  C   C87       1.0  0.27484  0.34713  0.48646  1.0000
  H   H55       1.0  0.01688  0.02292  0.32126  1.0000
  H   H56       1.0  0.25244  0.02684  0.37636  1.0000
  C   C88       1.0  0.31471  0.22901  0.12441  1.0000
  C   C89       1.0  0.01805  0.07948  0.54261  1.0000
  C   C90       1.0  0.26290  0.18619  0.08143  1.0000
  S   S18       1.0  0.32025  0.09677  0.25506  1.0000
  H   H57       1.0  0.11371  0.41644  0.55989  1.0000
  C   C91       1.0  0.25330  0.26987  0.51001  1.0000
  H   H58       1.0  0.34081  0.20981  0.38410  1.0000
  H   H59       1.0  0.13014  0.37557  0.41584  1.0000
  C   C92       1.0  0.15600  0.45774  0.41961  1.0000
  H   H60       1.0  0.28084  0.10032  0.37931  1.0000
  C   C93       1.0  0.33032  0.51203  0.35570  1.0000
  C   C94       1.0  0.05737  0.48606  0.49970  1.0000
  C   C95       1.0  0.24116  0.28244  0.54273  1.0000
  C   C96       1.0  0.30381  0.26237  0.45593  1.0000
  H   H61       1.0  0.01869  0.34442  0.50111  1.0000
  H   H62       1.0  0.06259  0.07433  0.56394  1.0000
  C   C97       1.0  0.27410  0.31991  0.46658  1.0000
  C   C98       1.0  0.06292  0.42078  0.50710  1.0000
  C   C99       1.0  0.18839  0.07667  0.24760  1.0000
  S   S19       1.0  0.31753  0.13879  0.15540  1.0000
  P   P4        1.0  0.28657  0.28676  0.48922  1.0000
  C   C100      1.0  0.19083  0.18353  0.22338  1.0000
  C   C101      1.0  0.21556  0.16919  0.20988  1.0000
  H   H63       1.0  0.31864  0.29761  0.41756  1.0000
  C   C102      1.0  0.25250  0.34402  0.41199  1.0000
  C   C103      1.0  0.26236  0.31847  0.42949  1.0000
  C   C104      1.0  0.31404  0.04229  0.42201  1.0000
  H   H64       1.0  0.16523  0.22280  0.21993  1.0000
  C   C105      1.0  0.34415  0.15834  0.08986  1.0000
  C   C106      1.0  0.29174  0.22699  0.15130  1.0000
  H   H65       1.0  0.24502  0.34296  0.38266  1.0000
  H   H66       1.0  0.26140  0.29782  0.41365  1.0000
  C   C107      1.0  0.04541  0.41059  0.53776  1.0000
  H   H67       1.0  0.33041  0.32215  0.34647  1.0000
  C   C108      1.0  0.02654  0.48002  0.49591  1.0000
  H   H68       1.0  0.02564  0.23383  0.38864  1.0000
  H   H69       1.0  0.03228  0.28902  0.38702  1.0000
  C   C109      1.0  0.34411  0.35789  0.22496  1.0000
  H   H70       1.0  0.01721  0.28189  0.30495  1.0000
  H   H71       1.0  0.30970  0.23105  0.09432  1.0000
  C   C110      1.0  0.32883  0.22418  0.20174  1.0000
  H   H72       1.0  0.06477  0.21666  0.53056  1.0000
  H   H73       1.0  0.21547  0.03399  0.32595  1.0000
  H   H74       1.0  0.18648  0.45018  0.46582  1.0000
  H   H75       1.0  0.02730  0.24114  0.25993  1.0000
  H   H76       1.0  0.31907  0.18932  0.44367  1.0000
  C   C111      1.0  0.12660  0.46290  0.40936  1.0000
  H   H77       1.0  0.20992  0.03512  0.24830  1.0000
  H   H78       1.0  0.29662  0.34894  0.21998  1.0000
  C   C112      1.0  0.02208  0.48138  0.39039  1.0000
  C   C113      1.0  0.06417  0.40313  0.47407  1.0000
  C   C114      1.0  0.14074  0.07742  0.27900  1.0000
  C   C115      1.0  0.26470  0.37268  0.46889  1.0000
  H   H79       1.0  0.29894  0.29639  0.23999  1.0000
  H   H80       1.0  0.20156  0.21293  0.49561  1.0000
  H   H81       1.0  0.04334  0.18348  0.18460  1.0000
  Fe  Fe11      1.0  0.32170  0.13827  0.21959  1.0000
  C   C116      1.0  0.26497  0.07834  0.42993  1.0000
  S   S20       1.0  0.05584  0.03621  0.41156  1.0000
  H   H82       1.0  0.12063  0.46567  0.37958  1.0000
  H   H83       1.0  0.32331  0.06830  0.37112  1.0000
  C   C117      1.0  0.31871  0.21298  0.43810  1.0000
  C   C118      1.0  0.16375  0.09216  0.25904  1.0000
  C   C119      1.0  0.01554  0.24730  0.41021  1.0000
  H   H84       1.0  0.28344  0.34876  0.51534  1.0000
  C   C120      1.0  0.26972  0.05581  0.45627  1.0000
  H   H85       1.0  0.17708  0.17317  0.24526  1.0000
  H   H86       1.0  0.22068  0.14751  0.22088  1.0000
  H   H87       1.0  0.02086  0.10345  0.54040  1.0000
  C   C121      1.0  0.10472  0.46402  0.43722  1.0000
  H   H88       1.0  0.17400  0.38716  0.45744  1.0000
  C   C122      1.0  0.09735  0.17631  0.25202  1.0000
  H   H89       1.0  0.24111  0.27528  0.19337  1.0000
  C   C123      1.0  0.28550  0.42365  0.08063  1.0000
  H   H90       1.0  0.26593  0.39380  0.48385  1.0000
  H   H91       1.0  0.29639  0.22273  0.49011  1.0000
  H   H92       1.0  0.23828  0.48478  0.08534  1.0000
  C   C124      1.0  0.23818  0.24537  0.49247  1.0000
  C   C125      1.0  0.31791  0.27398  0.42335  1.0000
  H   H93       1.0  0.24581  0.09200  0.43243  1.0000
  C   C126      1.0  0.03135  0.36549  0.50286  1.0000
  C   C127      1.0  0.11873  0.12234  0.55915  1.0000
  C   C128      1.0  0.19023  0.04653  0.25647  1.0000
  C   C129      1.0  0.28468  0.08298  0.39982  1.0000
  C   C130      1.0  0.07967  0.17525  0.28451  1.0000
  C   C131      1.0  0.21248  0.23243  0.50879  1.0000
  C   C132      1.0  0.25905  0.40612  0.08172  1.0000
  C   C133      1.0  0.16023  0.33594  0.08304  1.0000
  H   H94       1.0  0.01533  0.12654  0.27303  1.0000
  H   H95       1.0  0.24616  0.39094  0.41758  1.0000
  H   H96       1.0  0.33432  0.41558  0.27461  1.0000
  H   H97       1.0  0.18852  0.40703  0.09431  1.0000
  C   C134      1.0  0.18419  0.21145  0.20914  1.0000
  H   H98       1.0  0.24601  0.23618  0.46611  1.0000
  H   H99       1.0  0.34133  0.26417  0.37199  1.0000
  H   H100      1.0  0.25373  0.17198  0.17333  1.0000
  C   C135      1.0  0.24154  0.31679  0.16359  1.0000
  C   C136      1.0  0.05317  0.18119  0.21265  1.0000
  H   H101      1.0  0.12194  0.08962  0.28857  1.0000
  H   H102      1.0  0.04366  0.42408  0.56321  1.0000
  H   H103      1.0  0.29158  0.43818  0.10444  1.0000
  S   S21       1.0  0.31897  0.14066  0.33059  1.0000
  H   H104      1.0  0.25427  0.05206  0.47946  1.0000
  H   H105      1.0  0.30804  0.46818  0.35914  1.0000
  H   H106      1.0  0.06300  0.22793  0.33026  1.0000
  H   H107      1.0  0.20672  0.08825  0.23320  1.0000
  H   H108      1.0  0.05502  0.32175  0.32386  1.0000
  H   H109      1.0  0.04933  0.36223  0.44631  1.0000
  C   C137      1.0  0.31511  0.29695  0.52380  1.0000
  H   H110      1.0  0.24358  0.35511  0.12739  1.0000
  C   C138      1.0  0.25338  0.31522  0.09658  1.0000
  C   C139      1.0  0.16359  0.45385  0.45793  1.0000
  H   H111      1.0  0.33429  0.22211  0.23160  1.0000
  P   P5        1.0  0.34523  0.01871  0.41575  1.0000
  C   C140      1.0  0.33122  0.22452  0.40470  1.0000
  H   H112      1.0  0.18087  0.23458  0.55440  1.0000
  H   H113      1.0  0.27828  0.17700  0.10176  1.0000
  H   H114      1.0  0.29719  0.02057  0.47316  1.0000
  C   C141      1.0  0.24736  0.21157  0.09061  1.0000
  C   C142      1.0  0.34124  0.38324  0.40286  1.0000
  H   H115      1.0  0.34308  0.38073  0.21554  1.0000
  C   C143      1.0  0.34446  0.22795  0.13616  1.0000
  H   H116      1.0  0.29809  0.26764  0.56823  1.0000
  H   H117      1.0  0.33603  0.46778  0.29586  1.0000
  H   H118      1.0  0.01592  0.37541  0.55915  1.0000
  C   C144      1.0  0.34656  0.29885  0.24898  1.0000
  C   C145      1.0  0.34580  0.35511  0.38754  1.0000
  H   H119      1.0  0.32271  0.15337  0.07655  1.0000
  H   H120      1.0  0.16790  0.37256  0.04460  1.0000
  C   C146      1.0  0.20836  0.48843  0.66611  1.0000
  S   S22       1.0  0.31378  0.19215  0.93187  1.0000
  Fe  Fe12      1.0  0.21401  0.32529  0.93538  1.0000
  S   S23       1.0  0.18143  0.28849  0.95178  1.0000
  S   S24       1.0  0.26355  0.32123  0.93194  1.0000
  Fe  Fe13      1.0  0.16628  0.37070  0.92725  1.0000
  S   S25       1.0  0.12964  0.33695  0.94218  1.0000
  S   S26       1.0  0.15719  0.41960  0.92126  1.0000
  Fe  Fe14      1.0  0.16101  0.32302  0.98812  1.0000
  S   S27       1.0  0.14637  0.31096  0.04761  1.0000
  Fe  Fe15      1.0  0.15335  0.30551  0.90422  1.0000
  S   S28       1.0  0.12876  0.27586  0.86044  1.0000
  S   S29       1.0  0.19612  0.35851  0.97571  1.0000
  S   S30       1.0  0.18742  0.34068  0.88532  1.0000
  Fe  Fe16      1.0  0.15134  0.10880  0.80017  1.0000
  S   S31       1.0  0.18249  0.08462  0.76265  1.0000
  S   S32       1.0  0.16957  0.14298  0.84306  1.0000
  Fe  Fe17      1.0  0.09849  0.07056  0.77251  1.0000
  S   S33       1.0  0.12514  0.04327  0.73281  1.0000
  S   S34       1.0  0.04898  0.06368  0.77703  1.0000
  H   H121      1.0  0.14833  0.19463  0.99651  1.0000
  C   C147      1.0  0.03016  0.21832  0.60202  1.0000
  Fe  Fe18      1.0  0.14692  0.08752  0.71743  1.0000
  S   S35       1.0  0.16028  0.09804  0.65667  1.0000
  S   S36       1.0  0.12950  0.06643  0.82243  1.0000
  S   S37       1.0  0.11769  0.11508  0.75359  1.0000
  C   C148      1.0  0.16270  0.43703  0.87691  1.0000
  C   C149      1.0  0.15260  0.46575  0.87139  1.0000
  C   C150      1.0  0.15611  0.47993  0.83600  1.0000
  C   C151      1.0  0.16997  0.46549  0.80611  1.0000
  C   C152      1.0  0.18067  0.43706  0.81193  1.0000
  C   C153      1.0  0.17704  0.42285  0.84724  1.0000
  H   H122      1.0  0.14177  0.47692  0.89441  1.0000
  C   C154      1.0  0.26079  0.49115  0.85801  1.0000
  H   H123      1.0  0.19150  0.42588  0.78892  1.0000
  H   H124      1.0  0.18525  0.40090  0.85142  1.0000
  C   C155      1.0  0.13920  0.23851  0.85608  1.0000
  C   C156      1.0  0.13003  0.22151  0.82398  1.0000
  C   C157      1.0  0.13872  0.19196  0.81968  1.0000
  C   C158      1.0  0.15636  0.17920  0.84775  1.0000
  C   C159      1.0  0.16443  0.19583  0.88043  1.0000
  C   C160      1.0  0.15608  0.22534  0.88447  1.0000
  H   H125      1.0  0.11670  0.23145  0.80207  1.0000
  H   H126      1.0  0.13226  0.17926  0.79448  1.0000
  H   H127      1.0  0.17750  0.18596  0.90266  1.0000
  H   H128      1.0  0.16266  0.23777  0.90969  1.0000
  C   C161      1.0  0.04728  0.46224  0.77130  1.0000
  H   H129      1.0  0.29216  0.47226  0.82036  1.0000
  C   C162      1.0  0.24080  0.24904  0.83743  1.0000
  H   H130      1.0  0.06335  0.44507  0.77044  1.0000
  H   H131      1.0  0.04680  0.21478  0.62390  1.0000
  C   C163      1.0  0.29932  0.22771  0.93061  1.0000
  C   C164      1.0  0.31809  0.25264  0.92349  1.0000
  C   C165      1.0  0.30674  0.28115  0.92314  1.0000
  C   C166      1.0  0.27663  0.28495  0.93064  1.0000
  C   C167      1.0  0.25773  0.25990  0.93736  1.0000
  C   C168      1.0  0.26900  0.23131  0.93700  1.0000
  H   H132      1.0  0.21301  0.24063  0.07170  1.0000
  H   H133      1.0  0.32135  0.30036  0.91730  1.0000
  H   H134      1.0  0.23453  0.26240  0.94296  1.0000
  H   H135      1.0  0.25432  0.21207  0.94215  1.0000
  C   C169      1.0  0.10805  0.37684  0.83702  1.0000
  C   C170      1.0  0.02824  0.24628  0.58517  1.0000
  C   C171      1.0  0.08638  0.13406  0.61125  1.0000
  C   C172      1.0  0.10665  0.12235  0.63743  1.0000
  C   C173      1.0  0.13335  0.11117  0.62459  1.0000
  C   C174      1.0  0.26118  0.49901  0.78947  1.0000
  H   H136      1.0  0.06599  0.14303  0.62143  1.0000
  H   H137      1.0  0.10185  0.12239  0.66756  1.0000
  C   C175      1.0  0.06305  0.36048  0.98343  1.0000
  H   H138      1.0  0.06635  0.26363  0.82652  1.0000
  H   H139      1.0  0.18297  0.04167  0.68489  1.0000
  H   H140      1.0  0.08103  0.23685  0.88414  1.0000
  H   H141      1.0  0.24557  0.41157  0.84151  1.0000
  C   C176      1.0  0.01801  0.41244  0.91309  1.0000
  P   P6        1.0  0.26000  0.20089  0.79653  1.0000
  H   H142      1.0  0.06257  0.25253  0.95491  1.0000
  C   C177      1.0  0.10472  0.48960  0.61635  1.0000
  P   P7        1.0  0.05010  0.19102  0.93048  1.0000
  H   H143      1.0  0.29739  0.06256  0.78116  1.0000
  H   H144      1.0  0.07141  0.17122  0.81944  1.0000
  C   C178      1.0  0.10581  0.19293  0.96732  1.0000
  C   C179      1.0  0.09291  0.37127  0.80262  1.0000
  H   H145      1.0  0.31468  0.11806  0.01841  1.0000
  H   H146      1.0  0.09234  0.50933  0.83423  1.0000
  H   H147      1.0  0.03174  0.42760  0.85698  1.0000
  C   C180      1.0  0.16974  0.36500  0.07362  1.0000
  H   H148      1.0  0.33382  0.11885  0.95253  1.0000
  H   H149      1.0  0.11703  0.42992  0.99479  1.0000
  H   H150      1.0  0.10641  0.16927  0.96193  1.0000
  H   H151      1.0  0.02552  0.08597  0.89519  1.0000
  C   C181      1.0  0.02847  0.15259  0.80113  1.0000
  C   C182      1.0  0.28699  0.07803  0.00959  1.0000
  C   C183      1.0  0.30742  0.10066  0.99845  1.0000
  C   C184      1.0  0.31849  0.10094  0.96144  1.0000
  C   C185      1.0  0.30956  0.07838  0.93574  1.0000
  C   C186      1.0  0.25915  0.17279  0.04557  1.0000
  C   C187      1.0  0.01470  0.16308  0.73580  1.0000
  C   C188      1.0  0.26864  0.17172  0.72716  1.0000
  H   H152      1.0  0.23062  0.37370  0.05189  1.0000
  C   C189      1.0  0.09217  0.37981  0.87077  1.0000
  H   H153      1.0  0.10528  0.36950  0.77645  1.0000
  C   C190      1.0  0.30378  0.42291  0.04862  1.0000
  C   C191      1.0  0.28420  0.15487  0.83736  1.0000
  C   C192      1.0  0.26194  0.17570  0.83609  1.0000
  C   C193      1.0  0.12957  0.20717  0.98730  1.0000
  C   C194      1.0  0.25921  0.15417  0.69587  1.0000
  H   H154      1.0  0.12755  0.46821  0.66221  1.0000
  H   H155      1.0  0.08377  0.47190  0.88492  1.0000
  H   H156      1.0  0.17886  0.04148  0.61460  1.0000
  H   H157      1.0  0.22625  0.45953  0.70794  1.0000
  H   H158      1.0  0.31474  0.50859  0.67774  1.0000
  H   H159      1.0  0.04838  0.34084  0.98093  1.0000
  C   C195      1.0  0.27217  0.48766  0.99911  1.0000
  H   H160      1.0  0.31843  0.07910  0.90717  1.0000
  C   C196      1.0  0.02880  0.31821  0.91287  1.0000
  H   H161      1.0  0.24716  0.43913  0.77583  1.0000
  C   C197      1.0  0.27142  0.40181  0.75737  1.0000
  H   H162      1.0  0.27830  0.07798  0.03831  1.0000
  H   H163      1.0  0.32373  0.43727  0.04831  1.0000
  H   H164      1.0  0.08318  0.19456  0.75761  1.0000
  C   C198      1.0  0.26558  0.43207  0.75885  1.0000
  C   C199      1.0  0.05542  0.16900  0.79626  1.0000
  H   H165      1.0  0.07034  0.42542  0.66885  1.0000
  H   H166      1.0  0.33710  0.29837  0.00116  1.0000
  C   C200      1.0  0.28263  0.06346  0.80533  1.0000
  H   H167      1.0  0.34486  0.30655  0.85282  1.0000
  H   H168      1.0  0.30823  0.03406  0.83885  1.0000
  H   H169      1.0  0.19038  0.47268  0.65816  1.0000
  C   C201      1.0  0.22885  0.48104  0.69437  1.0000
  C   C202      1.0  0.22959  0.14326  0.69307  1.0000
  C   C203      1.0  0.25172  0.49354  0.06205  1.0000
  C   C204      1.0  0.29586  0.40427  0.01749  1.0000
  C   C205      1.0  0.24511  0.06604  0.86817  1.0000
  H   H170      1.0  0.08011  0.49790  0.76339  1.0000
  C   C206      1.0  0.25149  0.50175  0.70607  1.0000
  H   H171      1.0  0.08353  0.42542  0.93881  1.0000
  H   H172      1.0  0.30362  0.11996  0.86944  1.0000
  H   H173      1.0  0.14809  0.50193  0.83182  1.0000
  H   H174      1.0  0.05141  0.48307  0.93962  1.0000
  C   C207      1.0  0.08205  0.36328  0.01523  1.0000
  C   C208      1.0  0.33733  0.29287  0.58682  1.0000
  C   C209      1.0  0.25110  0.38741  0.05106  1.0000
  C   C210      1.0  0.26953  0.38623  0.01926  1.0000
  C   C211      1.0  0.29502  0.40630  0.93273  1.0000
  C   C212      1.0  0.30606  0.39830  0.89706  1.0000
  C   C213      1.0  0.28836  0.40039  0.86425  1.0000
  C   C214      1.0  0.25944  0.41034  0.86679  1.0000
  C   C215      1.0  0.24827  0.41846  0.90213  1.0000
  C   C216      1.0  0.26601  0.41669  0.93491  1.0000
  C   C217      1.0  0.08120  0.23966  0.96362  1.0000
  C   C218      1.0  0.02960  0.40327  0.68758  1.0000
  C   C219      1.0  0.08160  0.20918  0.95489  1.0000
  H   H175      1.0  0.21564  0.01495  0.88104  1.0000
  C   C220      1.0  0.13928  0.11122  0.58538  1.0000
  H   H176      1.0  0.14738  0.24864  0.01127  1.0000
  C   C221      1.0  0.08260  0.40811  0.96021  1.0000
  C   C222      1.0  0.31235  0.41271  0.71455  1.0000
  H   H177      1.0  0.10451  0.38429  0.89681  1.0000
  P   P8        1.0  0.31836  0.40429  0.97490  1.0000
  C   C223      1.0  0.20956  0.14940  0.72190  1.0000
  C   C224      1.0  0.03687  0.13117  0.91296  1.0000
  C   C225      1.0  0.19031  0.02280  0.66880  1.0000
  H   H178      1.0  0.26298  0.37155  0.99569  1.0000
  C   C226      1.0  0.12223  0.43969  0.61276  1.0000
  H   H179      1.0  0.29710  0.39383  0.83696  1.0000
  H   H180      1.0  0.20348  0.16990  0.77644  1.0000
  H   H181      1.0  0.22571  0.42586  0.90419  1.0000
  H   H182      1.0  0.05281  0.31687  0.91111  1.0000
  H   H183      1.0  0.25929  0.24525  0.85660  1.0000
  H   H184      1.0  0.29171  0.17969  0.72908  1.0000
  C   C227      1.0  0.21909  0.16620  0.75368  1.0000
  H   H185      1.0  0.10474  0.27737  0.99020  1.0000
  H   H186      1.0  0.27482  0.14891  0.67380  1.0000
  H   H187      1.0  0.22326  0.19158  0.86443  1.0000
  H   H188      1.0  0.18504  0.29677  0.82512  1.0000
  C   C228      1.0  0.25785  0.08112  0.80398  1.0000
  H   H189      1.0  0.20733  0.21739  0.00803  1.0000
  H   H190      1.0  0.04525  0.46624  0.63739  1.0000
  H   H191      1.0  0.32079  0.45838  0.70013  1.0000
  C   C229      1.0  0.02283  0.24121  0.82234  1.0000
  H   H192      1.0  0.20593  0.27940  0.58407  1.0000
  C   C230      1.0  0.28362  0.45302  0.73894  1.0000
  H   H193      1.0  0.15986  0.10262  0.57524  1.0000
  C   C231      1.0  0.12910  0.23756  0.99555  1.0000
  H   H194      1.0  0.23702  0.17412  0.99098  1.0000
  C   C232      1.0  0.26931  0.04737  0.86921  1.0000
  H   H195      1.0  0.04987  0.36437  0.77541  1.0000
  C   C233      1.0  0.10153  0.41081  0.99202  1.0000
  C   C234      1.0  0.06208  0.18227  0.76129  1.0000
  H   H196      1.0  0.08240  0.34572  0.03631  1.0000
  Fe  Fe19      1.0  0.15805  0.04264  0.78149  1.0000
  C   C235      1.0  0.23922  0.08256  0.83552  1.0000
  H   H197      1.0  0.30020  0.36889  0.73556  1.0000
  C   C236      1.0  0.28851  0.04690  0.83797  1.0000
  C   C237      1.0  0.06183  0.36815  0.80206  1.0000
  C   C238      1.0  0.28596  0.13544  0.86818  1.0000
  H   H198      1.0  0.23072  0.06785  0.89258  1.0000
  H   H199      1.0  0.25675  0.42319  0.96178  1.0000
  S   S38       1.0  0.17441  0.48229  0.76123  1.0000
  H   H200      1.0  0.20703  0.22305  0.75558  1.0000
  H   H201      1.0  0.30046  0.15398  0.81488  1.0000
  C   C239      1.0  0.29533  0.22078  0.78964  1.0000
  H   H202      1.0  0.27433  0.47462  0.97342  1.0000
  C   C240      1.0  0.05675  0.49219  0.76694  1.0000
  C   C241      1.0  0.24225  0.15620  0.89557  1.0000
  H   H203      1.0  0.32771  0.27207  0.72967  1.0000
  H   H204      1.0  0.07186  0.08049  0.85928  1.0000
  C   C242      1.0  0.23934  0.18417  0.01902  1.0000
  C   C243      1.0  0.08455  0.15160  0.89125  1.0000
  C   C244      1.0  0.23508  0.23032  0.80585  1.0000
  C   C245      1.0  0.05818  0.15501  0.91154  1.0000
  C   C246      1.0  0.28926  0.05531  0.94667  1.0000
  C   C247      1.0  0.11902  0.46602  0.63324  1.0000
  C   C248      1.0  0.04177  0.17923  0.73100  1.0000
  C   C249      1.0  0.04204  0.10428  0.89456  1.0000
  H   H205      1.0  0.18663  0.14082  0.71971  1.0000
  P   P9        1.0  0.03963  0.37956  0.91361  1.0000
  C   C250      1.0  0.05912  0.23221  0.87196  1.0000
  H   H206      1.0  0.10090  0.16998  0.88869  1.0000
  C   C251      1.0  0.26497  0.13611  0.89731  1.0000
  C   C252      1.0  0.30654  0.44297  0.71594  1.0000
  C   C253      1.0  0.19350  0.26016  0.78800  1.0000
  C   C254      1.0  0.19922  0.27850  0.81963  1.0000
  C   C255      1.0  0.31721  0.22175  0.81853  1.0000
  H   H207      1.0  0.22742  0.28730  0.86883  1.0000
  C   C256      1.0  0.05539  0.49958  0.91762  1.0000
  H   H208      1.0  0.30736  0.34276  0.00350  1.0000
  C   C257      1.0  0.18809  0.02268  0.62911  1.0000
  C   C258      1.0  0.10495  0.25379  0.98368  1.0000
  C   C259      1.0  0.34577  0.31905  0.98885  1.0000
  H   H209      1.0  0.17485  0.26433  0.76932  1.0000
  H   H210      1.0  0.02178  0.36830  0.83489  1.0000
  C   C260      1.0  0.03925  0.21135  0.88883  1.0000
  C   C261      1.0  0.29938  0.23890  0.75742  1.0000
  C   C262      1.0  0.04592  0.37058  0.83588  1.0000
  H   H211      1.0  0.24226  0.45536  0.02588  1.0000
  P   P10       1.0  0.27736  0.49235  0.74339  1.0000
  C   C263      1.0  0.21154  0.23634  0.78080  1.0000
  H   H212      1.0  0.27190  0.15378  0.03822  1.0000
  H   H213      1.0  0.33086  0.40538  0.69791  1.0000
  H   H214      1.0  0.04721  0.18905  0.70366  1.0000
  C   C264      1.0  0.27772  0.05556  0.98377  1.0000
  C   C265      1.0  0.06093  0.37681  0.87045  1.0000
  H   H215      1.0  0.22037  0.09681  0.83493  1.0000
  C   C266      1.0  0.10127  0.38841  0.01950  1.0000
  H   H216      1.0  0.22207  0.12974  0.66884  1.0000
  C   C267      1.0  0.05085  0.24728  0.83901  1.0000
  H   H217      1.0  0.25793  0.38586  0.77360  1.0000
  H   H218      1.0  0.01610  0.10260  0.72434  1.0000
  H   H219      1.0  0.31403  0.20947  0.84481  1.0000
  H   H220      1.0  0.22574  0.15651  0.91778  1.0000
  H   H221      1.0  0.13214  0.37894  0.83762  1.0000
  C   C268      1.0  0.24087  0.17609  0.86521  1.0000
  C   C269      1.0  0.29507  0.39219  0.73567  1.0000
  H   H222      1.0  0.11619  0.39034  0.04392  1.0000
  H   H223      1.0  0.33714  0.28336  0.61512  1.0000
  H   H224      1.0  0.13319  0.42134  0.62594  1.0000
  H   H225      1.0  0.25317  0.09395  0.77872  1.0000
  C   C270      1.0  0.06829  0.10112  0.87431  1.0000
  C   C271      1.0  0.08959  0.12472  0.87286  1.0000
  C   C272      1.0  0.04627  0.42578  0.66909  1.0000
  C   C273      1.0  0.25410  0.47686  0.02863  1.0000
  C   C274      1.0  0.24837  0.17853  0.75577  1.0000
  C   C275      1.0  0.22289  0.27300  0.84432  1.0000
  C   C276      1.0  0.06354  0.38270  0.95532  1.0000
  C   C277      1.0  0.32510  0.25746  0.75398  1.0000
  H   H226      1.0  0.26626  0.12119  0.92128  1.0000
  H   H227      1.0  0.10981  0.12240  0.85685  1.0000
  H   H228      1.0  0.28209  0.23948  0.73573  1.0000
  H   H229      1.0  0.31984  0.46352  0.93845  1.0000
  C   C278      1.0  0.22268  0.20855  0.02864  1.0000
  H   H230      1.0  0.34356  0.03496  0.91237  1.0000
  H   H231      1.0  0.04069  0.38562  0.70208  1.0000
  C   C279      1.0  0.34469  0.43598  0.97682  1.0000
  H   H232      1.0  0.32825  0.39017  0.89442  1.0000
  C   C280      1.0  0.22624  0.22188  0.06459  1.0000
  C   C281      1.0  0.07363  0.49326  0.88688  1.0000
  H   H233      1.0  0.04314  0.26461  0.59438  1.0000
  C   C282      1.0  0.27314  0.48609  0.82230  1.0000
  C   C283      1.0  0.09388  0.48714  0.57906  1.0000
  H   H234      1.0  0.26206  0.27246  0.07349  1.0000
  C   C284      1.0  0.03191  0.44917  0.65177  1.0000
  H   H235      1.0  0.26146  0.03874  0.99298  1.0000
  P   P11       1.0  0.27734  0.02704  0.91213  1.0000
  C   C285      1.0  0.32886  0.34439  0.98999  1.0000
  H   H236      1.0  0.27026  0.48109  0.88307  1.0000
  C   C286      1.0  0.33945  0.37100  0.97290  1.0000
  H   H237      1.0  0.02090  0.27064  0.91219  1.0000
  H   H238      1.0  0.04108  0.15331  0.99687  1.0000
  C   C287      1.0  0.03805  0.02595  0.77138  1.0000
  H   H239      1.0  0.02421  0.14190  0.82818  1.0000
  C   C288      1.0  0.34684  0.25814  0.78276  1.0000
  C   C289      1.0  0.34298  0.24004  0.81474  1.0000
  H   H240      1.0  0.34136  0.24988  0.91821  1.0000
  H   H241      1.0  0.02291  0.51112  0.68641  1.0000
  C   C290      1.0  0.01818  0.43162  0.88160  1.0000
  C   C291      1.0  0.01585  0.34602  0.91447  1.0000
  C   C292      1.0  0.11125  0.43704  0.57537  1.0000
  H   H242      1.0  0.25715  0.32643  0.06971  1.0000
  C   C293      1.0  0.23635  0.50906  0.86124  1.0000
  C   C294      1.0  0.01710  0.45451  0.77674  1.0000
  C   C295      1.0  0.02037  0.18784  0.96465  1.0000
  H   H243      1.0  0.10205  0.51007  0.63193  1.0000
  C   C296      1.0  0.02209  0.16720  0.99442  1.0000
  C   C297      1.0  0.33922  0.46215  0.95682  1.0000
  H   H244      1.0  0.01596  0.13345  0.92738  1.0000
  H   H245      1.0  0.01637  0.25300  0.79693  1.0000
  Fe  Fe20      1.0  0.21320  0.87264  0.27183  1.0000
  S   S39       1.0  0.19182  0.83511  0.30514  1.0000
  S   S40       1.0  0.25438  0.90073  0.28897  1.0000
  Fe  Fe21      1.0  0.16643  0.86676  0.20785  1.0000
  S   S41       1.0  0.14080  0.82899  0.23631  1.0000
  S   S42       1.0  0.15580  0.88577  0.14993  1.0000
  Fe  Fe22      1.0  0.14843  0.85536  0.29042  1.0000
  S   S43       1.0  0.11755  0.86054  0.34030  1.0000
  Fe  Fe23      1.0  0.18625  0.81230  0.24859  1.0000
  S   S44       1.0  0.19547  0.76435  0.24004  1.0000
  S   S45       1.0  0.17019  0.89479  0.26105  1.0000
  S   S46       1.0  0.21114  0.84790  0.21624  1.0000
  Fe  Fe24      1.0  0.07357  0.63164  0.44395  1.0000
  S   S47       1.0  0.10416  0.60541  0.40841  1.0000
  S   S48       1.0  0.08337  0.64763  0.50402  1.0000
  H   H246      1.0  0.12155  0.54110  0.44416  1.0000
  S   S49       1.0  0.05392  0.60924  0.33884  1.0000
  C   C298      1.0  0.10359  0.76906  0.41924  1.0000
  Fe  Fe25      1.0  0.06220  0.58001  0.38935  1.0000
  P   P12       1.0  0.04754  0.75455  0.44984  1.0000
  Fe  Fe26      1.0  0.09344  0.63682  0.36138  1.0000
  S   S50       1.0  0.12849  0.66158  0.32630  1.0000
  S   S51       1.0  0.03243  0.60382  0.42906  1.0000
  S   S52       1.0  0.06563  0.66519  0.39837  1.0000
  H   H247      1.0  0.08193  0.81174  0.46280  1.0000
  Fe  Fe27      1.0  0.29318  0.62381  0.28404  1.0000
  H   H248      1.0  0.33640  0.55654  0.44450  1.0000
  S   S53       1.0  0.24882  0.59828  0.29084  1.0000
  H   H249      1.0  0.12943  0.52107  0.37977  1.0000
  C   C299      1.0  0.32103  0.00070  0.34541  1.0000
  S   S54       1.0  0.30649  0.65140  0.23327  1.0000
  S   S55       1.0  0.32871  0.73135  0.26971  1.0000
  H   H250      1.0  0.07359  0.85454  0.50421  1.0000
  C   C300      1.0  0.10974  0.59544  0.52231  1.0000
  H   H251      1.0  0.10700  0.58938  0.49263  1.0000
  C   C301      1.0  0.16181  0.64384  0.31615  1.0000
  C   C302      1.0  0.18691  0.66083  0.30376  1.0000
  C   C303      1.0  0.21391  0.64729  0.29636  1.0000
  C   C304      1.0  0.21557  0.61649  0.29977  1.0000
  C   C305      1.0  0.19005  0.59939  0.31015  1.0000
  C   C306      1.0  0.16348  0.61300  0.31932  1.0000
  H   H252      1.0  0.18569  0.68464  0.30070  1.0000
  H   H253      1.0  0.23334  0.66063  0.28788  1.0000
  H   H254      1.0  0.19094  0.57550  0.31114  1.0000
  H   H255      1.0  0.14415  0.59958  0.32812  1.0000
  C   C307      1.0  0.04993  0.53836  0.48778  1.0000
  C   C308      1.0  0.32655  0.95907  0.42854  1.0000
  H   H256      1.0  0.03096  0.98068  0.38333  1.0000
  C   C309      1.0  0.15759  0.86007  0.11212  1.0000
  C   C310      1.0  0.01832  0.78567  0.50619  1.0000
  H   H257      1.0  0.32858  0.60993  0.45628  1.0000
  C   C311      1.0  0.15920  0.82973  0.11959  1.0000
  C   C312      1.0  0.13606  0.97587  0.30591  1.0000
  C   C313      1.0  0.28060  0.60460  0.45385  1.0000
  H   H258      1.0  0.16071  0.82202  0.14869  1.0000
  C   C314      1.0  0.23264  0.75609  0.24875  1.0000
  C   C315      1.0  0.25545  0.77842  0.24985  1.0000
  C   C316      1.0  0.28510  0.77088  0.25626  1.0000
  C   C317      1.0  0.29178  0.74113  0.26213  1.0000
  C   C318      1.0  0.26886  0.71903  0.26162  1.0000
  C   C319      1.0  0.23943  0.72644  0.25447  1.0000
  H   H259      1.0  0.25033  0.80142  0.24563  1.0000
  H   H260      1.0  0.30273  0.78808  0.25700  1.0000
  H   H261      1.0  0.27368  0.69621  0.26718  1.0000
  H   H262      1.0  0.22180  0.70925  0.25410  1.0000
  H   H263      1.0  0.19270  0.65639  0.56291  1.0000
  C   C320      1.0  0.02936  0.86479  0.35969  1.0000
  C   C321      1.0  0.06037  0.86424  0.36447  1.0000
  C   C322      1.0  0.07884  0.86092  0.33291  1.0000
  C   C323      1.0  0.06616  0.85789  0.29647  1.0000
  C   C324      1.0  0.03506  0.85822  0.29171  1.0000
  C   C325      1.0  0.32036  0.93426  0.45161  1.0000
  H   H264      1.0  0.07013  0.86638  0.39270  1.0000
  H   H265      1.0  0.08033  0.85529  0.27204  1.0000
  C   C326      1.0  0.32204  0.89245  0.36503  1.0000
  C   C327      1.0  0.27743  0.88660  0.32495  1.0000
  C   C328      1.0  0.30262  0.90364  0.33745  1.0000
  H   H266      1.0  0.22244  0.60979  0.11729  1.0000
  C   C329      1.0  0.02746  0.91286  0.47879  1.0000
  C   C330      1.0  0.28968  0.84816  0.37014  1.0000
  C   C331      1.0  0.27112  0.85873  0.34125  1.0000
  H   H267      1.0  0.30693  0.92561  0.32591  1.0000
  H   H268      1.0  0.29220  0.74806  0.16588  1.0000
  H   H269      1.0  0.28434  0.82682  0.38310  1.0000
  H   H270      1.0  0.25189  0.84533  0.33181  1.0000
  H   H271      1.0  0.34447  0.55878  0.35547  1.0000
  C   C332      1.0  0.24622  0.60930  0.11262  1.0000
  C   C333      1.0  0.27026  0.85859  0.16408  1.0000
  C   C334      1.0  0.31397  0.56432  0.44600  1.0000
  C   C335      1.0  0.18603  0.73689  0.10376  1.0000
  H   H272      1.0  0.25570  0.87713  0.16471  1.0000
  H   H273      1.0  0.09973  0.71154  0.08260  1.0000
  H   H274      1.0  0.03174  0.74129  0.31129  1.0000
  C   C336      1.0  0.04854  0.92752  0.45560  1.0000
  H   H275      1.0  0.29362  0.57631  0.34604  1.0000
  C   C337      1.0  0.30041  0.75161  0.10513  1.0000
  P   P13       1.0  0.27881  0.78411  0.09878  1.0000
  C   C338      1.0  0.04347  0.68809  0.20434  1.0000
  H   H276      1.0  0.06284  0.93883  0.34623  1.0000
  H   H277      1.0  0.04999  0.99615  0.49620  1.0000
  C   C339      1.0  0.30763  0.60824  0.10070  1.0000
  C   C340      1.0  0.08681  0.74926  0.44241  1.0000
  H   H278      1.0  0.20820  0.93312  0.15513  1.0000
  H   H279      1.0  0.26476  0.53382  0.09180  1.0000
  C   C341      1.0  0.12089  0.95247  0.28606  1.0000
  Fe  Fe28      1.0  0.02689  0.63498  0.38003  1.0000
  H   H280      1.0  0.32838  0.83068  0.21263  1.0000
  C   C342      1.0  0.27265  0.53231  0.34553  1.0000
  S   S56       1.0  0.31307  0.65591  0.32751  1.0000
  C   C343      1.0  0.26596  0.83635  0.13634  1.0000
  C   C344      1.0  0.01664  0.86186  0.32328  1.0000
  C   C345      1.0  0.20181  0.94542  0.18013  1.0000
  H   H281      1.0  0.02530  0.85588  0.26351  1.0000
  C   C346      1.0  0.02229  0.95833  0.51540  1.0000
  H   H282      1.0  0.18992  0.66595  0.07878  1.0000
  C   C347      1.0  0.32691  0.93551  0.49057  1.0000
  H   H283      1.0  0.09313  0.78719  0.40483  1.0000
  H   H284      1.0  0.30148  0.98868  0.29087  1.0000
  C   C348      1.0  0.28792  0.59181  0.07643  1.0000
  H   H285      1.0  0.29466  0.87274  0.21468  1.0000
  H   H286      1.0  0.33148  0.60869  0.09647  1.0000
  H   H287      1.0  0.08871  0.70897  0.47619  1.0000
  C   C349      1.0  0.24110  0.76879  0.10002  1.0000
  C   C350      1.0  0.13419  0.76578  0.41469  1.0000
  H   H288      1.0  0.04801  0.69432  0.17523  1.0000
  P   P14       1.0  0.17074  0.99271  0.28865  1.0000
  H   H289      1.0  0.31215  0.63604  0.15059  1.0000
  C   C351      1.0  0.09801  0.97262  0.35480  1.0000
  Fe  Fe29      1.0  0.32953  0.68170  0.27644  1.0000
  C   C352      1.0  0.16623  0.97519  0.21259  1.0000
  C   C353      1.0  0.04309  0.78560  0.48199  1.0000
  H   H290      1.0  0.15749  0.78578  0.09565  1.0000
  C   C354      1.0  0.25708  0.59329  0.08184  1.0000
  H   H291      1.0  0.31119  0.91367  0.43914  1.0000
  C   C355      1.0  0.19775  0.98834  0.32644  1.0000
  H   H292      1.0  0.05177  0.72827  0.52534  1.0000
  C   C356      1.0  0.06485  0.69338  0.23336  1.0000
  C   C357      1.0  0.05798  0.68493  0.27088  1.0000
  P   P15       1.0  0.10111  0.71038  0.22342  1.0000
  C   C358      1.0  0.10124  0.72865  0.17753  1.0000
  C   C359      1.0  0.10859  0.73713  0.26122  1.0000
  C   C360      1.0  0.08748  0.75829  0.26941  1.0000
  C   C361      1.0  0.09329  0.77976  0.29774  1.0000
  C   C362      1.0  0.12012  0.78017  0.31814  1.0000
  C   C363      1.0  0.14073  0.75854  0.31115  1.0000
  C   C364      1.0  0.13484  0.73686  0.28311  1.0000
  C   C365      1.0  0.10261  0.75982  0.17452  1.0000
  C   C366      1.0  0.10214  0.77334  0.13872  1.0000
  C   C367      1.0  0.10094  0.75596  0.10563  1.0000
  C   C368      1.0  0.10025  0.72496  0.10830  1.0000
  C   C369      1.0  0.10060  0.71134  0.14408  1.0000
  C   C370      1.0  0.12882  0.68261  0.22086  1.0000
  C   C371      1.0  0.12163  0.65254  0.22869  1.0000
  C   C372      1.0  0.14328  0.63132  0.22532  1.0000
  C   C373      1.0  0.17219  0.63994  0.21414  1.0000
  C   C374      1.0  0.17944  0.66979  0.20604  1.0000
  C   C375      1.0  0.15782  0.69100  0.20932  1.0000
  S   S57       1.0  0.33402  0.59676  0.28145  1.0000
  C   C376      1.0  0.32667  0.71067  0.07799  1.0000
  C   C377      1.0  0.03599  0.71452  0.50879  1.0000
  C   C378      1.0  0.29670  0.62424  0.13133  1.0000
  H   H293      1.0  0.07433  0.68838  0.29364  1.0000
  H   H294      1.0  0.06683  0.75857  0.25329  1.0000
  H   H295      1.0  0.07731  0.79647  0.30349  1.0000
  H   H296      1.0  0.12507  0.79752  0.33899  1.0000
  H   H297      1.0  0.16171  0.75892  0.32667  1.0000
  H   H298      1.0  0.15117  0.72042  0.27816  1.0000
  H   H299      1.0  0.10454  0.77394  0.19947  1.0000
  H   H300      1.0  0.10332  0.79743  0.13666  1.0000
  H   H301      1.0  0.02968  0.85410  0.54673  1.0000
  C   C379      1.0  0.10017  0.62279  0.53524  1.0000
  H   H302      1.0  0.10023  0.68728  0.14577  1.0000
  H   H303      1.0  0.09969  0.64546  0.23852  1.0000
  H   H304      1.0  0.13798  0.60839  0.23303  1.0000
  H   H305      1.0  0.18925  0.62368  0.21332  1.0000
  H   H306      1.0  0.20206  0.67671  0.19855  1.0000
  H   H307      1.0  0.16384  0.71413  0.20386  1.0000
  C   C380      1.0  0.21957  0.94552  0.21300  1.0000
  S   S58       1.0  0.33786  0.85103  0.41857  1.0000
  C   C381      1.0  0.09464  0.93918  0.30069  1.0000
  H   H308      1.0  0.34106  0.67776  0.11740  1.0000
  H   H309      1.0  0.07265  0.96908  0.44424  1.0000
  C   C382      1.0  0.04361  0.97285  0.49212  1.0000
  H   H310      1.0  0.08902  0.98080  0.38115  1.0000
  C   C383      1.0  0.14267  0.54573  0.43026  1.0000
  C   C384      1.0  0.14712  0.53431  0.39385  1.0000
  C   C385      1.0  0.17388  0.54083  0.37510  1.0000
  C   C386      1.0  0.19577  0.55981  0.39211  1.0000
  C   C387      1.0  0.19144  0.57155  0.42859  1.0000
  C   C388      1.0  0.16461  0.56449  0.44754  1.0000
  P   P16       1.0  0.21856  0.59842  0.44826  1.0000
  C   C389      1.0  0.21123  0.60369  0.49824  1.0000
  C   C390      1.0  0.25589  0.58498  0.44672  1.0000
  H   H311      1.0  0.02479  0.66544  0.30830  1.0000
  C   C391      1.0  0.31536  0.86481  0.38183  1.0000
  H   H312      1.0  0.08346  0.92067  0.28571  1.0000
  H   H313      1.0  0.32191  0.95716  0.39835  1.0000
  C   C392      1.0  0.19830  0.63491  0.55171  1.0000
  C   C393      1.0  0.20508  0.63177  0.51313  1.0000
  C   C394      1.0  0.29702  0.55268  0.34841  1.0000
  C   C395      1.0  0.03388  0.83479  0.52935  1.0000
  C   C396      1.0  0.32962  0.69824  0.11412  1.0000
  C   C397      1.0  0.21147  0.57911  0.52274  1.0000
  C   C398      1.0  0.21383  0.63239  0.42193  1.0000
  C   C399      1.0  0.18597  0.64534  0.42213  1.0000
  C   C400      1.0  0.18195  0.67211  0.40310  1.0000
  C   C401      1.0  0.20569  0.68625  0.38388  1.0000
  C   C402      1.0  0.23310  0.67288  0.38211  1.0000
  C   C403      1.0  0.23701  0.64573  0.40037  1.0000
  C   C404      1.0  0.01397  0.81001  0.53000  1.0000
  C   C405      1.0  0.03004  0.67177  0.27928  1.0000
  H   H314      1.0  0.17713  0.53202  0.34675  1.0000
  H   H315      1.0  0.21568  0.56616  0.37637  1.0000
  H   H316      1.0  0.16005  0.57423  0.47495  1.0000
  H   H317      1.0  0.27754  0.62790  0.45986  1.0000
  C   C406      1.0  0.22603  0.76615  0.13477  1.0000
  H   H318      1.0  0.05453  0.72996  0.37337  1.0000
  H   H319      1.0  0.14545  0.98647  0.21207  1.0000
  H   H320      1.0  0.20524  0.65127  0.49522  1.0000
  H   H321      1.0  0.05903  0.56084  0.48388  1.0000
  C   C407      1.0  0.29237  0.85625  0.19203  1.0000
  H   H322      1.0  0.21610  0.55727  0.51182  1.0000
  H   H323      1.0  0.16725  0.63463  0.43676  1.0000
  H   H324      1.0  0.16008  0.68127  0.40192  1.0000
  H   H325      1.0  0.20233  0.70664  0.36837  1.0000
  H   H326      1.0  0.25786  0.63512  0.39664  1.0000
  C   C408      1.0  0.05844  0.83508  0.50523  1.0000
  C   C409      1.0  0.19849  0.75042  0.13646  1.0000
  H   H327      1.0  0.17170  0.73948  0.42814  1.0000
  C   C410      1.0  0.17525  0.96040  0.17984  1.0000
  C   C411      1.0  0.31750  0.71203  0.14577  1.0000
  C   C412      1.0  0.01568  0.67453  0.21280  1.0000
  H   H328      1.0  0.23557  0.77587  0.16073  1.0000
  C   C413      1.0  0.26605  0.62457  0.13756  1.0000
  H   H329      1.0  0.13086  0.55502  0.53766  1.0000
  C   C414      1.0  0.06308  0.81061  0.48165  1.0000
  H   H330      1.0  0.16129  0.95971  0.15448  1.0000
  C   C415      1.0  0.24068  0.98013  0.38367  1.0000
  C   C416      1.0  0.28453  0.81212  0.13548  1.0000
  H   H331      1.0  0.24461  0.67413  0.08759  1.0000
  H   H332      1.0  0.25092  0.68298  0.36522  1.0000
  H   H333      1.0  0.10128  0.76660  0.07792  1.0000
  H   H334      1.0  0.18666  0.74912  0.16310  1.0000
  C   C417      1.0  0.12325  0.57606  0.54779  1.0000
  H   H335      1.0  0.22469  0.95946  0.27094  1.0000
  H   H336      1.0  0.32284  0.80070  0.33908  1.0000
  C   C418      1.0  0.32578  0.54264  0.35364  1.0000
  C   C419      1.0  0.33944  0.96169  0.50670  1.0000
  C   C420      1.0  0.05663  0.95747  0.46238  1.0000
  C   C421      1.0  0.02306  0.68881  0.52517  1.0000
  H   H337      1.0  0.32295  0.91590  0.50801  1.0000
  H   H338      1.0  0.12938  0.94394  0.25972  1.0000
  S   S59       1.0  0.06094  0.52994  0.38486  1.0000
  H   H339      1.0  0.03791  0.56168  0.56215  1.0000
  C   C422      1.0  0.08312  0.94930  0.33495  1.0000
  H   H340      1.0  0.14193  0.70316  0.46725  1.0000
  C   C423      1.0  0.28947  0.54435  0.44086  1.0000
  C   C424      1.0  0.13140  0.72184  0.45419  1.0000
  C   C425      1.0  0.10095  0.72533  0.45934  1.0000
  C   C426      1.0  0.14808  0.74216  0.43208  1.0000
  H   H341      1.0  0.22478  0.93411  0.38306  1.0000
  C   C427      1.0  0.30250  0.73835  0.14124  1.0000
  H   H342      1.0  0.31953  0.70225  0.17384  1.0000
  H   H343      1.0  0.05831  0.91580  0.43211  1.0000
  C   C428      1.0  0.18345  0.97458  0.24614  1.0000
  H   H344      1.0  0.24796  0.83798  0.11575  1.0000
  C   C429      1.0  0.21058  0.96018  0.24584  1.0000
  H   H345      1.0  0.14720  0.78153  0.39760  1.0000
  C   C430      1.0  0.22217  0.95610  0.37129  1.0000
  H   H346      1.0  0.25745  0.97687  0.40547  1.0000
  H   H347      1.0  0.23991  0.93347  0.21356  1.0000
  H   H348      1.0  0.18666  0.94126  0.33340  1.0000
  H   H349      1.0  0.32320  0.79313  0.16161  1.0000
  C   C431      1.0  0.20059  0.96022  0.34304  1.0000
  C   C432      1.0  0.31124  0.83246  0.19101  1.0000
  H   H350      1.0  0.25064  0.54016  0.33975  1.0000
  H   H351      1.0  0.16451  0.72513  0.10519  1.0000
  H   H352      1.0  0.34171  0.90553  0.37406  1.0000
  C   C433      1.0  0.15757  0.80914  0.08948  1.0000
  C   C434      1.0  0.30780  0.81080  0.16239  1.0000
  H   H353      1.0  0.25777  0.63667  0.16175  1.0000
  H   H354      1.0  0.02916  0.68263  0.55389  1.0000
  C   C435      1.0  0.34625  0.92484  0.22838  1.0000
  H   H355      1.0  0.33345  0.94407  0.22199  1.0000
  H   H356      1.0  0.34152  0.82828  0.28311  1.0000
  C   C436      1.0  0.21668  0.01226  0.33868  1.0000
  C   C437      1.0  0.12464  0.98545  0.34076  1.0000
  C   C438      1.0  0.33890  0.98561  0.44451  1.0000
  C   C439      1.0  0.06896  0.51532  0.49499  1.0000
  C   C440      1.0  0.20494  0.58241  0.56131  1.0000
  C   C441      1.0  0.30953  0.59442  0.45258  1.0000
  H   H357      1.0  0.33747  0.55092  0.10275  1.0000
  H   H358      1.0  0.13624  0.00306  0.35699  1.0000
  H   H359      1.0  0.34507  0.96240  0.53680  1.0000
  C   C442      1.0  0.26052  0.55460  0.44107  1.0000
  C   C443      1.0  0.03068  0.76292  0.40445  1.0000
  H   H360      1.0  0.24193  0.53873  0.43680  1.0000
  C   C444      1.0  0.03841  0.74711  0.37169  1.0000
  C   C445      1.0  0.01923  0.53231  0.48476  1.0000
  C   C446      1.0  0.02552  0.75350  0.33641  1.0000
  C   C447      1.0  0.02972  0.72166  0.47069  1.0000
  C   C448      1.0  0.02536  0.51251  0.39082  1.0000
  C   C449      1.0  0.34516  0.98672  0.48388  1.0000
  C   C450      1.0  0.32169  0.99595  0.30604  1.0000
  C   C451      1.0  0.01422  0.92823  0.50837  1.0000
  H   H361      1.0  0.02080  0.88973  0.47336  1.0000
  H   H362      1.0  0.09273  0.52035  0.49719  1.0000
  C   C452      1.0  0.23789  0.00820  0.36737  1.0000
  H   H363      1.0  0.01533  0.86715  0.38423  1.0000
  H   H364      1.0  0.30019  0.99723  0.36018  1.0000
  C   C453      1.0  0.34660  0.80512  0.33577  1.0000
  H   H365      1.0  0.29296  0.52101  0.43565  1.0000
  C   C454      1.0  0.10414  0.63066  0.57373  1.0000
  C   C455      1.0  0.15591  0.86974  0.07418  1.0000
  H   H366      1.0  0.15258  0.85655  0.01489  1.0000
  C   C456      1.0  0.32318  0.95203  0.89046  1.0000
  S   S60       1.0  0.30762  0.70804  0.97275  1.0000
  Fe  Fe30      1.0  0.20233  0.81682  0.89632  1.0000
  S   S61       1.0  0.17797  0.77515  0.91570  1.0000
  S   S62       1.0  0.25234  0.81747  0.89124  1.0000
  Fe  Fe31      1.0  0.14579  0.85106  0.89077  1.0000
  S   S63       1.0  0.11762  0.81188  0.91171  1.0000
  S   S64       1.0  0.11963  0.89098  0.87432  1.0000
  Fe  Fe32      1.0  0.15447  0.80611  0.95426  1.0000
  S   S65       1.0  0.14942  0.79134  0.01549  1.0000
  Fe  Fe33      1.0  0.14406  0.78495  0.87121  1.0000
  S   S66       1.0  0.11978  0.75114  0.83246  1.0000
  S   S67       1.0  0.18057  0.84749  0.93703  1.0000
  S   S68       1.0  0.17026  0.82446  0.84792  1.0000
  Fe  Fe34      1.0  0.15317  0.59394  0.75713  1.0000
  S   S69       1.0  0.17862  0.56328  0.72014  1.0000
  S   S70       1.0  0.17987  0.63144  0.78646  1.0000
  Fe  Fe35      1.0  0.09566  0.55786  0.74617  1.0000
  H   H367      1.0  0.09227  0.81443  0.03367  1.0000
  C   C457      1.0  0.02800  0.63090  0.77694  1.0000
  S   S71       1.0  0.18562  0.00398  0.79948  1.0000
  C   C458      1.0  0.23557  0.87824  0.61252  1.0000
  Fe  Fe36      1.0  0.13907  0.56418  0.68078  1.0000
  S   S72       1.0  0.14440  0.55923  0.61722  1.0000
  S   S73       1.0  0.13145  0.55658  0.79096  1.0000
  S   S74       1.0  0.11527  0.59780  0.71523  1.0000
  C   C459      1.0  0.13842  0.92248  0.85447  1.0000
  C   C460      1.0  0.12179  0.94568  0.84010  1.0000
  C   C461      1.0  0.13611  0.97081  0.82343  1.0000
  C   C462      1.0  0.16716  0.97292  0.82099  1.0000
  C   C463      1.0  0.18383  0.94991  0.83595  1.0000
  C   C464      1.0  0.16952  0.92473  0.85252  1.0000
  H   H368      1.0  0.09772  0.94416  0.84160  1.0000
  H   H369      1.0  0.12313  0.98850  0.81233  1.0000
  H   H370      1.0  0.20788  0.95171  0.83544  1.0000
  H   H371      1.0  0.18254  0.90708  0.86384  1.0000
  C   C465      1.0  0.13683  0.71819  0.81932  1.0000
  C   C466      1.0  0.12052  0.69645  0.79792  1.0000
  C   C467      1.0  0.13350  0.66977  0.78741  1.0000
  C   C468      1.0  0.16287  0.66481  0.79810  1.0000
  C   C469      1.0  0.17925  0.68680  0.81877  1.0000
  C   C470      1.0  0.16626  0.71328  0.82976  1.0000
  H   H372      1.0  0.09782  0.70031  0.78939  1.0000
  H   H373      1.0  0.12106  0.65319  0.77061  1.0000
  H   H374      1.0  0.20215  0.68335  0.82603  1.0000
  H   H375      1.0  0.17910  0.73002  0.84589  1.0000
  C   C471      1.0  0.04937  0.97362  0.77054  1.0000
  C   C472      1.0  0.03701  0.97926  0.66501  1.0000
  C   C473      1.0  0.02413  0.98720  0.63033  1.0000
  H   H376      1.0  0.06530  0.95645  0.77364  1.0000
  C   C474      1.0  0.19817  0.61023  0.57576  1.0000
  C   C475      1.0  0.29400  0.74083  0.95401  1.0000
  C   C476      1.0  0.31139  0.75893  0.92985  1.0000
  C   C477      1.0  0.29885  0.78317  0.91159  1.0000
  C   C478      1.0  0.26913  0.78972  0.91820  1.0000
  C   C479      1.0  0.25278  0.77312  0.94513  1.0000
  C   C480      1.0  0.26493  0.74832  0.96233  1.0000
  H   H377      1.0  0.33418  0.75369  0.92430  1.0000
  H   H378      1.0  0.31207  0.79646  0.89190  1.0000
  H   H379      1.0  0.23078  0.77929  0.95273  1.0000
  H   H380      1.0  0.25160  0.73456  0.98145  1.0000
  H   H381      1.0  0.21754  0.95610  0.61055  1.0000
  H   H382      1.0  0.24045  0.81587  0.04554  1.0000
  H   H383      1.0  0.04736  0.91786  0.85945  1.0000
  C   C481      1.0  0.11752  0.61123  0.59927  1.0000
  C   C482      1.0  0.12701  0.58386  0.58632  1.0000
  H   H384      1.0  0.30874  0.74544  0.04481  1.0000
  P   P17       1.0  0.30177  0.56981  0.03782  1.0000
  H   H385      1.0  0.12065  0.61750  0.62886  1.0000
  C   C483      1.0  0.04745  0.84858  0.78874  1.0000
  C   C484      1.0  0.02817  0.60139  0.84732  1.0000
  C   C485      1.0  0.07944  0.85989  0.03482  1.0000
  H   H386      1.0  0.27747  0.96340  0.89195  1.0000
  C   C486      1.0  0.06160  0.88101  0.01825  1.0000
  C   C487      1.0  0.04651  0.54599  0.65603  1.0000
  H   H387      1.0  0.05088  0.68162  0.95178  1.0000
  H   H388      1.0  0.05849  0.79973  0.98051  1.0000
  H   H389      1.0  0.04910  0.80857  0.61271  1.0000
  H   H390      1.0  0.17903  0.95176  0.96046  1.0000
  H   H391      1.0  0.06692  0.57878  0.61899  1.0000
  C   C488      1.0  0.31129  0.63123  0.95331  1.0000
  H   H392      1.0  0.31638  0.52527  0.79893  1.0000
  H   H393      1.0  0.29466  0.87593  0.86936  1.0000
  H   H394      1.0  0.22760  0.52802  0.76837  1.0000
  C   C489      1.0  0.01953  0.96591  0.76155  1.0000
  C   C490      1.0  0.26879  0.83194  0.00058  1.0000
  C   C491      1.0  0.29762  0.83362  0.98590  1.0000
  C   C492      1.0  0.30035  0.97181  0.89507  1.0000
  C   C493      1.0  0.05648  0.65846  0.95107  1.0000
  C   C494      1.0  0.01932  0.77166  0.92386  1.0000
  C   C495      1.0  0.19747  0.96652  0.95166  1.0000
  H   H395      1.0  0.06895  0.55767  0.83749  1.0000
  H   H396      1.0  0.29260  0.63017  0.89691  1.0000
  H   H397      1.0  0.20067  0.90485  0.63335  1.0000
  C   C496      1.0  0.34104  0.56353  0.04340  1.0000
  C   C497      1.0  0.20965  0.97425  0.62729  1.0000
  C   C498      1.0  0.08713  0.61891  0.97267  1.0000
  H   H398      1.0  0.01801  0.75276  0.79545  1.0000
  H   H399      1.0  0.05583  0.73369  0.85599  1.0000
  C   C499      1.0  0.05430  0.78126  0.85947  1.0000
  H   H400      1.0  0.05471  0.87610  0.90314  1.0000
  C   C500      1.0  0.06502  0.54176  0.86014  1.0000
  C   C501      1.0  0.07975  0.64874  0.97385  1.0000
  C   C502      1.0  0.07112  0.59872  0.94891  1.0000
  C   C503      1.0  0.15483  0.84900  0.04394  1.0000
  H   H401      1.0  0.25075  0.84160  0.98484  1.0000
  H   H402      1.0  0.26258  0.97894  0.81915  1.0000
  H   H403      1.0  0.19538  0.73720  0.76502  1.0000
  H   H404      1.0  0.07744  0.57581  0.94820  1.0000
  H   H405      1.0  0.22637  0.51246  0.88876  1.0000
  H   H406      1.0  0.05798  0.94483  0.69650  1.0000
  H   H407      1.0  0.34307  0.82166  0.99388  1.0000
  C   C504      1.0  0.24832  0.98602  0.96006  1.0000
  C   C505      1.0  0.28385  0.88626  0.64285  1.0000
  C   C506      1.0  0.25301  0.53016  0.68948  1.0000
  H   H408      1.0  0.23999  0.75641  0.04040  1.0000
  C   C507      1.0  0.31271  0.61691  0.98843  1.0000
  C   C508      1.0  0.22406  0.90017  0.63582  1.0000
  C   C509      1.0  0.29564  0.59051  0.99473  1.0000
  H   H409      1.0  0.06846  0.78494  0.83506  1.0000
  C   C510      1.0  0.02398  0.79389  0.66173  1.0000
  C   C511      1.0  0.29242  0.61968  0.92458  1.0000
  C   C512      1.0  0.04384  0.80552  0.87936  1.0000
  C   C513      1.0  0.03480  0.93901  0.60399  1.0000
  C   C514      1.0  0.22840  0.75521  0.06726  1.0000
  Fe  Fe37      1.0  0.15361  0.52622  0.75033  1.0000
  H   H410      1.0  0.09228  0.66443  0.99203  1.0000
  C   C515      1.0  0.32605  0.52754  0.77102  1.0000
  H   H411      1.0  0.33350  0.79627  0.05518  1.0000
  H   H412      1.0  0.33304  0.73569  0.85963  1.0000
  H   H413      1.0  0.30705  0.88085  0.64581  1.0000
  H   H414      1.0  0.03774  0.99472  0.68880  1.0000
  H   H415      1.0  0.10538  0.61143  0.99001  1.0000
  H   H416      1.0  0.05590  0.90910  0.64263  1.0000
  H   H417      1.0  0.06087  0.86598  0.80317  1.0000
  C   C516      1.0  0.04081  0.76103  0.61243  1.0000
  H   H418      1.0  0.28939  0.74477  0.74384  1.0000
  H   H419      1.0  0.30486  0.82804  0.84000  1.0000
  H   H420      1.0  0.28723  0.78068  0.68565  1.0000
  H   H421      1.0  0.05931  0.55358  0.68079  1.0000
  C   C517      1.0  0.04330  0.80080  0.75647  1.0000
  C   C518      1.0  0.06070  0.82324  0.77494  1.0000
  C   C519      1.0  0.30715  0.00192  0.90402  1.0000
  S   S75       1.0  0.04724  0.55197  0.76052  1.0000
  H   H422      1.0  0.17362  0.98341  0.90353  1.0000
  H   H423      1.0  0.01464  0.00880  0.62797  1.0000
  H   H424      1.0  0.20554  0.53599  0.83096  1.0000
  H   H425      1.0  0.24214  0.71420  0.74653  1.0000
  C   C520      1.0  0.04076  0.84348  0.97429  1.0000
  C   C521      1.0  0.04073  0.63845  0.92688  1.0000
  C   C522      1.0  0.28370  0.53307  0.03514  1.0000
  H   H426      1.0  0.02318  0.64647  0.90870  1.0000
  C   C523      1.0  0.05861  0.00371  0.77550  1.0000
  C   C524      1.0  0.20439  0.66591  0.05426  1.0000
  C   C525      1.0  0.26661  0.52149  0.06545  1.0000
  C   C526      1.0  0.31664  0.80126  0.64495  1.0000
  H   H427      1.0  0.19631  0.99854  0.57752  1.0000
  H   H428      1.0  0.24146  0.58171  0.06262  1.0000
  C   C527      1.0  0.26300  0.81693  0.03475  1.0000
  H   H429      1.0  0.05392  0.78129  0.74596  1.0000
  H   H430      1.0  0.08445  0.82090  0.77888  1.0000
  C   C528      1.0  0.03892  0.78965  0.62751  1.0000
  H   H431      1.0  0.32539  0.65095  0.94795  1.0000
  H   H432      1.0  0.09689  0.65187  0.58379  1.0000
  C   C529      1.0  0.03224  0.88081  0.89412  1.0000
  C   C530      1.0  0.01685  0.85157  0.78380  1.0000
  H   H433      1.0  0.26004  0.56117  0.97165  1.0000
  C   C531      1.0  0.32082  0.82063  0.00562  1.0000
  C   C532      1.0  0.31520  0.80591  0.04005  1.0000
  C   C533      1.0  0.05330  0.61872  0.83575  1.0000
  H   H434      1.0  0.30146  0.52334  0.97951  1.0000
  H   H435      1.0  0.16837  0.65892  0.01400  1.0000
  C   C534      1.0  0.25391  0.67014  0.02785  1.0000
  H   H436      1.0  0.22548  0.95625  0.77466  1.0000
  C   C535      1.0  0.27484  0.58039  0.96684  1.0000
  C   C536      1.0  0.27359  0.59472  0.93161  1.0000
  H   H437      1.0  0.19583  0.79063  0.78205  1.0000
  C   C537      1.0  0.18166  0.56840  0.94785  1.0000
  C   C538      1.0  0.17571  0.55951  0.91023  1.0000
  C   C539      1.0  0.17600  0.58073  0.88129  1.0000
  C   C540      1.0  0.18199  0.61076  0.88985  1.0000
  C   C541      1.0  0.18794  0.62001  0.92747  1.0000
  C   C542      1.0  0.18773  0.59853  0.95652  1.0000
  P   P18       1.0  0.19531  0.65914  0.93805  1.0000
  C   C543      1.0  0.21096  0.66300  0.98561  1.0000
  C   C544      1.0  0.22148  0.67584  0.90450  1.0000
  C   C545      1.0  0.23927  0.65827  0.88167  1.0000
  C   C546      1.0  0.25898  0.67155  0.85540  1.0000
  C   C547      1.0  0.26113  0.70247  0.85174  1.0000
  C   C548      1.0  0.24356  0.72012  0.87430  1.0000
  C   C549      1.0  0.22408  0.70691  0.90086  1.0000
  C   C550      1.0  0.24189  0.66641  0.99113  1.0000
  H   H438      1.0  0.28615  0.97183  0.68167  1.0000
  H   H439      1.0  0.03389  0.92295  0.58102  1.0000
  C   C551      1.0  0.19444  0.98435  0.91952  1.0000
  C   C552      1.0  0.23267  0.53735  0.66087  1.0000
  C   C553      1.0  0.16136  0.67925  0.93453  1.0000
  C   C554      1.0  0.15763  0.70450  0.95743  1.0000
  C   C555      1.0  0.13233  0.72119  0.95321  1.0000
  C   C556      1.0  0.11102  0.71350  0.92528  1.0000
  C   C557      1.0  0.11450  0.68855  0.90228  1.0000
  C   C558      1.0  0.13945  0.67142  0.90691  1.0000
  H   H440      1.0  0.18147  0.55193  0.97031  1.0000
  H   H441      1.0  0.30690  0.78870  0.62116  1.0000
  H   H442      1.0  0.17160  0.57412  0.85203  1.0000
  H   H443      1.0  0.18227  0.62679  0.86691  1.0000
  H   H444      1.0  0.19233  0.60481  0.98581  1.0000
  H   H445      1.0  0.23786  0.63433  0.88368  1.0000
  H   H446      1.0  0.27227  0.65783  0.83745  1.0000
  H   H447      1.0  0.27616  0.71274  0.83121  1.0000
  H   H448      1.0  0.24494  0.74410  0.87115  1.0000
  H   H449      1.0  0.21099  0.72102  0.91837  1.0000
  H   H450      1.0  0.25682  0.66671  0.96709  1.0000
  H   H451      1.0  0.33564  0.69976  0.05336  1.0000
  H   H452      1.0  0.07233  0.64696  0.79205  1.0000
  C   C559      1.0  0.04163  0.52683  0.91940  1.0000
  C   C560      1.0  0.04735  0.93103  0.63891  1.0000
  H   H453      1.0  0.17477  0.71218  0.97751  1.0000
  H   H454      1.0  0.12997  0.74101  0.97034  1.0000
  H   H455      1.0  0.09234  0.72747  0.92067  1.0000
  H   H456      1.0  0.09839  0.68311  0.87984  1.0000
  H   H457      1.0  0.14193  0.65294  0.88773  1.0000
  C   C561      1.0  0.24538  0.00436  0.92800  1.0000
  C   C562      1.0  0.28735  0.51540  0.00259  1.0000
  H   H458      1.0  0.02723  0.53128  0.94313  1.0000
  C   C563      1.0  0.04856  0.95117  0.66932  1.0000
  H   H459      1.0  0.31253  0.99550  0.79588  1.0000
  C   C564      1.0  0.27242  0.90813  0.66622  1.0000
  C   C565      1.0  0.24255  0.91588  0.66224  1.0000
  C   C566      1.0  0.02328  0.96728  0.59932  1.0000
  P   P19       1.0  0.22659  0.94331  0.69295  1.0000
  C   C567      1.0  0.25367  0.96073  0.72524  1.0000
  C   C568      1.0  0.21133  0.97396  0.66730  1.0000
  C   C569      1.0  0.30228  0.98506  0.73726  1.0000
  H   H460      1.0  0.32393  0.99305  0.72719  1.0000
  H   H461      1.0  0.26947  0.54695  0.69909  1.0000
  C   C570      1.0  0.02568  0.52208  0.65910  1.0000
  C   C571      1.0  0.02770  0.73662  0.63155  1.0000
  C   C572      1.0  0.24699  0.96370  0.76398  1.0000
  C   C573      1.0  0.26799  0.97666  0.78929  1.0000
  C   C574      1.0  0.29586  0.98664  0.77605  1.0000
  C   C575      1.0  0.21839  0.00276  0.90723  1.0000
  C   C576      1.0  0.28099  0.97271  0.71172  1.0000
  C   C577      1.0  0.19857  0.92326  0.72072  1.0000
  C   C578      1.0  0.20604  0.89704  0.73945  1.0000
  C   C579      1.0  0.18527  0.88184  0.76259  1.0000
  C   C580      1.0  0.15685  0.89262  0.76711  1.0000
  C   C581      1.0  0.14918  0.91862  0.74848  1.0000
  C   C582      1.0  0.16991  0.93395  0.72537  1.0000
  C   C583      1.0  0.28609  0.80326  0.05437  1.0000
  H   H462      1.0  0.22693  0.95304  0.99644  1.0000
  C   C584      1.0  0.05906  0.82247  0.99074  1.0000
  H   H463      1.0  0.28715  0.91843  0.68742  1.0000
  H   H464      1.0  0.06285  0.90372  0.02874  1.0000
  H   H465      1.0  0.25848  0.58613  0.90949  1.0000
  H   H466      1.0  0.23356  0.55943  0.64858  1.0000
  S   S76       1.0  0.11610  0.52480  0.70820  1.0000
  H   H467      1.0  0.20421  0.56324  0.57988  1.0000
  C   C585      1.0  0.04724  0.75228  0.87147  1.0000
  H   H468      1.0  0.05014  0.82766  0.86965  1.0000
  H   H469      1.0  0.24255  0.82155  0.78002  1.0000
  H   H470      1.0  0.02268  0.81627  0.67300  1.0000
  H   H471      1.0  0.22812  0.88863  0.73675  1.0000
  H   H472      1.0  0.19138  0.86203  0.77769  1.0000
  H   H473      1.0  0.14102  0.88131  0.78592  1.0000
  H   H474      1.0  0.12742  0.92742  0.75296  1.0000
  H   H475      1.0  0.16354  0.95433  0.71201  1.0000
  P   P20       1.0  0.30442  0.80745  0.76074  1.0000
  C   C586      1.0  0.26944  0.78566  0.76064  1.0000
  C   C587      1.0  0.29922  0.84330  0.78212  1.0000
  C   C588      1.0  0.29272  0.86782  0.75934  1.0000
  C   C589      1.0  0.28762  0.89527  0.77619  1.0000
  C   C590      1.0  0.28799  0.89825  0.81580  1.0000
  C   C591      1.0  0.29413  0.87386  0.83859  1.0000
  C   C592      1.0  0.30002  0.84657  0.82182  1.0000
  C   C593      1.0  0.24285  0.79836  0.77174  1.0000
  C   C594      1.0  0.21626  0.78088  0.77317  1.0000
  C   C595      1.0  0.21602  0.75067  0.76379  1.0000
  C   C596      1.0  0.24239  0.73776  0.75319  1.0000
  C   C597      1.0  0.26902  0.75515  0.75163  1.0000
  C   C598      1.0  0.31822  0.81286  0.71278  1.0000
  C   C599      1.0  0.30563  0.79668  0.68177  1.0000
  H   H476      1.0  0.31804  0.92870  0.88437  1.0000
  H   H477      1.0  0.30180  0.84444  0.95876  1.0000
  C   C600      1.0  0.19786  0.99847  0.60834  1.0000
  H   H478      1.0  0.29734  0.76513  0.82401  1.0000
  H   H479      1.0  0.29168  0.86588  0.72863  1.0000
  H   H480      1.0  0.28369  0.91431  0.75856  1.0000
  H   H481      1.0  0.28381  0.91948  0.82877  1.0000
  C   C601      1.0  0.02953  0.74744  0.90352  1.0000
  C   C602      1.0  0.19228  0.66214  0.01755  1.0000
  C   C603      1.0  0.26551  0.87142  0.61588  1.0000
  C   C604      1.0  0.07821  0.83069  0.02100  1.0000
  C   C605      1.0  0.23518  0.67036  0.05933  1.0000
  H   H482      1.0  0.09432  0.86616  0.05829  1.0000
  C   C606      1.0  0.23725  0.51771  0.79312  1.0000
  H   H483      1.0  0.02937  0.71439  0.61999  1.0000
  C   C607      1.0  0.04626  0.54809  0.89054  1.0000
  C   C608      1.0  0.04215  0.87283  0.98826  1.0000
  C   C609      1.0  0.05081  0.56023  0.62115  1.0000
  C   C610      1.0  0.32512  0.51850  0.70301  1.0000
  C   C611      1.0  0.34153  0.83411  0.70605  1.0000
  H   H484      1.0  0.07311  0.62072  0.85359  1.0000
  P   P21       1.0  0.02810  0.58307  0.89306  1.0000
  C   C612      1.0  0.03433  0.55056  0.58917  1.0000
  H   H485      1.0  0.17084  0.53622  0.90343  1.0000
  C   C613      1.0  0.15502  0.81850  0.05167  1.0000
  C   C614      1.0  0.02819  0.90463  0.86943  1.0000
  C   C615      1.0  0.04765  0.60831  0.92597  1.0000
  C   C616      1.0  0.05304  0.63360  0.80083  1.0000
  C   C617      1.0  0.34029  0.82194  0.63879  1.0000
  H   H486      1.0  0.33339  0.57030  0.89479  1.0000
  H   H487      1.0  0.15475  0.89324  0.06822  1.0000
  C   C618      1.0  0.33725  0.01195  0.90666  1.0000
  H   H488      1.0  0.26928  0.98590  0.97561  1.0000
  H   H489      1.0  0.19215  0.61247  0.60546  1.0000
  H   H490      1.0  0.05258  0.75779  0.58605  1.0000
  C   C619      1.0  0.22445  0.96726  0.97186  1.0000
  H   H491      1.0  0.19063  0.73037  0.04330  1.0000
  C   C620      1.0  0.32081  0.76768  0.81738  1.0000
  H   H492      1.0  0.27781  0.67342  0.03178  1.0000
  C   C621      1.0  0.22471  0.52244  0.82882  1.0000
  C   C622      1.0  0.20072  0.73981  0.06900  1.0000
  H   H493      1.0  0.08152  0.00969  0.78273  1.0000
  H   H494      1.0  0.22123  0.86645  0.59192  1.0000
  H   H495      1.0  0.02797  0.64211  0.74970  1.0000
  H   H496      1.0  0.20332  0.99919  0.71870  1.0000
  H   H497      1.0  0.02804  0.88936  0.97626  1.0000
  C   C623      1.0  0.20190  0.99864  0.68783  1.0000
  H   H498      1.0  0.02363  0.72497  0.91256  1.0000
  H   H499      1.0  0.27451  0.85451  0.59778  1.0000
  C   C624      1.0  0.02606  0.80097  0.91164  1.0000
  C   C625      1.0  0.34101  0.75125  0.83814  1.0000
  H   H500      1.0  0.32803  0.62574  0.01014  1.0000
  C   C626      1.0  0.21036  0.51648  0.64921  1.0000
  C   C627      1.0  0.33093  0.78749  0.78889  1.0000
  C   C628      1.0  0.03606  0.51450  0.76782  1.0000
  C   C629      1.0  0.07850  0.51439  0.85828  1.0000
  H   H501      1.0  0.19406  0.52228  0.62791  1.0000
  C   C630      1.0  0.31194  0.51440  0.73884  1.0000
  C   C631      1.0  0.31182  0.73702  0.07338  1.0000
  Fe  Fe38      1.0  0.47740  0.35554  0.45764  1.0000
  S   S77       1.0  0.45149  0.37721  0.41141  1.0000
  S   S78       1.0  0.51929  0.33109  0.44724  1.0000
  Fe  Fe39      1.0  0.43412  0.37287  0.51957  1.0000
  S   S79       1.0  0.40471  0.39654  0.47873  1.0000
  C   C632      1.0  0.65490  0.16238  0.09137  1.0000
  Fe  Fe40      1.0  0.41076  0.35762  0.43984  1.0000
  S   S80       1.0  0.37531  0.33380  0.40373  1.0000
  Fe  Fe41      1.0  0.44790  0.41419  0.45371  1.0000
  S   S81       1.0  0.45341  0.46113  0.43263  1.0000
  S   S82       1.0  0.43691  0.33223  0.48254  1.0000
  S   S83       1.0  0.47691  0.39402  0.49825  1.0000
  H   H502      1.0  0.37300  0.45857  0.48962  1.0000
  P   P22       1.0  0.36767  0.49892  0.35900  1.0000
  H   H503      1.0  0.35579  0.39223  0.42508  1.0000
  S   S84       1.0  0.39164  0.09658  0.31564  1.0000
  H   H504      1.0  0.45774  0.16501  0.46759  1.0000
  C   C633      1.0  0.39567  0.17672  0.08486  1.0000
  C   C634      1.0  0.37602  0.15945  0.14585  1.0000
  C   C635      1.0  0.39976  0.17128  0.12387  1.0000
  C   C636      1.0  0.63324  0.18429  0.52686  1.0000
  H   H505      1.0  0.37934  0.15511  0.17579  1.0000
  H   H506      1.0  0.42133  0.17600  0.13705  1.0000
  C   C637      1.0  0.46905  0.14779  0.37511  1.0000
  C   C638      1.0  0.44289  0.16231  0.36646  1.0000
  C   C639      1.0  0.41885  0.14673  0.34824  1.0000
  C   C640      1.0  0.42115  0.11677  0.33832  1.0000
  C   C641      1.0  0.44731  0.10238  0.34703  1.0000
  C   C642      1.0  0.47121  0.11785  0.36540  1.0000
  H   H507      1.0  0.44128  0.18549  0.37396  1.0000
  H   H508      1.0  0.39846  0.15762  0.34206  1.0000
  H   H509      1.0  0.44910  0.07917  0.33954  1.0000
  H   H510      1.0  0.49140  0.10663  0.37174  1.0000
  H   H511      1.0  0.45155  0.39088  0.32093  1.0000
  H   H512      1.0  0.63338  0.16993  0.08271  1.0000
  H   H513      1.0  0.65861  0.46512  0.16115  1.0000
  C   C643      1.0  0.52395  0.02016  0.55427  1.0000
  C   C644      1.0  0.49077  0.47136  0.42282  1.0000
  H   H514      1.0  0.43217  0.50999  0.36602  1.0000
  C   C645      1.0  0.49596  0.03055  0.38170  1.0000
  C   C646      1.0  0.51361  0.45251  0.43233  1.0000
  H   H515      1.0  0.44803  0.03097  0.37941  1.0000
  H   H516      1.0  0.49903  0.05449  0.38199  1.0000
  H   H517      1.0  0.50832  0.43066  0.44364  1.0000
  S   S85       1.0  0.64130  0.32889  0.24336  1.0000
  C   C647      1.0  0.48327  0.19980  0.49729  1.0000
  Fe  Fe42      1.0  0.63630  0.36131  0.29122  1.0000
  S   S86       1.0  0.59112  0.37883  0.30357  1.0000
  H   H518      1.0  0.54842  0.18932  0.53505  1.0000
  Fe  Fe43      1.0  0.55730  0.10728  0.49073  1.0000
  S   S87       1.0  0.59357  0.08547  0.45934  1.0000
  S   S88       1.0  0.54780  0.10170  0.55322  1.0000
  Fe  Fe44      1.0  0.53284  0.13547  0.41914  1.0000
  S   S89       1.0  0.56682  0.11589  0.38122  1.0000
  S   S90       1.0  0.49878  0.16697  0.39868  1.0000
  Fe  Fe45      1.0  0.55805  0.07449  0.41538  1.0000
  C   C648      1.0  0.36872  0.40273  0.31353  1.0000
  Fe  Fe46      1.0  0.59925  0.12872  0.42820  1.0000
  S   S91       1.0  0.64355  0.15226  0.41635  1.0000
  S   S92       1.0  0.52107  0.09277  0.44940  1.0000
  S   S93       1.0  0.56588  0.15182  0.46354  1.0000
  Fe  Fe47      1.0  0.35342  0.12194  0.29278  1.0000
  C   C649      1.0  0.49792  0.49932  0.40712  1.0000
  H   H519      1.0  0.61135  0.10241  0.53884  1.0000
  S   S94       1.0  0.58789  0.50480  0.41495  1.0000
  C   C650      1.0  0.54355  0.46229  0.42826  1.0000
  H   H520      1.0  0.56115  0.44802  0.43680  1.0000
  H   H521      1.0  0.43723  0.23400  0.12301  1.0000
  C   C651      1.0  0.64305  0.44914  0.17408  1.0000
  C   C652      1.0  0.62920  0.32990  0.10297  1.0000
  C   C653      1.0  0.64693  0.33976  0.13415  1.0000
  H   H522      1.0  0.61149  0.31311  0.10701  1.0000
  C   C654      1.0  0.39366  0.50268  0.48642  1.0000
  C   C655      1.0  0.54030  0.34513  0.40852  1.0000
  C   C656      1.0  0.53263  0.37131  0.39027  1.0000
  C   C657      1.0  0.54849  0.38147  0.35824  1.0000
  C   C658      1.0  0.57246  0.36582  0.34458  1.0000
  C   C659      1.0  0.58056  0.33989  0.36318  1.0000
  C   C660      1.0  0.56445  0.32956  0.39507  1.0000
  H   H523      1.0  0.51459  0.38390  0.40088  1.0000
  H   H524      1.0  0.54240  0.40177  0.34433  1.0000
  H   H525      1.0  0.59898  0.32766  0.35277  1.0000
  H   H526      1.0  0.57058  0.30944  0.40918  1.0000
  H   H527      1.0  0.42134  0.25162  0.46441  1.0000
  C   C661      1.0  0.46299  0.17872  0.27391  1.0000
  C   C662      1.0  0.47721  0.15431  0.25918  1.0000
  C   C663      1.0  0.50805  0.15603  0.25383  1.0000
  C   C664      1.0  0.52475  0.18201  0.26380  1.0000
  C   C665      1.0  0.51078  0.20619  0.28009  1.0000
  C   C666      1.0  0.47963  0.20459  0.28431  1.0000
  P   P23       1.0  0.53281  0.23923  0.29396  1.0000
  C   C667      1.0  0.51169  0.26169  0.32549  1.0000
  C   C668      1.0  0.56458  0.23022  0.32261  1.0000
  C   C669      1.0  0.56572  0.20244  0.34054  1.0000
  C   C670      1.0  0.59047  0.19591  0.36284  1.0000
  C   C671      1.0  0.61394  0.21699  0.36782  1.0000
  C   C672      1.0  0.61236  0.24515  0.35148  1.0000
  C   C673      1.0  0.58755  0.25193  0.32945  1.0000
  C   C674      1.0  0.51041  0.29254  0.32037  1.0000
  C   C675      1.0  0.49430  0.30943  0.34578  1.0000
  C   C676      1.0  0.48001  0.29584  0.37676  1.0000
  C   C677      1.0  0.48205  0.26534  0.38270  1.0000
  C   C678      1.0  0.49793  0.24834  0.35730  1.0000
  C   C679      1.0  0.54348  0.25866  0.25078  1.0000
  C   C680      1.0  0.52156  0.27163  0.22848  1.0000
  C   C681      1.0  0.52931  0.28716  0.19526  1.0000
  C   C682      1.0  0.55909  0.28974  0.18400  1.0000
  C   C683      1.0  0.58099  0.27616  0.20544  1.0000
  C   C684      1.0  0.57321  0.26035  0.23841  1.0000
  H   H528      1.0  0.43907  0.17722  0.27811  1.0000
  H   H529      1.0  0.46427  0.13397  0.25228  1.0000
  H   H530      1.0  0.51899  0.13701  0.24248  1.0000
  H   H531      1.0  0.54863  0.18301  0.25967  1.0000
  H   H532      1.0  0.46805  0.22293  0.29626  1.0000
  H   H533      1.0  0.54741  0.18596  0.33811  1.0000
  H   H534      1.0  0.59146  0.17461  0.37676  1.0000
  C   C685      1.0  0.37798  0.47761  0.47157  1.0000
  C   C686      1.0  0.61029  0.40505  0.16762  1.0000
  H   H535      1.0  0.58640  0.27411  0.31766  1.0000
  H   H536      1.0  0.52242  0.30380  0.29764  1.0000
  H   H537      1.0  0.49385  0.33330  0.34244  1.0000
  H   H538      1.0  0.46820  0.30917  0.39689  1.0000
  H   H539      1.0  0.47172  0.25490  0.40728  1.0000
  H   H540      1.0  0.49963  0.22475  0.36261  1.0000
  H   H541      1.0  0.49854  0.26989  0.23718  1.0000
  H   H542      1.0  0.51228  0.29736  0.17835  1.0000
  H   H543      1.0  0.56526  0.30216  0.15861  1.0000
  H   H544      1.0  0.60410  0.27807  0.19669  1.0000
  H   H545      1.0  0.59059  0.24977  0.25409  1.0000
  C   C687      1.0  0.46713  0.01722  0.38029  1.0000
  C   C688      1.0  0.62761  0.22345  0.11874  1.0000
  H   H546      1.0  0.54915  0.04285  0.51034  1.0000
  C   C689      1.0  0.62993  0.42633  0.15148  1.0000
  C   C690      1.0  0.54910  0.24782  0.50129  1.0000
  H   H547      1.0  0.65505  0.43926  0.39695  1.0000
  C   C691      1.0  0.40271  0.02331  0.44741  1.0000
  H   H548      1.0  0.40096  0.50291  0.51590  1.0000
  C   C692      1.0  0.38898  0.44157  0.35563  1.0000
  H   H549      1.0  0.52428  0.01435  0.45790  1.0000
  C   C693      1.0  0.54464  0.24812  0.46168  1.0000
  C   C694      1.0  0.56903  0.25077  0.43736  1.0000
  C   C695      1.0  0.59800  0.25349  0.45233  1.0000
  S   S95       1.0  0.67323  0.39230  0.27063  1.0000
  C   C696      1.0  0.59853  0.22745  0.13157  1.0000
  H   H550      1.0  0.62683  0.14635  0.16392  1.0000
  C   C697      1.0  0.62562  0.15981  0.18943  1.0000
  H   H551      1.0  0.52242  0.24677  0.44937  1.0000
  H   H552      1.0  0.56525  0.25132  0.40688  1.0000
  H   H553      1.0  0.61687  0.25617  0.43347  1.0000
  C   C698      1.0  0.36954  0.47667  0.43311  1.0000
  P   P24       1.0  0.51778  0.24529  0.53309  1.0000
  P   P25       1.0  0.65610  0.47881  0.24286  1.0000
  H   H554      1.0  0.41835  0.42807  0.56838  1.0000
  C   C699      1.0  0.38857  0.41216  0.34252  1.0000
  C   C700      1.0  0.52843  0.30702  0.54013  1.0000
  P   P26       1.0  0.65473  0.20586  0.14857  1.0000
  H   H555      1.0  0.64936  0.10611  0.27656  1.0000
  H   H556      1.0  0.44770  0.02619  0.46927  1.0000
  C   C701      1.0  0.39587  0.24548  0.28958  1.0000
  H   H557      1.0  0.60624  0.08948  0.31640  1.0000
  C   C702      1.0  0.52784  0.50895  0.40263  1.0000
  H   H558      1.0  0.58845  0.39019  0.21907  1.0000
  S   S96       1.0  0.55662  0.02898  0.38899  1.0000
  C   C703      1.0  0.63701  0.45058  0.21330  1.0000
  H   H559      1.0  0.45049  0.48705  0.55506  1.0000
  C   C704      1.0  0.47041  0.47641  0.56437  1.0000
  H   H560      1.0  0.61123  0.42991  0.25887  1.0000
  C   C705      1.0  0.36898  0.46154  0.34034  1.0000
  C   C706      1.0  0.55069  0.49088  0.41446  1.0000
  C   C707      1.0  0.37361  0.01520  0.34528  1.0000
  H   H561      1.0  0.67603  0.04805  0.44931  1.0000
  C   C708      1.0  0.61651  0.42959  0.22894  1.0000
  H   H562      1.0  0.63798  0.03169  0.39739  1.0000
  C   C709      1.0  0.51041  0.28206  0.55064  1.0000
  C   C710      1.0  0.37301  0.31668  0.24670  1.0000
  C   C711      1.0  0.41120  0.08400  0.43200  1.0000
  C   C712      1.0  0.43389  0.06871  0.44960  1.0000
  C   C713      1.0  0.37717  0.50068  0.40909  1.0000
  H   H563      1.0  0.56086  0.50344  0.50842  1.0000
  C   C714      1.0  0.37938  0.03866  0.43074  1.0000
  C   C715      1.0  0.38412  0.06906  0.42243  1.0000
  H   H564      1.0  0.40408  0.27622  0.11739  1.0000
  H   H565      1.0  0.39168  0.36025  0.23108  1.0000
  H   H566      1.0  0.58215  0.25074  0.54668  1.0000
  S   S97       1.0  0.35762  0.16191  0.25469  1.0000
  H   H567      1.0  0.62506  0.25564  0.50327  1.0000
  H   H568      1.0  0.55573  0.24502  0.11850  1.0000
  H   H569      1.0  0.54698  0.30501  0.52099  1.0000
  H   H570      1.0  0.48344  0.46513  0.50748  1.0000
  C   C716      1.0  0.67083  0.17607  0.12192  1.0000
  C   C717      1.0  0.65556  0.44736  0.36793  1.0000
  C   C718      1.0  0.63748  0.17319  0.56353  1.0000
  C   C719      1.0  0.61188  0.16369  0.25589  1.0000
  C   C720      1.0  0.41355  0.27087  0.14493  1.0000
  H   H571      1.0  0.41500  0.10719  0.42440  1.0000
  H   H572      1.0  0.45515  0.08010  0.45590  1.0000
  C   C721      1.0  0.65650  0.46743  0.29225  1.0000
  H   H573      1.0  0.64202  0.08907  0.40087  1.0000
  C   C722      1.0  0.52067  0.01283  0.38296  1.0000
  H   H574      1.0  0.40267  0.39636  0.35609  1.0000
  H   H575      1.0  0.60960  0.47468  0.30068  1.0000
  H   H576      1.0  0.34694  0.27587  0.25800  1.0000
  C   C723      1.0  0.60262  0.25328  0.49173  1.0000
  C   C724      1.0  0.57813  0.24190  0.10852  1.0000
  H   H577      1.0  0.40432  0.44842  0.37835  1.0000
  C   C725      1.0  0.52761  0.22096  0.57190  1.0000
  C   C726      1.0  0.66622  0.03390  0.29002  1.0000
  C   C727      1.0  0.57827  0.25046  0.51619  1.0000
  C   C728      1.0  0.53202  0.02584  0.51658  1.0000
  H   H578      1.0  0.50092  0.18522  0.50443  1.0000
  S   S98       1.0  0.67077  0.25869  0.28884  1.0000
  H   H579      1.0  0.41766  0.19776  0.44779  1.0000
  H   H580      1.0  0.45415  0.03327  0.57246  1.0000
  C   C729      1.0  0.62959  0.45714  0.35091  1.0000
  H   H581      1.0  0.39481  0.01500  0.29068  1.0000
  S   S99       1.0  0.66573  0.33836  0.33255  1.0000
  H   H582      1.0  0.48044  0.14403  0.54690  1.0000
  H   H583      1.0  0.60081  0.38691  0.15032  1.0000
  C   C730      1.0  0.60340  0.40685  0.20625  1.0000
  H   H584      1.0  0.38948  0.23731  0.26149  1.0000
  H   H585      1.0  0.61853  0.02743  0.46271  1.0000
  H   H586      1.0  0.62225  0.20620  0.28262  1.0000
  C   C731      1.0  0.42963  0.03839  0.45734  1.0000
  C   C732      1.0  0.65740  0.19671  0.50661  1.0000
  H   H587      1.0  0.60894  0.45654  0.36675  1.0000
  C   C733      1.0  0.66844  0.06309  0.27633  1.0000
  H   H588      1.0  0.36199  0.22832  0.11515  1.0000
  H   H589      1.0  0.53501  0.35469  0.54315  1.0000
  C   C734      1.0  0.62297  0.07400  0.30879  1.0000
  C   C735      1.0  0.43630  0.20677  0.46471  1.0000
  C   C736      1.0  0.63008  0.46741  0.31339  1.0000
  H   H590      1.0  0.56416  0.11157  0.12921  1.0000
  C   C737      1.0  0.62089  0.04489  0.32273  1.0000
  C   C738      1.0  0.64307  0.02494  0.31473  1.0000
  H   H591      1.0  0.60488  0.12396  0.22195  1.0000
  H   H592      1.0  0.52854  0.43993  0.52849  1.0000
  H   H593      1.0  0.65358  0.20421  0.47782  1.0000
  C   C739      1.0  0.66852  0.12965  0.39288  1.0000
  C   C740      1.0  0.43842  0.23703  0.47402  1.0000
  C   C741      1.0  0.48538  0.23007  0.50736  1.0000
  H   H594      1.0  0.38611  0.20294  0.31539  1.0000
  C   C742      1.0  0.52173  0.33545  0.55272  1.0000
  H   H595      1.0  0.56885  0.16644  0.12180  1.0000
  H   H596      1.0  0.63569  0.42452  0.12170  1.0000
  H   H597      1.0  0.44683  0.25041  0.24315  1.0000
  C   C743      1.0  0.39390  0.22577  0.32022  1.0000
  C   C744      1.0  0.63691  0.18949  0.19002  1.0000
  Fe  Fe48      1.0  0.67376  0.30823  0.28299  1.0000
  C   C745      1.0  0.66247  0.09897  0.38965  1.0000
  H   H598      1.0  0.64296  0.33044  0.16200  1.0000
  H   H599      1.0  0.36706  0.37957  0.30501  1.0000
  H   H600      1.0  0.37444  0.22338  0.18377  1.0000
  C   C746      1.0  0.63474  0.20629  0.22357  1.0000
  C   C747      1.0  0.56916  0.15216  0.09690  1.0000
  H   H601      1.0  0.63296  0.21149  0.38511  1.0000
  H   H602      1.0  0.59155  0.21969  0.15939  1.0000
  C   C748      1.0  0.35070  0.45244  0.30933  1.0000
  H   H603      1.0  0.60287  0.15364  0.28165  1.0000
  H   H604      1.0  0.64297  0.22930  0.22469  1.0000
  C   C749      1.0  0.62264  0.19332  0.25645  1.0000
  H   H605      1.0  0.41164  0.35266  0.30636  1.0000
  C   C750      1.0  0.61311  0.14701  0.22229  1.0000
  C   C751      1.0  0.67482  0.37338  0.09264  1.0000
  H   H606      1.0  0.46481  0.27246  0.50018  1.0000
  H   H607      1.0  0.60220  0.03805  0.34016  1.0000
  H   H608      1.0  0.45861  0.22116  0.18598  1.0000
  C   C752      1.0  0.40038  0.23584  0.35716  1.0000
  C   C753      1.0  0.40840  0.26579  0.36355  1.0000
  C   C754      1.0  0.41094  0.28548  0.33290  1.0000
  C   C755      1.0  0.40535  0.27538  0.29544  1.0000
  C   C756      1.0  0.35009  0.42296  0.29659  1.0000
  P   P27       1.0  0.40858  0.30062  0.25537  1.0000
  C   C757      1.0  0.66987  0.36148  0.12900  1.0000
  C   C758      1.0  0.43746  0.32931  0.26506  1.0000
  C   C759      1.0  0.43267  0.35199  0.29165  1.0000
  C   C760      1.0  0.45519  0.37369  0.29997  1.0000
  C   C761      1.0  0.48267  0.37299  0.28178  1.0000
  C   C762      1.0  0.48755  0.35079  0.25495  1.0000
  C   C763      1.0  0.46501  0.32915  0.24642  1.0000
  H   H609      1.0  0.61132  0.18268  0.51369  1.0000
  C   C764      1.0  0.37161  0.34624  0.23419  1.0000
  C   C765      1.0  0.48890  0.46391  0.53756  1.0000
  C   C766      1.0  0.45875  0.18822  0.47624  1.0000
  H   H610      1.0  0.39151  0.30532  0.17422  1.0000
  C   C767      1.0  0.41813  0.27993  0.21317  1.0000
  C   C768      1.0  0.40642  0.28725  0.17731  1.0000
  H   H611      1.0  0.36750  0.08115  0.40733  1.0000
  C   C769      1.0  0.43231  0.24706  0.14807  1.0000
  C   C770      1.0  0.44431  0.23984  0.18355  1.0000
  C   C771      1.0  0.43744  0.25633  0.21590  1.0000
  C   C772      1.0  0.46303  0.24873  0.49483  1.0000
  H   H612      1.0  0.39823  0.22063  0.38091  1.0000
  H   H613      1.0  0.41219  0.27404  0.39232  1.0000
  H   H614      1.0  0.41696  0.30848  0.33908  1.0000
  H   H615      1.0  0.63030  0.26181  0.35583  1.0000
  C   C773      1.0  0.56656  0.12126  0.10110  1.0000
  C   C774      1.0  0.35149  0.22524  0.17479  1.0000
  H   H616      1.0  0.50032  0.38949  0.28882  1.0000
  H   H617      1.0  0.50899  0.35028  0.24106  1.0000
  H   H618      1.0  0.46924  0.31242  0.22531  1.0000
  C   C775      1.0  0.63593  0.23420  0.08262  1.0000
  H   H619      1.0  0.37798  0.34196  0.53237  1.0000
  C   C776      1.0  0.51436  0.44972  0.54950  1.0000
  C   C777      1.0  0.36040  0.32589  0.54023  1.0000
  C   C778      1.0  0.60780  0.09962  0.56905  1.0000
  H   H620      1.0  0.67865  0.05728  0.37017  1.0000
  C   C779      1.0  0.34809  0.15305  0.12888  1.0000
  H   H621      1.0  0.66775  0.26984  0.13062  1.0000
  C   C780      1.0  0.64703  0.08326  0.28611  1.0000
  C   C781      1.0  0.54271  0.19503  0.56401  1.0000
  H   H622      1.0  0.39395  0.02297  0.35964  1.0000
  C   C782      1.0  0.48541  0.28613  0.57349  1.0000
  H   H623      1.0  0.35768  0.45695  0.42197  1.0000
  H   H624      1.0  0.61748  0.50437  0.18429  1.0000
  H   H625      1.0  0.67895  0.23641  0.36933  1.0000
  Fe  Fe49      1.0  0.41960  0.23354  0.92437  1.0000
  H   H626      1.0  0.45452  0.19249  0.84921  1.0000
  S   S100      1.0  0.44126  0.27659  0.90296  1.0000
  Fe  Fe50      1.0  0.41353  0.19422  0.99497  1.0000
  H   H627      1.0  0.51016  0.24767  0.61756  1.0000
  Fe  Fe51      1.0  0.42044  0.16615  0.91620  1.0000
  S   S101      1.0  0.44389  0.12990  0.88538  1.0000
  S   S102      1.0  0.44864  0.19951  0.95015  1.0000
  C   C783      1.0  0.48144  0.40035  0.74353  1.0000
  Fe  Fe52      1.0  0.38887  0.45741  0.75401  1.0000
  S   S103      1.0  0.41314  0.41856  0.77570  1.0000
  C   C784      1.0  0.55118  0.17640  0.59355  1.0000
  Fe  Fe53      1.0  0.37392  0.47817  0.83468  1.0000
  S   S104      1.0  0.39675  0.44052  0.86306  1.0000
  H   H628      1.0  0.66927  0.16488  0.60801  1.0000
  Fe  Fe54      1.0  0.43210  0.45028  0.81958  1.0000
  S   S105      1.0  0.48098  0.44836  0.82991  1.0000
  Fe  Fe55      1.0  0.37566  0.41202  0.81654  1.0000
  C   C785      1.0  0.56687  0.10281  0.06898  1.0000
  S   S106      1.0  0.41119  0.49012  0.79481  1.0000
  H   H629      1.0  0.60948  0.46973  0.06444  1.0000
  C   C786      1.0  0.49824  0.48318  0.82039  1.0000
  C   C787      1.0  0.56623  0.45137  0.70566  1.0000
  C   C788      1.0  0.35984  0.31386  0.57687  1.0000
  H   H630      1.0  0.35149  0.08012  0.83659  1.0000
  C   C789      1.0  0.55958  0.02918  0.67289  1.0000
  C   C790      1.0  0.42209  0.09976  0.86633  1.0000
  C   C791      1.0  0.60211  0.48197  0.65273  1.0000
  H   H631      1.0  0.57242  0.26733  0.94034  1.0000
  C   C792      1.0  0.38887  0.05198  0.83220  1.0000
  C   C793      1.0  0.41923  0.04947  0.83996  1.0000
  C   C794      1.0  0.43588  0.07351  0.85638  1.0000
  P   P28       1.0  0.51318  0.46090  0.66556  1.0000
  C   C795      1.0  0.47924  0.31445  0.58678  1.0000
  H   H632      1.0  0.45949  0.07169  0.86147  1.0000
  C   C796      1.0  0.41713  0.30131  0.88128  1.0000
  C   C797      1.0  0.42809  0.32954  0.86997  1.0000
  C   C798      1.0  0.40917  0.34955  0.85257  1.0000
  C   C799      1.0  0.37911  0.34128  0.84627  1.0000
  H   H633      1.0  0.45983  0.31744  0.60417  1.0000
  C   C800      1.0  0.38715  0.29313  0.87509  1.0000
  H   H634      1.0  0.45113  0.33604  0.87514  1.0000
  H   H635      1.0  0.41782  0.37138  0.84419  1.0000
  H   H636      1.0  0.37479  0.39115  0.93849  1.0000
  C   C801      1.0  0.55031  0.11872  0.88285  1.0000
  C   C802      1.0  0.56834  0.49628  0.92291  1.0000
  S   S107      1.0  0.35504  0.36598  0.82453  1.0000
  C   C803      1.0  0.40566  0.38758  0.64872  1.0000
  C   C804      1.0  0.39732  0.41032  0.67325  1.0000
  C   C805      1.0  0.39667  0.43959  0.66021  1.0000
  C   C806      1.0  0.40382  0.44586  0.62212  1.0000
  H   H637      1.0  0.39101  0.40507  0.70211  1.0000
  H   H638      1.0  0.67506  0.23617  0.88538  1.0000
  S   S108      1.0  0.67763  0.35432  0.95211  1.0000
  Fe  Fe56      1.0  0.65619  0.34902  0.89402  1.0000
  S   S109      1.0  0.61539  0.32466  0.91643  1.0000
  S   S110      1.0  0.65016  0.37861  0.84313  1.0000
  Fe  Fe57      1.0  0.63883  0.32550  0.97304  1.0000
  S   S111      1.0  0.61292  0.32837  0.02751  1.0000
  Fe  Fe58      1.0  0.64010  0.28378  0.90520  1.0000
  S   S112      1.0  0.61283  0.24760  0.87592  1.0000
  H   H639      1.0  0.36756  0.01409  0.61944  1.0000
  C   C807      1.0  0.52144  0.44813  0.58832  1.0000
  Fe  Fe59      1.0  0.65958  0.09991  0.80710  1.0000
  C   C808      1.0  0.47754  0.47504  0.60315  1.0000
  C   C809      1.0  0.38362  0.34616  0.95277  1.0000
  Fe  Fe60      1.0  0.60259  0.06617  0.78515  1.0000
  S   S113      1.0  0.62444  0.03753  0.74174  1.0000
  S   S114      1.0  0.55379  0.06579  0.79878  1.0000
  Fe  Fe61      1.0  0.66033  0.03469  0.78640  1.0000
  C   C810      1.0  0.46863  0.49215  0.70041  1.0000
  Fe  Fe62      1.0  0.64851  0.08016  0.72465  1.0000
  S   S115      1.0  0.65904  0.09215  0.66370  1.0000
  S   S116      1.0  0.63637  0.05935  0.83139  1.0000
  S   S117      1.0  0.62391  0.10922  0.76428  1.0000
  C   C811      1.0  0.67914  0.19082  0.86681  1.0000
  C   C812      1.0  0.48472  0.50950  0.83023  1.0000
  S   S118      1.0  0.67958  0.30763  0.87924  1.0000
  H   H640      1.0  0.67132  0.41858  0.90416  1.0000
  S   S119      1.0  0.39405  0.20064  0.88675  1.0000
  C   C813      1.0  0.65545  0.41753  0.84612  1.0000
  H   H641      1.0  0.64112  0.42374  0.78807  1.0000
  H   H642      1.0  0.35452  0.50729  0.94525  1.0000
  H   H643      1.0  0.63857  0.47455  0.69116  1.0000
  C   C814      1.0  0.63290  0.21630  0.86632  1.0000
  C   C815      1.0  0.61796  0.19081  0.85135  1.0000
  C   C816      1.0  0.63358  0.16515  0.84451  1.0000
  C   C817      1.0  0.66414  0.16517  0.85243  1.0000
  S   S120      1.0  0.36785  0.02350  0.80835  1.0000
  H   H644      1.0  0.65790  0.41663  0.98659  1.0000
  H   H645      1.0  0.59424  0.19080  0.84557  1.0000
  H   H646      1.0  0.62190  0.14521  0.83397  1.0000
  H   H647      1.0  0.61811  0.32808  0.80167  1.0000
  C   C818      1.0  0.41352  0.39392  0.61099  1.0000
  C   C819      1.0  0.52574  0.48453  0.80227  1.0000
  S   S121      1.0  0.66017  0.28206  0.96375  1.0000
  H   H648      1.0  0.35944  0.24092  0.83741  1.0000
  H   H649      1.0  0.53574  0.46428  0.79370  1.0000
  H   H650      1.0  0.37697  0.32080  0.59744  1.0000
  C   C820      1.0  0.57453  0.09521  0.62277  1.0000
  C   C821      1.0  0.59907  0.09332  0.64762  1.0000
  C   C822      1.0  0.62799  0.09442  0.63318  1.0000
  C   C823      1.0  0.37056  0.43489  0.99960  1.0000
  H   H651      1.0  0.55216  0.09424  0.63399  1.0000
  H   H652      1.0  0.59570  0.09097  0.67792  1.0000
  H   H653      1.0  0.65235  0.43848  0.05089  1.0000
  C   C824      1.0  0.39065  0.45956  0.00214  1.0000
  H   H654      1.0  0.56714  0.13935  0.78879  1.0000
  C   C825      1.0  0.39288  0.06738  0.69075  1.0000
  C   C826      1.0  0.51065  0.11024  0.92819  1.0000
  C   C827      1.0  0.47522  0.43767  0.93686  1.0000
  C   C828      1.0  0.47103  0.42223  0.97097  1.0000
  C   C829      1.0  0.39149  0.10188  0.85983  1.0000
  C   C830      1.0  0.52390  0.42906  0.98526  1.0000
  C   C831      1.0  0.52812  0.44529  0.95143  1.0000
  C   C832      1.0  0.50365  0.44886  0.92705  1.0000
  H   H655      1.0  0.57424  0.18858  0.05780  1.0000
  H   H656      1.0  0.47355  0.03377  0.66988  1.0000
  C   C833      1.0  0.41242  0.42308  0.59755  1.0000
  C   C834      1.0  0.63489  0.34115  0.06642  1.0000
  C   C835      1.0  0.49364  0.42609  0.72658  1.0000
  H   H657      1.0  0.49165  0.36128  0.58513  1.0000
  H   H658      1.0  0.46250  0.18747  0.58250  1.0000
  C   C836      1.0  0.61772  0.43454  0.96426  1.0000
  C   C837      1.0  0.52057  0.23094  0.99531  1.0000
  H   H659      1.0  0.61592  0.49436  0.63257  1.0000
  C   C838      1.0  0.57117  0.43446  0.89456  1.0000
  C   C839      1.0  0.57466  0.44701  0.85824  1.0000
  C   C840      1.0  0.57836  0.42873  0.82655  1.0000
  C   C841      1.0  0.57878  0.39793  0.83082  1.0000
  C   C842      1.0  0.57539  0.38532  0.86691  1.0000
  C   C843      1.0  0.57129  0.40345  0.89862  1.0000
  H   H660      1.0  0.45663  0.44052  0.91742  1.0000
  C   C844      1.0  0.51443  0.04978  0.69630  1.0000
  C   C845      1.0  0.57191  0.16463  0.06057  1.0000
  H   H661      1.0  0.43037  0.03540  0.76315  1.0000
  H   H662      1.0  0.50676  0.45999  0.90002  1.0000
  C   C846      1.0  0.57309  0.30953  0.80539  1.0000
  C   C847      1.0  0.48717  0.40310  0.66432  1.0000
  C   C848      1.0  0.63898  0.42990  0.99271  1.0000
  C   C849      1.0  0.59294  0.45147  0.97192  1.0000
  H   H663      1.0  0.62092  0.42496  0.93638  1.0000
  H   H664      1.0  0.64797  0.47874  0.79019  1.0000
  C   C850      1.0  0.47453  0.37749  0.68138  1.0000
  H   H665      1.0  0.57446  0.47082  0.85405  1.0000
  H   H666      1.0  0.58158  0.43862  0.79879  1.0000
  H   H667      1.0  0.58266  0.38394  0.80640  1.0000
  H   H668      1.0  0.57619  0.36151  0.87043  1.0000
  H   H669      1.0  0.56855  0.39327  0.92637  1.0000
  C   C851      1.0  0.37499  0.07813  0.84243  1.0000
  H   H670      1.0  0.48724  0.09646  0.58003  1.0000
  C   C852      1.0  0.52264  0.10546  0.89220  1.0000
  Fe  Fe63      1.0  0.36364  0.19536  0.93698  1.0000
  C   C853      1.0  0.63588  0.44234  0.02890  1.0000
  H   H671      1.0  0.55189  0.24755  0.86615  1.0000
  H   H672      1.0  0.50359  0.06368  0.71664  1.0000
  C   C854      1.0  0.65633  0.13319  0.94645  1.0000
  C   C855      1.0  0.47163  0.37618  0.72097  1.0000
  C   C856      1.0  0.60329  0.30872  0.79636  1.0000
  C   C857      1.0  0.61467  0.28259  0.78209  1.0000
  H   H673      1.0  0.36624  0.27331  0.78093  1.0000
  H   H674      1.0  0.40339  0.22694  0.78465  1.0000
  C   C858      1.0  0.36775  0.17033  0.06799  1.0000
  C   C859      1.0  0.49696  0.42756  0.68690  1.0000
  H   H675      1.0  0.44902  0.41318  0.97824  1.0000
  H   H676      1.0  0.47877  0.39955  0.77419  1.0000
  C   C860      1.0  0.52936  0.20875  0.63949  1.0000
  C   C861      1.0  0.61536  0.16089  0.97089  1.0000
  H   H677      1.0  0.57187  0.47836  0.01411  1.0000
  H   H678      1.0  0.56502  0.32973  0.81723  1.0000
  H   H679      1.0  0.50011  0.44500  0.74449  1.0000
  C   C862      1.0  0.36817  0.31296  0.85736  1.0000
  H   H680      1.0  0.48860  0.40388  0.63359  1.0000
  H   H681      1.0  0.51586  0.28795  0.90067  1.0000
  C   C863      1.0  0.62654  0.13428  0.95708  1.0000
  H   H682      1.0  0.54374  0.19777  0.89412  1.0000
  S   S122      1.0  0.34943  0.44869  0.79185  1.0000
  H   H683      1.0  0.60480  0.23687  0.76630  1.0000
  C   C864      1.0  0.55478  0.14058  0.94620  1.0000
  H   H684      1.0  0.67996  0.20388  0.96968  1.0000
  C   C865      1.0  0.37316  0.31995  0.97028  1.0000
  H   H685      1.0  0.55839  0.06134  0.71824  1.0000
  H   H686      1.0  0.55141  0.23809  0.78182  1.0000
  C   C866      1.0  0.56599  0.13682  0.90932  1.0000
  H   H687      1.0  0.62237  0.25821  0.03265  1.0000
  H   H688      1.0  0.40615  0.36502  0.65915  1.0000
  H   H689      1.0  0.49507  0.17017  0.88599  1.0000
  C   C867      1.0  0.53343  0.20327  0.99760  1.0000
  C   C868      1.0  0.44092  0.29951  0.75435  1.0000
  H   H690      1.0  0.61595  0.49527  0.91357  1.0000
  H   H691      1.0  0.55960  0.11491  0.85497  1.0000
  H   H692      1.0  0.41066  0.45855  0.01947  1.0000
  S   S123      1.0  0.42542  0.19183  0.05757  1.0000
  H   H693      1.0  0.48875  0.10060  0.93496  1.0000
  H   H694      1.0  0.40480  0.10957  0.66551  1.0000
  H   H695      1.0  0.51693  0.13122  0.98286  1.0000
  H   H696      1.0  0.46119  0.35685  0.73431  1.0000
  C   C869      1.0  0.49844  0.49288  0.68861  1.0000
  C   C870      1.0  0.56077  0.19865  0.97987  1.0000
  C   C871      1.0  0.66506  0.18431  0.96678  1.0000
  C   C872      1.0  0.64909  0.43463  0.81396  1.0000
  H   H697      1.0  0.51139  0.33032  0.94454  1.0000
  H   H698      1.0  0.43001  0.02925  0.83263  1.0000
  H   H699      1.0  0.49920  0.23415  0.00850  1.0000
  C   C873      1.0  0.53480  0.25416  0.97515  1.0000
  H   H700      1.0  0.52466  0.27549  0.97306  1.0000
  H   H701      1.0  0.45336  0.29758  0.81347  1.0000
  C   C874      1.0  0.57440  0.22182  0.95871  1.0000
  H   H702      1.0  0.51036  0.09180  0.87132  1.0000
  H   H703      1.0  0.58698  0.14753  0.90098  1.0000
  H   H704      1.0  0.59430  0.21832  0.94260  1.0000
  H   H705      1.0  0.53484  0.03351  0.57646  1.0000
  C   C875      1.0  0.63525  0.18542  0.97772  1.0000
  C   C876      1.0  0.42499  0.05166  0.74183  1.0000
  H   H706      1.0  0.45072  0.23656  0.75019  1.0000
  H   H707      1.0  0.51927  0.14546  0.82198  1.0000
  S   S124      1.0  0.38779  0.15784  0.96329  1.0000
  H   H708      1.0  0.52259  0.28073  0.73296  1.0000
  H   H709      1.0  0.50429  0.38097  0.91915  1.0000
  S   S125      1.0  0.42489  0.36475  0.58192  1.0000
  H   H710      1.0  0.56986  0.10062  0.00800  1.0000
  H   H711      1.0  0.55277  0.44013  0.72701  1.0000
  C   C877      1.0  0.59575  0.25738  0.77624  1.0000
  C   C878      1.0  0.52663  0.12773  0.95517  1.0000
  H   H712      1.0  0.67987  0.14777  0.70553  1.0000
  P   P29       1.0  0.57607  0.16220  0.98138  1.0000
  C   C879      1.0  0.66656  0.13850  0.07175  1.0000
  H   H713      1.0  0.50648  0.34706  0.80504  1.0000
  C   C880      1.0  0.56552  0.25814  0.78525  1.0000
  H   H714      1.0  0.46219  0.24237  0.82114  1.0000
  H   H715      1.0  0.41828  0.30539  0.76043  1.0000
  H   H716      1.0  0.43496  0.30051  0.69338  1.0000
  H   H717      1.0  0.62773  0.20566  0.99039  1.0000
  H   H718      1.0  0.50177  0.38917  0.84956  1.0000
  C   C881      1.0  0.54441  0.18310  0.63121  1.0000
  C   C882      1.0  0.63232  0.09773  0.59390  1.0000
  C   C883      1.0  0.55403  0.28412  0.80048  1.0000
  H   H719      1.0  0.48726  0.28843  0.68001  1.0000
  C   C884      1.0  0.46091  0.29535  0.78443  1.0000
  C   C885      1.0  0.57169  0.14624  0.02815  1.0000
  H   H720      1.0  0.40078  0.04329  0.57565  1.0000
  C   C886      1.0  0.47943  0.11537  0.59569  1.0000
  C   C887      1.0  0.47379  0.11293  0.63461  1.0000
  C   C888      1.0  0.46415  0.13741  0.65532  1.0000
  C   C889      1.0  0.45987  0.16432  0.63627  1.0000
  P   P30       1.0  0.45754  0.13326  0.70582  1.0000
  C   C890      1.0  0.43551  0.09904  0.71094  1.0000
  C   C891      1.0  0.49231  0.13292  0.73200  1.0000
  C   C892      1.0  0.49250  0.13843  0.77144  1.0000
  C   C893      1.0  0.51941  0.14114  0.79163  1.0000
  C   C894      1.0  0.54634  0.13786  0.77285  1.0000
  C   C895      1.0  0.54634  0.13163  0.73381  1.0000
  C   C896      1.0  0.51945  0.12925  0.71335  1.0000
  C   C897      1.0  0.41065  0.09351  0.68691  1.0000
  C   C898      1.0  0.56170  0.24959  0.95684  1.0000
  C   C899      1.0  0.44257  0.07798  0.73856  1.0000
  C   C900      1.0  0.43802  0.16354  0.72651  1.0000
  C   C901      1.0  0.45216  0.19202  0.72822  1.0000
  C   C902      1.0  0.43938  0.21489  0.74846  1.0000
  C   C903      1.0  0.41268  0.20945  0.76783  1.0000
  C   C904      1.0  0.39849  0.18115  0.76655  1.0000
  C   C905      1.0  0.41108  0.15821  0.74605  1.0000
  C   C906      1.0  0.51179  0.01390  0.64436  1.0000
  C   C907      1.0  0.46562  0.16669  0.59720  1.0000
  H   H721      1.0  0.40298  0.46833  0.61163  1.0000
  H   H722      1.0  0.47721  0.09193  0.64862  1.0000
  H   H723      1.0  0.45196  0.18339  0.65119  1.0000
  H   H724      1.0  0.47187  0.14084  0.78676  1.0000
  H   H725      1.0  0.46263  0.48434  0.62343  1.0000
  H   H726      1.0  0.49228  0.40524  0.02115  1.0000
  H   H727      1.0  0.56720  0.12830  0.71953  1.0000
  H   H728      1.0  0.52013  0.12452  0.68319  1.0000
  C   C908      1.0  0.57142  0.47838  0.64641  1.0000
  H   H729      1.0  0.46135  0.08178  0.75782  1.0000
  H   H730      1.0  0.47366  0.19624  0.71506  1.0000
  C   C909      1.0  0.65270  0.46576  0.81519  1.0000
  C   C910      1.0  0.61561  0.24897  0.05993  1.0000
  H   H731      1.0  0.40030  0.13619  0.74697  1.0000
  C   C911      1.0  0.47590  0.20451  0.85224  1.0000
  C   C912      1.0  0.49873  0.19187  0.87305  1.0000
  C   C913      1.0  0.52610  0.20744  0.87783  1.0000
  C   C914      1.0  0.53070  0.23561  0.86172  1.0000
  C   C915      1.0  0.50825  0.24822  0.83985  1.0000
  C   C916      1.0  0.48048  0.23273  0.83603  1.0000
  P   P31       1.0  0.51588  0.28371  0.81680  1.0000
  C   C917      1.0  0.49044  0.28828  0.77723  1.0000
  C   C918      1.0  0.51162  0.31429  0.84954  1.0000
  C   C919      1.0  0.50752  0.34306  0.83542  1.0000
  C   C920      1.0  0.50491  0.36700  0.86051  1.0000
  C   C921      1.0  0.50642  0.36242  0.89982  1.0000
  C   C922      1.0  0.51058  0.33393  0.91407  1.0000
  C   C923      1.0  0.51317  0.30991  0.88906  1.0000
  C   C924      1.0  0.49982  0.28569  0.73934  1.0000
  C   C925      1.0  0.47981  0.28998  0.70920  1.0000
  C   C926      1.0  0.45035  0.29678  0.71669  1.0000
  P   P32       1.0  0.56495  0.45734  0.93570  1.0000
  C   C927      1.0  0.53562  0.03102  0.79031  1.0000
  C   C928      1.0  0.39997  0.04654  0.71833  1.0000
  H   H732      1.0  0.63830  0.28166  0.77660  1.0000
  H   H733      1.0  0.66441  0.11323  0.93344  1.0000
  H   H734      1.0  0.55111  0.16847  0.65388  1.0000
  C   C929      1.0  0.50343  0.46146  0.61542  1.0000
  C   C930      1.0  0.66349  0.21643  0.87393  1.0000
  H   H735      1.0  0.45417  0.47243  0.69597  1.0000
  H   H736      1.0  0.46626  0.35906  0.66370  1.0000
  C   C931      1.0  0.55322  0.46260  0.67240  1.0000
  H   H737      1.0  0.56181  0.48858  0.62171  1.0000
  H   H738      1.0  0.36422  0.17479  0.03810  1.0000
  H   H739      1.0  0.54254  0.42437  0.00366  1.0000
  C   C932      1.0  0.49757  0.03269  0.66978  1.0000
  S   S126      1.0  0.38688  0.23124  0.97230  1.0000
  H   H740      1.0  0.60691  0.44719  0.73808  1.0000
  H   H741      1.0  0.67757  0.38526  0.76987  1.0000
  H   H742      1.0  0.61203  0.11457  0.95307  1.0000
  H   H743      1.0  0.37345  0.06333  0.67264  1.0000
  C   C933      1.0  0.59697  0.45536  0.71217  1.0000
  C   C934      1.0  0.59043  0.46463  0.00801  1.0000
  H   H744      1.0  0.40463  0.34670  0.93795  1.0000
  H   H745      1.0  0.65422  0.12821  0.04806  1.0000
  C   C935      1.0  0.49539  0.41783  0.99511  1.0000
  C   C936      1.0  0.61489  0.47069  0.68573  1.0000
  H   H746      1.0  0.65468  0.09878  0.58263  1.0000
  C   C937      1.0  0.61171  0.45985  0.03649  1.0000
  H   H747      1.0  0.37507  0.41499  0.01553  1.0000
  C   C938      1.0  0.38485  0.48562  0.98246  1.0000
  H   H748      1.0  0.38072  0.12205  0.86747  1.0000
  H   H749      1.0  0.52166  0.18537  0.01263  1.0000
  C   C939      1.0  0.50446  0.02811  0.79186  1.0000
  S   S127      1.0  0.38687  0.46845  0.69105  1.0000
  H   H750      1.0  0.55876  0.02300  0.87060  1.0000
  C   C940      1.0  0.56956  0.11522  0.03261  1.0000
  C   C941      1.0  0.66593  0.43167  0.87947  1.0000
  H   H751      1.0  0.37866  0.27165  0.88446  1.0000
  H   H752      1.0  0.52439  0.21409  0.66880  1.0000
  H   H753      1.0  0.49173  0.04727  0.79835  1.0000
  H   H754      1.0  0.65841  0.23197  0.07248  1.0000
  H   H755      1.0  0.67828  0.47377  0.90630  1.0000
  C   C942      1.0  0.47556  0.14227  0.57701  1.0000
  C   C943      1.0  0.54539  0.04820  0.69759  1.0000
  H   H756      1.0  0.54104  0.43671  0.59707  1.0000
  C   C944      1.0  0.52109  0.22770  0.61005  1.0000
  H   H757      1.0  0.38583  0.02659  0.72193  1.0000
  C   C945      1.0  0.67546  0.15829  0.95076  1.0000
  H   H758      1.0  0.52155  0.50567  0.92879  1.0000
  C   C946      1.0  0.59645  0.50861  0.91277  1.0000
  H   H759      1.0  0.37818  0.17673  0.78247  1.0000
  H   H760      1.0  0.58356  0.02773  0.67419  1.0000
  H   H761      1.0  0.66200  0.37187  0.03329  1.0000
  C   C947      1.0  0.66309  0.47994  0.84853  1.0000
  C   C948      1.0  0.36667  0.37141  0.95344  1.0000
  C   C949      1.0  0.43999  0.02033  0.59165  1.0000
  C   C950      1.0  0.40974  0.02622  0.59353  1.0000
  C   C951      1.0  0.66981  0.46286  0.88062  1.0000
  C   C952      1.0  0.65777  0.36285  0.06131  1.0000
  H   H762      1.0  0.57126  0.26473  0.05528  1.0000
  C   C953      1.0  0.57886  0.09823  0.58344  1.0000
  H   H763      1.0  0.61885  0.16304  0.57887  1.0000
  H   H764      1.0  0.56308  0.15671  0.58719  1.0000
  H   H765      1.0  0.38593  0.30014  0.96853  1.0000
  C   C954      1.0  0.53988  0.51204  0.79399  1.0000
  C   C955      1.0  0.66595  0.17437  0.58000  1.0000
  H   H766      1.0  0.46350  0.50857  0.84454  1.0000
  C   C956      1.0  0.35902  0.48699  0.96023  1.0000
  H   H767      1.0  0.40039  0.50476  0.98415  1.0000
  H   H768      1.0  0.47042  0.26744  0.58050  1.0000
  H   H769      1.0  0.56481  0.07884  0.07223  1.0000
  C   C957      1.0  0.58674  0.25283  0.07283  1.0000
  C   C958      1.0  0.49726  0.33915  0.57620  1.0000
  Fe  Fe64      1.0  0.45017  0.86337  0.40842  1.0000
  S   S128      1.0  0.41355  0.88442  0.37559  1.0000
  S   S129      1.0  0.48102  0.83233  0.37872  1.0000
  Fe  Fe65      1.0  0.43134  0.89018  0.48437  1.0000
  S   S130      1.0  0.39382  0.91402  0.45772  1.0000
  S   S131      1.0  0.44622  0.89343  0.54603  1.0000
  Fe  Fe66      1.0  0.38439  0.87169  0.42491  1.0000
  C   C959      1.0  0.38512  0.63954  0.15364  1.0000
  Fe  Fe67      1.0  0.42596  0.92478  0.41074  1.0000
  S   S132      1.0  0.42688  0.97003  0.38433  1.0000
  S   S133      1.0  0.41983  0.84663  0.45503  1.0000
  S   S134      1.0  0.46473  0.90498  0.44032  1.0000
  S   S135      1.0  0.37328  0.65989  0.27418  1.0000
  C   C960      1.0  0.65342  0.84431  0.12694  1.0000
  C   C961      1.0  0.46106  0.66162  0.53256  1.0000
  S   S136      1.0  0.38196  0.61652  0.37249  1.0000
  C   C962      1.0  0.49516  0.98852  0.49464  1.0000
  C   C963      1.0  0.42439  0.52260  0.34192  1.0000
  C   C964      1.0  0.38873  0.66837  0.16860  1.0000
  C   C965      1.0  0.40157  0.69140  0.14651  1.0000
  C   C966      1.0  0.60388  0.95624  0.43320  1.0000
  H   H770      1.0  0.62872  0.77745  0.14393  1.0000
  H   H771      1.0  0.40438  0.71355  0.15836  1.0000
  C   C967      1.0  0.48309  0.61893  0.35561  1.0000
  C   C968      1.0  0.46389  0.62469  0.32517  1.0000
  C   C969      1.0  0.43295  0.62339  0.33010  1.0000
  C   C970      1.0  0.42084  0.61661  0.36569  1.0000
  C   C971      1.0  0.44002  0.61044  0.39625  1.0000
  C   C972      1.0  0.47115  0.61152  0.39123  1.0000
  H   H772      1.0  0.47296  0.63029  0.29758  1.0000
  H   H773      1.0  0.41852  0.62745  0.30619  1.0000
  H   H774      1.0  0.43079  0.60507  0.42387  1.0000
  H   H775      1.0  0.48585  0.60703  0.41490  1.0000
  C   C973      1.0  0.60441  0.60281  0.56446  1.0000
  C   C974      1.0  0.59582  0.79889  0.42247  1.0000
  H   H776      1.0  0.46908  0.96632  0.53791  1.0000
  H   H777      1.0  0.38247  0.90486  0.54490  1.0000
  H   H778      1.0  0.66837  0.51598  0.36488  1.0000
  C   C975      1.0  0.50225  0.54664  0.52528  1.0000
  H   H779      1.0  0.66623  0.57752  0.34888  1.0000
  C   C976      1.0  0.48775  0.96847  0.38152  1.0000
  C   C977      1.0  0.61995  0.80554  0.39853  1.0000
  C   C978      1.0  0.34827  0.00109  0.28624  1.0000
  H   H780      1.0  0.48468  0.94452  0.38120  1.0000
  S   S137      1.0  0.62870  0.81770  0.27072  1.0000
  P   P33       1.0  0.64096  0.98778  0.33448  1.0000
  Fe  Fe68      1.0  0.64287  0.85773  0.30561  1.0000
  S   S138      1.0  0.61286  0.88157  0.34547  1.0000
  H   H781      1.0  0.42941  0.80720  0.12901  1.0000
  Fe  Fe69      1.0  0.58648  0.60702  0.46957  1.0000
  S   S139      1.0  0.62464  0.58166  0.44803  1.0000
  S   S140      1.0  0.58512  0.62347  0.53034  1.0000
  Fe  Fe70      1.0  0.55554  0.60781  0.39101  1.0000
  S   S141      1.0  0.59160  0.58243  0.36385  1.0000
  S   S142      1.0  0.52172  0.62270  0.34784  1.0000
  Fe  Fe71      1.0  0.58881  0.55468  0.41663  1.0000
  C   C979      1.0  0.60395  0.93505  0.24922  1.0000
  Fe  Fe72      1.0  0.62333  0.61215  0.39770  1.0000
  C   C980      1.0  0.46314  0.63732  0.55710  1.0000
  S   S143      1.0  0.55038  0.57792  0.44184  1.0000
  S   S144      1.0  0.58754  0.63975  0.42140  1.0000
  C   C981      1.0  0.64217  0.83955  0.08995  1.0000
  H   H782      1.0  0.46807  0.54221  0.33035  1.0000
  H   H783      1.0  0.61092  0.56511  0.52802  1.0000
  C   C982      1.0  0.53964  0.79154  0.48321  1.0000
  H   H784      1.0  0.43324  0.84205  0.18377  1.0000
  H   H785      1.0  0.53568  0.96799  0.38340  1.0000
  H   H786      1.0  0.64948  0.62170  0.23649  1.0000
  H   H787      1.0  0.55060  0.68005  0.56013  1.0000
  C   C983      1.0  0.51660  0.98178  0.38214  1.0000
  H   H788      1.0  0.53180  0.81226  0.42879  1.0000
  S   S145      1.0  0.36945  0.61043  0.18116  1.0000
  H   H789      1.0  0.41242  0.54664  0.47440  1.0000
  C   C984      1.0  0.51699  0.84682  0.36721  1.0000
  C   C985      1.0  0.52634  0.87596  0.37702  1.0000
  C   C986      1.0  0.55565  0.88644  0.36966  1.0000
  C   C987      1.0  0.57578  0.86802  0.35201  1.0000
  C   C988      1.0  0.56627  0.83906  0.34132  1.0000
  C   C989      1.0  0.53699  0.82847  0.34908  1.0000
  H   H790      1.0  0.51110  0.89044  0.39047  1.0000
  H   H791      1.0  0.56273  0.90893  0.37774  1.0000
  H   H792      1.0  0.58164  0.82457  0.32801  1.0000
  H   H793      1.0  0.52989  0.80592  0.34142  1.0000
  C   C990      1.0  0.38482  0.53674  0.29921  1.0000
  H   H794      1.0  0.50585  0.85440  0.45550  1.0000
  C   C991      1.0  0.60449  0.74637  0.41615  1.0000
  H   H795      1.0  0.58420  0.81721  0.43422  1.0000
  C   C992      1.0  0.48510  0.61659  0.55144  1.0000
  H   H796      1.0  0.35783  0.78477  0.38904  1.0000
  H   H797      1.0  0.65428  0.51755  0.43267  1.0000
  H   H798      1.0  0.36408  0.75272  0.18842  1.0000
  C   C993      1.0  0.39668  0.77775  0.15525  1.0000
  C   C994      1.0  0.62694  0.98578  0.38255  1.0000
  H   H799      1.0  0.55803  0.92003  0.24147  1.0000
  C   C995      1.0  0.57158  0.73736  0.50121  1.0000
  C   C996      1.0  0.63733  0.51338  0.23990  1.0000
  H   H800      1.0  0.51948  0.66459  0.40570  1.0000
  C   C997      1.0  0.67709  0.97178  0.33666  1.0000
  C   C998      1.0  0.60496  0.98117  0.45708  1.0000
  C   C999      1.0  0.66314  0.64825  0.18753  1.0000
  C   C1000     1.0  0.64018  0.53417  0.26984  1.0000
  C   C1001     1.0  0.50563  0.62116  0.52190  1.0000
  H   H801      1.0  0.61644  0.75724  0.49877  1.0000
  H   H802      1.0  0.64198  0.73555  0.38147  1.0000
  C   C1002     1.0  0.61473  0.96704  0.30406  1.0000
  H   H803      1.0  0.44387  0.67740  0.53672  1.0000
  C   C1003     1.0  0.40788  0.81637  0.32731  1.0000
  C   C1004     1.0  0.38809  0.82621  0.29931  1.0000
  C   C1005     1.0  0.40626  0.65709  0.09393  1.0000
  P   P34       1.0  0.40192  0.84393  0.25648  1.0000
  C   C1006     1.0  0.44486  0.54050  0.32146  1.0000
  C   C1007     1.0  0.43992  0.85786  0.26520  1.0000
  C   C1008     1.0  0.44601  0.88687  0.27923  1.0000
  C   C1009     1.0  0.47524  0.89674  0.28825  1.0000
  C   C1010     1.0  0.49867  0.87782  0.28328  1.0000
  C   C1011     1.0  0.49287  0.84892  0.26955  1.0000
  C   C1012     1.0  0.46363  0.83890  0.26065  1.0000
  H   H804      1.0  0.40064  0.99945  0.45151  1.0000
  H   H805      1.0  0.48041  0.51394  0.39949  1.0000
  C   C1013     1.0  0.40022  0.52719  0.46305  1.0000
  C   C1014     1.0  0.56467  0.69739  0.54718  1.0000
  C   C1015     1.0  0.56027  0.65492  0.09982  1.0000
  C   C1016     1.0  0.40037  0.81744  0.21740  1.0000
  C   C1017     1.0  0.41817  0.82256  0.18517  1.0000
  C   C1018     1.0  0.41608  0.80293  0.15412  1.0000
  C   C1019     1.0  0.37916  0.77228  0.18735  1.0000
  C   C1020     1.0  0.38062  0.79223  0.21801  1.0000
  C   C1021     1.0  0.61778  0.00815  0.44419  1.0000
  C   C1022     1.0  0.60534  0.54668  0.20598  1.0000
  C   C1023     1.0  0.46300  0.98620  0.38138  1.0000
  H   H806      1.0  0.43169  0.82030  0.32475  1.0000
  C   C1024     1.0  0.60807  0.56707  0.23609  1.0000
  H   H807      1.0  0.43130  0.58382  0.53901  1.0000
  H   H808      1.0  0.47958  0.91883  0.30014  1.0000
  H   H809      1.0  0.52121  0.88519  0.29130  1.0000
  H   H810      1.0  0.51105  0.83408  0.26721  1.0000
  H   H811      1.0  0.45934  0.81611  0.25151  1.0000
  C   C1025     1.0  0.40534  0.55456  0.27870  1.0000
  H   H812      1.0  0.42835  0.90182  0.28435  1.0000
  C   C1026     1.0  0.57372  0.93351  0.25855  1.0000
  H   H813      1.0  0.45990  0.73620  0.39751  1.0000
  H   H814      1.0  0.49654  0.76959  0.42997  1.0000
  H   H815      1.0  0.39173  0.61162  0.10481  1.0000
  C   C1027     1.0  0.62886  0.75317  0.39273  1.0000
  H   H816      1.0  0.36603  0.78778  0.24184  1.0000
  C   C1028     1.0  0.42542  0.70327  0.33061  1.0000
  C   C1029     1.0  0.40419  0.72413  0.32272  1.0000
  C   C1030     1.0  0.40907  0.74471  0.29352  1.0000
  C   C1031     1.0  0.43513  0.74456  0.27200  1.0000
  C   C1032     1.0  0.45658  0.72360  0.27975  1.0000
  C   C1033     1.0  0.45155  0.70303  0.30926  1.0000
  P   P35       1.0  0.48862  0.72008  0.24965  1.0000
  C   C1034     1.0  0.48669  0.68179  0.23360  1.0000
  C   C1035     1.0  0.48738  0.74557  0.21002  1.0000
  C   C1036     1.0  0.47639  0.73644  0.17403  1.0000
  C   C1037     1.0  0.47742  0.75636  0.14348  1.0000
  C   C1038     1.0  0.48923  0.78540  0.14856  1.0000
  C   C1039     1.0  0.49969  0.79479  0.18441  1.0000
  C   C1040     1.0  0.49869  0.77500  0.21503  1.0000
  C   C1041     1.0  0.51143  0.66396  0.23689  1.0000
  C   C1042     1.0  0.50894  0.63383  0.22666  1.0000
  C   C1043     1.0  0.48173  0.62126  0.21335  1.0000
  C   C1044     1.0  0.45693  0.63873  0.21049  1.0000
  C   C1045     1.0  0.45933  0.66882  0.22070  1.0000
  C   C1046     1.0  0.52343  0.72931  0.27425  1.0000
  C   C1047     1.0  0.52433  0.73592  0.31337  1.0000
  C   C1048     1.0  0.55133  0.74500  0.33106  1.0000
  C   C1049     1.0  0.57749  0.74771  0.30984  1.0000
  C   C1050     1.0  0.57678  0.74126  0.27093  1.0000
  C   C1051     1.0  0.54987  0.73220  0.25315  1.0000
  H   H817      1.0  0.42111  0.68669  0.35248  1.0000
  H   H818      1.0  0.38352  0.72394  0.33848  1.0000
  H   H819      1.0  0.39206  0.76023  0.28721  1.0000
  H   H820      1.0  0.43792  0.76022  0.24885  1.0000
  H   H821      1.0  0.46753  0.68630  0.31503  1.0000
  H   H822      1.0  0.46712  0.71410  0.16920  1.0000
  H   H823      1.0  0.46895  0.74933  0.11575  1.0000
  H   H824      1.0  0.49008  0.80067  0.12473  1.0000
  H   H825      1.0  0.50880  0.81735  0.18842  1.0000
  H   H826      1.0  0.50711  0.78258  0.24259  1.0000
  H   H827      1.0  0.53233  0.67287  0.24857  1.0000
  H   H828      1.0  0.52781  0.61997  0.23030  1.0000
  H   H829      1.0  0.47960  0.59781  0.20612  1.0000
  H   H830      1.0  0.43560  0.62882  0.20114  1.0000
  H   H831      1.0  0.43965  0.68184  0.21927  1.0000
  H   H832      1.0  0.50427  0.73477  0.33015  1.0000
  H   H833      1.0  0.55188  0.75053  0.36109  1.0000
  H   H834      1.0  0.59833  0.75516  0.32331  1.0000
  H   H835      1.0  0.59712  0.74375  0.25458  1.0000
  H   H836      1.0  0.54951  0.72805  0.22277  1.0000
  C   C1052     1.0  0.35516  0.90627  0.19904  1.0000
  H   H837      1.0  0.61417  0.93893  0.37819  1.0000
  C   C1053     1.0  0.55353  0.66964  0.13356  1.0000
  C   C1054     1.0  0.57556  0.67477  0.16159  1.0000
  C   C1055     1.0  0.60446  0.66481  0.15638  1.0000
  C   C1056     1.0  0.61097  0.64991  0.12241  1.0000
  P   P36       1.0  0.63357  0.67406  0.19115  1.0000
  C   C1057     1.0  0.64837  0.71147  0.18250  1.0000
  C   C1058     1.0  0.61927  0.67189  0.23900  1.0000
  C   C1059     1.0  0.63405  0.68776  0.26861  1.0000
  C   C1060     1.0  0.62429  0.68471  0.30610  1.0000
  C   C1061     1.0  0.59968  0.66580  0.31436  1.0000
  C   C1062     1.0  0.58506  0.64959  0.28517  1.0000
  C   C1063     1.0  0.59486  0.65250  0.24762  1.0000
  C   C1064     1.0  0.52021  0.52683  0.50661  1.0000
  H   H838      1.0  0.63636  0.69649  0.32890  1.0000
  H   H839      1.0  0.51982  0.64878  0.47517  1.0000
  C   C1065     1.0  0.64238  0.76118  0.15747  1.0000
  C   C1066     1.0  0.63062  0.73253  0.16500  1.0000
  H   H840      1.0  0.65350  0.70210  0.26311  1.0000
  C   C1067     1.0  0.61518  0.95845  0.39631  1.0000
  H   H841      1.0  0.53127  0.67737  0.13780  1.0000
  H   H842      1.0  0.57018  0.68688  0.18712  1.0000
  H   H843      1.0  0.63306  0.64233  0.11722  1.0000
  H   H844      1.0  0.38299  0.55663  0.54841  1.0000
  H   H845      1.0  0.61848  0.83539  0.08545  1.0000
  H   H846      1.0  0.59233  0.66324  0.34349  1.0000
  H   H847      1.0  0.56639  0.63445  0.29194  1.0000
  H   H848      1.0  0.58370  0.63921  0.22558  1.0000
  C   C1068     1.0  0.35221  0.55434  0.07872  1.0000
  H   H849      1.0  0.39514  0.76253  0.13114  1.0000
  C   C1069     1.0  0.36964  0.89340  0.27467  1.0000
  Fe  Fe73      1.0  0.65206  0.84181  0.22295  1.0000
  H   H850      1.0  0.60776  0.72708  0.15693  1.0000
  H   H851      1.0  0.54257  0.77700  0.54204  1.0000
  C   C1070     1.0  0.58897  0.64509  0.09424  1.0000
  H   H852      1.0  0.61162  0.92275  0.22487  1.0000
  C   C1071     1.0  0.52914  0.81378  0.45931  1.0000
  H   H853      1.0  0.45108  0.57086  0.27461  1.0000
  C   C1072     1.0  0.63642  0.78272  0.38366  1.0000
  C   C1073     1.0  0.66506  0.62458  0.21335  1.0000
  C   C1074     1.0  0.40962  0.68596  0.10880  1.0000
  C   C1075     1.0  0.55296  0.71604  0.51962  1.0000
  C   C1076     1.0  0.48122  0.66564  0.50271  1.0000
  S   S146      1.0  0.66243  0.63895  0.37408  1.0000
  C   C1077     1.0  0.62566  0.56094  0.26785  1.0000
  S   S147      1.0  0.62906  0.84191  0.16569  1.0000
  C   C1078     1.0  0.60172  0.74068  0.51211  1.0000
  S   S148      1.0  0.42340  0.71544  0.08044  1.0000
  C   C1079     1.0  0.39700  0.80159  0.35964  1.0000
  C   C1080     1.0  0.51426  0.83767  0.47438  1.0000
  H   H854      1.0  0.37872  0.86776  0.18413  1.0000
  C   C1081     1.0  0.67169  0.76921  0.16790  1.0000
  H   H855      1.0  0.65347  0.52967  0.29487  1.0000
  C   C1082     1.0  0.52003  0.81773  0.53771  1.0000
  H   H856      1.0  0.65517  0.78785  0.36520  1.0000
  C   C1083     1.0  0.50955  0.83960  0.51353  1.0000
  H   H857      1.0  0.48232  0.55370  0.51100  1.0000
  H   H858      1.0  0.62594  0.82852  0.39156  1.0000
  H   H859      1.0  0.54331  0.65124  0.07788  1.0000
  H   H860      1.0  0.47959  0.68445  0.48370  1.0000
  C   C1084     1.0  0.56380  0.94938  0.28990  1.0000
  Fe  Fe74      1.0  0.67395  0.80190  0.28541  1.0000
  H   H861      1.0  0.64773  0.95287  0.26413  1.0000
  C   C1085     1.0  0.37924  0.87495  0.24533  1.0000
  C   C1086     1.0  0.61332  0.72208  0.53985  1.0000
  Fe  Fe75      1.0  0.35508  0.63092  0.32121  1.0000
  H   H862      1.0  0.63675  0.72411  0.54746  1.0000
  H   H863      1.0  0.47085  0.68310  0.38611  1.0000
  H   H864      1.0  0.59946  0.72330  0.42311  1.0000
  H   H865      1.0  0.55643  0.69726  0.43889  1.0000
  C   C1087     1.0  0.54654  0.51808  0.52366  1.0000
  C   C1088     1.0  0.53504  0.79379  0.52270  1.0000
  H   H866      1.0  0.52956  0.71338  0.51216  1.0000
  H   H867      1.0  0.49740  0.85787  0.52496  1.0000
  C   C1089     1.0  0.37186  0.88158  0.20738  1.0000
  C   C1090     1.0  0.51467  0.68758  0.41093  1.0000
  C   C1091     1.0  0.48725  0.69812  0.39979  1.0000
  C   C1092     1.0  0.48108  0.72782  0.40657  1.0000
  C   C1093     1.0  0.50219  0.74683  0.42509  1.0000
  C   C1094     1.0  0.52965  0.73613  0.43730  1.0000
  C   C1095     1.0  0.53573  0.70637  0.42958  1.0000
  P   P37       1.0  0.55705  0.75954  0.46306  1.0000
  C   C1096     1.0  0.58754  0.76914  0.43111  1.0000
  H   H868      1.0  0.62792  0.57686  0.29112  1.0000
  C   C1097     1.0  0.67755  0.51623  0.42504  1.0000
  C   C1098     1.0  0.39425  0.63387  0.11643  1.0000
  H   H869      1.0  0.39789  0.56714  0.25436  1.0000
  C   C1099     1.0  0.50367  0.64555  0.49766  1.0000
  H   H870      1.0  0.37487  0.88873  0.30420  1.0000
  C   C1100     1.0  0.62440  0.95197  0.27170  1.0000
  H   H871      1.0  0.59172  0.55150  0.18134  1.0000
  H   H872      1.0  0.41237  0.79490  0.38163  1.0000
  S   S149      1.0  0.66327  0.88324  0.25667  1.0000
  H   H873      1.0  0.57603  0.97868  0.33635  1.0000
  C   C1101     1.0  0.39406  0.52130  0.33161  1.0000
  H   H874      1.0  0.38153  0.67308  0.19709  1.0000
  H   H875      1.0  0.39689  0.54562  0.40692  1.0000
  C   C1102     1.0  0.61997  0.51993  0.20779  1.0000
  H   H876      1.0  0.59646  0.58757  0.23498  1.0000
  C   C1103     1.0  0.61439  0.57452  0.55618  1.0000
  C   C1104     1.0  0.48692  0.98282  0.53232  1.0000
  C   C1105     1.0  0.43531  0.55657  0.28997  1.0000
  C   C1106     1.0  0.50184  0.99803  0.56254  1.0000
  H   H877      1.0  0.53319  0.53060  0.39064  1.0000
  H   H878      1.0  0.59394  0.93523  0.44294  1.0000
  H   H879      1.0  0.48395  0.97643  0.47136  1.0000
  C   C1107     1.0  0.58416  0.96634  0.31232  1.0000
  H   H880      1.0  0.54037  0.94844  0.29715  1.0000
  H   H881      1.0  0.57498  0.52181  0.57313  1.0000
  H   H882      1.0  0.59563  0.97966  0.48539  1.0000
  H   H883      1.0  0.65995  0.92637  0.32861  1.0000
  C   C1108     1.0  0.39171  0.52636  0.42460  1.0000
  H   H884      1.0  0.52346  0.60616  0.51764  1.0000
  C   C1109     1.0  0.40104  0.55397  0.56865  1.0000
  C   C1110     1.0  0.36638  0.79581  0.36376  1.0000
  H   H885      1.0  0.34918  0.91107  0.16980  1.0000
  H   H886      1.0  0.36175  0.53525  0.28988  1.0000
  H   H887      1.0  0.51398  0.51863  0.47857  1.0000
  C   C1111     1.0  0.59487  0.70027  0.55707  1.0000
  C   C1112     1.0  0.35387  0.91861  0.26607  1.0000
  H   H888      1.0  0.51610  0.81915  0.56805  1.0000
  H   H889      1.0  0.50600  0.93608  0.56756  1.0000
  H   H890      1.0  0.34875  0.99802  0.25565  1.0000
  C   C1113     1.0  0.55438  0.52837  0.56015  1.0000
  Fe  Fe76      1.0  0.34908  0.62752  0.23484  1.0000
  C   C1114     1.0  0.62882  0.01049  0.40708  1.0000
  H   H891      1.0  0.39125  0.54429  0.11141  1.0000
  C   C1115     1.0  0.38271  0.55040  0.08367  1.0000
  C   C1116     1.0  0.42841  0.56958  0.56363  1.0000
  H   H892      1.0  0.63358  0.70394  0.09025  1.0000
  C   C1117     1.0  0.35731  0.82074  0.30403  1.0000
  H   H893      1.0  0.46947  0.66998  0.08006  1.0000
  C   C1118     1.0  0.51048  0.55792  0.56141  1.0000
  C   C1119     1.0  0.39044  0.90563  0.57407  1.0000
  C   C1120     1.0  0.67962  0.94100  0.33235  1.0000
  H   H894      1.0  0.34769  0.93338  0.28876  1.0000
  H   H895      1.0  0.67640  0.99630  0.47392  1.0000
  H   H896      1.0  0.35452  0.00694  0.49694  1.0000
  C   C1121     1.0  0.67767  0.72001  0.19374  1.0000
  C   C1122     1.0  0.34700  0.01025  0.36542  1.0000
  C   C1123     1.0  0.51783  0.00989  0.48689  1.0000
  C   C1124     1.0  0.37421  0.01063  0.30589  1.0000
  Fe  Fe77      1.0  0.41425  0.73236  0.93788  1.0000
  H   H897      1.0  0.66387  0.90753  0.98389  1.0000
  S   S150      1.0  0.43748  0.76672  0.90040  1.0000
  Fe  Fe78      1.0  0.41043  0.70816  0.01893  1.0000
  C   C1125     1.0  0.51649  0.51885  0.69453  1.0000
  Fe  Fe79      1.0  0.40815  0.66527  0.95131  1.0000
  S   S151      1.0  0.42770  0.62134  0.93579  1.0000
  S   S152      1.0  0.44173  0.70081  0.97102  1.0000
  H   H898      1.0  0.38731  0.74332  0.84872  1.0000
  Fe  Fe80      1.0  0.38078  0.93008  0.73515  1.0000
  S   S153      1.0  0.41045  0.89953  0.76665  1.0000
  S   S154      1.0  0.35668  0.92032  0.67928  1.0000
  Fe  Fe81      1.0  0.38773  0.97927  0.79564  1.0000
  S   S155      1.0  0.41816  0.95328  0.83256  1.0000
  C   C1126     1.0  0.50637  0.93139  0.59766  1.0000
  Fe  Fe82      1.0  0.43914  0.94107  0.77727  1.0000
  S   S156      1.0  0.48850  0.94027  0.77091  1.0000
  Fe  Fe83      1.0  0.38702  0.91394  0.81929  1.0000
  H   H899      1.0  0.49839  0.71727  0.06894  1.0000
  S   S157      1.0  0.41164  0.97043  0.74121  1.0000
  C   C1127     1.0  0.51777  0.67949  0.98916  1.0000
  C   C1128     1.0  0.50630  0.97535  0.77785  1.0000
  C   C1129     1.0  0.56917  0.75880  0.89097  1.0000
  C   C1130     1.0  0.39705  0.53470  0.59953  1.0000
  H   H900      1.0  0.48848  0.55749  0.82955  1.0000
  C   C1131     1.0  0.45182  0.56634  0.58992  1.0000
  C   C1132     1.0  0.40555  0.59224  0.91464  1.0000
  H   H901      1.0  0.56773  0.87741  0.86373  1.0000
  H   H902      1.0  0.59570  0.71559  0.97728  1.0000
  C   C1133     1.0  0.38194  0.77604  0.80493  1.0000
  C   C1134     1.0  0.40215  0.54267  0.88602  1.0000
  C   C1135     1.0  0.41927  0.56672  0.90175  1.0000
  C   C1136     1.0  0.56807  0.73063  0.90771  1.0000
  H   H903      1.0  0.34896  0.82548  0.61034  1.0000
  H   H904      1.0  0.44324  0.56556  0.90389  1.0000
  C   C1137     1.0  0.41777  0.79869  0.88991  1.0000
  C   C1138     1.0  0.43009  0.82001  0.86478  1.0000
  C   C1139     1.0  0.41486  0.84581  0.85627  1.0000
  C   C1140     1.0  0.38741  0.85053  0.87321  1.0000
  C   C1141     1.0  0.53299  0.61086  0.62896  1.0000
  C   C1142     1.0  0.39010  0.80323  0.90635  1.0000
  H   H905      1.0  0.45146  0.81661  0.85192  1.0000
  H   H906      1.0  0.42456  0.86226  0.83715  1.0000
  H   H907      1.0  0.56052  0.51266  0.77894  1.0000
  H   H908      1.0  0.56705  0.85240  0.80122  1.0000
  H   H909      1.0  0.46579  0.99792  0.78730  1.0000
  C   C1143     1.0  0.66156  0.83989  0.05884  1.0000
  C   C1144     1.0  0.43041  0.90151  0.62011  1.0000
  C   C1145     1.0  0.41096  0.90766  0.64980  1.0000
  C   C1146     1.0  0.38112  0.91275  0.64185  1.0000
  C   C1147     1.0  0.37077  0.91152  0.60395  1.0000
  H   H910      1.0  0.41913  0.90838  0.67889  1.0000
  H   H911      1.0  0.38034  0.78688  0.92553  1.0000
  H   H912      1.0  0.48290  0.62007  0.71719  1.0000
  H   H913      1.0  0.36424  0.55301  0.79294  1.0000
  S   S158      1.0  0.65105  0.82250  0.95181  1.0000
  S   S159      1.0  0.63015  0.88312  0.88012  1.0000
  C   C1148     1.0  0.53622  0.54784  0.57935  1.0000
  C   C1149     1.0  0.49786  0.65498  0.90161  1.0000
  C   C1150     1.0  0.42041  0.90069  0.58216  1.0000
  S   S160      1.0  0.64539  0.73855  0.92194  1.0000
  C   C1151     1.0  0.54511  0.77715  0.89453  1.0000
  H   H914      1.0  0.55501  0.62932  0.82769  1.0000
  Fe  Fe84      1.0  0.64982  0.61086  0.77741  1.0000
  S   S161      1.0  0.36873  0.88346  0.86512  1.0000
  H   H915      1.0  0.35380  0.83272  0.91129  1.0000
  Fe  Fe85      1.0  0.59265  0.57167  0.77858  1.0000
  S   S162      1.0  0.61573  0.53093  0.76017  1.0000
  S   S163      1.0  0.54396  0.57308  0.79266  1.0000
  Fe  Fe86      1.0  0.65071  0.54615  0.80276  1.0000
  H   H916      1.0  0.50096  0.78122  0.91701  1.0000
  Fe  Fe87      1.0  0.63943  0.56179  0.71896  1.0000
  S   S164      1.0  0.64698  0.54740  0.65802  1.0000
  S   S165      1.0  0.62629  0.58530  0.82356  1.0000
  S   S166      1.0  0.61346  0.60144  0.73417  1.0000
  C   C1152     1.0  0.64628  0.91475  0.85781  1.0000
  C   C1153     1.0  0.62804  0.93573  0.84123  1.0000
  C   C1154     1.0  0.64077  0.96142  0.82404  1.0000
  S   S167      1.0  0.38288  0.69628  0.91411  1.0000
  H   H917      1.0  0.41739  0.51590  0.64916  1.0000
  C   C1155     1.0  0.47545  0.54248  0.72469  1.0000
  H   H918      1.0  0.60410  0.93187  0.84103  1.0000
  H   H919      1.0  0.62664  0.97736  0.81083  1.0000
  H   H920      1.0  0.45331  0.89727  0.62667  1.0000
  C   C1156     1.0  0.65356  0.71529  0.88340  1.0000
  C   C1157     1.0  0.64126  0.68609  0.88161  1.0000
  C   C1158     1.0  0.64716  0.66769  0.85042  1.0000
  H   H921      1.0  0.35266  0.57321  0.98461  1.0000
  H   H922      1.0  0.51982  0.84676  0.76369  1.0000
  Fe  Fe88      1.0  0.66293  0.85009  0.90051  1.0000
  H   H923      1.0  0.62702  0.67771  0.90413  1.0000
  H   H924      1.0  0.63736  0.64537  0.84903  1.0000
  C   C1159     1.0  0.51910  0.73933  0.93236  1.0000
  C   C1160     1.0  0.37114  0.54384  0.88355  1.0000
  C   C1161     1.0  0.53739  0.97833  0.77616  1.0000
  C   C1162     1.0  0.37460  0.59360  0.91168  1.0000
  C   C1163     1.0  0.54891  0.65244  0.88058  1.0000
  H   H925      1.0  0.55019  0.95902  0.77056  1.0000
  H   H926      1.0  0.54563  0.79858  0.88053  1.0000
  C   C1164     1.0  0.60894  0.61464  0.60113  1.0000
  C   C1165     1.0  0.62245  0.59801  0.62971  1.0000
  C   C1166     1.0  0.63154  0.56935  0.62192  1.0000
  H   H927      1.0  0.65281  0.83641  0.03044  1.0000
  C   C1167     1.0  0.36642  0.54727  0.73199  1.0000
  H   H928      1.0  0.62614  0.60760  0.65760  1.0000
  C   C1168     1.0  0.52841  0.66143  0.90777  1.0000
  H   H929      1.0  0.56549  0.62463  0.95456  1.0000
  C   C1169     1.0  0.50173  0.65250  0.99607  1.0000
  C   C1170     1.0  0.59934  0.69196  0.97698  1.0000
  H   H930      1.0  0.53681  0.63433  0.72132  1.0000
  H   H931      1.0  0.50117  0.61584  0.81872  1.0000
  C   C1171     1.0  0.48811  0.63827  0.86982  1.0000
  H   H932      1.0  0.40572  0.77994  0.80115  1.0000
  H   H933      1.0  0.34764  0.91529  0.59767  1.0000
  H   H934      1.0  0.44143  0.96448  0.65702  1.0000
  C   C1172     1.0  0.52006  0.76740  0.91518  1.0000
  C   C1173     1.0  0.52721  0.62559  0.69484  1.0000
  H   H935      1.0  0.52109  0.87385  0.65660  1.0000
  H   H936      1.0  0.51945  0.88663  0.58783  1.0000
  H   H937      1.0  0.62126  0.54693  0.89143  1.0000
  H   H938      1.0  0.44759  0.63462  0.58037  1.0000
  H   H939      1.0  0.47351  0.86702  0.78899  1.0000
  C   C1174     1.0  0.62805  0.55789  0.58482  1.0000
  C   C1175     1.0  0.59952  0.53794  0.89992  1.0000
  C   C1176     1.0  0.35291  0.96216  0.89375  1.0000
  H   H940      1.0  0.46600  0.54279  0.64001  1.0000
  H   H941      1.0  0.36401  0.61324  0.92144  1.0000
  H   H942      1.0  0.46452  0.63283  0.86570  1.0000
  H   H943      1.0  0.64478  0.78347  0.02405  1.0000
  C   C1177     1.0  0.48333  0.67241  0.05508  1.0000
  C   C1178     1.0  0.50296  0.60081  0.62707  1.0000
  H   H944      1.0  0.50227  0.63414  0.97607  1.0000
  S   S168      1.0  0.35463  0.94090  0.78695  1.0000
  H   H945      1.0  0.61295  0.74962  0.06338  1.0000
  C   C1179     1.0  0.61020  0.63122  0.97626  1.0000
  C   C1180     1.0  0.65406  0.76406  0.03682  1.0000
  S   S169      1.0  0.38612  0.74325  0.98800  1.0000
  C   C1181     1.0  0.67745  0.71290  0.06750  1.0000
  H   H946      1.0  0.46113  0.59908  0.65763  1.0000
  C   C1182     1.0  0.49883  0.95275  0.62483  1.0000
  H   H947      1.0  0.64474  0.69845  0.99637  1.0000
  H   H948      1.0  0.57248  0.65830  0.88373  1.0000
  C   C1183     1.0  0.42041  0.53105  0.62540  1.0000
  H   H949      1.0  0.52977  0.72333  0.01174  1.0000
  H   H950      1.0  0.47393  0.89221  0.85128  1.0000
  C   C1184     1.0  0.51438  0.90308  0.60910  1.0000
  C   C1185     1.0  0.51516  0.89585  0.64774  1.0000
  C   C1186     1.0  0.35324  0.54369  0.76764  1.0000
  C   C1187     1.0  0.66838  0.94545  0.94673  1.0000
  H   H951      1.0  0.49444  0.96127  0.68544  1.0000
  H   H952      1.0  0.57671  0.57750  0.88511  1.0000
  H   H953      1.0  0.50847  0.91134  0.70497  1.0000
  C   C1188     1.0  0.49974  0.69908  0.04883  1.0000
  C   C1189     1.0  0.48471  0.60506  0.65878  1.0000
  C   C1190     1.0  0.54339  0.72094  0.92934  1.0000
  C   C1191     1.0  0.53906  0.63615  0.84858  1.0000
  S   S170      1.0  0.67468  0.81112  0.86444  1.0000
  C   C1192     1.0  0.50787  0.91693  0.67498  1.0000
  H   H954      1.0  0.60175  0.63664  0.60761  1.0000
  C   C1193     1.0  0.48428  0.64915  0.02869  1.0000
  C   C1194     1.0  0.57720  0.67143  0.96344  1.0000
  C   C1195     1.0  0.52667  0.53844  0.80391  1.0000
  C   C1196     1.0  0.67909  0.92429  0.97178  1.0000
  H   H955      1.0  0.51943  0.56296  0.71816  1.0000
  H   H956      1.0  0.37098  0.85439  0.66464  1.0000
  H   H957      1.0  0.56865  0.62936  0.66466  1.0000
  H   H958      1.0  0.52715  0.55655  0.90407  1.0000
  H   H959      1.0  0.65420  0.64453  0.99695  1.0000
  H   H960      1.0  0.43409  0.51632  0.72677  1.0000
  C   C1197     1.0  0.54519  0.62261  0.66295  1.0000
  C   C1198     1.0  0.58255  0.64090  0.96407  1.0000
  H   H961      1.0  0.67990  0.98218  0.90970  1.0000
  C   C1199     1.0  0.62711  0.68224  0.98858  1.0000
  H   H962      1.0  0.58858  0.76609  0.87474  1.0000
  C   C1200     1.0  0.55205  0.00613  0.78243  1.0000
  C   C1201     1.0  0.51711  0.70256  0.01614  1.0000
  C   C1202     1.0  0.63604  0.74480  0.05872  1.0000
  H   H963      1.0  0.55411  0.99683  0.62805  1.0000
  H   H964      1.0  0.59627  0.98648  0.88814  1.0000
  C   C1203     1.0  0.37504  0.82915  0.89816  1.0000
  H   H965      1.0  0.50514  0.00734  0.86821  1.0000
  H   H966      1.0  0.47096  0.62874  0.03306  1.0000
  S   S171      1.0  0.37881  0.67050  0.00187  1.0000
  Fe  Fe89      1.0  0.35684  0.70502  0.96703  1.0000
  H   H967      1.0  0.48145  0.66288  0.92113  1.0000
  H   H968      1.0  0.46693  0.56132  0.73968  1.0000
  C   C1204     1.0  0.67801  0.80377  0.74269  1.0000
  P   P38       1.0  0.54133  0.68356  0.94802  1.0000
  C   C1205     1.0  0.49686  0.61733  0.69254  1.0000
  C   C1206     1.0  0.49975  0.94524  0.66368  1.0000
  H   H969      1.0  0.49901  0.73177  0.94690  1.0000
  C   C1207     1.0  0.50871  0.62876  0.84338  1.0000
  C   C1208     1.0  0.67177  0.96586  0.82308  1.0000
  H   H970      1.0  0.61449  0.60771  0.97563  1.0000
  C   C1209     1.0  0.63254  0.65191  0.98833  1.0000
  P   P39       1.0  0.49077  0.99035  0.61106  1.0000
  C   C1210     1.0  0.39115  0.56361  0.01773  1.0000
  C   C1211     1.0  0.37156  0.75543  0.83191  1.0000
  H   H971      1.0  0.41292  0.52305  0.87632  1.0000
  H   H972      1.0  0.58632  0.71623  0.90317  1.0000
  H   H973      1.0  0.41332  0.65250  0.06526  1.0000
  C   C1212     1.0  0.44018  0.87171  0.94591  1.0000
  C   C1213     1.0  0.42900  0.89600  0.96504  1.0000
  C   C1214     1.0  0.44626  0.92259  0.96819  1.0000
  C   C1215     1.0  0.47444  0.92509  0.95149  1.0000
  C   C1216     1.0  0.48509  0.90127  0.93041  1.0000
  C   C1217     1.0  0.46814  0.87424  0.92877  1.0000
  P   P40       1.0  0.52134  0.90408  0.90858  1.0000
  C   C1218     1.0  0.53311  0.94198  0.89755  1.0000
  C   C1219     1.0  0.54665  0.88748  0.94168  1.0000
  C   C1220     1.0  0.56051  0.90464  0.97091  1.0000
  C   C1221     1.0  0.58023  0.89172  0.99639  1.0000
  C   C1222     1.0  0.58584  0.86151  0.99322  1.0000
  C   C1223     1.0  0.57143  0.84410  0.96492  1.0000
  C   C1224     1.0  0.55165  0.85696  0.93950  1.0000
  C   C1225     1.0  0.56353  0.95080  0.89803  1.0000
  C   C1226     1.0  0.57273  0.97998  0.88858  1.0000
  H   H974      1.0  0.54701  0.60938  0.60415  1.0000
  C   C1227     1.0  0.52140  0.99169  0.87717  1.0000
  C   C1228     1.0  0.51219  0.96236  0.88571  1.0000
  C   C1229     1.0  0.52055  0.88517  0.86316  1.0000
  C   C1230     1.0  0.49416  0.88264  0.84139  1.0000
  C   C1231     1.0  0.49387  0.86845  0.80587  1.0000
  C   C1232     1.0  0.52002  0.85727  0.79150  1.0000
  C   C1233     1.0  0.54656  0.86040  0.81260  1.0000
  C   C1234     1.0  0.54687  0.87451  0.84816  1.0000
  H   H975      1.0  0.42699  0.85096  0.94393  1.0000
  H   H976      1.0  0.40699  0.89411  0.97743  1.0000
  H   H977      1.0  0.43774  0.94129  0.98348  1.0000
  H   H978      1.0  0.48770  0.94565  0.95487  1.0000
  H   H979      1.0  0.47631  0.85515  0.91390  1.0000
  H   H980      1.0  0.55617  0.92800  0.97391  1.0000
  H   H981      1.0  0.59125  0.90511  0.01856  1.0000
  H   H982      1.0  0.60130  0.85160  0.01276  1.0000
  H   H983      1.0  0.57574  0.82066  0.96246  1.0000
  H   H984      1.0  0.54037  0.84315  0.91808  1.0000
  H   H985      1.0  0.58025  0.93496  0.90474  1.0000
  C   C1235     1.0  0.48979  0.00025  0.78560  1.0000
  H   H986      1.0  0.60407  0.68521  0.57761  1.0000
  C   C1236     1.0  0.39107  0.00987  0.61815  1.0000
  H   H987      1.0  0.48885  0.95554  0.88246  1.0000
  C   C1237     1.0  0.44782  0.54648  0.62035  1.0000
  C   C1238     1.0  0.54658  0.54332  0.90731  1.0000
  C   C1239     1.0  0.43293  0.98175  0.63913  1.0000
  H   H988      1.0  0.38773  0.55936  0.72954  1.0000
  H   H989      1.0  0.38824  0.97525  0.66021  1.0000
  C   C1240     1.0  0.66565  0.67835  0.82113  1.0000
  C   C1241     1.0  0.67207  0.72582  0.85421  1.0000
  H   H990      1.0  0.57607  0.00805  0.78203  1.0000
  H   H991      1.0  0.37054  0.80805  0.76323  1.0000
  C   C1242     1.0  0.45715  0.51699  0.71805  1.0000
  C   C1243     1.0  0.57454  0.55517  0.89664  1.0000
  Fe  Fe90      1.0  0.66727  0.78437  0.91764  1.0000
  H   H992      1.0  0.64488  0.94496  0.93922  1.0000
  H   H993      1.0  0.63537  0.53588  0.57837  1.0000
  C   C1244     1.0  0.49894  0.53716  0.82193  1.0000
  C   C1245     1.0  0.35995  0.99216  0.90137  1.0000
  C   C1246     1.0  0.50501  0.54344  0.71259  1.0000
  H   H994      1.0  0.54282  0.55525  0.60764  1.0000
  H   H995      1.0  0.53958  0.52020  0.68597  1.0000
  P   P41       1.0  0.48768  0.58526  0.58307  1.0000
  C   C1247     1.0  0.40273  0.98787  0.64111  1.0000
  H   H996      1.0  0.35103  0.84769  0.72914  1.0000
  H   H997      1.0  0.65613  0.81149  0.74929  1.0000
  S   S172      1.0  0.67718  0.57281  0.75983  1.0000
  C   C1248     1.0  0.35738  0.56932  0.89654  1.0000
  H   H998      1.0  0.37045  0.94670  0.89015  1.0000
  C   C1249     1.0  0.36178  0.79206  0.78352  1.0000
  C   C1250     1.0  0.45171  0.99773  0.61407  1.0000
  S   S173      1.0  0.67350  0.65606  0.78154  1.0000
  C   C1251     1.0  0.40222  0.55530  0.05328  1.0000
  H   H999      1.0  0.38308  0.00018  0.90272  1.0000
  C   C1252     1.0  0.55164  0.00051  0.87858  1.0000
  H   H1000     1.0  0.59421  0.63392  0.06788  1.0000
  C   C1253     1.0  0.36064  0.56725  0.01260  1.0000
  H   H1001     1.0  0.37597  0.52233  0.60329  1.0000
  H   H1002     1.0  0.36261  0.53731  0.67214  1.0000
  C   C1254     1.0  0.67721  0.91940  0.85681  1.0000
  H   H1003     1.0  0.40621  0.56755  0.99407  1.0000
  S   S174      1.0  0.66996  0.51874  0.85000  1.0000
  C   C1255     1.0  0.35272  0.83827  0.66936  1.0000
  C   C1256     1.0  0.54347  0.51411  0.92083  1.0000
  H   H1004     1.0  0.67992  0.98264  0.67022  1.0000
  C   C1257     1.0  0.67832  0.70736  0.82330  1.0000
  H   H1005     1.0  0.42591  0.55286  0.05732  1.0000
  C   C1258     1.0  0.35222  0.53491  0.69966  1.0000
  S   S175      1.0  0.34908  0.51324  0.86596  1.0000
  C   C1259     1.0  0.54285  0.01186  0.64664  1.0000
  C   C1260     1.0  0.64772  0.71916  0.07398  1.0000
  Fe  Fe91      1.0  0.70346  0.36648  0.30784  1.0000
  C   C1261     1.0  0.96250  0.17275  0.47987  1.0000
  S   S176      1.0  0.73850  0.39247  0.34267  1.0000
  H   H1006     1.0  0.75819  0.33243  0.33117  1.0000
  C   C1262     1.0  0.68367  0.26266  0.15151  1.0000
  C   C1263     1.0  0.69372  0.48385  0.22534  1.0000
  S   S177      1.0  0.71391  0.33438  0.26142  1.0000
  Fe  Fe92      1.0  0.96594  0.36179  0.39211  1.0000
  S   S178      1.0  0.92784  0.38638  0.36779  1.0000
  C   C1264     1.0  0.98776  0.21427  0.27457  1.0000
  Fe  Fe93      1.0  0.94285  0.36568  0.47373  1.0000
  S   S179      1.0  0.90288  0.39086  0.45611  1.0000
  S   S180      1.0  0.95638  0.35038  0.53251  1.0000
  Fe  Fe94      1.0  0.89891  0.35879  0.40707  1.0000
  S   S181      1.0  0.85816  0.33152  0.38753  1.0000
  Fe  Fe95      1.0  0.93537  0.41644  0.41845  1.0000
  S   S182      1.0  0.93408  0.46627  0.41222  1.0000
  S   S183      1.0  0.93648  0.33165  0.42737  1.0000
  S   S184      1.0  0.97568  0.39381  0.44016  1.0000
  Fe  Fe96      1.0  0.80277  0.11882  0.23686  1.0000
  S   S185      1.0  0.83823  0.14656  0.26784  1.0000
  S   S186      1.0  0.79472  0.11814  0.17354  1.0000
  Fe  Fe97      1.0  0.77303  0.09773  0.31040  1.0000
  S   S187      1.0  0.80601  0.12339  0.34739  1.0000
  S   S188      1.0  0.73564  0.07045  0.33684  1.0000
  Fe  Fe98      1.0  0.80052  0.15986  0.30495  1.0000
  S   S189      1.0  0.79638  0.20726  0.32356  1.0000
  Fe  Fe99      1.0  0.84000  0.10730  0.30707  1.0000
  S   S190      1.0  0.88089  0.08567  0.32867  1.0000
  S   S191      1.0  0.76500  0.13531  0.27071  1.0000
  S   S192      1.0  0.80733  0.07826  0.27316  1.0000
  C   C1265     1.0  0.82353  0.13312  0.14495  1.0000
  C   C1266     1.0  0.85252  0.13823  0.15932  1.0000
  H   H1007     1.0  0.76088  0.46198  0.44043  1.0000
  C   C1267     1.0  0.81740  0.13908  0.10662  1.0000
  H   H1008     1.0  0.85743  0.13352  0.18880  1.0000
  H   H1009     1.0  0.97022  0.41223  0.52158  1.0000
  H   H1010     1.0  0.70209  0.20404  0.20702  1.0000
  C   C1268     1.0  0.01081  0.01735  0.54863  1.0000
  C   C1269     1.0  0.69497  0.14228  0.37780  1.0000
  C   C1270     1.0  0.71543  0.12424  0.36002  1.0000
  C   C1271     1.0  0.70957  0.09352  0.35729  1.0000
  C   C1272     1.0  0.94116  0.01544  0.31450  1.0000
  C   C1273     1.0  0.97575  0.44208  0.56935  1.0000
  C   C1274     1.0  0.69408  0.12783  0.08271  1.0000
  H   H1011     1.0  0.73597  0.13408  0.34901  1.0000
  C   C1275     1.0  0.78491  0.46509  0.43952  1.0000
  H   H1012     1.0  0.75480  0.21042  0.42821  1.0000
  C   C1276     1.0  0.95981  0.14489  0.37013  1.0000
  C   C1277     1.0  0.93318  0.15779  0.35937  1.0000
  C   C1278     1.0  0.90834  0.13986  0.34751  1.0000
  C   C1279     1.0  0.90987  0.10891  0.34769  1.0000
  C   C1280     1.0  0.93562  0.09604  0.36141  1.0000
  C   C1281     1.0  0.96077  0.11393  0.37208  1.0000
  H   H1013     1.0  0.93183  0.18166  0.35994  1.0000
  H   H1014     1.0  0.88828  0.14993  0.33771  1.0000
  H   H1015     1.0  0.93633  0.07216  0.36269  1.0000
  C   C1282     1.0  0.82970  0.49083  0.41632  1.0000
  H   H1016     1.0  0.87116  0.47139  0.43151  1.0000
  H   H1017     1.0  0.87097  0.04097  0.26917  1.0000
  C   C1283     1.0  0.70327  0.22583  0.19395  1.0000
  H   H1018     1.0  0.90130  0.38127  0.53693  1.0000
  C   C1284     1.0  0.96911  0.48384  0.40271  1.0000
  C   C1285     1.0  0.96945  0.02477  0.32826  1.0000
  H   H1019     1.0  0.00652  0.27223  0.54297  1.0000
  C   C1286     1.0  0.76287  0.13607  0.43640  1.0000
  C   C1287     1.0  0.95540  0.47197  0.29055  1.0000
  C   C1288     1.0  0.98455  0.25042  0.46647  1.0000
  C   C1289     1.0  0.72357  0.05208  0.44267  1.0000
  C   C1290     1.0  0.73302  0.15395  0.48807  1.0000
  C   C1291     1.0  0.70530  0.24444  0.30037  1.0000
  C   C1292     1.0  0.72965  0.26348  0.31038  1.0000
  C   C1293     1.0  0.75736  0.25177  0.31861  1.0000
  C   C1294     1.0  0.76082  0.22108  0.31666  1.0000
  C   C1295     1.0  0.73606  0.20203  0.30853  1.0000
  C   C1296     1.0  0.70836  0.21366  0.30020  1.0000
  H   H1020     1.0  0.72708  0.28715  0.31225  1.0000
  H   H1021     1.0  0.77618  0.26645  0.32639  1.0000
  H   H1022     1.0  0.73798  0.17835  0.30929  1.0000
  H   H1023     1.0  0.68934  0.19878  0.29367  1.0000
  C   C1297     1.0  0.77109  0.37482  0.35633  1.0000
  C   C1298     1.0  0.79332  0.39099  0.37703  1.0000
  C   C1299     1.0  0.82009  0.37789  0.38715  1.0000
  C   C1300     1.0  0.82462  0.34847  0.37667  1.0000
  C   C1301     1.0  0.80205  0.33204  0.35695  1.0000
  C   C1302     1.0  0.77538  0.34519  0.34660  1.0000
  H   H1024     1.0  0.78991  0.41381  0.38491  1.0000
  H   H1025     1.0  0.83725  0.39052  0.40287  1.0000
  H   H1026     1.0  0.80537  0.30911  0.34944  1.0000
  C   C1303     1.0  0.96404  0.43308  0.53394  1.0000
  C   C1304     1.0  0.74968  0.49175  0.19091  1.0000
  C   C1305     1.0  0.75059  0.03820  0.44665  1.0000
  C   C1306     1.0  0.72472  0.24691  0.20742  1.0000
  H   H1027     1.0  0.90974  0.19299  0.19376  1.0000
  H   H1028     1.0  0.90106  0.21453  0.48042  1.0000
  C   C1307     1.0  0.79851  0.48898  0.41952  1.0000
  H   H1029     1.0  0.98838  0.07897  0.28511  1.0000
  C   C1308     1.0  0.73567  0.18296  0.47345  1.0000
  H   H1030     1.0  0.78308  0.29423  0.14749  1.0000
  H   H1031     1.0  0.77075  0.43816  0.29085  1.0000
  H   H1032     1.0  0.80227  0.20155  0.23867  1.0000
  C   C1309     1.0  0.99843  0.23348  0.43870  1.0000
  P   P42       1.0  0.71779  0.21320  0.49667  1.0000
  C   C1310     1.0  0.79484  0.25002  0.54405  1.0000
  H   H1033     1.0  0.71013  0.24987  0.56476  1.0000
  H   H1034     1.0  0.82646  0.26535  0.15230  1.0000
  S   S193      1.0  0.99996  0.33984  0.35582  1.0000
  H   H1035     1.0  0.79412  0.47120  0.24194  1.0000
  H   H1036     1.0  0.84692  0.43021  0.46840  1.0000
  C   C1311     1.0  0.77112  0.30072  0.12232  1.0000
  H   H1037     1.0  0.71110  0.17448  0.15642  1.0000
  H   H1038     1.0  0.98622  0.17359  0.48607  1.0000
  H   H1039     1.0  0.78322  0.22171  0.49646  1.0000
  H   H1040     1.0  0.78020  0.30218  0.27438  1.0000
  H   H1041     1.0  0.93518  0.44374  0.48725  1.0000
  H   H1042     1.0  0.90181  0.27652  0.39954  1.0000
  H   H1043     1.0  0.84403  0.21809  0.09302  1.0000
  C   C1312     1.0  0.71232  0.26939  0.46342  1.0000
  H   H1044     1.0  0.88604  0.04374  0.39077  1.0000
  H   H1045     1.0  0.99521  0.31512  0.24440  1.0000
  C   C1313     1.0  0.71002  0.14115  0.11313  1.0000
  H   H1046     1.0  0.74733  0.44404  0.18337  1.0000
  H   H1047     1.0  0.97261  0.27837  0.34570  1.0000
  H   H1048     1.0  0.72239  0.23649  0.07634  1.0000
  H   H1049     1.0  0.79498  0.13538  0.09547  1.0000
  C   C1314     1.0  0.75843  0.32852  0.12219  1.0000
  H   H1050     1.0  0.80795  0.03748  0.52041  1.0000
  H   H1051     1.0  0.76039  0.34290  0.14703  1.0000
  C   C1315     1.0  0.80238  0.44420  0.45748  1.0000
  C   C1316     1.0  0.87015  0.02298  0.44232  1.0000
  C   C1317     1.0  0.70865  0.45919  0.21184  1.0000
  C   C1318     1.0  0.97682  0.26059  0.32576  1.0000
  C   C1319     1.0  0.69685  0.03703  0.45234  1.0000
  C   C1320     1.0  0.97606  0.14941  0.25487  1.0000
  C   C1321     1.0  0.90194  0.16971  0.46048  1.0000
  H   H1052     1.0  0.74443  0.10835  0.48106  1.0000
  C   C1322     1.0  0.97113  0.35183  0.26545  1.0000
  C   C1323     1.0  0.89349  0.29894  0.54111  1.0000
  C   C1324     1.0  0.99506  0.01611  0.30983  1.0000
  C   C1325     1.0  0.90967  0.37814  0.56546  1.0000
  C   C1326     1.0  0.98753  0.03402  0.53435  1.0000
  C   C1327     1.0  0.89795  0.03397  0.16500  1.0000
  C   C1328     1.0  0.99401  0.46710  0.39603  1.0000
  C   C1329     1.0  0.74404  0.23294  0.52813  1.0000
  C   C1330     1.0  0.93089  0.26392  0.55777  1.0000
  C   C1331     1.0  0.94543  0.19772  0.48620  1.0000
  H   H1053     1.0  0.92063  0.49128  0.51540  1.0000
  C   C1332     1.0  0.86936  0.15369  0.09640  1.0000
  H   H1054     1.0  0.87829  0.31573  0.54955  1.0000
  H   H1055     1.0  0.73140  0.13283  0.12174  1.0000
  H   H1056     1.0  0.71136  0.31191  0.43511  1.0000
  C   C1333     1.0  0.96254  0.21264  0.29772  1.0000
  H   H1057     1.0  0.70355  0.45830  0.29463  1.0000
  C   C1334     1.0  0.00756  0.25045  0.55584  1.0000
  H   H1058     1.0  0.77094  0.05079  0.43992  1.0000
  C   C1335     1.0  0.77959  0.19555  0.18470  1.0000
  H   H1059     1.0  0.68731  0.07026  0.25907  1.0000
  H   H1060     1.0  0.70444  0.30667  0.15596  1.0000
  P   P43       1.0  0.90251  0.50254  0.28243  1.0000
  S   S194      1.0  0.69323  0.37371  0.16701  1.0000
  H   H1061     1.0  0.72239  0.27906  0.48896  1.0000
  C   C1336     1.0  0.69843  0.16507  0.13272  1.0000
  C   C1337     1.0  0.75236  0.18829  0.44026  1.0000
  H   H1062     1.0  0.71216  0.18723  0.57286  1.0000
  S   S195      1.0  0.99167  0.16779  0.38049  1.0000
  C   C1338     1.0  0.86676  0.03450  0.40574  1.0000
  C   C1339     1.0  0.74673  0.13067  0.46970  1.0000
  H   H1063     1.0  0.82628  0.27628  0.28685  1.0000
  H   H1064     1.0  0.69023  0.29056  0.37492  1.0000
  C   C1340     1.0  0.94932  0.14657  0.46441  1.0000
  C   C1341     1.0  0.94221  0.49970  0.29004  1.0000
  C   C1342     1.0  0.97362  0.32265  0.25257  1.0000
  C   C1343     1.0  0.96561  0.17898  0.13180  1.0000
  H   H1065     1.0  0.79179  0.42563  0.47257  1.0000
  C   C1344     1.0  0.69413  0.27627  0.39901  1.0000
  H   H1066     1.0  0.97462  0.25433  0.13793  1.0000
  C   C1345     1.0  0.89711  0.29235  0.50256  1.0000
  H   H1067     1.0  0.98396  0.49831  0.48432  1.0000
  H   H1068     1.0  0.95764  0.21449  0.09257  1.0000
  C   C1346     1.0  0.77473  0.23355  0.52064  1.0000
  H   H1069     1.0  0.84056  0.50823  0.39943  1.0000
  H   H1070     1.0  0.79273  0.01884  0.39218  1.0000
  C   C1347     1.0  0.87824  0.03854  0.24003  1.0000
  C   C1348     1.0  0.85233  0.41243  0.30436  1.0000
  C   C1349     1.0  0.85058  0.43573  0.33056  1.0000
  C   C1350     1.0  0.86582  0.46296  0.32415  1.0000
  C   C1351     1.0  0.88209  0.05850  0.17613  1.0000
  H   H1071     1.0  0.84065  0.39120  0.30972  1.0000
  H   H1072     1.0  0.83757  0.43284  0.35611  1.0000
  H   H1073     1.0  0.94722  0.19346  0.29674  1.0000
  C   C1352     1.0  0.00589  0.29538  0.43710  1.0000
  H   H1074     1.0  0.99635  0.20957  0.43884  1.0000
  H   H1075     1.0  0.85021  0.49302  0.23276  1.0000
  C   C1353     1.0  0.79020  0.47978  0.27017  1.0000
  H   H1076     1.0  0.97461  0.18054  0.55365  1.0000
  H   H1077     1.0  0.69208  0.39064  0.08861  1.0000
  C   C1354     1.0  0.68601  0.19865  0.52324  1.0000
  C   C1355     1.0  0.97482  0.23121  0.14648  1.0000
  C   C1356     1.0  0.81649  0.23508  0.19815  1.0000
  H   H1078     1.0  0.93261  0.16449  0.23922  1.0000
  C   C1357     1.0  0.77218  0.47208  0.33426  1.0000
  C   C1358     1.0  0.86929  0.41652  0.27145  1.0000
  C   C1359     1.0  0.91494  0.19587  0.47635  1.0000
  C   C1360     1.0  0.98848  0.22669  0.54322  1.0000
  C   C1361     1.0  0.94569  0.09436  0.26790  1.0000
  H   H1079     1.0  0.95027  0.03245  0.44762  1.0000
  C   C1362     1.0  0.97638  0.09759  0.27447  1.0000
  H   H1080     1.0  0.76217  0.45726  0.35532  1.0000
  H   H1081     1.0  0.90607  0.11623  0.25145  1.0000
  C   C1363     1.0  0.70462  0.28387  0.16588  1.0000
  H   H1082     1.0  0.96660  0.02331  0.52527  1.0000
  H   H1083     1.0  0.99080  0.36672  0.26752  1.0000
  C   C1364     1.0  0.98433  0.19397  0.19464  1.0000
  H   H1084     1.0  0.83207  0.24602  0.21784  1.0000
  C   C1365     1.0  0.70768  0.51236  0.22287  1.0000
  H   H1085     1.0  0.90930  0.12511  0.44116  1.0000
  H   H1086     1.0  0.87086  0.39844  0.25129  1.0000
  C   C1366     1.0  0.68216  0.44822  0.34757  1.0000
  H   H1087     1.0  0.92157  0.02247  0.32924  1.0000
  H   H1088     1.0  0.86422  0.48040  0.34512  1.0000
  C   C1367     1.0  0.93504  0.25756  0.51901  1.0000
  C   C1368     1.0  0.68308  0.08098  0.37210  1.0000
  C   C1369     1.0  0.97534  0.17154  0.16837  1.0000
  H   H1089     1.0  0.99115  0.24167  0.20260  1.0000
  P   P44       1.0  0.96298  0.23239  0.50393  1.0000
  C   C1370     1.0  0.77709  0.46116  0.29767  1.0000
  C   C1371     1.0  0.93003  0.11861  0.25532  1.0000
  H   H1090     1.0  0.86042  0.08005  0.22235  1.0000
  C   C1372     1.0  0.98418  0.22389  0.18327  1.0000
  C   C1373     1.0  0.88278  0.46733  0.29114  1.0000
  H   H1091     1.0  0.99629  0.44904  0.29714  1.0000
  H   H1092     1.0  0.70229  0.44076  0.36095  1.0000
  C   C1374     1.0  0.99668  0.03450  0.43219  1.0000
  C   C1375     1.0  0.68774  0.24572  0.39580  1.0000
  C   C1376     1.0  0.94418  0.45078  0.51464  1.0000
  C   C1377     1.0  0.81315  0.24596  0.16111  1.0000
  H   H1093     1.0  0.76030  0.19479  0.12886  1.0000
  C   C1378     1.0  0.89353  0.01349  0.22883  1.0000
  C   C1379     1.0  0.70634  0.23850  0.46007  1.0000
  H   H1094     1.0  0.74028  0.24098  0.22964  1.0000
  H   H1095     1.0  0.99169  0.44319  0.39478  1.0000
  H   H1096     1.0  0.87738  0.07580  0.15575  1.0000
  H   H1097     1.0  0.87488  0.34123  0.21795  1.0000
  C   C1380     1.0  0.87546  0.14843  0.13499  1.0000
  H   H1098     1.0  0.00837  0.31944  0.43592  1.0000
  C   C1381     1.0  0.80136  0.33618  0.23980  1.0000
  C   C1382     1.0  0.93600  0.47762  0.53061  1.0000
  C   C1383     1.0  0.72536  0.27593  0.19348  1.0000
  H   H1099     1.0  0.82834  0.36702  0.20669  1.0000
  H   H1100     1.0  0.89745  0.44687  0.23913  1.0000
  C   C1384     1.0  0.79968  0.20996  0.20997  1.0000
  H   H1101     1.0  0.81847  0.25065  0.53788  1.0000
  H   H1102     1.0  0.00119  0.05585  0.44540  1.0000
  H   H1103     1.0  0.74149  0.29241  0.20470  1.0000
  C   C1385     1.0  0.91913  0.14510  0.45447  1.0000
  C   C1386     1.0  0.77589  0.20654  0.14782  1.0000
  H   H1104     1.0  0.96281  0.12775  0.45865  1.0000
  H   H1105     1.0  0.68877  0.20325  0.42297  1.0000
  C   C1387     1.0  0.69014  0.18704  0.55998  1.0000
  H   H1106     1.0  0.89211  0.02319  0.45543  1.0000
  C   C1388     1.0  0.78052  0.50169  0.34369  1.0000
  H   H1107     1.0  0.90689  0.30274  0.33888  1.0000
  H   H1108     1.0  0.97175  0.03825  0.35379  1.0000
  C   C1389     1.0  0.82808  0.34711  0.22399  1.0000
  C   C1390     1.0  0.98867  0.28161  0.46561  1.0000
  H   H1109     1.0  0.76705  0.17565  0.19365  1.0000
  H   H1110     1.0  0.77273  0.11785  0.42157  1.0000
  C   C1391     1.0  0.83344  0.44665  0.45493  1.0000
  H   H1111     1.0  0.77106  0.49496  0.17714  1.0000
  C   C1392     1.0  0.84022  0.14948  0.08248  1.0000
  C   C1393     1.0  0.70616  0.28818  0.43291  1.0000
  H   H1112     1.0  0.87860  0.16862  0.45222  1.0000
  C   C1394     1.0  0.91791  0.27188  0.49155  1.0000
  C   C1395     1.0  0.89136  0.25705  0.15080  1.0000
  C   C1396     1.0  0.89822  0.22729  0.15483  1.0000
  C   C1397     1.0  0.90384  0.21591  0.19099  1.0000
  C   C1398     1.0  0.90194  0.23405  0.22329  1.0000
  C   C1399     1.0  0.89278  0.26338  0.21965  1.0000
  C   C1400     1.0  0.88852  0.27497  0.18299  1.0000
  P   P45       1.0  0.88830  0.28718  0.26070  1.0000
  C   C1401     1.0  0.88559  0.26704  0.30519  1.0000
  C   C1402     1.0  0.92063  0.31262  0.26278  1.0000
  C   C1403     1.0  0.91845  0.34179  0.27658  1.0000
  C   C1404     1.0  0.94354  0.36145  0.27715  1.0000
  P   P46       1.0  0.99564  0.18417  0.24245  1.0000
  C   C1405     1.0  0.98621  0.47044  0.29598  1.0000
  C   C1406     1.0  0.94848  0.30309  0.25117  1.0000
  C   C1407     1.0  0.87117  0.23865  0.30704  1.0000
  C   C1408     1.0  0.86954  0.22335  0.34165  1.0000
  C   C1409     1.0  0.88077  0.23682  0.37501  1.0000
  C   C1410     1.0  0.89408  0.26547  0.37366  1.0000
  C   C1411     1.0  0.89678  0.28041  0.33892  1.0000
  C   C1412     1.0  0.85435  0.30681  0.25344  1.0000
  C   C1413     1.0  0.85444  0.33247  0.23063  1.0000
  C   C1414     1.0  0.80095  0.31051  0.26203  1.0000
  C   C1415     1.0  0.82729  0.29594  0.26909  1.0000
  H   H1113     1.0  0.88797  0.26629  0.12276  1.0000
  H   H1114     1.0  0.89965  0.21308  0.12993  1.0000
  C   C1416     1.0  0.79238  0.23212  0.13583  1.0000
  H   H1115     1.0  0.90751  0.22501  0.25080  1.0000
  H   H1116     1.0  0.88294  0.29785  0.17905  1.0000
  H   H1117     1.0  0.89757  0.34923  0.28752  1.0000
  H   H1118     1.0  0.94189  0.38397  0.28764  1.0000
  C   C1417     1.0  0.83872  0.03331  0.38809  1.0000
  C   C1418     1.0  0.84709  0.46990  0.43423  1.0000
  H   H1119     1.0  0.95096  0.28042  0.24170  1.0000
  H   H1120     1.0  0.86059  0.22844  0.28210  1.0000
  H   H1121     1.0  0.85853  0.20141  0.34284  1.0000
  H   H1122     1.0  0.87862  0.22529  0.40194  1.0000
  H   H1123     1.0  0.97853  0.29542  0.48678  1.0000
  C   C1419     1.0  0.95731  0.23556  0.32342  1.0000
  H   H1124     1.0  0.92111  0.26758  0.46156  1.0000
  H   H1125     1.0  0.72014  0.14905  0.51332  1.0000
  H   H1126     1.0  0.93846  0.23356  0.34218  1.0000
  C   C1420     1.0  0.00403  0.49650  0.30095  1.0000
  H   H1127     1.0  0.94211  0.45148  0.28746  1.0000
  H   H1128     1.0  0.69977  0.16599  0.37973  1.0000
  C   C1421     1.0  0.69352  0.22695  0.42623  1.0000
  H   H1129     1.0  0.90580  0.03241  0.13599  1.0000
  C   C1422     1.0  0.87241  0.06085  0.21367  1.0000
  C   C1423     1.0  0.94511  0.14599  0.24886  1.0000
  H   H1130     1.0  0.77787  0.16922  0.39563  1.0000
  H   H1131     1.0  0.93383  0.07335  0.27372  1.0000
  H   H1132     1.0  0.83629  0.04182  0.35941  1.0000
  H   H1133     1.0  0.88445  0.30382  0.48110  1.0000
  C   C1424     1.0  0.88436  0.44392  0.26473  1.0000
  C   C1425     1.0  0.96784  0.02113  0.43358  1.0000
  C   C1426     1.0  0.76574  0.16491  0.42176  1.0000
  H   H1134     1.0  0.98102  0.10376  0.38109  1.0000
  H   H1135     1.0  0.78096  0.34770  0.23514  1.0000
  H   H1136     1.0  0.70149  0.01338  0.34961  1.0000
  H   H1137     1.0  0.89801  0.15154  0.14582  1.0000
  H   H1138     1.0  0.72332  0.07459  0.43190  1.0000
  C   C1427     1.0  0.68296  0.23324  0.16512  1.0000
  C   C1428     1.0  0.98966  0.19903  0.56154  1.0000
  C   C1429     1.0  0.73640  0.46318  0.19446  1.0000
  C   C1430     1.0  0.81406  0.02044  0.40691  1.0000
  C   C1431     1.0  0.86664  0.50654  0.21752  1.0000
  C   C1432     1.0  0.80139  0.01797  0.53691  1.0000
  C   C1433     1.0  0.00759  0.50313  0.48846  1.0000
  H   H1139     1.0  0.68298  0.01867  0.28183  1.0000
  H   H1140     1.0  0.95795  0.16162  0.11198  1.0000
  C   C1434     1.0  0.91032  0.28471  0.56869  1.0000
  H   H1141     1.0  0.97560  0.14826  0.17612  1.0000
  C   C1435     1.0  0.96541  0.20878  0.12083  1.0000
  C   C1436     1.0  0.93632  0.36393  0.57131  1.0000
  H   H1142     1.0  0.97328  0.07772  0.52004  1.0000
  H   H1143     1.0  0.69852  0.43689  0.21379  1.0000
  C   C1437     1.0  0.94782  0.48684  0.56594  1.0000
  C   C1438     1.0  0.79799  0.50948  0.27909  1.0000
  C   C1439     1.0  0.99156  0.12492  0.26792  1.0000
  C   C1440     1.0  0.99118  0.06498  0.53140  1.0000
  C   C1441     1.0  0.76822  0.28193  0.09028  1.0000
  P   P47       1.0  0.78683  0.24711  0.08859  1.0000
  C   C1442     1.0  0.68276  0.45838  0.30993  1.0000
  Fe  Fe100     1.0  0.68069  0.35800  0.22597  1.0000
  C   C1443     1.0  0.73376  0.24934  0.55908  1.0000
  C   C1444     1.0  0.00754  0.23942  0.27734  1.0000
  C   C1445     1.0  0.00200  0.26251  0.30276  1.0000
  H   H1144     1.0  0.83764  0.51200  0.16891  1.0000
  H   H1145     1.0  0.73343  0.35946  0.09001  1.0000
  C   C1446     1.0  0.74281  0.33778  0.09015  1.0000
  Fe  Fe101     1.0  0.90035  0.18196  0.92332  1.0000
  S   S196      1.0  0.86576  0.15117  0.89573  1.0000
  S   S197      1.0  0.93032  0.21111  0.88603  1.0000
  Fe  Fe102     1.0  0.88490  0.16043  0.00361  1.0000
  S   S198      1.0  0.84888  0.12833  0.98205  1.0000
  S   S199      1.0  0.89832  0.16520  0.06571  1.0000
  Fe  Fe103     1.0  0.88119  0.11690  0.93662  1.0000
  S   S200      1.0  0.88741  0.06798  0.92619  1.0000
  Fe  Fe104     1.0  0.83670  0.16555  0.94344  1.0000
  S   S201      1.0  0.78824  0.17360  0.93309  1.0000
  S   S202      1.0  0.91831  0.14649  0.96092  1.0000
  S   S203      1.0  0.87029  0.19873  0.96852  1.0000
  Fe  Fe105     1.0  0.90188  0.39871  0.73151  1.0000
  S   S204      1.0  0.93250  0.36770  0.76080  1.0000
  S   S205      1.0  0.88191  0.39510  0.67224  1.0000
  Fe  Fe106     1.0  0.89933  0.44036  0.80078  1.0000
  S   S206      1.0  0.92987  0.41310  0.83567  1.0000
  S   S207      1.0  0.87557  0.47852  0.82680  1.0000
  Fe  Fe107     1.0  0.95579  0.41026  0.78168  1.0000
  S   S208      1.0  0.68638  0.07493  0.76566  1.0000
  Fe  Fe108     1.0  0.90373  0.37326  0.81225  1.0000
  S   S209      1.0  0.88377  0.33918  0.85312  1.0000
  S   S210      1.0  0.92736  0.44069  0.74843  1.0000
  S   S211      1.0  0.87100  0.40084  0.78112  1.0000
  Fe  Fe109     1.0  0.69747  0.31046  0.93904  1.0000
  S   S212      1.0  0.74562  0.30462  0.95374  1.0000
  H   H1146     1.0  0.72740  0.32641  0.03334  1.0000
  C   C1447     1.0  0.70127  0.14654  0.71987  1.0000
  H   H1147     1.0  0.77382  0.15619  0.01014  1.0000
  C   C1448     1.0  0.99658  0.47691  0.77883  1.0000
  H   H1148     1.0  0.77701  0.29584  0.86282  1.0000
  H   H1149     1.0  0.97356  0.47136  0.78494  1.0000
  C   C1449     1.0  0.77687  0.21019  0.93938  1.0000
  C   C1450     1.0  0.79752  0.23398  0.94574  1.0000
  C   C1451     1.0  0.78773  0.26296  0.95002  1.0000
  C   C1452     1.0  0.75729  0.26824  0.94821  1.0000
  C   C1453     1.0  0.73661  0.24451  0.94192  1.0000
  C   C1454     1.0  0.74646  0.21559  0.93739  1.0000
  H   H1150     1.0  0.82101  0.23028  0.94676  1.0000
  H   H1151     1.0  0.80379  0.28139  0.95423  1.0000
  H   H1152     1.0  0.71312  0.24847  0.94004  1.0000
  H   H1153     1.0  0.73055  0.19738  0.93199  1.0000
  C   C1455     1.0  0.88800  0.05328  0.87959  1.0000
  C   C1456     1.0  0.88395  0.07112  0.84762  1.0000
  C   C1457     1.0  0.88395  0.05848  0.81088  1.0000
  C   C1458     1.0  0.82206  0.25401  0.06490  1.0000
  H   H1154     1.0  0.82879  0.05751  0.97502  1.0000
  H   H1155     1.0  0.80006  0.27903  0.59289  1.0000
  H   H1156     1.0  0.88100  0.09463  0.85130  1.0000
  H   H1157     1.0  0.77028  0.02158  0.73973  1.0000
  H   H1158     1.0  0.98148  0.21491  0.82573  1.0000
  H   H1159     1.0  0.69820  0.15752  0.94093  1.0000
  C   C1459     1.0  0.91569  0.24543  0.87313  1.0000
  C   C1460     1.0  0.93149  0.26468  0.84825  1.0000
  C   C1461     1.0  0.92149  0.29329  0.84070  1.0000
  C   C1462     1.0  0.89570  0.30271  0.85817  1.0000
  C   C1463     1.0  0.87931  0.28304  0.88174  1.0000
  C   C1464     1.0  0.88918  0.25447  0.88902  1.0000
  H   H1160     1.0  0.95203  0.25797  0.83584  1.0000
  H   H1161     1.0  0.93429  0.30842  0.82259  1.0000
  H   H1162     1.0  0.85920  0.29016  0.89509  1.0000
  H   H1163     1.0  0.87657  0.23980  0.90771  1.0000
  H   H1164     1.0  0.99053  0.42762  0.58411  1.0000
  C   C1465     1.0  0.97083  0.10888  0.82112  1.0000
  H   H1165     1.0  0.83525  0.15410  0.05305  1.0000
  C   C1466     1.0  0.94682  0.35983  0.60864  1.0000
  C   C1467     1.0  0.93064  0.36982  0.63996  1.0000
  C   C1468     1.0  0.90377  0.38369  0.63399  1.0000
  H   H1166     1.0  0.70281  0.19077  0.87274  1.0000
  H   H1167     1.0  0.93865  0.36637  0.66867  1.0000
  C   C1469     1.0  0.75394  0.26572  0.58251  1.0000
  C   C1470     1.0  0.87289  0.24053  0.05279  1.0000
  H   H1168     1.0  0.73663  0.05627  0.70887  1.0000
  C   C1471     1.0  0.76264  0.17392  0.02431  1.0000
  C   C1472     1.0  0.76457  0.35727  0.87971  1.0000
  C   C1473     1.0  0.01146  0.20483  0.87140  1.0000
  C   C1474     1.0  0.75501  0.30594  0.80932  1.0000
  P   P48       1.0  0.77367  0.34209  0.80399  1.0000
  C   C1475     1.0  0.80513  0.33614  0.77370  1.0000
  C   C1476     1.0  0.75036  0.37011  0.78476  1.0000
  C   C1477     1.0  0.76354  0.39737  0.77262  1.0000
  C   C1478     1.0  0.99174  0.07011  0.69052  1.0000
  C   C1479     1.0  0.73390  0.21957  0.06110  1.0000
  C   C1480     1.0  0.90023  0.50279  0.70321  1.0000
  H   H1169     1.0  0.95756  0.06720  0.91690  1.0000
  C   C1481     1.0  0.82920  0.32054  0.78774  1.0000
  C   C1482     1.0  0.85411  0.31651  0.76499  1.0000
  C   C1483     1.0  0.85497  0.32770  0.72791  1.0000
  C   C1484     1.0  0.83057  0.34218  0.71321  1.0000
  C   C1485     1.0  0.80559  0.34615  0.73583  1.0000
  C   C1486     1.0  0.78507  0.35717  0.84979  1.0000
  C   C1487     1.0  0.81347  0.37095  0.85514  1.0000
  H   H1170     1.0  0.96743  0.34883  0.61336  1.0000
  H   H1171     1.0  0.85520  0.01404  0.95216  1.0000
  H   H1172     1.0  0.78752  0.40143  0.77427  1.0000
  H   H1173     1.0  0.77468  0.02259  0.85962  1.0000
  C   C1488     1.0  0.89246  0.02287  0.87462  1.0000
  H   H1174     1.0  0.82920  0.31249  0.81681  1.0000
  H   H1175     1.0  0.87320  0.30570  0.77672  1.0000
  H   H1176     1.0  0.87474  0.32573  0.71077  1.0000
  H   H1177     1.0  0.83144  0.35113  0.68458  1.0000
  H   H1178     1.0  0.78700  0.35741  0.72373  1.0000
  H   H1179     1.0  0.82945  0.37185  0.83237  1.0000
  H   H1180     1.0  0.95610  0.17850  0.03757  1.0000
  H   H1181     1.0  0.96276  0.03646  0.66396  1.0000
  H   H1182     1.0  0.92931  0.50498  0.79257  1.0000
  C   C1489     1.0  0.72358  0.13007  0.70366  1.0000
  H   H1183     1.0  0.94389  0.25345  0.57960  1.0000
  C   C1490     1.0  0.72390  0.26517  0.78255  1.0000
  C   C1491     1.0  0.76519  0.21991  0.06085  1.0000
  C   C1492     1.0  0.00773  0.14975  0.77099  1.0000
  C   C1493     1.0  0.80127  0.38343  0.92011  1.0000
  H   H1184     1.0  0.74588  0.27846  0.60623  1.0000
  C   C1494     1.0  0.96986  0.07768  0.82237  1.0000
  H   H1185     1.0  0.99930  0.16061  0.71194  1.0000
  H   H1186     1.0  0.80342  0.19618  0.04227  1.0000
  C   C1495     1.0  0.85193  0.28056  0.01726  1.0000
  C   C1496     1.0  0.80312  0.01937  0.57672  1.0000
  H   H1187     1.0  0.77627  0.05119  0.99629  1.0000
  H   H1188     1.0  0.81487  0.47032  0.81408  1.0000
  S   S213      1.0  0.68382  0.13316  0.84518  1.0000
  C   C1497     1.0  0.82162  0.38381  0.89024  1.0000
  C   C1498     1.0  0.96308  0.10988  0.88946  1.0000
  H   H1189     1.0  0.98572  0.38680  0.70338  1.0000
  C   C1499     1.0  0.98464  0.34714  0.91494  1.0000
  C   C1500     1.0  0.96678  0.32081  0.91554  1.0000
  C   C1501     1.0  0.97989  0.29325  0.91521  1.0000
  C   C1502     1.0  0.73173  0.03250  0.70712  1.0000
  C   C1503     1.0  0.96885  0.10165  0.73749  1.0000
  C   C1504     1.0  0.70161  0.38847  0.77007  1.0000
  H   H1190     1.0  0.73111  0.08124  0.87992  1.0000
  H   H1191     1.0  0.76516  0.45091  0.83458  1.0000
  H   H1192     1.0  0.96949  0.44869  0.96901  1.0000
  H   H1193     1.0  0.75544  0.24464  0.86622  1.0000
  C   C1505     1.0  0.92336  0.47275  0.65549  1.0000
  H   H1194     1.0  0.69125  0.03699  0.67459  1.0000
  C   C1506     1.0  0.92319  0.20293  0.77229  1.0000
  H   H1195     1.0  0.99600  0.18835  0.88349  1.0000
  C   C1507     1.0  0.75050  0.01276  0.72498  1.0000
  H   H1196     1.0  0.00062  0.40475  0.96965  1.0000
  H   H1197     1.0  0.97387  0.36814  0.91419  1.0000
  C   C1508     1.0  0.96182  0.07881  0.89035  1.0000
  H   H1198     1.0  0.96711  0.19224  0.75616  1.0000
  H   H1199     1.0  0.70109  0.43290  0.74744  1.0000
  H   H1200     1.0  0.94268  0.32181  0.91558  1.0000
  H   H1201     1.0  0.96601  0.27287  0.91558  1.0000
  C   C1509     1.0  0.01085  0.29197  0.91348  1.0000
  C   C1510     1.0  0.84612  0.23603  0.07252  1.0000
  C   C1511     1.0  0.83659  0.07460  0.72867  1.0000
  H   H1202     1.0  0.00007  0.14752  0.04315  1.0000
  C   C1512     1.0  0.86014  0.12236  0.71266  1.0000
  C   C1513     1.0  0.83952  0.13671  0.73504  1.0000
  C   C1514     1.0  0.81744  0.12003  0.75474  1.0000
  C   C1515     1.0  0.81600  0.08885  0.75115  1.0000
  P   P49       1.0  0.79049  0.13783  0.78396  1.0000
  C   C1516     1.0  0.78541  0.11471  0.82567  1.0000
  C   C1517     1.0  0.80309  0.17526  0.79760  1.0000
  C   C1518     1.0  0.80329  0.19828  0.77058  1.0000
  C   C1519     1.0  0.81243  0.22742  0.78106  1.0000
  C   C1520     1.0  0.82125  0.23380  0.81862  1.0000
  C   C1521     1.0  0.82051  0.21119  0.84575  1.0000
  C   C1522     1.0  0.81122  0.18215  0.83541  1.0000
  C   C1523     1.0  0.81043  0.10565  0.84608  1.0000
  C   C1524     1.0  0.80691  0.08845  0.87899  1.0000
  C   C1525     1.0  0.77835  0.07996  0.89154  1.0000
  C   C1526     1.0  0.96727  0.12491  0.85501  1.0000
  C   C1527     1.0  0.75689  0.10504  0.83762  1.0000
  C   C1528     1.0  0.75581  0.14122  0.75832  1.0000
  C   C1529     1.0  0.75076  0.12732  0.72281  1.0000
  H   H1203     1.0  0.92169  0.45385  0.63620  1.0000
  C   C1530     1.0  0.94207  0.15317  0.77685  1.0000
  C   C1531     1.0  0.99601  0.20631  0.96284  1.0000
  C   C1532     1.0  0.73346  0.15810  0.77415  1.0000
  C   C1533     1.0  0.70616  0.02164  0.68772  1.0000
  H   H1204     1.0  0.71940  0.11880  0.67665  1.0000
  H   H1205     1.0  0.87751  0.13528  0.69810  1.0000
  H   H1206     1.0  0.84127  0.16069  0.73728  1.0000
  H   H1207     1.0  0.99440  0.22306  0.94101  1.0000
  H   H1208     1.0  0.79615  0.19372  0.74150  1.0000
  H   H1209     1.0  0.81245  0.24515  0.76024  1.0000
  H   H1210     1.0  0.82829  0.25631  0.82695  1.0000
  H   H1211     1.0  0.82673  0.21617  0.87509  1.0000
  H   H1212     1.0  0.80989  0.16538  0.85731  1.0000
  H   H1213     1.0  0.83263  0.11227  0.83677  1.0000
  H   H1214     1.0  0.82635  0.08198  0.89495  1.0000
  C   C1534     1.0  0.77940  0.19679  0.04250  1.0000
  H   H1215     1.0  0.71885  0.15662  0.00895  1.0000
  H   H1216     1.0  0.73727  0.11060  0.82172  1.0000
  H   H1217     1.0  0.76749  0.11409  0.70997  1.0000
  C   C1535     1.0  0.98317  0.44395  0.94468  1.0000
  C   C1536     1.0  0.73162  0.17424  0.02355  1.0000
  H   H1218     1.0  0.92677  0.22636  0.76582  1.0000
  H   H1219     1.0  0.77558  0.06701  0.91727  1.0000
  H   H1220     1.0  0.88143  0.50695  0.72128  1.0000
  C   C1537     1.0  0.97432  0.18160  0.01785  1.0000
  H   H1221     1.0  0.91834  0.05025  0.70002  1.0000
  H   H1222     1.0  0.84383  0.39396  0.89414  1.0000
  C   C1538     1.0  0.00600  0.50682  0.77417  1.0000
  C   C1539     1.0  0.70622  0.16056  0.75509  1.0000
  C   C1540     1.0  0.99412  0.09292  0.71770  1.0000
  H   H1223     1.0  0.72086  0.22496  0.81589  1.0000
  H   H1224     1.0  0.96013  0.42767  0.67302  1.0000
  H   H1225     1.0  0.96691  0.14895  0.85460  1.0000
  C   C1541     1.0  0.75214  0.29139  0.05833  1.0000
  C   C1542     1.0  0.89338  0.38783  0.59669  1.0000
  P   P50       1.0  0.97279  0.12840  0.77620  1.0000
  H   H1226     1.0  0.74233  0.34719  0.87607  1.0000
  C   C1543     1.0  0.71918  0.36613  0.78441  1.0000
  H   H1227     1.0  0.87882  0.20807  0.79335  1.0000
  H   H1228     1.0  0.90803  0.29052  0.59847  1.0000
  H   H1229     1.0  0.70919  0.25633  0.76021  1.0000
  C   C1544     1.0  0.76792  0.47325  0.82325  1.0000
  C   C1545     1.0  0.88855  0.02805  0.80590  1.0000
  C   C1546     1.0  0.99857  0.40395  0.68836  1.0000
  H   H1230     1.0  0.88064  0.07234  0.78634  1.0000
  H   H1231     1.0  0.73193  0.30732  0.75500  1.0000
  C   C1547     1.0  0.75336  0.08797  0.87060  1.0000
  H   H1232     1.0  0.95360  0.21638  0.98662  1.0000
  H   H1233     1.0  0.92191  0.09133  0.74662  1.0000
  C   C1548     1.0  0.79595  0.48425  0.81169  1.0000
  H   H1234     1.0  0.96052  0.12228  0.91545  1.0000
  H   H1235     1.0  0.73665  0.16843  0.80196  1.0000
  C   C1549     1.0  0.97291  0.20289  0.98909  1.0000
  C   C1550     1.0  0.73944  0.31916  0.05834  1.0000
  C   C1551     1.0  0.95023  0.48991  0.65962  1.0000
  C   C1552     1.0  0.82516  0.27621  0.03691  1.0000
  C   C1553     1.0  0.96536  0.06271  0.85678  1.0000
  H   H1236     1.0  0.87260  0.39853  0.59194  1.0000
  H   H1237     1.0  0.87469  0.08021  0.69234  1.0000
  C   C1554     1.0  0.00076  0.41909  0.94491  1.0000
  C   C1555     1.0  0.76196  0.28775  0.84034  1.0000
  C   C1556     1.0  0.01079  0.19477  0.59032  1.0000
  C   C1557     1.0  0.71724  0.19712  0.04179  1.0000
  S   S214      1.0  0.00550  0.41687  0.78162  1.0000
  C   C1558     1.0  0.94609  0.18333  0.76680  1.0000
  H   H1238     1.0  0.89124  0.22636  0.05827  1.0000
  H   H1239     1.0  0.72184  0.48274  0.82988  1.0000
  C   C1559     1.0  0.78767  0.03216  0.98574  1.0000
  C   C1560     1.0  0.00321  0.21984  0.83846  1.0000
  H   H1240     1.0  0.70824  0.34628  0.79607  1.0000
  C   C1561     1.0  0.71487  0.41532  0.75742  1.0000
  H   H1241     1.0  0.99261  0.03491  0.75772  1.0000
  H   H1242     1.0  0.91119  0.12025  0.80118  1.0000
  C   C1562     1.0  0.99901  0.16396  0.02076  1.0000
  C   C1563     1.0  0.89853  0.47917  0.67722  1.0000
  H   H1243     1.0  0.00064  0.47100  0.85698  1.0000
  C   C1564     1.0  0.73050  0.24743  0.81384  1.0000
  C   C1565     1.0  0.91456  0.14306  0.79193  1.0000
  H   H1244     1.0  0.69320  0.19723  0.04134  1.0000
  H   H1245     1.0  0.79919  0.07547  0.76614  1.0000
  C   C1566     1.0  0.74349  0.49119  0.82058  1.0000
  C   C1567     1.0  0.74976  0.25863  0.84245  1.0000
  C   C1568     1.0  0.73650  0.29414  0.77995  1.0000
  H   H1246     1.0  0.94128  0.50767  0.57816  1.0000
  C   C1569     1.0  0.89173  0.16268  0.79729  1.0000
  P   P51       1.0  0.98221  0.48097  0.63151  1.0000
  C   C1570     1.0  0.74585  0.41977  0.75868  1.0000
  H   H1247     1.0  0.96901  0.48154  0.91237  1.0000
  C   C1571     1.0  0.00074  0.45058  0.65362  1.0000
  C   C1572     1.0  0.85862  0.09135  0.70942  1.0000
  H   H1248     1.0  0.87836  0.46502  0.67491  1.0000
  H   H1249     1.0  0.80763  0.39328  0.94736  1.0000
  H   H1250     1.0  0.87096  0.15483  0.80999  1.0000
  C   C1573     1.0  0.81725  0.03576  0.97395  1.0000
  H   H1251     1.0  0.97172  0.06474  0.79680  1.0000
  C   C1574     1.0  0.96783  0.46912  0.58551  1.0000
  C   C1575     1.0  0.98415  0.42752  0.67157  1.0000
  C   C1576     1.0  0.94136  0.08636  0.73039  1.0000
  H   H1252     1.0  0.85389  0.29734  0.99519  1.0000
  H   H1253     1.0  0.96395  0.03858  0.85717  1.0000
  H   H1254     1.0  0.68862  0.17250  0.76834  1.0000
  H   H1255     1.0  0.75691  0.36983  0.93791  1.0000
  C   C1577     1.0  0.77271  0.37031  0.91475  1.0000
  C   C1578     1.0  0.98291  0.46251  0.91285  1.0000
  C   C1579     1.0  0.89610  0.19265  0.78776  1.0000
  C   C1580     1.0  0.00839  0.01803  0.76226  1.0000
  C   C1581     1.0  0.93920  0.06304  0.70383  1.0000
  C   C1582     1.0  0.96431  0.05504  0.68373  1.0000
  H   H1256     1.0  0.01157  0.06313  0.67629  1.0000
  H   H1257     1.0  0.81133  0.03968  0.59073  1.0000
  C   C1583     1.0  0.00057  0.45644  0.88149  1.0000
  H   H1258     1.0  0.70315  0.10929  0.06760  1.0000
  C   C1584     1.0  0.87581  0.26278  0.02525  1.0000
  H   H1259     1.0  0.80684  0.28984  0.02931  1.0000
  C   C1585     1.0  0.78446  0.26606  0.57499  1.0000
  H   H1260     1.0  0.89632  0.26575  0.00938  1.0000
  H   H1261     1.0  0.83598  0.05049  0.72698  1.0000
  H   H1262     1.0  0.75616  0.44077  0.74948  1.0000
  H   H1263     1.0  0.75007  0.27773  0.03284  1.0000
  S   S215      1.0  0.88851  0.01258  0.75955  1.0000
  H   H1264     1.0  0.01255  0.17298  0.60305  1.0000
  Fe  Fe110     1.0  0.70569  0.86151  0.27264  1.0000
  H   H1265     1.0  0.99432  0.64971  0.51604  1.0000
  S   S216      1.0  0.75081  0.88606  0.27039  1.0000
  H   H1266     1.0  0.75179  0.83455  0.31954  1.0000
  H   H1267     1.0  0.80735  0.52429  0.25757  1.0000
  H   H1268     1.0  0.69268  0.85463  0.16100  1.0000
  S   S217      1.0  0.69614  0.82225  0.23441  1.0000
  Fe  Fe111     1.0  0.95203  0.87531  0.36863  1.0000
  S   S218      1.0  0.91119  0.90129  0.35846  1.0000
  C   C1586     1.0  0.87239  0.57417  0.36624  1.0000
  Fe  Fe112     1.0  0.94199  0.87235  0.45468  1.0000
  S   S219      1.0  0.90032  0.89755  0.45091  1.0000
  S   S220      1.0  0.96203  0.85998  0.51116  1.0000
  Fe  Fe113     1.0  0.88935  0.86923  0.39949  1.0000
  S   S221      1.0  0.84462  0.84474  0.39288  1.0000
  Fe  Fe114     1.0  0.92642  0.92691  0.41067  1.0000
  S   S222      1.0  0.92583  0.97637  0.41932  1.0000
  S   S223      1.0  0.92930  0.84140  0.40638  1.0000
  S   S224      1.0  0.96894  0.90352  0.41765  1.0000
  Fe  Fe115     1.0  0.80814  0.63196  0.16284  1.0000
  S   S225      1.0  0.84546  0.66085  0.18776  1.0000
  S   S226      1.0  0.79669  0.62990  0.10023  1.0000
  Fe  Fe116     1.0  0.78733  0.61013  0.24036  1.0000
  S   S227      1.0  0.82282  0.63710  0.27229  1.0000
  S   S228      1.0  0.75434  0.57767  0.26757  1.0000
  Fe  Fe117     1.0  0.81201  0.67338  0.23129  1.0000
  S   S229      1.0  0.80985  0.72171  0.24727  1.0000
  Fe  Fe118     1.0  0.85324  0.62226  0.22640  1.0000
  S   S230      1.0  0.89898  0.60474  0.23525  1.0000
  S   S231      1.0  0.77386  0.64771  0.20320  1.0000
  S   S232      1.0  0.81860  0.59207  0.19763  1.0000
  C   C1587     1.0  0.99249  0.99845  0.27708  1.0000
  H   H1269     1.0  0.98205  0.66254  0.44942  1.0000
  C   C1588     1.0  0.90314  0.94875  0.24217  1.0000
  C   C1589     1.0  0.79347  0.52036  0.31585  1.0000
  H   H1270     1.0  0.85974  0.63011  0.11727  1.0000
  H   H1271     1.0  0.79783  0.97549  0.30555  1.0000
  H   H1272     1.0  0.97990  0.95796  0.38395  1.0000
  C   C1590     1.0  0.69711  0.00796  0.46618  1.0000
  C   C1591     1.0  0.71099  0.63833  0.32835  1.0000
  C   C1592     1.0  0.73138  0.62507  0.30439  1.0000
  C   C1593     1.0  0.72834  0.59467  0.29644  1.0000
  C   C1594     1.0  0.70478  0.57751  0.31236  1.0000
  C   C1595     1.0  0.87036  0.55202  0.30317  1.0000
  H   H1273     1.0  0.71360  0.66182  0.33490  1.0000
  H   H1274     1.0  0.74975  0.63824  0.29259  1.0000
  H   H1275     1.0  0.70264  0.55392  0.30645  1.0000
  H   H1276     1.0  0.86622  0.59156  0.38561  1.0000
  C   C1596     1.0  0.95779  0.63751  0.33523  1.0000
  C   C1597     1.0  0.92839  0.64652  0.33209  1.0000
  C   C1598     1.0  0.90963  0.63558  0.30245  1.0000
  C   C1599     1.0  0.92050  0.61622  0.27525  1.0000
  C   C1600     1.0  0.94957  0.60650  0.27908  1.0000
  C   C1601     1.0  0.96801  0.61666  0.30943  1.0000
  H   H1277     1.0  0.92026  0.66241  0.35214  1.0000
  H   H1278     1.0  0.88715  0.64291  0.29992  1.0000
  H   H1279     1.0  0.95810  0.59160  0.25799  1.0000
  C   C1602     1.0  0.76119  0.91104  0.41693  1.0000
  H   H1280     1.0  0.90387  0.96782  0.34330  1.0000
  C   C1603     1.0  0.72959  0.51436  0.44347  1.0000
  C   C1604     1.0  0.99669  0.79115  0.36614  1.0000
  H   H1281     1.0  0.89827  0.86083  0.51919  1.0000
  C   C1605     1.0  0.96184  0.99312  0.41700  1.0000
  H   H1282     1.0  0.75388  0.72704  0.17503  1.0000
  H   H1283     1.0  0.93614  0.93306  0.28200  1.0000
  P   P52       1.0  0.00596  0.97752  0.55481  1.0000
  C   C1606     1.0  0.68423  0.59081  0.33626  1.0000
  H   H1284     1.0  0.84195  0.76416  0.18596  1.0000
  C   C1607     1.0  0.75917  0.79792  0.12486  1.0000
  H   H1285     1.0  0.96275  0.97580  0.23735  1.0000
  C   C1608     1.0  0.71705  0.74512  0.28606  1.0000
  C   C1609     1.0  0.73901  0.76760  0.27962  1.0000
  C   C1610     1.0  0.76751  0.76035  0.26778  1.0000
  C   C1611     1.0  0.77423  0.73055  0.26257  1.0000
  C   C1612     1.0  0.75237  0.70808  0.26928  1.0000
  C   C1613     1.0  0.72384  0.71533  0.28108  1.0000
  H   H1286     1.0  0.73415  0.79059  0.28416  1.0000
  H   H1287     1.0  0.78425  0.77788  0.26257  1.0000
  H   H1288     1.0  0.75751  0.68511  0.26568  1.0000
  H   H1289     1.0  0.70693  0.69788  0.28592  1.0000
  C   C1614     1.0  0.77745  0.87398  0.30331  1.0000
  C   C1615     1.0  0.80420  0.89086  0.30911  1.0000
  C   C1616     1.0  0.82525  0.88199  0.33622  1.0000
  C   C1617     1.0  0.81979  0.85590  0.35714  1.0000
  C   C1618     1.0  0.79334  0.83874  0.35069  1.0000
  C   C1619     1.0  0.77217  0.84784  0.32404  1.0000
  H   H1290     1.0  0.80847  0.91102  0.29298  1.0000
  H   H1291     1.0  0.84550  0.89543  0.34113  1.0000
  H   H1292     1.0  0.78901  0.81851  0.36670  1.0000
  H   H1293     1.0  0.93549  0.88239  0.25549  1.0000
  H   H1294     1.0  0.90026  0.55287  0.40730  1.0000
  P   P53       1.0  0.90221  0.98535  0.26319  1.0000
  C   C1620     1.0  0.88257  0.91119  0.19807  1.0000
  C   C1621     1.0  0.89455  0.51405  0.23426  1.0000
  H   H1295     1.0  0.92349  0.55776  0.16325  1.0000
  H   H1296     1.0  0.81109  0.95695  0.36985  1.0000
  H   H1297     1.0  0.86234  0.55277  0.27403  1.0000
  C   C1622     1.0  0.90155  0.89041  0.21326  1.0000
  H   H1298     1.0  0.74333  0.95422  0.41957  1.0000
  C   C1623     1.0  0.70734  0.63166  0.15568  1.0000
  H   H1299     1.0  0.90409  0.64174  0.07767  1.0000
  H   H1300     1.0  0.72701  0.85440  0.10609  1.0000
  H   H1301     1.0  0.82807  0.94427  0.47639  1.0000
  C   C1624     1.0  0.78520  0.95298  0.45087  1.0000
  H   H1302     1.0  0.80531  0.71086  0.16861  1.0000
  H   H1303     1.0  0.98755  0.65585  0.25669  1.0000
  H   H1304     1.0  0.83077  0.59811  0.45861  1.0000
  C   C1625     1.0  0.90708  0.69602  0.25438  1.0000
  C   C1626     1.0  0.93798  0.70054  0.25628  1.0000
  C   C1627     1.0  0.95111  0.71774  0.28568  1.0000
  C   C1628     1.0  0.93323  0.73077  0.31290  1.0000
  C   C1629     1.0  0.90208  0.72578  0.31169  1.0000
  C   C1630     1.0  0.88917  0.70852  0.28193  1.0000
  P   P54       1.0  0.87893  0.74556  0.34408  1.0000
  C   C1631     1.0  0.89658  0.74954  0.39036  1.0000
  C   C1632     1.0  0.87514  0.78157  0.32239  1.0000
  C   C1633     1.0  0.89886  0.80296  0.32448  1.0000
  C   C1634     1.0  0.89648  0.83064  0.30700  1.0000
  C   C1635     1.0  0.87042  0.83721  0.28736  1.0000
  C   C1636     1.0  0.84699  0.81577  0.28427  1.0000
  C   C1637     1.0  0.84948  0.78792  0.30125  1.0000
  C   C1638     1.0  0.89009  0.77358  0.41395  1.0000
  C   C1639     1.0  0.90398  0.77712  0.44964  1.0000
  C   C1640     1.0  0.92428  0.75656  0.46212  1.0000
  C   C1641     1.0  0.93019  0.73206  0.43926  1.0000
  C   C1642     1.0  0.91617  0.72836  0.40368  1.0000
  C   C1643     1.0  0.84296  0.72709  0.35250  1.0000
  C   C1644     1.0  0.81866  0.74375  0.36325  1.0000
  C   C1645     1.0  0.79030  0.72993  0.36700  1.0000
  C   C1646     1.0  0.78619  0.69923  0.36153  1.0000
  C   C1647     1.0  0.81060  0.68227  0.35321  1.0000
  C   C1648     1.0  0.83896  0.69605  0.34909  1.0000
  H   H1305     1.0  0.89708  0.68234  0.23182  1.0000
  H   H1306     1.0  0.95160  0.69053  0.23497  1.0000
  H   H1307     1.0  0.97514  0.72088  0.28743  1.0000
  H   H1308     1.0  0.94376  0.74476  0.33480  1.0000
  H   H1309     1.0  0.86524  0.70524  0.27931  1.0000
  H   H1310     1.0  0.91918  0.79832  0.33973  1.0000
  H   H1311     1.0  0.91470  0.84715  0.30924  1.0000
  H   H1312     1.0  0.86814  0.85906  0.27514  1.0000
  H   H1313     1.0  0.82664  0.82089  0.26936  1.0000
  H   H1314     1.0  0.83143  0.77139  0.29755  1.0000
  H   H1315     1.0  0.87450  0.78979  0.40462  1.0000
  H   H1316     1.0  0.89927  0.79611  0.46736  1.0000
  H   H1317     1.0  0.93530  0.75961  0.48956  1.0000
  H   H1318     1.0  0.94562  0.71587  0.44905  1.0000
  H   H1319     1.0  0.92086  0.70908  0.38660  1.0000
  H   H1320     1.0  0.82141  0.76760  0.36772  1.0000
  H   H1321     1.0  0.77136  0.74312  0.37335  1.0000
  H   H1322     1.0  0.76404  0.68867  0.36350  1.0000
  H   H1323     1.0  0.80743  0.65852  0.34904  1.0000
  H   H1324     1.0  0.85756  0.68252  0.34254  1.0000
  C   C1649     1.0  0.78464  0.89332  0.42722  1.0000
  C   C1650     1.0  0.96429  0.98924  0.26300  1.0000
  C   C1651     1.0  0.74417  0.72424  0.11457  1.0000
  C   C1652     1.0  0.00024  0.52927  0.39599  1.0000
  C   C1653     1.0  0.92104  0.89857  0.24318  1.0000
  C   C1654     1.0  0.68399  0.85013  0.13264  1.0000
  H   H1325     1.0  0.87416  0.54451  0.13412  1.0000
  C   C1655     1.0  0.84557  0.01018  0.46131  1.0000
  H   H1326     1.0  0.74049  0.79066  0.10685  1.0000
  C   C1656     1.0  0.77748  0.82059  0.18368  1.0000
  C   C1657     1.0  0.75376  0.81085  0.16015  1.0000
  H   H1327     1.0  0.87306  0.75456  0.24146  1.0000
  C   C1658     1.0  0.99684  0.67731  0.46608  1.0000
  C   C1659     1.0  0.78845  0.79454  0.11290  1.0000
  C   C1660     1.0  0.80676  0.81754  0.17172  1.0000
  H   H1328     1.0  0.77937  0.89028  0.11820  1.0000
  C   C1661     1.0  0.87381  0.79596  0.16076  1.0000
  H   H1329     1.0  0.00477  0.54417  0.30660  1.0000
  C   C1662     1.0  0.77406  0.57458  0.37887  1.0000
  C   C1663     1.0  0.92160  0.92751  0.25790  1.0000
  C   C1664     1.0  0.68918  0.74886  0.18666  1.0000
  C   C1665     1.0  0.81519  0.59150  0.43603  1.0000
  C   C1666     1.0  0.70291  0.98982  0.34413  1.0000
  C   C1667     1.0  0.90221  0.81015  0.16488  1.0000
  C   C1668     1.0  0.91996  0.80438  0.19680  1.0000
  C   C1669     1.0  0.90957  0.78427  0.22445  1.0000
  C   C1670     1.0  0.88147  0.76994  0.22016  1.0000
  S   S233      1.0  0.68641  0.83981  0.32498  1.0000
  H   H1330     1.0  0.00266  0.79707  0.42629  1.0000
  H   H1331     1.0  0.75511  0.93767  0.33571  1.0000
  H   H1332     1.0  0.68604  0.69251  0.07841  1.0000
  C   C1671     1.0  0.80883  0.90550  0.44819  1.0000
  H   H1333     1.0  0.82736  0.89177  0.45509  1.0000
  H   H1334     1.0  0.84900  0.00044  0.48906  1.0000
  H   H1335     1.0  0.77308  0.83073  0.21108  1.0000
  H   H1336     1.0  0.73111  0.81359  0.16905  1.0000
  C   C1672     1.0  0.91978  0.95592  0.52277  1.0000
  H   H1337     1.0  0.90731  0.95354  0.49628  1.0000
  H   H1338     1.0  0.82487  0.82569  0.19013  1.0000
  C   C1673     1.0  0.85456  0.77315  0.08553  1.0000
  C   C1674     1.0  0.87366  0.98103  0.29883  1.0000
  C   C1675     1.0  0.88323  0.94024  0.21258  1.0000
  H   H1339     1.0  0.99553  0.78140  0.30610  1.0000
  C   C1676     1.0  0.76225  0.72188  0.14703  1.0000
  H   H1340     1.0  0.91071  0.82563  0.14366  1.0000
  H   H1341     1.0  0.94179  0.81548  0.20021  1.0000
  H   H1342     1.0  0.92318  0.77983  0.24929  1.0000
  H   H1343     1.0  0.96089  0.96760  0.49469  1.0000
  H   H1344     1.0  0.68047  0.79152  0.16218  1.0000
  H   H1345     1.0  0.77849  0.94514  0.11186  1.0000
  C   C1677     1.0  0.80253  0.70602  0.10778  1.0000
  P   P55       1.0  0.78582  0.99103  0.46752  1.0000
  H   H1346     1.0  0.00457  0.55007  0.47817  1.0000
  H   H1347     1.0  0.87637  0.74330  0.12440  1.0000
  H   H1348     1.0  0.79217  0.78427  0.08561  1.0000
  C   C1678     1.0  0.73100  0.97768  0.34356  1.0000
  C   C1679     1.0  0.90853  0.86752  0.54603  1.0000
  C   C1680     1.0  0.89163  0.55253  0.37836  1.0000
  H   H1349     1.0  0.74281  0.90156  0.39987  1.0000
  C   C1681     1.0  0.80852  0.56128  0.42876  1.0000
  H   H1350     1.0  0.98081  0.80848  0.36390  1.0000
  C   C1682     1.0  0.81250  0.80434  0.13626  1.0000
  H   H1351     1.0  0.82990  0.86398  0.12777  1.0000
  H   H1352     1.0  0.86700  0.90467  0.17548  1.0000
  P   P56       1.0  0.85044  0.80277  0.11994  1.0000
  H   H1353     1.0  0.76896  0.62138  0.37059  1.0000
  H   H1354     1.0  0.99442  0.81028  0.54786  1.0000
  C   C1683     1.0  0.80125  0.61321  0.41480  1.0000
  C   C1684     1.0  0.78056  0.60471  0.38636  1.0000
  C   C1685     1.0  0.98464  0.97875  0.39865  1.0000
  H   H1355     1.0  0.01239  0.99172  0.26282  1.0000
  H   H1356     1.0  0.95044  0.54713  0.29741  1.0000
  S   S234      1.0  0.68090  0.75414  0.29908  1.0000
  C   C1686     1.0  0.00498  0.77581  0.33354  1.0000
  C   C1687     1.0  0.90566  0.95057  0.55753  1.0000
  H   H1357     1.0  0.99931  0.67018  0.19034  1.0000
  C   C1688     1.0  0.91517  0.53221  0.21413  1.0000
  C   C1689     1.0  0.86366  0.77569  0.18857  1.0000
  H   H1358     1.0  0.71144  0.75563  0.19647  1.0000
  H   H1359     1.0  0.99055  0.60942  0.31175  1.0000
  H   H1360     1.0  0.70952  0.90515  0.32806  1.0000
  H   H1361     1.0  0.84685  0.59062  0.31933  1.0000
  H   H1362     1.0  0.74610  0.53832  0.20346  1.0000
  H   H1363     1.0  0.72427  0.63473  0.13398  1.0000
  C   C1690     1.0  0.85941  0.51724  0.18137  1.0000
  H   H1364     1.0  0.86782  0.95588  0.20128  1.0000
  C   C1691     1.0  0.00901  0.66640  0.25022  1.0000
  C   C1692     1.0  0.88996  0.53040  0.31503  1.0000
  C   C1693     1.0  0.86901  0.74717  0.09550  1.0000
  H   H1365     1.0  0.72394  0.97170  0.48190  1.0000
  H   H1366     1.0  0.80010  0.54328  0.32216  1.0000
  C   C1694     1.0  0.84351  0.98270  0.28833  1.0000
  C   C1695     1.0  0.93956  0.86878  0.54996  1.0000
  S   S235      1.0  0.97776  0.86230  0.31669  1.0000
  C   C1696     1.0  0.79090  0.99167  0.51858  1.0000
  C   C1697     1.0  0.95022  0.96390  0.52196  1.0000
  H   H1367     1.0  0.78423  0.87014  0.41865  1.0000
  H   H1368     1.0  0.75749  0.56835  0.35734  1.0000
  C   C1698     1.0  0.79141  0.71287  0.14354  1.0000
  C   C1699     1.0  0.88086  0.97051  0.33515  1.0000
  C   C1700     1.0  0.85835  0.96232  0.36086  1.0000
  H   H1369     1.0  0.00106  0.51952  0.56687  1.0000
  H   H1370     1.0  0.77657  0.73807  0.55691  1.0000
  C   C1701     1.0  0.93842  0.99709  0.28212  1.0000
  S   S236      1.0  0.98180  0.65429  0.36986  1.0000
  C   C1702     1.0  0.70769  0.92884  0.33235  1.0000
  C   C1703     1.0  0.80915  0.93522  0.46003  1.0000
  H   H1371     1.0  0.75079  0.99207  0.34782  1.0000
  C   C1704     1.0  0.68464  0.65176  0.15887  1.0000
  C   C1705     1.0  0.70337  0.85013  0.10155  1.0000
  C   C1706     1.0  0.82844  0.96402  0.35021  1.0000
  H   H1372     1.0  0.86422  0.95420  0.38887  1.0000
  C   C1707     1.0  0.88000  0.53549  0.16167  1.0000
  C   C1708     1.0  0.86155  0.57372  0.32881  1.0000
  C   C1709     1.0  0.70886  0.60804  0.18129  1.0000
  C   C1710     1.0  0.78117  0.96717  0.54067  1.0000
  H   H1373     1.0  0.80601  0.63661  0.42087  1.0000
  C   C1711     1.0  0.84757  0.86404  0.10707  1.0000
  H   H1374     1.0  0.72690  0.59290  0.17950  1.0000
  C   C1712     1.0  0.90027  0.53067  0.35289  1.0000
  C   C1713     1.0  0.76153  0.94086  0.42842  1.0000
  C   C1714     1.0  0.78818  0.55260  0.39966  1.0000
  H   H1375     1.0  0.00232  0.55324  0.39525  1.0000
  C   C1715     1.0  0.00934  0.78469  0.40154  1.0000
  H   H1376     1.0  0.72190  0.73190  0.11787  1.0000
  H   H1377     1.0  0.86664  0.87285  0.57398  1.0000
  C   C1716     1.0  0.96670  0.96702  0.55607  1.0000
  C   C1717     1.0  0.85689  0.63602  0.08770  1.0000
  C   C1718     1.0  0.73342  0.94722  0.33699  1.0000
  C   C1719     1.0  0.68778  0.60457  0.21010  1.0000
  C   C1720     1.0  0.75529  0.71745  0.07840  1.0000
  C   C1721     1.0  0.68734  0.62131  0.34420  1.0000
  H   H1378     1.0  0.91667  0.99304  0.18245  1.0000
  H   H1379     1.0  0.91519  0.51397  0.36250  1.0000
  H   H1380     1.0  0.81869  0.54496  0.44658  1.0000
  C   C1722     1.0  0.90790  0.54282  0.17796  1.0000
  C   C1723     1.0  0.86163  0.83775  0.09790  1.0000
  C   C1724     1.0  0.00359  0.67013  0.50376  1.0000
  C   C1725     1.0  0.73552  0.51623  0.20558  1.0000
  C   C1726     1.0  0.75102  0.00872  0.45967  1.0000
  C   C1727     1.0  0.77843  0.93122  0.08657  1.0000
  H   H1381     1.0  0.93642  0.53923  0.22669  1.0000
  H   H1382     1.0  0.69713  0.53169  0.23387  1.0000
  H   H1383     1.0  0.90081  0.86784  0.20240  1.0000
  H   H1384     1.0  0.68947  0.58672  0.23052  1.0000
  H   H1385     1.0  0.69150  0.70461  0.20861  1.0000
  P   P57       1.0  0.77656  0.51404  0.39219  1.0000
  H   H1386     1.0  0.77193  0.94700  0.52730  1.0000
  C   C1728     1.0  0.77908  0.90035  0.09018  1.0000
  C   C1729     1.0  0.99103  0.52408  0.30131  1.0000
  C   C1730     1.0  0.72410  0.99398  0.47027  1.0000
  C   C1731     1.0  0.00986  0.70294  0.44947  1.0000
  C   C1732     1.0  0.82102  0.97448  0.31406  1.0000
  H   H1387     1.0  0.00187  0.76729  0.50605  1.0000
  H   H1388     1.0  0.95328  0.52819  0.40773  1.0000
  H   H1389     1.0  0.69334  0.51724  0.48310  1.0000
  H   H1390     1.0  0.82475  0.69791  0.10536  1.0000
  H   H1391     1.0  0.88231  0.94338  0.55809  1.0000
  C   C1733     1.0  0.96025  0.52566  0.29619  1.0000
  H   H1392     1.0  0.84500  0.91101  0.09599  1.0000
  C   C1734     1.0  0.69958  0.51585  0.45342  1.0000
  H   H1393     1.0  0.83729  0.98953  0.25991  1.0000
  H   H1394     1.0  0.88568  0.70570  0.07559  1.0000
  C   C1735     1.0  0.81720  0.00927  0.44400  1.0000
  C   C1736     1.0  0.68553  0.51529  0.38673  1.0000
  C   C1737     1.0  0.97229  0.51499  0.40247  1.0000
  C   C1738     1.0  0.85611  0.89082  0.08915  1.0000
  H   H1395     1.0  0.99752  0.91663  0.52561  1.0000
  H   H1396     1.0  0.00476  0.70759  0.41994  1.0000
  C   C1739     1.0  0.90386  0.01162  0.19131  1.0000
  H   H1397     1.0  0.74648  0.51506  0.46572  1.0000
  C   C1740     1.0  0.78471  0.70857  0.07526  1.0000
  H   H1398     1.0  0.68406  0.67020  0.13928  1.0000
  C   C1741     1.0  0.01351  0.99192  0.39772  1.0000
  C   C1742     1.0  0.71545  0.51340  0.37666  1.0000
  H   H1399     1.0  0.72114  0.51311  0.34676  1.0000
  C   C1743     1.0  0.73769  0.51261  0.40500  1.0000
  Fe  Fe119     1.0  0.91502  0.71234  0.87432  1.0000
  S   S237      1.0  0.88699  0.68634  0.83155  1.0000
  S   S238      1.0  0.94360  0.75212  0.85651  1.0000
  Fe  Fe120     1.0  0.90079  0.66875  0.93816  1.0000
  S   S239      1.0  0.87171  0.63868  0.90101  1.0000
  S   S240      1.0  0.91052  0.65897  0.99967  1.0000
  Fe  Fe121     1.0  0.90707  0.64604  0.85688  1.0000
  S   S241      1.0  0.92688  0.61202  0.81837  1.0000
  Fe  Fe122     1.0  0.85438  0.68154  0.87930  1.0000
  S   S242      1.0  0.80522  0.68480  0.87143  1.0000
  S   S243      1.0  0.93798  0.67250  0.89602  1.0000
  S   S244      1.0  0.88056  0.71119  0.92019  1.0000
  Fe  Fe123     1.0  0.90250  0.91044  0.70308  1.0000
  S   S245      1.0  0.93067  0.88431  0.74246  1.0000
  S   S246      1.0  0.88038  0.89047  0.65045  1.0000
  Fe  Fe124     1.0  0.90436  0.96546  0.75514  1.0000
  S   S247      1.0  0.93254  0.94370  0.79912  1.0000
  H   H1400     1.0  0.74077  0.61383  0.01304  1.0000
  Fe  Fe125     1.0  0.95778  0.92724  0.74908  1.0000
  C   C1744     1.0  0.72100  0.77629  0.76074  1.0000
  Fe  Fe126     1.0  0.90300  0.90288  0.78887  1.0000
  S   S248      1.0  0.88264  0.87494  0.83574  1.0000
  S   S249      1.0  0.93196  0.95207  0.70522  1.0000
  S   S250      1.0  0.87246  0.92587  0.74902  1.0000
  Fe  Fe127     1.0  0.72089  0.81982  0.88807  1.0000
  S   S251      1.0  0.76322  0.81615  0.85508  1.0000
  H   H1401     1.0  0.71332  0.61460  0.95117  1.0000
  H   H1402     1.0  0.73178  0.63009  0.67968  1.0000
  H   H1403     1.0  0.90596  0.56066  0.93127  1.0000
  C   C1745     1.0  0.99909  0.98817  0.75779  1.0000
  C   C1746     1.0  0.78482  0.00481  0.84439  1.0000
  H   H1404     1.0  0.97611  0.98254  0.75081  1.0000
  C   C1747     1.0  0.79380  0.72106  0.86428  1.0000
  C   C1748     1.0  0.81475  0.74463  0.85879  1.0000
  C   C1749     1.0  0.80530  0.77387  0.85625  1.0000
  C   C1750     1.0  0.77498  0.77954  0.85837  1.0000
  C   C1751     1.0  0.75412  0.75588  0.86326  1.0000
  C   C1752     1.0  0.76345  0.72666  0.86600  1.0000
  H   H1405     1.0  0.83820  0.74039  0.85727  1.0000
  H   H1406     1.0  0.82143  0.79211  0.85267  1.0000
  H   H1407     1.0  0.73077  0.76016  0.86493  1.0000
  H   H1408     1.0  0.74716  0.70846  0.87013  1.0000
  C   C1753     1.0  0.91261  0.57493  0.82127  1.0000
  C   C1754     1.0  0.88586  0.56782  0.83988  1.0000
  C   C1755     1.0  0.87472  0.53814  0.84125  1.0000
  H   H1409     1.0  0.79330  0.61243  0.90653  1.0000
  C   C1756     1.0  0.82828  0.63683  0.07179  1.0000
  C   C1757     1.0  0.92812  0.55218  0.80403  1.0000
  H   H1410     1.0  0.87356  0.58518  0.85286  1.0000
  H   H1411     1.0  0.00604  0.76737  0.94898  1.0000
  H   H1412     1.0  0.74727  0.92538  0.89421  1.0000
  H   H1413     1.0  0.94876  0.55756  0.78947  1.0000
  C   C1758     1.0  0.92582  0.78572  0.85035  1.0000
  C   C1759     1.0  0.94163  0.80962  0.83333  1.0000
  C   C1760     1.0  0.92832  0.83689  0.82812  1.0000
  C   C1761     1.0  0.89963  0.84084  0.84170  1.0000
  C   C1762     1.0  0.88433  0.81739  0.86043  1.0000
  C   C1763     1.0  0.89709  0.78958  0.86393  1.0000
  H   H1414     1.0  0.96422  0.80689  0.82408  1.0000
  H   H1415     1.0  0.94062  0.85504  0.81453  1.0000
  H   H1416     1.0  0.86252  0.82074  0.87195  1.0000
  H   H1417     1.0  0.88498  0.77140  0.87781  1.0000
  H   H1418     1.0  0.73383  0.98133  0.92325  1.0000
  C   C1764     1.0  0.85004  0.65031  0.01060  1.0000
  H   H1419     1.0  0.84726  0.65601  0.98091  1.0000
  H   H1420     1.0  0.69708  0.77314  0.01311  1.0000
  C   C1765     1.0  0.93475  0.88356  0.61639  1.0000
  C   C1766     1.0  0.90368  0.88228  0.61229  1.0000
  C   C1767     1.0  0.82411  0.97019  0.83834  1.0000
  H   H1421     1.0  0.94492  0.88982  0.64351  1.0000
  H   H1422     1.0  0.75104  0.64546  0.90083  1.0000
  H   H1423     1.0  0.86223  0.99115  0.68462  1.0000
  C   C1768     1.0  0.78997  0.75851  0.95601  1.0000
  C   C1769     1.0  0.79106  0.78876  0.96511  1.0000
  C   C1770     1.0  0.75488  0.74835  0.00704  1.0000
  C   C1771     1.0  0.77207  0.73833  0.97677  1.0000
  P   P58       1.0  0.73334  0.72210  0.03571  1.0000
  H   H1424     1.0  0.77526  0.96799  0.04843  1.0000
  C   C1772     1.0  0.95229  0.96194  0.59094  1.0000
  C   C1773     1.0  0.68390  0.75806  0.03064  1.0000
  C   C1774     1.0  0.81161  0.90655  0.93873  1.0000
  C   C1775     1.0  0.89303  0.86555  0.05308  1.0000
  H   H1425     1.0  0.82421  0.90962  0.96501  1.0000
  C   C1776     1.0  0.98528  0.74145  0.75133  1.0000
  C   C1777     1.0  0.76847  0.91559  0.89917  1.0000
  C   C1778     1.0  0.79375  0.99477  0.59849  1.0000
  C   C1779     1.0  0.88461  0.83880  0.07105  1.0000
  H   H1426     1.0  0.80311  0.75056  0.93286  1.0000
  H   H1427     1.0  0.77189  0.71501  0.96895  1.0000
  C   C1780     1.0  0.77117  0.99311  0.81129  1.0000
  H   H1428     1.0  0.81762  0.54418  0.72118  1.0000
  H   H1429     1.0  0.00852  0.70651  0.83169  1.0000
  C   C1781     1.0  0.72028  0.58345  0.67174  1.0000
  H   H1430     1.0  0.79380  0.70314  0.04773  1.0000
  C   C1782     1.0  0.75598  0.68753  0.76444  1.0000
  C   C1783     1.0  0.78437  0.68093  0.77744  1.0000
  C   C1784     1.0  0.80871  0.70049  0.77010  1.0000
  C   C1785     1.0  0.80460  0.72706  0.75053  1.0000
  C   C1786     1.0  0.77588  0.73459  0.73904  1.0000
  C   C1787     1.0  0.75180  0.71398  0.74474  1.0000
  P   P59       1.0  0.77009  0.76895  0.71395  1.0000
  C   C1788     1.0  0.73432  0.78302  0.72559  1.0000
  C   C1789     1.0  0.79664  0.79887  0.72654  1.0000
  C   C1790     1.0  0.80963  0.80006  0.76295  1.0000
  C   C1791     1.0  0.82953  0.82359  0.77334  1.0000
  C   C1792     1.0  0.83626  0.84639  0.74756  1.0000
  C   C1793     1.0  0.82269  0.84599  0.71154  1.0000
  C   C1794     1.0  0.80279  0.82239  0.70109  1.0000
  C   C1795     1.0  0.71984  0.80148  0.69987  1.0000
  C   C1796     1.0  0.97462  0.68890  0.79326  1.0000
  C   C1797     1.0  0.70958  0.92398  0.98015  1.0000
  C   C1798     1.0  0.71200  0.68806  0.97439  1.0000
  H   H1431     1.0  0.99276  0.83568  0.01832  1.0000
  C   C1799     1.0  0.77205  0.75983  0.66403  1.0000
  C   C1800     1.0  0.79930  0.76276  0.64481  1.0000
  C   C1801     1.0  0.80083  0.75517  0.60621  1.0000
  C   C1802     1.0  0.97593  0.82359  0.00140  1.0000
  H   H1432     1.0  0.91122  0.94889  0.61852  1.0000
  C   C1803     1.0  0.74667  0.74803  0.64459  1.0000
  H   H1433     1.0  0.73708  0.67239  0.77026  1.0000
  H   H1434     1.0  0.83063  0.69538  0.78062  1.0000
  C   C1804     1.0  0.78273  0.96872  0.58046  1.0000
  H   H1435     1.0  0.82379  0.74182  0.74505  1.0000
  H   H1436     1.0  0.72959  0.71846  0.73471  1.0000
  H   H1437     1.0  0.80398  0.78300  0.78345  1.0000
  H   H1438     1.0  0.83951  0.82440  0.80157  1.0000
  H   H1439     1.0  0.85195  0.86433  0.75574  1.0000
  H   H1440     1.0  0.82787  0.86388  0.69169  1.0000
  H   H1441     1.0  0.79221  0.82258  0.67326  1.0000
  H   H1442     1.0  0.73019  0.80779  0.67318  1.0000
  C   C1805     1.0  0.00762  0.86311  0.90665  1.0000
  C   C1806     1.0  0.95811  0.69383  0.76017  1.0000
  C   C1807     1.0  0.89822  0.81215  0.69957  1.0000
  H   H1443     1.0  0.96442  0.96376  0.61770  1.0000
  H   H1444     1.0  0.81941  0.77071  0.65964  1.0000
  H   H1445     1.0  0.78742  0.66096  0.79393  1.0000
  H   H1446     1.0  0.97668  0.87748  0.58848  1.0000
  C   C1808     1.0  0.95118  0.81038  0.01978  1.0000
  H   H1447     1.0  0.72570  0.74451  0.65929  1.0000
  C   C1809     1.0  0.84542  0.77697  0.04750  1.0000
  C   C1810     1.0  0.71702  0.63495  0.96759  1.0000
  H   H1448     1.0  0.70553  0.58688  0.64764  1.0000
  H   H1449     1.0  0.77502  0.94983  0.59735  1.0000
  H   H1450     1.0  0.71735  0.90686  0.99891  1.0000
  C   C1811     1.0  0.89064  0.87408  0.57717  1.0000
  H   H1451     1.0  0.98377  0.61086  0.76945  1.0000
  C   C1812     1.0  0.97928  0.82003  0.96190  1.0000
  H   H1452     1.0  0.80472  0.57849  0.85371  1.0000
  C   C1813     1.0  0.73757  0.66078  0.02336  1.0000
  H   H1453     1.0  0.89588  0.81886  0.06388  1.0000
  H   H1454     1.0  0.86992  0.71311  0.00880  1.0000
  C   C1814     1.0  0.77660  0.94411  0.05044  1.0000
  H   H1455     1.0  0.92783  0.53886  0.72668  1.0000
  C   C1815     1.0  0.95721  0.80374  0.94117  1.0000
  C   C1816     1.0  0.94500  0.58968  0.93985  1.0000
  C   C1817     1.0  0.92190  0.95373  0.59158  1.0000
  H   H1456     1.0  0.74946  0.65979  0.05030  1.0000
  C   C1818     1.0  0.92951  0.79381  0.99885  1.0000
  C   C1819     1.0  0.69591  0.73250  0.04618  1.0000
  C   C1820     1.0  0.01259  0.74080  0.66572  1.0000
  H   H1457     1.0  0.70400  0.70870  0.96305  1.0000
  C   C1821     1.0  0.74333  0.60960  0.81567  1.0000
  C   C1822     1.0  0.75494  0.62954  0.87847  1.0000
  C   C1823     1.0  0.98982  0.57548  0.90732  1.0000
  H   H1458     1.0  0.69501  0.66225  0.92648  1.0000
  Fe  Fe128     1.0  0.69897  0.83076  0.96848  1.0000
  C   C1824     1.0  0.80697  0.88457  0.87570  1.0000
  C   C1825     1.0  0.87873  0.89155  0.06207  1.0000
  H   H1459     1.0  0.85398  0.53280  0.85566  1.0000
  C   C1826     1.0  0.82300  0.88908  0.90968  1.0000
  C   C1827     1.0  0.78418  0.91994  0.93374  1.0000
  H   H1460     1.0  0.95268  0.89886  0.86018  1.0000
  H   H1461     1.0  0.71392  0.94845  0.83919  1.0000
  C   C1828     1.0  0.72416  0.55465  0.68509  1.0000
  H   H1462     1.0  0.95994  0.80014  0.91099  1.0000
  C   C1829     1.0  0.92945  0.56448  0.92522  1.0000
  C   C1830     1.0  0.92656  0.52044  0.70674  1.0000
  H   H1463     1.0  0.71250  0.53593  0.67109  1.0000
  C   C1831     1.0  0.73684  0.62847  0.84589  1.0000
  C   C1832     1.0  0.94857  0.80378  0.67949  1.0000
  H   H1464     1.0  0.91076  0.78285  0.01308  1.0000
  C   C1833     1.0  0.96336  0.71998  0.73930  1.0000
  P   P60       1.0  0.01337  0.83227  0.93849  1.0000
  H   H1465     1.0  0.94087  0.67755  0.75125  1.0000
  C   C1834     1.0  0.77974  0.89781  0.87051  1.0000
  H   H1466     1.0  0.76433  0.62231  0.73555  1.0000
  H   H1467     1.0  0.95001  0.72368  0.71405  1.0000
  H   H1468     1.0  0.72865  0.73126  0.59113  1.0000
  C   C1835     1.0  0.77506  0.79872  0.99618  1.0000
  C   C1836     1.0  0.91711  0.52242  0.80566  1.0000
  C   C1837     1.0  0.76834  0.59200  0.81771  1.0000
  H   H1469     1.0  0.82972  0.96451  0.94928  1.0000
  C   C1838     1.0  0.00317  0.61331  0.78797  1.0000
  C   C1839     1.0  0.73492  0.60775  0.68990  1.0000
  H   H1470     1.0  0.84464  0.75862  0.99054  1.0000
  H   H1471     1.0  0.86851  0.55842  0.69936  1.0000
  C   C1840     1.0  0.77903  0.61113  0.88145  1.0000
  H   H1472     1.0  0.80409  0.80441  0.94784  1.0000
  C   C1841     1.0  0.93242  0.79070  0.95949  1.0000
  C   C1842     1.0  0.72759  0.68780  0.00931  1.0000
  H   H1473     1.0  0.91055  0.86608  0.03199  1.0000
  C   C1843     1.0  0.87420  0.59558  0.73788  1.0000
  H   H1474     1.0  0.77563  0.82219  0.00313  1.0000
  C   C1844     1.0  0.85842  0.57115  0.72160  1.0000
  H   H1475     1.0  0.69145  0.90334  0.86908  1.0000
  S   S252      1.0  0.68879  0.99641  0.79977  1.0000
  H   H1476     1.0  0.80282  0.64441  0.02064  1.0000
  C   C1845     1.0  0.73245  0.63450  0.00239  1.0000
  H   H1477     1.0  0.81551  0.87053  0.85350  1.0000
  H   H1478     1.0  0.76706  0.89387  0.84450  1.0000
  C   C1846     1.0  0.78766  0.97929  0.97061  1.0000
  H   H1479     1.0  0.98450  0.53506  0.87355  1.0000
  C   C1847     1.0  0.69259  0.78589  0.76867  1.0000
  C   C1848     1.0  0.77535  0.92615  0.01756  1.0000
  H   H1480     1.0  0.84424  0.87888  0.91328  1.0000
  C   C1849     1.0  0.85101  0.75540  0.01999  1.0000
  H   H1481     1.0  0.91631  0.82638  0.64582  1.0000
  C   C1850     1.0  0.94399  0.54459  0.90202  1.0000
  H   H1482     1.0  0.71918  0.84361  0.79209  1.0000
  C   C1851     1.0  0.74704  0.52020  0.80662  1.0000
  C   C1852     1.0  0.97491  0.89388  0.86978  1.0000
  H   H1483     1.0  0.82357  0.99278  0.73375  1.0000
  H   H1484     1.0  0.89620  0.98689  0.83453  1.0000
  H   H1485     1.0  0.72891  0.60930  0.79087  1.0000
  H   H1486     1.0  0.82275  0.00358  0.88225  1.0000
  H   H1487     1.0  0.95944  0.85664  0.90299  1.0000
  C   C1853     1.0  0.84353  0.97500  0.68389  1.0000
  C   C1854     1.0  0.84180  0.95293  0.65578  1.0000
  C   C1855     1.0  0.81818  0.93157  0.65555  1.0000
  C   C1856     1.0  0.79613  0.93233  0.68333  1.0000
  C   C1857     1.0  0.79810  0.95403  0.71219  1.0000
  C   C1858     1.0  0.82170  0.97566  0.71195  1.0000
  P   P61       1.0  0.76860  0.95665  0.74622  1.0000
  C   C1859     1.0  0.74354  0.98196  0.72415  1.0000
  C   C1860     1.0  0.75222  0.92023  0.75720  1.0000
  C   C1861     1.0  0.72192  0.91661  0.76636  1.0000
  C   C1862     1.0  0.77532  0.74408  0.58679  1.0000
  C   C1863     1.0  0.72813  0.86474  0.78141  1.0000
  C   C1864     1.0  0.75828  0.86811  0.77237  1.0000
  C   C1865     1.0  0.77038  0.89573  0.76047  1.0000
  C   C1866     1.0  0.71859  0.97118  0.70296  1.0000
  C   C1867     1.0  0.75731  0.77854  0.01733  1.0000
  S   S253      1.0  0.71421  0.79030  0.93848  1.0000
  C   C1868     1.0  0.81754  0.98308  0.95940  1.0000
  H   H1488     1.0  0.74484  0.78667  0.04102  1.0000
  C   C1869     1.0  0.78447  0.97055  0.79071  1.0000
  C   C1870     1.0  0.87866  0.64967  0.02666  1.0000
  H   H1489     1.0  0.73232  0.76342  0.78204  1.0000
  C   C1871     1.0  0.00329  0.59853  0.82292  1.0000
  C   C1872     1.0  0.90364  0.79769  0.73394  1.0000
  C   C1873     1.0  0.81051  0.95853  0.80520  1.0000
  H   H1490     1.0  0.82187  0.75771  0.59141  1.0000
  H   H1491     1.0  0.74449  0.52763  0.72715  1.0000
  H   H1492     1.0  0.81736  0.91414  0.63411  1.0000
  H   H1493     1.0  0.77773  0.91590  0.68242  1.0000
  C   C1874     1.0  0.89031  0.51539  0.82417  1.0000
  H   H1494     1.0  0.70770  0.93537  0.76572  1.0000
  H   H1495     1.0  0.71816  0.64280  0.84364  1.0000
  H   H1496     1.0  0.99650  0.92961  0.83794  1.0000
  H   H1497     1.0  0.77242  0.84950  0.77627  1.0000
  H   H1498     1.0  0.79406  0.89813  0.75503  1.0000
  H   H1499     1.0  0.71353  0.94755  0.70004  1.0000
  H   H1500     1.0  0.88517  0.91226  0.04798  1.0000
  H   H1501     1.0  0.93533  0.77498  0.76785  1.0000
  H   H1502     1.0  0.72786  0.53397  0.80542  1.0000
  C   C1875     1.0  0.71873  0.96588  0.93792  1.0000
  P   P62       1.0  0.76938  0.94255  0.97127  1.0000
  H   H1503     1.0  0.98631  0.61501  0.94250  1.0000
  S   S254      1.0  0.71724  0.84294  0.02674  1.0000
  H   H1504     1.0  0.77804  0.85838  0.06049  1.0000
  H   H1505     1.0  0.82056  0.94037  0.79068  1.0000
  C   C1876     1.0  0.78558  0.59221  0.85133  1.0000
  H   H1506     1.0  0.94930  0.81236  0.05040  1.0000
  C   C1877     1.0  0.93147  0.78606  0.74100  1.0000
  H   H1507     1.0  0.97592  0.83265  0.76095  1.0000
  C   C1878     1.0  0.86096  0.61247  0.76594  1.0000
  C   C1879     1.0  0.97398  0.55009  0.89291  1.0000
  C   C1880     1.0  0.69179  0.81187  0.70848  1.0000
  H   H1508     1.0  0.93357  0.60528  0.95754  1.0000
  C   C1881     1.0  0.75310  0.60328  0.72176  1.0000
  C   C1882     1.0  0.97508  0.59516  0.93107  1.0000
  H   H1509     1.0  0.82268  0.61819  0.80021  1.0000
  C   C1883     1.0  0.75601  0.57453  0.73640  1.0000
  S   S255      1.0  0.70999  0.86119  0.91983  1.0000
  H   H1510     1.0  0.84459  0.96118  0.84881  1.0000
  H   H1511     1.0  0.87323  0.63140  0.77855  1.0000
  C   C1884     1.0  0.83229  0.60454  0.77855  1.0000
  C   C1885     1.0  0.82967  0.56313  0.73408  1.0000
  C   C1886     1.0  0.68992  0.94499  0.83977  1.0000
  C   C1887     1.0  0.82488  0.64380  0.03313  1.0000
  H   H1512     1.0  0.69280  0.71566  0.80090  1.0000
  C   C1888     1.0  0.97889  0.86984  0.89421  1.0000
  C   C1889     1.0  0.74830  0.74035  0.60603  1.0000
  H   H1513     1.0  0.83448  0.79687  0.03893  1.0000
  C   C1890     1.0  0.86546  0.72977  0.03017  1.0000
  P   P63       1.0  0.77910  0.56934  0.77803  1.0000
  C   C1891     1.0  0.81662  0.57940  0.76323  1.0000
  C   C1892     1.0  0.99954  0.91124  0.85734  1.0000
  H   H1514     1.0  0.98384  0.58502  0.83070  1.0000
  H   H1515     1.0  0.89679  0.60140  0.72908  1.0000
  H   H1516     1.0  0.91600  0.77745  0.94314  1.0000
  C   C1893     1.0  0.77515  0.53144  0.79480  1.0000
  C   C1894     1.0  0.70679  0.66174  0.95362  1.0000
  H   H1517     1.0  0.85906  0.95193  0.63458  1.0000
  C   C1895     1.0  0.95424  0.78918  0.71395  1.0000
  C   C1896     1.0  0.72968  0.94474  0.96323  1.0000
  H   H1518     1.0  0.97010  0.66890  0.80984  1.0000
  H   H1519     1.0  0.00663  0.87140  0.79401  1.0000
  H   H1520     1.0  0.77395  0.88067  0.99675  1.0000
  H   H1521     1.0  0.87687  0.82151  0.69405  1.0000
  H   H1522     1.0  0.88649  0.79582  0.75545  1.0000
  C   C1897     1.0  0.74206  0.55011  0.71720  1.0000
  C   C1898     1.0  0.69222  0.84455  0.06468  1.0000
  C   C1899     1.0  0.89287  0.01034  0.83793  1.0000
  C   C1900     1.0  0.92058  0.81501  0.67232  1.0000
  H   H1523     1.0  0.68661  0.88649  0.78600  1.0000
  C   C1901     1.0  0.99945  0.82939  0.76498  1.0000
  C   C1902     1.0  0.77631  0.89514  0.02146  1.0000
  C   C1903     1.0  0.70989  0.88891  0.77812  1.0000
  C   C1904     1.0  0.69973  0.99100  0.68537  1.0000
  C   C1905     1.0  0.81161  0.99378  0.85747  1.0000
  C   C1906     1.0  0.95267  0.87652  0.58529  1.0000
  H   H1524     1.0  0.89581  0.00894  0.89920  1.0000
  H   H1525     1.0  0.75045  0.00194  0.80178  1.0000
  H   H1526     1.0  0.68148  0.74825  0.85538  1.0000
  H   H1527     1.0  0.98999  0.52401  0.77552  1.0000
  C   C1907     1.0  0.77296  0.00403  0.98429  1.0000
  H   H1528     1.0  0.93167  0.52542  0.88999  1.0000
  C   C1908     1.0  0.88201  0.64238  0.06518  1.0000
  C   C1909     1.0  0.87444  0.72566  0.06787  1.0000
  C   C1910     1.0  0.77845  0.88237  0.05764  1.0000
  H   H1529     1.0  0.82193  0.52153  0.79039  1.0000
  C   C1911     1.0  0.79973  0.51333  0.79787  1.0000
  H   H1530     1.0  0.75023  0.00157  0.99427  1.0000
  H   H1531     1.0  0.96560  0.80686  0.65818  1.0000
  H   H1532     1.0  0.97173  0.52766  0.68938  1.0000
  P   P64       1.0  0.99065  0.77572  0.72472  1.0000
  S   S256      1.0  0.00766  0.92876  0.75338  1.0000
  H   H1533     1.0  0.00274  0.72155  0.68003  1.0000
  C   C1912     1.0  0.68816  0.96639  0.93007  1.0000
  C   C1913     1.0  0.00171  0.73633  0.78472  1.0000
  C   C1914     1.0  0.99642  0.71008  0.80545  1.0000
  C   C1915     1.0  0.83218  0.01120  0.96102  1.0000
  C   C1916     1.0  0.01248  0.80366  0.75144  1.0000
  C   C1917     1.0  0.01066  0.76950  0.68113  1.0000
  C   C1918     1.0  0.95154  0.51396  0.68532  1.0000
  C   C1919     1.0  0.00863  0.51242  0.62724  1.0000
  H   H1534     1.0  0.79471  0.99598  0.62935  1.0000
  C   C1920     1.0  0.01334  0.52670  0.59210  1.0000
  H   H1535     1.0  0.68194  0.77942  0.79508  1.0000
  H   H1536     1.0  0.68063  0.82605  0.68856  1.0000
