data_image0
_chemical_formula_structural       C3HCH3C2HC3H2CHC4H2C3H4CHCHCSHPHCSHC2HCH2PCH5C2H2C2HC3HCSCH2C2HCH2C3SHC2H2C3HCHC4HCHSH2PHCHCHCH2CHC2SH2SC7HC2HC8H2C2HCHSH2CH6CH3C5PC3H3C3HC3HCH3CHCFeH2C2FeH2C4FeCSHPSHSC5S2HC3HC8HC2HC2H2C2H2C2HCHC5PC2HSCHC3H2C8HCH2C4H2CH2CH6CFeHFeCSHC2H2C2HC2PCHCH4C2HC2HPC9HCFeCH8CH4CH2CHCH2CHCH2CHCHC2H2CH2C2HCHC3HC2S2Fe2S2CFeS2HSHFeCFeSHSC5H5C4H2SCHC6H5C2SH2CHCHC6H5C3HC3HPC3PHC8HCH2CHCH2CHC2H7CH2C8PH2FeC3HC2SC7H2CH3FeHCSH4C3H2C3H4SCHCPH2C3H2FeH2C2HC2HC3H2S2HC2FeC2HC2H2C2H3CFeCH3CFeHSFe3S3CSC2HCFeSCHSFeSCHSCSFeS2C5FeHC4H2S2CHC6H2FeH3CH2CH2C6H5C7PC17H16C5PSHC2SH3C2HCH3C2HC3H4CH3CHFeHCHCHC2HSHC2H2SCHFeCH3CH2C3HCPHC3H2CHC2HC3H3SFeS2FeSCFeSCFeSFeS4CHCH4C2H3C2HC6H4C6HC2HCH2CHC8PC13H2CHCPCH2CH6C3H3C2H3C2SCHCHCSHCHC2FeHC5H2C6H3SH2CH3CH3C3SH2CH2CH2CH4C2HCFeS2FeS2FeCFeS3HSFeS2H2CH2C7H4C5HCFePC5H2CHCH4C7PC8H3C5H10CH2C5HCSHPC4H5CH2C4H2C2H3SCHSCH4CHCFeHC3SHC4H2CHC5HC2HCSC5H6CHCH2C6H2C4HCHC2H2C2H2C2HS2HFeSC2FeS2FeSCS2FeS2HCFeS2HFe2HFeCFeHC7H4C3SH3C6H2CHC2H2CSC2SHCH4CHFeH5C3H2C3HCHC3HC2H2C5H4CHCSCH2PCHSCH3C2HC2HFeHCH2FeC3H2CPC6PC3HC13H6C2H2CH5SHC5H2CFeHC2HC2HFeSHFeS2FeSFeS3CH2CFeHSHS2CH2CHCH2CSH2C3HC6H4C4H7CPHC2SC3H4CHC2HC3H4CHC7HC4H2C2HPC2PC2H2SC5H2CHCHFeH3CPC2H2C2HC6SHC3H2CHC4HCH3CHC2HCH3C2HC2HC4HSC3HC2H6CHC3H5CH5CSHCH2CH2SC3H5CFeHC5HCH3SCSH4CH3CHC3HC2H2SCH2CHC4PC5SC7HCHC4H2CH2CHSH2C2H2CH2C2SC6PC4HC12H8C2HC2SCH2FeHCH4CHSCHFeHFeCHCH2CH2C2H2C4HCH3CHC4H2SC2HCH2SC3HC2HCH3C2H8C4H3CH2PC2HCH3SC3H3CH2C5PH2FeC2HC2H2C2SCSC2HCHCHC3HCH2C8H2C2H4C2HC2HC2HCH2C3H2CPSC2H4CHC4HC2HSHC2HC2H2CHC2HC2H3CHCH4C2HC2H
_chemical_formula_sum              "C960 H768 S128 P32 Fe64"
_cell_length_a       29.9294
_cell_length_b       29.8673
_cell_length_c       37.9053
_cell_angle_alpha    89.8343
_cell_angle_beta     90.2224
_cell_angle_gamma    89.7489

_space_group_name_H-M_alt    "P 1"
_space_group_IT_number       1

loop_
  _space_group_symop_operation_xyz
  'x, y, z'

loop_
  _atom_site_type_symbol
  _atom_site_label
  _atom_site_symmetry_multiplicity
  _atom_site_fract_x
  _atom_site_fract_y
  _atom_site_fract_z
  _atom_site_occupancy
  C   C1        1.0  0.49404  0.03882  0.10907  1.0000
  C   C2        1.0  0.41728  0.03315  0.29305  1.0000
  C   C3        1.0  0.44216  0.06085  0.27082  1.0000
  H   H1        1.0  0.08044  0.12563  0.27713  1.0000
  C   C4        1.0  0.43699  0.41784  0.05694  1.0000
  H   H2        1.0  0.35863  0.15152  0.07477  1.0000
  H   H3        1.0  0.42219  0.09670  0.02448  1.0000
  H   H4        1.0  0.38301  0.37708  0.07595  1.0000
  C   C5        1.0  0.07430  0.02191  0.09590  1.0000
  C   C6        1.0  0.01427  0.99630  0.21047  1.0000
  H   H5        1.0  0.41505  0.30644  0.05308  1.0000
  C   C7        1.0  0.34212  0.13053  0.05548  1.0000
  C   C8        1.0  0.13205  0.07926  0.19081  1.0000
  C   C9        1.0  0.00566  0.02244  0.18034  1.0000
  H   H6        1.0  0.10615  0.04959  0.30738  1.0000
  H   H7        1.0  0.48920  0.42802  0.18670  1.0000
  C   C10       1.0  0.37929  0.00209  0.24172  1.0000
  H   H8        1.0  0.03145  0.09444  0.23094  1.0000
  C   C11       1.0  0.38548  0.00408  0.27846  1.0000
  C   C12       1.0  0.02453  0.10593  0.14135  1.0000
  C   C13       1.0  0.33132  0.08636  0.06405  1.0000
  C   C14       1.0  0.33224  0.14732  0.02186  1.0000
  H   H9        1.0  0.34100  0.18141  0.01507  1.0000
  H   H10       1.0  0.05205  0.04597  0.08381  1.0000
  C   C15       1.0  0.47788  0.41828  0.03924  1.0000
  C   C16       1.0  0.43302  0.33752  0.04949  1.0000
  C   C17       1.0  0.14122  0.11363  0.24820  1.0000
  H   H11       1.0  0.04458  0.18394  0.07749  1.0000
  H   H12       1.0  0.30280  0.02484  0.04608  1.0000
  H   H13       1.0  0.42274  0.44882  0.06665  1.0000
  H   H14       1.0  0.45852  0.03186  0.10760  1.0000
  C   C18       1.0  0.09496  0.11268  0.25306  1.0000
  H   H15       1.0  0.40838  0.02164  0.05056  1.0000
  C   C19       1.0  0.31103  0.05881  0.03892  1.0000
  H   H16       1.0  0.33935  0.07316  0.09003  1.0000
  C   C20       1.0  0.41466  0.37742  0.06220  1.0000
  S   S1        1.0  0.39248  0.03174  0.17391  1.0000
  H   H17       1.0  0.14094  0.01014  0.25716  1.0000
  P   P1        1.0  0.04906  0.05686  0.16178  1.0000
  H   H18       1.0  0.00578  0.08906  0.04692  1.0000
  C   C21       1.0  0.27178  0.03053  0.17735  1.0000
  S   S2        1.0  0.01034  0.03162  0.31113  1.0000
  H   H19       1.0  0.14699  0.06741  0.16658  1.0000
  C   C22       1.0  0.12971  0.02267  0.31216  1.0000
  C   C23       1.0  0.42314  0.02451  0.02467  1.0000
  H   H20       1.0  0.45258  0.08293  0.21727  1.0000
  C   C24       1.0  0.07933  0.01965  0.13272  1.0000
  H   H21       1.0  0.46650  0.08353  0.28191  1.0000
  H   H22       1.0  0.19553  0.09822  0.21309  1.0000
  P   P2        1.0  0.49471  0.28705  0.01227  1.0000
  C   C25       1.0  0.15973  0.09700  0.21705  1.0000
  H   H23       1.0  0.49247  0.05354  0.16459  1.0000
  H   H24       1.0  0.07851  0.11647  0.10439  1.0000
  H   H25       1.0  0.25086  0.01611  0.26466  1.0000
  H   H26       1.0  0.16267  0.12738  0.26853  1.0000
  H   H27       1.0  0.04576  0.99881  0.22448  1.0000
  C   C26       1.0  0.40315  0.03073  0.21960  1.0000
  C   C27       1.0  0.43434  0.06036  0.23423  1.0000
  H   H28       1.0  0.29107  0.05164  0.15981  1.0000
  H   H29       1.0  0.29212  0.06573  0.22414  1.0000
  C   C28       1.0  0.08559  0.07757  0.19585  1.0000
  C   C29       1.0  0.06726  0.09475  0.22697  1.0000
  H   H30       1.0  0.45879  0.25718  0.31677  1.0000
  C   C30       1.0  0.27228  0.03850  0.21365  1.0000
  C   C31       1.0  0.02786  0.16716  0.09905  1.0000
  C   C32       1.0  0.04669  0.12852  0.11405  1.0000
  H   H31       1.0  0.00110  0.12443  0.29960  1.0000
  C   C33       1.0  0.47417  0.33782  0.03186  1.0000
  S   S3        1.0  0.42418  0.03498  0.33913  1.0000
  C   C34       1.0  0.24899  0.01017  0.23650  1.0000
  H   H32       1.0  0.20275  0.06099  0.02056  1.0000
  H   H33       1.0  0.39727  0.48753  0.24521  1.0000
  C   C35       1.0  0.43110  0.06698  0.00988  1.0000
  C   C36       1.0  0.49338  0.25164  0.30966  1.0000
  H   H34       1.0  0.12660  0.09151  0.01161  1.0000
  C   C37       1.0  0.14921  1.00000  0.28385  1.0000
  H   H35       1.0  0.09687  0.49569  0.20847  1.0000
  H   H36       1.0  0.48876  0.17960  0.31271  1.0000
  C   C38       1.0  0.05214  0.03946  0.51521  1.0000
  C   C39       1.0  0.47593  0.01528  0.50627  1.0000
  C   C40       1.0  0.40136  0.15589  0.65767  1.0000
  S   S4        1.0  0.47813  0.44826  0.53779  1.0000
  H   H37       1.0  0.28181  0.37555  0.61277  1.0000
  C   C41       1.0  0.06005  0.21197  0.62506  1.0000
  C   C42       1.0  0.08288  0.04276  0.62878  1.0000
  H   H38       1.0  0.14742  0.46942  0.63781  1.0000
  H   H39       1.0  0.46208  0.45658  0.38256  1.0000
  C   C43       1.0  0.01921  0.00184  0.65122  1.0000
  C   C44       1.0  0.36774  0.47878  0.59472  1.0000
  C   C45       1.0  0.43909  0.03080  0.48695  1.0000
  H   H40       1.0  0.41695  0.37523  0.49715  1.0000
  C   C46       1.0  0.43130  0.10852  0.59878  1.0000
  H   H41       1.0  0.48582  0.15758  0.48020  1.0000
  C   C47       1.0  0.47128  0.24382  0.41816  1.0000
  C   C48       1.0  0.40214  0.35992  0.55109  1.0000
  C   C49       1.0  0.35298  0.44920  0.62087  1.0000
  C   C50       1.0  0.38649  0.10609  0.60887  1.0000
  H   H42       1.0  0.05026  0.01375  0.53523  1.0000
  C   C51       1.0  0.46137  0.13570  0.61745  1.0000
  H   H43       1.0  0.03785  0.05197  0.42662  1.0000
  S   S5        1.0  0.45676  0.30468  0.67073  1.0000
  H   H44       1.0  0.07486  0.15023  0.50378  1.0000
  H   H45       1.0  0.12324  0.02653  0.36862  1.0000
  P   P3        1.0  0.47977  0.30469  0.47342  1.0000
  H   H46       1.0  0.05724  0.13030  0.44205  1.0000
  C   C52       1.0  0.05609  0.10490  0.46247  1.0000
  H   H47       1.0  0.33701  0.12682  0.64659  1.0000
  C   C53       1.0  0.23348  0.08938  0.56146  1.0000
  H   H48       1.0  0.15012  0.16634  0.56819  1.0000
  C   C54       1.0  0.05714  0.05807  0.60011  1.0000
  H   H49       1.0  0.26954  0.08713  0.55909  1.0000
  H   H50       1.0  0.46658  0.19607  0.37596  1.0000
  C   C55       1.0  0.31966  0.46253  0.64465  1.0000
  H   H51       1.0  0.29799  0.29794  0.59413  1.0000
  C   C56       1.0  0.30951  0.36692  0.66520  1.0000
  C   C57       1.0  0.04542  0.06079  0.45372  1.0000
  S   S6        1.0  0.33443  0.00908  0.55247  1.0000
  H   H52       1.0  0.44366  0.04387  0.46063  1.0000
  H   H53       1.0  0.38145  0.38942  0.55432  1.0000
  S   S7        1.0  0.46607  0.43282  0.64385  1.0000
  C   C58       1.0  0.32746  0.27865  0.64387  1.0000
  C   C59       1.0  0.40328  0.19453  0.45019  1.0000
  C   C60       1.0  0.16585  0.13370  0.56714  1.0000
  C   C61       1.0  0.45333  0.20649  0.40118  1.0000
  C   C62       1.0  0.41929  0.18190  0.41710  1.0000
  C   C63       1.0  0.45604  0.25632  0.45173  1.0000
  C   C64       1.0  0.42148  0.23161  0.46747  1.0000
  H   H54       1.0  0.14223  0.02220  0.56368  1.0000
  C   C65       1.0  0.45102  0.31473  0.51447  1.0000
  C   C66       1.0  0.42244  0.35170  0.51854  1.0000
  H   H55       1.0  0.09588  0.47885  0.38367  1.0000
  C   C67       1.0  0.21281  0.44739  0.65420  1.0000
  C   C68       1.0  0.06544  0.11619  0.49753  1.0000
  C   C69       1.0  0.37148  0.12982  0.63826  1.0000
  C   C70       1.0  0.38929  0.01134  0.53551  1.0000
  C   C71       1.0  0.16686  0.45366  0.65862  1.0000
  C   C72       1.0  0.46583  0.42749  0.39956  1.0000
  C   C73       1.0  0.41010  0.33125  0.57966  1.0000
  C   C74       1.0  0.43761  0.29378  0.57553  1.0000
  H   H56       1.0  0.36781  0.41618  0.62254  1.0000
  H   H57       1.0  0.44274  0.08807  0.57700  1.0000
  C   C75       1.0  0.44128  0.35392  0.41816  1.0000
  C   C76       1.0  0.13930  0.00964  0.34678  1.0000
  H   H58       1.0  0.37702  0.17526  0.46258  1.0000
  C   C77       1.0  0.39598  0.02881  0.50152  1.0000
  H   H59       1.0  0.23223  0.16131  0.56425  1.0000
  S   S8        1.0  0.31406  0.01752  0.65609  1.0000
  H   H60       1.0  0.40831  0.24069  0.49299  1.0000
  H   H61       1.0  0.39348  0.46847  0.57639  1.0000
  C   C78       1.0  0.04393  0.02802  0.48004  1.0000
  H   H62       1.0  0.10492  0.15567  0.62691  1.0000
  H   H63       1.0  0.22782  0.45787  0.62961  1.0000
  H   H64       1.0  0.44382  0.27185  0.59783  1.0000
  H   H65       1.0  0.46557  0.15212  0.54294  1.0000
  H   H66       1.0  0.39587  0.33842  0.60527  1.0000
  H   H67       1.0  0.40576  0.15269  0.40395  1.0000
  C   C79       1.0  0.47450  0.35282  0.44449  1.0000
  H   H68       1.0  0.41820  0.32640  0.41507  1.0000
  H   H69       1.0  0.22446  0.01827  0.55776  1.0000
  H   H70       1.0  0.36371  0.08463  0.59451  1.0000
  C   C80       1.0  0.43713  0.39105  0.39574  1.0000
  C   C81       1.0  0.45830  0.28565  0.54317  1.0000
  C   C82       1.0  0.21243  0.13105  0.56446  1.0000
  C   C83       1.0  0.06265  0.08371  0.52428  1.0000
  C   C84       1.0  0.01203  0.04588  0.59774  1.0000
  P   P4        1.0  0.07987  0.09712  0.56868  1.0000
  C   C85       1.0  0.14011  0.09448  0.56774  1.0000
  C   C86       1.0  0.05869  0.15065  0.58303  1.0000
  C   C87       1.0  0.07739  0.17134  0.61283  1.0000
  H   H71       1.0  0.33556  0.24495  0.63541  1.0000
  H   H72       1.0  0.11728  0.05312  0.63207  1.0000
  H   H73       1.0  0.36762  0.04054  0.48624  1.0000
  C   C88       1.0  0.02095  0.16996  0.56682  1.0000
  C   C89       1.0  0.16150  0.05279  0.56426  1.0000
  C   C90       1.0  0.20798  0.05036  0.56098  1.0000
  H   H74       1.0  0.07435  0.22774  0.64817  1.0000
  C   C91       1.0  0.06394  0.01467  0.65417  1.0000
  C   C92       1.0  0.29755  0.35253  0.63122  1.0000
  C   C93       1.0  0.30652  0.30857  0.62061  1.0000
  H   H75       1.0  0.43704  0.46743  0.47127  1.0000
  C   C94       1.0  0.44620  0.15841  0.64763  1.0000
  H   H76       1.0  0.02970  0.48916  0.34475  1.0000
  H   H77       1.0  0.48057  0.25712  0.54065  1.0000
  H   H78       1.0  0.41127  0.39193  0.37565  1.0000
  C   C95       1.0  0.00349  0.21041  0.57929  1.0000
  H   H79       1.0  0.00919  0.26259  0.61812  1.0000
  C   C96       1.0  0.02325  0.23159  0.60819  1.0000
  Fe  Fe1       1.0  0.49219  0.05248  0.36106  1.0000
  H   H80       1.0  0.00408  0.15331  0.54523  1.0000
  H   H81       1.0  0.46898  0.17678  0.66435  1.0000
  C   C97       1.0  0.46925  0.99828  0.54038  1.0000
  C   C98       1.0  0.42614  0.99629  0.55504  1.0000
  Fe  Fe2       1.0  0.01746  0.00999  0.85912  1.0000
  H   H82       1.0  0.25142  0.11520  0.80827  1.0000
  H   H83       1.0  0.37546  0.25363  0.89767  1.0000
  C   C99       1.0  0.23882  0.42914  0.68166  1.0000
  C   C100      1.0  0.47503  0.06396  0.76565  1.0000
  C   C101      1.0  0.39636  0.26054  0.92041  1.0000
  C   C102      1.0  0.43819  0.43971  0.94960  1.0000
  Fe  Fe3       1.0  0.05422  0.00827  0.93420  1.0000
  C   C103      1.0  0.19218  0.07111  0.99434  1.0000
  S   S9        1.0  0.45271  0.15928  0.85474  1.0000
  H   H84       1.0  0.41611  0.32533  0.90146  1.0000
  P   P5        1.0  0.29889  0.42435  0.67769  1.0000
  S   S10       1.0  0.45824  0.29141  0.83737  1.0000
  H   H85       1.0  0.37098  0.42173  0.93539  1.0000
  S   S11       1.0  0.18647  0.02146  0.68205  1.0000
  C   C104      1.0  0.16354  0.09700  0.92704  1.0000
  C   C105      1.0  0.09270  0.33436  0.72728  1.0000
  C   C106      1.0  0.45524  0.27626  0.97694  1.0000
  C   C107      1.0  0.30431  0.46598  0.74362  1.0000
  C   C108      1.0  0.04652  0.48566  0.78464  1.0000
  S   S12       1.0  0.06417  0.05510  0.88846  1.0000
  S   S13       1.0  0.18451  0.02878  0.84895  1.0000
  H   H86       1.0  0.37452  0.03028  0.84425  1.0000
  C   C109      1.0  0.00892  0.15431  0.69333  1.0000
  C   C110      1.0  0.37110  0.42728  0.72441  1.0000
  C   C111      1.0  0.42948  0.23702  0.97588  1.0000
  H   H87       1.0  0.00916  0.13846  0.80768  1.0000
  C   C112      1.0  0.46194  0.03270  0.95764  1.0000
  C   C113      1.0  0.45025  0.07130  0.97628  1.0000
  C   C114      1.0  0.05253  0.28108  0.76309  1.0000
  C   C115      1.0  0.41498  0.42003  0.89052  1.0000
  C   C116      1.0  0.46155  0.33957  0.73749  1.0000
  C   C117      1.0  0.46046  0.33654  0.77445  1.0000
  C   C118      1.0  0.45655  0.29479  0.79105  1.0000
  C   C119      1.0  0.45838  0.42742  0.87839  1.0000
  H   H88       1.0  0.40974  0.03364  0.69554  1.0000
  C   C120      1.0  0.40081  0.22891  0.94739  1.0000
  C   C121      1.0  0.37297  0.05567  0.89743  1.0000
  H   H89       1.0  0.44945  0.22373  0.78314  1.0000
  C   C122      1.0  0.30693  0.03733  0.93175  1.0000
  C   C123      1.0  0.22564  0.01636  0.74765  1.0000
  H   H90       1.0  0.13355  0.18224  0.84490  1.0000
  H   H91       1.0  0.22202  0.11700  0.74711  1.0000
  C   C124      1.0  0.05413  0.16104  0.74634  1.0000
  C   C125      1.0  0.23736  0.48596  0.92401  1.0000
  H   H92       1.0  0.47634  0.03553  0.93160  1.0000
  H   H93       1.0  0.38914  0.40979  0.87218  1.0000
  C   C126      1.0  0.45226  0.25615  0.77052  1.0000
  C   C127      1.0  0.22068  0.06500  0.96535  1.0000
  H   H94       1.0  0.38307  0.19740  0.94581  1.0000
  C   C128      1.0  0.32557  0.47722  0.77525  1.0000
  H   H95       1.0  0.43149  0.21208  0.99645  1.0000
  C   C129      1.0  0.14590  0.02987  0.74632  1.0000
  C   C130      1.0  0.11184  0.32576  0.94011  1.0000
  C   C131      1.0  0.13476  0.35265  0.91596  1.0000
  C   C132      1.0  0.11153  0.38435  0.89545  1.0000
  C   C133      1.0  0.06532  0.38968  0.90022  1.0000
  P   P6        1.0  0.14195  0.42026  0.86567  1.0000
  C   C134      1.0  0.10414  0.44645  0.83452  1.0000
  C   C135      1.0  0.17051  0.46035  0.89347  1.0000
  H   H96       1.0  0.09351  0.36600  0.71334  1.0000
  S   S14       1.0  0.45637  0.12561  0.95825  1.0000
  C   C136      1.0  0.03131  0.08777  0.72536  1.0000
  H   H97       1.0  0.38967  0.40895  0.70459  1.0000
  C   C137      1.0  0.21599  0.45503  0.90205  1.0000
  C   C138      1.0  0.18604  0.02227  0.72842  1.0000
  C   C139      1.0  0.34881  0.05806  0.92889  1.0000
  H   H98       1.0  0.25591  0.01473  0.79928  1.0000
  H   H99       1.0  0.00625  0.14293  0.97146  1.0000
  C   C140      1.0  0.21759  0.41467  0.71259  1.0000
  C   C141      1.0  0.17935  0.38697  0.83901  1.0000
  C   C142      1.0  0.16967  0.34185  0.83195  1.0000
  C   C143      1.0  0.19897  0.31595  0.81171  1.0000
  C   C144      1.0  0.23797  0.33495  0.79825  1.0000
  C   C145      1.0  0.24717  0.38012  0.80437  1.0000
  C   C146      1.0  0.21745  0.40634  0.82392  1.0000
  C   C147      1.0  0.14925  0.08877  0.98947  1.0000
  H   H100      1.0  0.46629  0.34044  0.95164  1.0000
  C   C148      1.0  0.45396  0.06633  0.73254  1.0000
  H   H101      1.0  0.17064  0.34892  0.91340  1.0000
  H   H102      1.0  0.04679  0.41463  0.88545  1.0000
  C   C149      1.0  0.02649  0.23824  0.87139  1.0000
  C   C150      1.0  0.32628  0.43933  0.71854  1.0000
  C   C151      1.0  0.18485  0.02561  0.80259  1.0000
  C   C152      1.0  0.04250  0.36293  0.92450  1.0000
  H   H103      1.0  0.23514  0.42713  0.89202  1.0000
  H   H104      1.0  0.27273  0.48259  0.92989  1.0000
  C   C153      1.0  0.45128  0.25943  0.73353  1.0000
  H   H105      1.0  0.22773  0.07598  0.90897  1.0000
  H   H106      1.0  0.00197  0.45978  0.92758  1.0000
  C   C154      1.0  0.04416  0.43978  0.79140  1.0000
  H   H107      1.0  0.13951  0.32660  0.84198  1.0000
  H   H108      1.0  0.19157  0.28104  0.80663  1.0000
  H   H109      1.0  0.26101  0.31476  0.78297  1.0000
  H   H110      1.0  0.27728  0.39495  0.79379  1.0000
  H   H111      1.0  0.22447  0.44162  0.82754  1.0000
  H   H112      1.0  0.02594  0.34488  0.74688  1.0000
  C   C155      1.0  0.32893  0.33610  0.68887  1.0000
  Fe  Fe4       1.0  0.11785  0.00827  0.87059  1.0000
  H   H113      1.0  0.11534  0.03469  0.73157  1.0000
  Fe  Fe5       1.0  0.48744  0.22559  0.85535  1.0000
  C   C156      1.0  0.03135  0.18087  0.71782  1.0000
  S   S15       1.0  0.04154  0.03842  0.98871  1.0000
  H   H114      1.0  0.46414  0.36637  0.79028  1.0000
  C   C157      1.0  0.45649  0.30108  0.71698  1.0000
  C   C158      1.0  0.20641  0.07913  0.93177  1.0000
  H   H115      1.0  0.04795  0.31045  0.96331  1.0000
  H   H116      1.0  0.15860  0.31414  0.71097  1.0000
  C   C159      1.0  0.07309  0.42009  0.81606  1.0000
  C   C160      1.0  0.44841  0.30900  0.95074  1.0000
  H   H117      1.0  0.02232  0.27202  0.77683  1.0000
  C   C161      1.0  0.05458  0.32254  0.74614  1.0000
  C   C162      1.0  0.42498  0.03217  0.72145  1.0000
  P   P7        1.0  0.27516  0.04006  0.97223  1.0000
  C   C163      1.0  0.00860  0.10781  0.69718  1.0000
  H   H118      1.0  0.08393  0.00337  0.67642  1.0000
  C   C164      1.0  0.13482  0.10143  0.95580  1.0000
  H   H119      1.0  0.14848  0.15089  0.73436  1.0000
  H   H120      1.0  0.25688  0.01086  0.73406  1.0000
  H   H121      1.0  0.44768  0.22951  0.71779  1.0000
  H   H122      1.0  0.01979  0.41964  0.77748  1.0000
  C   C165      1.0  0.41948  0.30092  0.92247  1.0000
  C   C166      1.0  0.29042  0.01280  0.90299  1.0000
  H   H123      1.0  0.03004  0.26674  0.88873  1.0000
  C   C167      1.0  0.05424  0.23381  0.84202  1.0000
  C   C168      1.0  0.04807  0.19833  0.81825  1.0000
  H   H124      1.0  0.15226  0.10613  0.90077  1.0000
  P   P8        1.0  0.08206  0.19499  0.77898  1.0000
  C   C169      1.0  0.08832  0.25073  0.76100  1.0000
  C   C170      1.0  0.13591  0.17025  0.78855  1.0000
  C   C171      1.0  0.16127  0.15153  0.76114  1.0000
  C   C172      1.0  0.20314  0.13256  0.76818  1.0000
  C   C173      1.0  0.21977  0.13159  0.80266  1.0000
  C   C174      1.0  0.19459  0.14975  0.83013  1.0000
  C   C175      1.0  0.15280  0.16912  0.82316  1.0000
  C   C176      1.0  0.12688  0.26304  0.74240  1.0000
  C   C177      1.0  0.12910  0.30491  0.72576  1.0000
  H   H125      1.0  0.35521  0.26938  0.69593  1.0000
  C   C178      1.0  0.40481  0.42646  0.92608  1.0000
  Fe  Fe6       1.0  0.48862  0.14561  0.90624  1.0000
  C   C179      1.0  0.01483  0.16643  0.82514  1.0000
  H   H126      1.0  0.20706  0.14751  0.85693  1.0000
  H   H127      1.0  0.46046  0.09435  0.71527  1.0000
  H   H128      1.0  0.11115  0.44827  0.69405  1.0000
  H   H129      1.0  0.10106  0.11383  0.95192  1.0000
  H   H130      1.0  0.07955  0.25883  0.83724  1.0000
  H   H131      1.0  0.46510  0.42339  0.85051  1.0000
  H   H132      1.0  0.27091  0.47858  0.73880  1.0000
  H   H133      1.0  0.38613  0.47252  0.80594  1.0000
  C   C180      1.0  0.06572  0.33091  0.94438  1.0000
  H   H134      1.0  0.15624  0.41312  0.74211  1.0000
  H   H135      1.0  0.42691  0.42947  0.76036  1.0000
  H   H136      1.0  0.07106  0.38436  0.82077  1.0000
  H   H137      1.0  0.33738  0.34551  0.71558  1.0000
  C   C181      1.0  0.14523  0.03111  0.78334  1.0000
  H   H138      1.0  0.15480  0.24016  0.73999  1.0000
  H   H139      1.0  0.47867  0.48999  0.76984  1.0000
  C   C182      1.0  0.17182  0.42187  0.71728  1.0000
  H   H140      1.0  0.23680  0.39929  0.73355  1.0000
  C   C183      1.0  0.35578  0.03216  0.86866  1.0000
  H   H141      1.0  0.03039  0.05175  0.72870  1.0000
  H   H142      1.0  0.07107  0.09826  0.77181  1.0000
  C   C184      1.0  0.05425  0.11422  0.74975  1.0000
  H   H143      1.0  0.36341  0.07568  0.95087  1.0000
  C   C185      1.0  0.36948  0.46332  0.78160  1.0000
  H   H144      1.0  0.40526  0.07182  0.89552  1.0000
  H   H145      1.0  0.02978  0.21680  0.71452  1.0000
  C   C186      1.0  0.39239  0.43889  0.75597  1.0000
  H   H146      1.0  0.11426  0.03741  0.79698  1.0000
  C   C187      1.0  0.22511  0.01864  0.78465  1.0000
  H   H147      1.0  0.12992  0.30128  0.95584  1.0000
  C   C188      1.0  0.14645  0.44155  0.69030  1.0000
  C   C189      1.0  0.46568  0.02819  0.78824  1.0000
  H   H148      1.0  0.43001  0.44578  0.97699  1.0000
  H   H149      1.0  0.48209  0.02592  0.81366  1.0000
  C   C190      1.0  0.48177  0.44678  0.93766  1.0000
  H   H150      1.0  0.46606  0.37171  0.72481  1.0000
  H   H151      1.0  0.30423  0.13324  0.97079  1.0000
  C   C191      1.0  0.31169  0.11988  0.99677  1.0000
  C   C192      1.0  0.49222  0.44111  0.90182  1.0000
  H   H152      1.0  0.39019  0.17303  0.68123  1.0000
  C   C193      1.0  0.30179  0.07510  0.00488  1.0000
  H   H153      1.0  0.00678  0.36733  0.92819  1.0000
  C   C194      1.0  0.33840  0.29237  0.67802  1.0000
  C   C195      1.0  0.31456  0.01072  0.87150  1.0000
  C   C196      1.0  0.10637  0.49254  0.82733  1.0000
  H   H154      1.0  0.99819  0.49423  0.86753  1.0000
  C   C197      1.0  0.01554  0.49283  0.92291  1.0000
  C   C198      1.0  0.14640  0.49571  0.90878  1.0000
  S   S16       1.0  0.05898  0.69327  0.15872  1.0000
  S   S17       1.0  0.06171  0.60341  0.10921  1.0000
  Fe  Fe7       1.0  0.02801  0.62514  0.15956  1.0000
  Fe  Fe8       1.0  0.08723  0.67426  0.10660  1.0000
  S   S18       1.0  0.15821  0.69070  0.09056  1.0000
  S   S19       1.0  0.36984  0.54207  0.30403  1.0000
  C   C199      1.0  0.23794  0.57530  0.07841  1.0000
  Fe  Fe9       1.0  0.30812  0.89970  0.11786  1.0000
  S   S20       1.0  0.36207  0.85752  0.09369  1.0000
  S   S21       1.0  0.23310  0.88775  0.11218  1.0000
  H   H155      1.0  0.01101  0.94334  0.14433  1.0000
  S   S22       1.0  0.43467  0.92706  0.12780  1.0000
  H   H156      1.0  0.27387  0.52112  0.33902  1.0000
  Fe  Fe10      1.0  0.39438  0.92263  0.07804  1.0000
  C   C200      1.0  0.26582  0.89704  0.01819  1.0000
  Fe  Fe11      1.0  0.39761  0.86603  0.14576  1.0000
  S   S23       1.0  0.43284  0.80554  0.16941  1.0000
  H   H157      1.0  0.37343  0.53546  0.02802  1.0000
  S   S24       1.0  0.34155  0.90443  0.17129  1.0000
  C   C201      1.0  0.42760  0.82915  0.23956  1.0000
  C   C202      1.0  0.41800  0.77533  0.28757  1.0000
  C   C203      1.0  0.41502  0.74086  0.26277  1.0000
  C   C204      1.0  0.42013  0.75041  0.22657  1.0000
  C   C205      1.0  0.42557  0.79464  0.21483  1.0000
  H   H158      1.0  0.15144  0.81021  0.17618  1.0000
  H   H159      1.0  0.10198  0.93149  0.25618  1.0000
  H   H160      1.0  0.41016  0.70673  0.27156  1.0000
  H   H161      1.0  0.41994  0.72354  0.20755  1.0000
  H   H162      1.0  0.25799  0.79031  0.30317  1.0000
  C   C206      1.0  0.40189  0.54095  0.01106  1.0000
  C   C207      1.0  0.43851  0.58735  0.27274  1.0000
  C   C208      1.0  0.41165  0.54929  0.27213  1.0000
  C   C209      1.0  0.02079  0.85698  0.08740  1.0000
  H   H163      1.0  0.43340  0.61265  0.29266  1.0000
  H   H164      1.0  0.20519  0.57415  0.06617  1.0000
  S   S25       1.0  0.03226  0.60048  0.21564  1.0000
  C   C210      1.0  0.41830  0.51687  0.24588  1.0000
  H   H165      1.0  0.20912  0.92241  0.33067  1.0000
  C   C211      1.0  0.17708  0.74671  0.09329  1.0000
  C   C212      1.0  0.14870  0.78176  0.10330  1.0000
  C   C213      1.0  0.16577  0.82541  0.10714  1.0000
  C   C214      1.0  0.21161  0.83387  0.10276  1.0000
  C   C215      1.0  0.23939  0.79921  0.09134  1.0000
  C   C216      1.0  0.22187  0.75616  0.08569  1.0000
  H   H166      1.0  0.11376  0.77522  0.10830  1.0000
  H   H167      1.0  0.14359  0.85224  0.11487  1.0000
  H   H168      1.0  0.27444  0.80552  0.08716  1.0000
  H   H169      1.0  0.24350  0.72966  0.07656  1.0000
  H   H170      1.0  0.20748  0.85983  0.20262  1.0000
  C   C217      1.0  0.09527  0.84349  0.20006  1.0000
  C   C218      1.0  0.17703  0.57640  0.20971  1.0000
  S   S26       1.0  0.32780  0.66427  0.31986  1.0000
  H   H171      1.0  0.35532  0.97933  0.23039  1.0000
  H   H172      1.0  0.33660  0.81290  0.30155  1.0000
  C   C219      1.0  0.24559  0.55780  0.29535  1.0000
  H   H173      1.0  0.10472  0.50764  0.14403  1.0000
  C   C220      1.0  0.45703  0.65078  0.14072  1.0000
  H   H174      1.0  0.06731  0.77642  0.03608  1.0000
  C   C221      1.0  0.18089  0.73415  0.27726  1.0000
  C   C222      1.0  0.15228  0.75177  0.25171  1.0000
  C   C223      1.0  0.14081  0.72611  0.22236  1.0000
  C   C224      1.0  0.15768  0.68260  0.21868  1.0000
  C   C225      1.0  0.18705  0.66489  0.24417  1.0000
  C   C226      1.0  0.19866  0.69114  0.27346  1.0000
  H   H175      1.0  0.18866  0.75369  0.30032  1.0000
  H   H176      1.0  0.13829  0.78495  0.25522  1.0000
  H   H177      1.0  0.11835  0.73981  0.20270  1.0000
  H   H178      1.0  0.14772  0.66318  0.19596  1.0000
  H   H179      1.0  0.22098  0.67813  0.29368  1.0000
  C   C227      1.0  0.12841  0.79466  0.01074  1.0000
  C   C228      1.0  0.46512  0.62757  0.07999  1.0000
  C   C229      1.0  0.48571  0.93321  0.27558  1.0000
  H   H180      1.0  0.07075  0.82103  0.18867  1.0000
  C   C230      1.0  0.05098  0.72974  0.28696  1.0000
  C   C231      1.0  0.33165  0.57205  0.20041  1.0000
  C   C232      1.0  0.30493  0.61713  0.09307  1.0000
  H   H181      1.0  0.07523  0.66746  0.26562  1.0000
  P   P9        1.0  0.33549  0.66913  0.09260  1.0000
  C   C233      1.0  0.31362  0.70587  0.12651  1.0000
  C   C234      1.0  0.39394  0.65713  0.10040  1.0000
  C   C235      1.0  0.41258  0.66267  0.13416  1.0000
  P   P10       1.0  0.00148  0.84531  0.01674  1.0000
  H   H182      1.0  0.32496  0.62978  0.02184  1.0000
  C   C236      1.0  0.26223  0.61511  0.07766  1.0000
  C   C237      1.0  0.45193  0.52256  0.22041  1.0000
  C   C238      1.0  0.33731  0.74426  0.13669  1.0000
  C   C239      1.0  0.32007  0.77290  0.16248  1.0000
  C   C240      1.0  0.27906  0.76378  0.17819  1.0000
  C   C241      1.0  0.25531  0.72575  0.16830  1.0000
  C   C242      1.0  0.27264  0.69658  0.14298  1.0000
  C   C243      1.0  0.26689  0.61102  0.22398  1.0000
  H   H183      1.0  0.14480  0.61156  0.29672  1.0000
  C   C244      1.0  0.33106  0.74022  0.04413  1.0000
  H   H184      1.0  0.27472  0.55200  0.27920  1.0000
  H   H185      1.0  0.46947  0.94802  0.32949  1.0000
  C   C245      1.0  0.32247  0.57906  0.11004  1.0000
  H   H186      1.0  0.20914  0.93649  0.17573  1.0000
  C   C246      1.0  0.06003  0.68385  0.28811  1.0000
  H   H187      1.0  0.05438  0.62300  0.31746  1.0000
  H   H188      1.0  0.03042  0.82194  0.08746  1.0000
  C   C247      1.0  0.12092  0.51959  0.19855  1.0000
  H   H189      1.0  0.39288  0.67568  0.15565  1.0000
  C   C248      1.0  0.22585  0.97295  0.22321  1.0000
  C   C249      1.0  0.35743  0.61041  0.20513  1.0000
  H   H190      1.0  0.99601  0.57670  0.28182  1.0000
  H   H191      1.0  0.36923  0.75210  0.12481  1.0000
  H   H192      1.0  0.33842  0.80241  0.17020  1.0000
  H   H193      1.0  0.26561  0.78639  0.19781  1.0000
  H   H194      1.0  0.22305  0.71924  0.17973  1.0000
  H   H195      1.0  0.25305  0.66779  0.13566  1.0000
  H   H196      1.0  0.33652  0.76234  0.06616  1.0000
  C   C250      1.0  0.24791  0.99429  0.16387  1.0000
  H   H197      1.0  0.47102  0.65466  0.16694  1.0000
  H   H198      1.0  0.39280  0.60964  0.19911  1.0000
  C   C251      1.0  0.29293  0.64956  0.22828  1.0000
  C   C252      1.0  0.04809  0.65867  0.31773  1.0000
  C   C253      1.0  0.26644  0.82316  0.29326  1.0000
  C   C254      1.0  0.31114  0.83590  0.29226  1.0000
  C   C255      1.0  0.32274  0.87827  0.27973  1.0000
  C   C256      1.0  0.28953  0.90779  0.26798  1.0000
  C   C257      1.0  0.24442  0.89511  0.26851  1.0000
  C   C258      1.0  0.23300  0.85282  0.28198  1.0000
  P   P11       1.0  0.20121  0.93310  0.25334  1.0000
  H   H199      1.0  0.14070  0.93400  0.07231  1.0000
  H   H200      1.0  0.45042  0.52425  0.05155  1.0000
  Fe  Fe12      1.0  0.37610  0.96511  0.14916  1.0000
  C   C259      1.0  0.17281  0.59117  0.30536  1.0000
  C   C260      1.0  0.48966  0.92775  0.31201  1.0000
  C   C261      1.0  0.12796  0.95484  0.12564  1.0000
  H   H201      1.0  0.40688  0.63388  0.04721  1.0000
  C   C262      1.0  0.22542  0.96540  0.18671  1.0000
  C   C263      1.0  0.47958  0.56014  0.22173  1.0000
  S   S27       1.0  0.33773  0.96436  0.09817  1.0000
  C   C264      1.0  0.47255  0.59253  0.24784  1.0000
  C   C265      1.0  0.15913  0.89990  0.23120  1.0000
  C   C266      1.0  0.11337  0.90601  0.23810  1.0000
  C   C267      1.0  0.08163  0.87799  0.22242  1.0000
  C   C268      1.0  0.14063  0.83740  0.19297  1.0000
  C   C269      1.0  0.17241  0.86544  0.20832  1.0000
  C   C270      1.0  0.12544  0.52627  0.16227  1.0000
  H   H202      1.0  0.10944  0.98205  0.17576  1.0000
  H   H203      1.0  0.29936  0.94026  0.25842  1.0000
  C   C271      1.0  0.17793  0.96350  0.29007  1.0000
  H   H204      1.0  0.19833  0.84285  0.28395  1.0000
  H   H205      1.0  0.02385  0.78629  0.31469  1.0000
  H   H206      1.0  0.34715  0.54168  0.19074  1.0000
  Fe  Fe13      1.0  0.99970  0.63060  0.08266  1.0000
  H   H207      1.0  0.05868  0.74897  0.26355  1.0000
  C   C272      1.0  0.12366  0.95799  0.08903  1.0000
  S   S28       1.0  0.02805  0.70017  0.07693  1.0000
  H   H208      1.0  0.03359  0.86413  0.14280  1.0000
  H   H209      1.0  0.49375  0.62154  0.24926  1.0000
  H   H210      1.0  0.04645  0.88230  0.22823  1.0000
  H   H211      1.0  0.14809  0.92827  0.13705  1.0000
  C   C273      1.0  0.00950  0.92553  0.11971  1.0000
  C   C274      1.0  0.42533  0.81931  0.27581  1.0000
  C   C275      1.0  0.42054  0.63929  0.07334  1.0000
  H   H212      1.0  0.20483  0.60725  0.16293  1.0000
  H   H213      1.0  0.15852  0.56382  0.12154  1.0000
  C   C276      1.0  0.02274  0.88080  0.11890  1.0000
  C   C277      1.0  0.18176  0.58261  0.17318  1.0000
  C   C278      1.0  0.15583  0.55779  0.14961  1.0000
  H   H214      1.0  0.24754  0.64445  0.06521  1.0000
  H   H215      1.0  0.36618  0.98259  0.29557  1.0000
  H   H216      1.0  0.43220  0.86327  0.23074  1.0000
  H   H217      1.0  0.42863  0.84607  0.29472  1.0000
  S   S29       1.0  0.02981  0.89952  0.30992  1.0000
  C   C279      1.0  0.22672  0.92163  0.01217  1.0000
  H   H218      1.0  0.35785  0.67883  0.22274  1.0000
  C   C280      1.0  0.33792  0.64923  0.21869  1.0000
  P   P12       1.0  0.21018  0.60919  0.23988  1.0000
  H   H219      1.0  0.35749  0.88823  0.27889  1.0000
  H   H220      1.0  0.26723  0.54194  0.20677  1.0000
  C   C281      1.0  0.20940  0.58369  0.28308  1.0000
  C   C282      1.0  0.10599  0.98545  0.14742  1.0000
  C   C283      1.0  0.33001  0.69361  0.04896  1.0000
  H   H221      1.0  0.01456  0.51527  0.18075  1.0000
  H   H222      1.0  0.10635  0.68027  0.02626  1.0000
  Fe  Fe14      1.0  0.99754  0.71391  0.12976  1.0000
  H   H223      1.0  0.14134  0.53958  0.25018  1.0000
  H   H224      1.0  0.35501  0.57996  0.12259  1.0000
  C   C284      1.0  0.24523  0.54003  0.32950  1.0000
  C   C285      1.0  0.44545  0.53434  0.02440  1.0000
  H   H225      1.0  0.26412  0.86425  0.03042  1.0000
  C   C286      1.0  0.25572  0.53740  0.09512  1.0000
  C   C287      1.0  0.18780  0.95089  0.32495  1.0000
  H   H226      1.0  0.27913  0.67964  0.23977  1.0000
  C   C288      1.0  0.28644  0.57238  0.20954  1.0000
  C   C289      1.0  0.14633  0.54474  0.22224  1.0000
  C   C290      1.0  0.29791  0.53933  0.11101  1.0000
  H   H227      1.0  0.19481  0.90764  0.01970  1.0000
  H   H228      1.0  0.24813  0.98742  0.13579  1.0000
  S   S30       1.0  0.42699  0.93190  0.02448  1.0000
  S   S31       1.0  0.41229  0.76493  0.33334  1.0000
  H   H229      1.0  0.32554  0.79487  0.00700  1.0000
  C   C291      1.0  0.08307  0.80004  0.01845  1.0000
  C   C292      1.0  0.32447  0.66593  0.01930  1.0000
  Fe  Fe15      1.0  0.00290  0.96254  0.33438  1.0000
  C   C293      1.0  0.03086  0.75070  0.31568  1.0000
  C   C294      1.0  0.48328  0.63324  0.11369  1.0000
  H   H230      1.0  0.31163  0.51005  0.12413  1.0000
  C   C295      1.0  0.00706  0.55068  0.22977  1.0000
  C   C296      1.0  0.00526  0.87779  0.05645  1.0000
  H   H231      1.0  0.23674  0.50662  0.09587  1.0000
  H   H232      1.0  0.33748  0.89583  0.01313  1.0000
  C   C297      1.0  0.00319  0.51340  0.20776  1.0000
  C   C298      1.0  0.32491  0.75885  0.01050  1.0000
  H   H233      1.0  0.46247  0.95742  0.26474  1.0000
  H   H234      1.0  0.48549  0.61361  0.05909  1.0000
  H   H235      1.0  0.18589  0.69235  0.01118  1.0000
  C   C299      1.0  0.17282  0.57377  0.33956  1.0000
  Fe  Fe16      1.0  0.36169  0.60186  0.33989  1.0000
  C   C300      1.0  0.30710  0.91494  0.00868  1.0000
  H   H236      1.0  0.14708  0.76715  0.02225  1.0000
  H   H237      1.0  0.45644  0.49806  0.19986  1.0000
  H   H238      1.0  0.09243  0.99321  0.04576  1.0000
  C   C301      1.0  0.09678  0.99149  0.07416  1.0000
  Fe  Fe17      1.0  0.06355  0.57884  0.56496  1.0000
  H   H239      1.0  0.09141  0.78041  0.37074  1.0000
  S   S32       1.0  0.05801  0.55063  0.50954  1.0000
  Fe  Fe18      1.0  0.12721  0.58556  0.62900  1.0000
  Fe  Fe19      1.0  0.02692  0.57702  0.63943  1.0000
  Fe  Fe20      1.0  0.06772  0.66331  0.61043  1.0000
  S   S33       1.0  0.07009  0.73908  0.60728  1.0000
  S   S34       1.0  0.07751  0.53419  0.61144  1.0000
  S   S35       1.0  0.11899  0.62586  0.57942  1.0000
  C   C302      1.0  0.46071  0.69688  0.65771  1.0000
  S   S36       1.0  0.04094  0.95261  0.38499  1.0000
  C   C303      1.0  0.46335  0.88124  0.42621  1.0000
  C   C304      1.0  0.01744  0.55699  0.36156  1.0000
  H   H240      1.0  0.38115  0.94694  0.36522  1.0000
  C   C305      1.0  0.41024  0.75472  0.63639  1.0000
  Fe  Fe21      1.0  0.28911  0.66136  0.37039  1.0000
  S   S37       1.0  0.33854  0.70191  0.40099  1.0000
  C   C306      1.0  0.20164  0.80552  0.36641  1.0000
  H   H241      1.0  0.42561  0.79772  0.44884  1.0000
  S   S38       1.0  0.41737  0.63778  0.36815  1.0000
  Fe  Fe22      1.0  0.37146  0.63606  0.41515  1.0000
  S   S39       1.0  0.39280  0.62664  0.47271  1.0000
  C   C307      1.0  0.05121  0.72099  0.46363  1.0000
  H   H242      1.0  0.43213  0.60759  0.54043  1.0000
  S   S40       1.0  0.31856  0.59562  0.38806  1.0000
  C   C308      1.0  0.41566  0.88432  0.37426  1.0000
  S   S41       1.0  0.35026  0.91766  0.63080  1.0000
  Fe  Fe23      1.0  0.27979  0.89318  0.63837  1.0000
  S   S42       1.0  0.26431  0.81976  0.63048  1.0000
  S   S43       1.0  0.24828  0.95068  0.60961  1.0000
  C   C309      1.0  0.00996  0.67142  0.42447  1.0000
  C   C310      1.0  0.12712  0.77532  0.36967  1.0000
  C   C311      1.0  0.44801  0.72984  0.45404  1.0000
  C   C312      1.0  0.41645  0.57684  0.49050  1.0000
  C   C313      1.0  0.41814  0.53714  0.47112  1.0000
  Fe  Fe24      1.0  0.24717  0.98503  0.66216  1.0000
  H   H243      1.0  0.46669  0.94287  0.45609  1.0000
  C   C314      1.0  0.15541  0.81233  0.36789  1.0000
  C   C315      1.0  0.34944  0.52180  0.59222  1.0000
  C   C316      1.0  0.45450  0.77603  0.45174  1.0000
  C   C317      1.0  0.19184  0.72520  0.36984  1.0000
  H   H244      1.0  0.07742  0.92027  0.62419  1.0000
  H   H245      1.0  0.26525  0.93020  0.38739  1.0000
  S   S44       1.0  0.00395  0.84977  0.38526  1.0000
  S   S45       1.0  0.01087  0.61975  0.59182  1.0000
  C   C318      1.0  0.41340  0.59615  0.64637  1.0000
  H   H246      1.0  0.03336  0.85768  0.64944  1.0000
  C   C319      1.0  0.12416  0.76192  0.61256  1.0000
  C   C320      1.0  0.13099  0.80833  0.60996  1.0000
  C   C321      1.0  0.17363  0.82683  0.61574  1.0000
  C   C322      1.0  0.20997  0.79879  0.62318  1.0000
  C   C323      1.0  0.20330  0.75241  0.62445  1.0000
  C   C324      1.0  0.16070  0.73406  0.61946  1.0000
  H   H247      1.0  0.10338  0.83010  0.60362  1.0000
  H   H248      1.0  0.17848  0.86261  0.61433  1.0000
  Fe  Fe25      1.0  0.06216  0.88645  0.36252  1.0000
  H   H249      1.0  0.15622  0.69827  0.62140  1.0000
  H   H250      1.0  0.36047  0.54457  0.57171  1.0000
  H   H251      1.0  0.06117  0.71804  0.40804  1.0000
  C   C325      1.0  0.45260  0.53809  0.54018  1.0000
  H   H252      1.0  0.05916  0.83068  0.47507  1.0000
  H   H253      1.0  0.03552  0.99384  0.47323  1.0000
  C   C326      1.0  0.03161  0.59237  0.38306  1.0000
  H   H254      1.0  0.44109  0.81650  0.62032  1.0000
  H   H255      1.0  0.08499  0.83074  0.53747  1.0000
  C   C327      1.0  0.26341  0.65385  0.59306  1.0000
  C   C328      1.0  0.28231  0.65811  0.55958  1.0000
  C   C329      1.0  0.32762  0.66830  0.55627  1.0000
  C   C330      1.0  0.35387  0.67500  0.58641  1.0000
  C   C331      1.0  0.33477  0.67219  0.62016  1.0000
  C   C332      1.0  0.28964  0.66024  0.62326  1.0000
  H   H256      1.0  0.22848  0.64494  0.59570  1.0000
  H   H257      1.0  0.26202  0.65275  0.53622  1.0000
  H   H258      1.0  0.34255  0.67037  0.53028  1.0000
  H   H259      1.0  0.38911  0.68190  0.58323  1.0000
  H   H260      1.0  0.27462  0.65551  0.64897  1.0000
  C   C333      1.0  0.00491  0.51091  0.45962  1.0000
  C   C334      1.0  0.27150  0.89799  0.39968  1.0000
  C   C335      1.0  0.30323  0.86893  0.38538  1.0000
  C   C336      1.0  0.31202  0.82777  0.40162  1.0000
  C   C337      1.0  0.28836  0.81524  0.43185  1.0000
  C   C338      1.0  0.25502  0.84343  0.44564  1.0000
  C   C339      1.0  0.24766  0.88548  0.42976  1.0000
  P   P13       1.0  0.22924  0.82962  0.48735  1.0000
  C   C340      1.0  0.20201  0.77577  0.48968  1.0000
  C   C341      1.0  0.27483  0.83235  0.51828  1.0000
  C   C342      1.0  0.28940  0.79408  0.53663  1.0000
  C   C343      1.0  0.32644  0.79649  0.55905  1.0000
  C   C344      1.0  0.34906  0.83692  0.56331  1.0000
  C   C345      1.0  0.33494  0.87507  0.54486  1.0000
  C   C346      1.0  0.29803  0.87278  0.52233  1.0000
  C   C347      1.0  0.17715  0.76496  0.51990  1.0000
  C   C348      1.0  0.15483  0.72405  0.52223  1.0000
  C   C349      1.0  0.15751  0.69331  0.49464  1.0000
  C   C350      1.0  0.18227  0.70371  0.46457  1.0000
  C   C351      1.0  0.20433  0.74483  0.46200  1.0000
  C   C352      1.0  0.18609  0.86927  0.49889  1.0000
  C   C353      1.0  0.15141  0.87849  0.47484  1.0000
  C   C354      1.0  0.11633  0.90706  0.48428  1.0000
  C   C355      1.0  0.18446  0.88789  0.53286  1.0000
  C   C356      1.0  0.31725  0.53564  0.61647  1.0000
  H   H261      1.0  0.33723  0.80558  0.39076  1.0000
  H   H262      1.0  0.29646  0.78378  0.44472  1.0000
  H   H263      1.0  0.22415  0.90914  0.44072  1.0000
  H   H264      1.0  0.27230  0.76242  0.53398  1.0000
  H   H265      1.0  0.33659  0.76730  0.57402  1.0000
  H   H266      1.0  0.37680  0.83883  0.58156  1.0000
  H   H267      1.0  0.35200  0.90671  0.54833  1.0000
  H   H268      1.0  0.28750  0.90262  0.50818  1.0000
  H   H269      1.0  0.17517  0.78807  0.54181  1.0000
  H   H270      1.0  0.13548  0.71616  0.54551  1.0000
  H   H271      1.0  0.14031  0.66148  0.49652  1.0000
  H   H272      1.0  0.18434  0.67982  0.44317  1.0000
  H   H273      1.0  0.22297  0.75213  0.43845  1.0000
  H   H274      1.0  0.15140  0.86334  0.44884  1.0000
  H   H275      1.0  0.08967  0.91411  0.46556  1.0000
  H   H276      1.0  0.20995  0.88001  0.55232  1.0000
  C   C357      1.0  0.40358  0.92833  0.38242  1.0000
  C   C358      1.0  0.42166  0.94902  0.41218  1.0000
  C   C359      1.0  0.12836  0.91683  0.66438  1.0000
  C   C360      1.0  0.45172  0.92573  0.43388  1.0000
  C   C361      1.0  0.44578  0.86099  0.39581  1.0000
  P   P14       1.0  0.36947  0.67658  0.65904  1.0000
  S   S46       1.0  0.19790  0.57600  0.64854  1.0000
  H   H277      1.0  0.14781  0.94381  0.65321  1.0000
  C   C362      1.0  0.41711  0.71130  0.64969  1.0000
  C   C363      1.0  0.46500  0.87782  0.51428  1.0000
  S   S47       1.0  0.21397  0.67062  0.37180  1.0000
  H   H278      1.0  0.32085  0.87830  0.36165  1.0000
  H   H279      1.0  0.12013  0.54058  0.42307  1.0000
  H   H280      1.0  0.17504  0.96297  0.37997  1.0000
  C   C364      1.0  0.03532  0.82698  0.49627  1.0000
  C   C365      1.0  0.43351  0.57706  0.52518  1.0000
  H   H281      1.0  0.30308  0.56894  0.61477  1.0000
  C   C366      1.0  0.21995  0.76221  0.36758  1.0000
  H   H282      1.0  0.14767  0.92957  0.56884  1.0000
  H   H283      1.0  0.22334  0.83400  0.36409  1.0000
  H   H284      1.0  0.42144  0.98309  0.58138  1.0000
  C   C367      1.0  0.11489  0.92535  0.51815  1.0000
  C   C368      1.0  0.14536  0.73174  0.37042  1.0000
  H   H285      1.0  0.23102  0.73043  0.62980  1.0000
  C   C369      1.0  0.00580  0.53578  0.49098  1.0000
  C   C370      1.0  0.46439  0.88837  0.55021  1.0000
  C   C371      1.0  0.14896  0.91586  0.54241  1.0000
  H   H286      1.0  0.46594  0.53876  0.56673  1.0000
  H   H287      1.0  0.27822  0.51784  0.66158  1.0000
  H   H288      1.0  0.40475  0.53639  0.44456  1.0000
  H   H289      1.0  0.40239  0.86836  0.35087  1.0000
  C   C372      1.0  0.02661  0.67926  0.34639  1.0000
  H   H290      1.0  0.29352  0.73868  0.66247  1.0000
  H   H291      1.0  0.12362  0.70296  0.37145  1.0000
  H   H292      1.0  0.03589  0.49928  0.44843  1.0000
  C   C373      1.0  0.04075  0.51630  0.36156  1.0000
  H   H293      1.0  0.44829  0.53422  0.63655  1.0000
  Fe  Fe26      1.0  0.38003  0.70010  0.35155  1.0000
  H   H294      1.0  0.42588  0.61187  0.62260  1.0000
  C   C374      1.0  0.09189  0.54531  0.40543  1.0000
  H   H295      1.0  0.03709  0.71478  0.51915  1.0000
  C   C375      1.0  0.08867  0.90359  0.64805  1.0000
  H   H296      1.0  0.45585  0.82747  0.38824  1.0000
  C   C376      1.0  0.06899  0.58622  0.40510  1.0000
  C   C377      1.0  0.01820  0.72559  0.34513  1.0000
  H   H297      1.0  0.08055  0.61276  0.42223  1.0000
  S   S48       1.0  0.07814  0.62498  0.66106  1.0000
  H   H298      1.0  0.08689  0.94607  0.52576  1.0000
  C   C378      1.0  0.04195  0.70509  0.42974  1.0000
  C   C379      1.0  0.48451  0.70103  0.45852  1.0000
  H   H299      1.0  0.07675  0.74616  0.46738  1.0000
  H   H300      1.0  0.41457  0.71628  0.45253  1.0000
  S   S49       1.0  0.13509  0.86779  0.36797  1.0000
  C   C380      1.0  0.44664  0.78283  0.63011  1.0000
  H   H301      1.0  0.37663  0.76712  0.63163  1.0000
  Fe  Fe27      1.0  0.31816  0.97804  0.60559  1.0000
  C   C381      1.0  0.06384  0.86846  0.66228  1.0000
  H   H302      1.0  0.00430  0.98069  0.67122  1.0000
  H   H303      1.0  0.43364  0.87532  0.50004  1.0000
  H   H304      1.0  0.43298  0.89519  0.56322  1.0000
  C   C382      1.0  0.02903  0.70317  0.49277  1.0000
  H   H305      1.0  0.02968  0.82257  0.58574  1.0000
  H   H306      1.0  0.25577  0.75743  0.36672  1.0000
  C   C383      1.0  0.16859  0.97401  0.35316  1.0000
  C   C384      1.0  0.04976  0.82731  0.53135  1.0000
  C   C385      1.0  0.42584  0.55202  0.65398  1.0000
  H   H307      1.0  0.41330  0.98361  0.41784  1.0000
  C   C386      1.0  0.01873  0.82271  0.55852  1.0000
  P   P15       1.0  0.00308  0.64574  0.38148  1.0000
  H   H308      1.0  0.46681  0.66441  0.66956  1.0000
  C   C387      1.0  0.07808  0.51051  0.38338  1.0000
  C   C388      1.0  0.38543  0.61984  0.66948  1.0000
  C   C389      1.0  0.30298  0.50642  0.64292  1.0000
  H   H309      1.0  0.20958  0.53611  0.37866  1.0000
  H   H310      1.0  0.47926  0.66518  0.46021  1.0000
  C   C390      1.0  0.99760  0.66928  0.48794  1.0000
  H   H311      1.0  0.00028  0.74207  0.36624  1.0000
  C   C391      1.0  0.49005  0.76786  0.63731  1.0000
  C   C392      1.0  0.20901  0.54830  0.35173  1.0000
  H   H312      1.0  0.14570  0.58205  0.35707  1.0000
  C   C393      1.0  0.45438  0.49841  0.52067  1.0000
  C   C394      1.0  0.43668  0.49812  0.48627  1.0000
  C   C395      1.0  0.10605  0.64731  0.78899  1.0000
  H   H313      1.0  0.34584  0.61491  0.71718  1.0000
  H   H314      1.0  0.16411  0.61056  0.80573  1.0000
  H   H315      1.0  0.14949  0.52077  0.76364  1.0000
  S   S50       1.0  0.07223  0.96652  0.83735  1.0000
  Fe  Fe28      1.0  0.06574  0.92534  0.88686  1.0000
  S   S51       1.0  0.07013  0.84897  0.88325  1.0000
  S   S52       1.0  0.11377  0.96566  0.91932  1.0000
  Fe  Fe29      1.0  0.27075  0.58215  0.83956  1.0000
  S   S53       1.0  0.29283  0.64745  0.81633  1.0000
  C   C396      1.0  0.16225  0.68277  0.99081  1.0000
  Fe  Fe30      1.0  0.32674  0.59283  0.90597  1.0000
  S   S54       1.0  0.35361  0.65891  0.88768  1.0000
  C   C397      1.0  0.47211  0.61546  0.74438  1.0000
  Fe  Fe31      1.0  0.28299  0.67548  0.87073  1.0000
  S   S55       1.0  0.25827  0.74613  0.88354  1.0000
  Fe  Fe32      1.0  0.36082  0.62529  0.83494  1.0000
  S   S56       1.0  0.41957  0.63993  0.79956  1.0000
  S   S57       1.0  0.25551  0.61152  0.89275  1.0000
  S   S58       1.0  0.33938  0.55776  0.85446  1.0000
  S   S59       1.0  0.27266  0.92504  0.69131  1.0000
  C   C398      1.0  0.07888  0.84641  0.69268  1.0000
  H   H316      1.0  0.06352  0.89674  0.97273  1.0000
  C   C399      1.0  0.44742  0.59995  0.77321  1.0000
  H   H317      1.0  0.19795  0.98216  0.99210  1.0000
  H   H318      1.0  0.36856  0.53791  0.73038  1.0000
  H   H319      1.0  0.31336  0.74545  0.95525  1.0000
  H   H320      1.0  0.20901  0.66039  0.73733  1.0000
  C   C400      1.0  0.44853  0.55423  0.78168  1.0000
  C   C401      1.0  0.17539  0.53776  0.74937  1.0000
  H   H321      1.0  0.05217  0.65867  0.98037  1.0000
  H   H322      1.0  0.43073  0.54236  0.80459  1.0000
  H   H323      1.0  0.21092  0.68463  0.94909  1.0000
  C   C402      1.0  0.43201  0.56246  0.95442  1.0000
  C   C403      1.0  0.16901  0.54788  0.71354  1.0000
  H   H324      1.0  0.42710  0.57328  0.92741  1.0000
  C   C404      1.0  0.12285  0.82109  0.88099  1.0000
  C   C405      1.0  0.12516  0.77585  0.87068  1.0000
  C   C406      1.0  0.16634  0.75253  0.87034  1.0000
  C   C407      1.0  0.20562  0.77399  0.88102  1.0000
  C   C408      1.0  0.20336  0.81941  0.89053  1.0000
  C   C409      1.0  0.16244  0.84290  0.89016  1.0000
  H   H325      1.0  0.09513  0.75883  0.86256  1.0000
  H   H326      1.0  0.16774  0.71818  0.86161  1.0000
  H   H327      1.0  0.23359  0.83663  0.89825  1.0000
  H   H328      1.0  0.16157  0.87785  0.89734  1.0000
  C   C410      1.0  0.27043  0.98322  0.98846  1.0000
  C   C411      1.0  0.14605  0.66498  0.92983  1.0000
  C   C412      1.0  0.20344  0.56744  0.69423  1.0000
  C   C413      1.0  0.24358  0.57847  0.71122  1.0000
  C   C414      1.0  0.24912  0.57032  0.74751  1.0000
  C   C415      1.0  0.21508  0.54949  0.76662  1.0000
  H   H329      1.0  0.02437  0.57060  0.85800  1.0000
  C   C416      1.0  0.28671  0.75776  0.71650  1.0000
  C   C417      1.0  0.01304  0.51224  0.88937  1.0000
  H   H330      1.0  0.28022  0.57890  0.76037  1.0000
  C   C418      1.0  0.11942  0.62258  0.84908  1.0000
  H   H331      1.0  0.13969  0.60330  0.86742  1.0000
  H   H332      1.0  0.15824  0.66177  0.90330  1.0000
  C   C419      1.0  0.13296  0.62560  0.81389  1.0000
  H   H333      1.0  0.14925  0.55422  0.94199  1.0000
  C   C420      1.0  0.21331  0.52165  0.93835  1.0000
  C   C421      1.0  0.17639  0.67798  0.95597  1.0000
  C   C422      1.0  0.05885  0.83621  0.00415  1.0000
  C   C423      1.0  0.19419  0.69335  0.73987  1.0000
  C   C424      1.0  0.19806  0.71672  0.77158  1.0000
  C   C425      1.0  0.17949  0.75947  0.77471  1.0000
  C   C426      1.0  0.15673  0.77927  0.74615  1.0000
  C   C427      1.0  0.15238  0.75541  0.71447  1.0000
  P   P16       1.0  0.13347  0.83472  0.75140  1.0000
  C   C428      1.0  0.08231  0.83284  0.77642  1.0000
  C   C429      1.0  0.17603  0.86663  0.77377  1.0000
  C   C430      1.0  0.16692  0.88910  0.80543  1.0000
  C   C431      1.0  0.20119  0.91104  0.82353  1.0000
  C   C432      1.0  0.24475  0.91016  0.81046  1.0000
  C   C433      1.0  0.25412  0.88780  0.77906  1.0000
  C   C434      1.0  0.21992  0.86601  0.76080  1.0000
  C   C435      1.0  0.05553  0.87145  0.77863  1.0000
  C   C436      1.0  0.02823  0.55582  0.88398  1.0000
  C   C437      1.0  0.08104  0.86767  0.98303  1.0000
  C   C438      1.0  0.02662  0.79176  0.80971  1.0000
  C   C439      1.0  0.06758  0.79292  0.79205  1.0000
  C   C440      1.0  0.11835  0.86003  0.70965  1.0000
  H   H334      1.0  0.39018  0.68251  0.73440  1.0000
  H   H335      1.0  0.30819  0.49752  0.79452  1.0000
  C   C441      1.0  0.47551  0.55552  0.96769  1.0000
  H   H336      1.0  0.01583  0.76124  0.82241  1.0000
  C   C442      1.0  0.11740  0.67597  0.99930  1.0000
  P   P17       1.0  0.06112  0.63832  0.90537  1.0000
  C   C443      1.0  0.45402  0.99017  0.97249  1.0000
  H   H337      1.0  0.21576  0.70200  0.79375  1.0000
  H   H338      1.0  0.18328  0.77733  0.79939  1.0000
  C   C444      1.0  0.36837  0.59806  0.69934  1.0000
  H   H339      1.0  0.13380  0.88912  0.81669  1.0000
  H   H340      1.0  0.19400  0.92863  0.84781  1.0000
  H   H341      1.0  0.27127  0.92684  0.82460  1.0000
  H   H342      1.0  0.28794  0.88750  0.76881  1.0000
  H   H343      1.0  0.22771  0.84861  0.73656  1.0000
  H   H344      1.0  0.06645  0.90261  0.76680  1.0000
  C   C445      1.0  0.04911  0.56047  0.94571  1.0000
  C   C446      1.0  0.08682  0.66370  0.97313  1.0000
  C   C447      1.0  0.30413  0.75398  0.75065  1.0000
  H   H345      1.0  0.08771  0.76284  0.79097  1.0000
  H   H346      1.0  0.04800  0.73483  0.90767  1.0000
  H   H347      1.0  0.07885  0.54763  0.79732  1.0000
  C   C448      1.0  0.05288  0.66540  0.83474  1.0000
  C   C449      1.0  0.43497  0.98588  0.00617  1.0000
  H   H348      1.0  0.17291  0.90775  0.70805  1.0000
  H   H349      1.0  0.06178  0.57858  0.96820  1.0000
  H   H350      1.0  0.43143  0.96522  0.79400  1.0000
  C   C450      1.0  0.36068  0.70262  0.72924  1.0000
  C   C451      1.0  0.14991  0.82518  0.98870  1.0000
  S   S60       1.0  0.22144  0.53736  0.81189  1.0000
  C   C452      1.0  0.06588  0.66696  0.79937  1.0000
  H   H351      1.0  0.11604  0.64832  0.76153  1.0000
  C   C453      1.0  0.10106  0.65698  0.93823  1.0000
  H   H352      1.0  0.27027  0.59356  0.69627  1.0000
  C   C454      1.0  0.31820  0.73107  0.98135  1.0000
  S   S61       1.0  0.00541  0.96483  0.90557  1.0000
  H   H353      1.0  0.47210  0.65081  0.73809  1.0000
  C   C455      1.0  0.08000  0.64392  0.86016  1.0000
  H   H354      1.0  0.23018  0.54568  0.95515  1.0000
  C   C456      1.0  0.00020  0.83035  0.81186  1.0000
  C   C457      1.0  0.14293  0.89564  0.69533  1.0000
  Fe  Fe33      1.0  0.34023  0.95470  0.68179  1.0000
  H   H355      1.0  0.04466  0.68312  0.77985  1.0000
  C   C458      1.0  0.22883  0.96433  0.99697  1.0000
  C   C459      1.0  0.39498  0.55494  0.97600  1.0000
  C   C460      1.0  0.01166  0.67244  0.91068  1.0000
  C   C461      1.0  0.34240  0.70508  0.69513  1.0000
  C   C462      1.0  0.31830  0.68463  0.98577  1.0000
  H   H356      1.0  0.47362  0.60255  0.85882  1.0000
  H   H357      1.0  0.18494  0.82064  0.98234  1.0000
  C   C463      1.0  0.12633  0.86187  0.97518  1.0000
  C   C464      1.0  0.38062  0.55387  0.70669  1.0000
  C   C465      1.0  0.40952  0.53095  0.68420  1.0000
  C   C466      1.0  0.04626  0.58042  0.91214  1.0000
  C   C467      1.0  0.17107  0.71249  0.71146  1.0000
  C   C468      1.0  0.01547  0.71921  0.90941  1.0000
  H   H358      1.0  0.13800  0.53921  0.70055  1.0000
  H   H359      1.0  0.46247  0.96043  0.95771  1.0000
  H   H360      1.0  0.14330  0.88586  0.95862  1.0000
  S   S62       1.0  0.33971  0.56177  0.95994  1.0000
  H   H361      1.0  0.31386  0.66298  0.96313  1.0000
  H   H362      1.0  0.05940  0.81899  0.70321  1.0000
  C   C469      1.0  0.47526  0.52455  0.76178  1.0000
  H   H363      1.0  0.13133  0.51343  0.83970  1.0000
  H   H364      1.0  0.02515  0.50075  0.76486  1.0000
  H   H365      1.0  0.25861  0.77974  0.71112  1.0000
  C   C470      1.0  0.16780  0.52649  0.93082  1.0000
  H   H366      1.0  0.28929  0.77272  0.77212  1.0000
  H   H367      1.0  0.35551  0.72412  0.78327  1.0000
  H   H368      1.0  0.13519  0.76985  0.69196  1.0000
  C   C471      1.0  0.34132  0.72658  0.75695  1.0000
  C   C472      1.0  0.03405  0.51674  0.95093  1.0000
  C   C473      1.0  0.43723  0.99374  0.77698  1.0000
  S   S63       1.0  0.38600  0.94901  0.72900  1.0000
  H   H369      1.0  0.47350  0.52330  0.87623  1.0000
  H   H370      1.0  0.30125  0.99252  0.84924  1.0000
  C   C474      1.0  0.07700  0.51210  0.80296  1.0000
  H   H371      1.0  0.11108  0.49959  0.90348  1.0000
  H   H372      1.0  0.00822  0.84393  0.94010  1.0000
  C   C475      1.0  0.01468  0.87019  0.79635  1.0000
  H   H373      1.0  0.02112  0.68009  0.84177  1.0000
  H   H374      1.0  0.03503  0.50196  0.97709  1.0000
  C   C476      1.0  0.30946  0.95785  0.99395  1.0000
  H   H375      1.0  0.34187  0.97149  0.98731  1.0000
  H   H376      1.0  0.00215  0.75916  0.98093  1.0000
  H   H377      1.0  0.25853  0.99582  0.90468  1.0000
  H   H378      1.0  0.16795  0.69403  0.68702  1.0000
  C   C477      1.0  0.48244  0.54117  0.00264  1.0000
  C   C478      1.0  0.30607  0.73375  0.68886  1.0000
  H   H379      1.0  0.41998  0.49720  0.69059  1.0000
  C   C479      1.0  0.41739  0.99526  0.74339  1.0000
  Fe  Fe34      1.0  0.82925  0.12521  0.17699  1.0000
  S   S64       1.0  0.81391  0.05451  0.16116  1.0000
  S   S65       1.0  0.87765  0.14859  0.21858  1.0000
  Fe  Fe35      1.0  0.76604  0.16743  0.12262  1.0000
  S   S66       1.0  0.74629  0.09996  0.10234  1.0000
  S   S67       1.0  0.74376  0.23303  0.09716  1.0000
  Fe  Fe36      1.0  0.74286  0.07956  0.15936  1.0000
  C   C480      1.0  0.50470  0.21837  0.10593  1.0000
  Fe  Fe37      1.0  0.81936  0.08115  0.10554  1.0000
  S   S68       1.0  0.84896  0.04013  0.06038  1.0000
  S   S69       1.0  0.75777  0.14857  0.17943  1.0000
  S   S70       1.0  0.83953  0.15031  0.12159  1.0000
  H   H380      1.0  0.72875  0.35592  0.33211  1.0000
  S   S71       1.0  0.60020  0.46661  0.16407  1.0000
  Fe  Fe38      1.0  0.57180  0.42568  0.11984  1.0000
  S   S72       1.0  0.56824  0.34963  0.12465  1.0000
  S   S73       1.0  0.61424  0.45714  0.07803  1.0000
  H   H381      1.0  0.93611  0.17735  0.15134  1.0000
  H   H382      1.0  0.69979  0.29013  0.18071  1.0000
  C   C481      1.0  0.93264  0.32144  0.22061  1.0000
  H   H383      1.0  0.65793  0.29898  0.02860  1.0000
  H   H384      1.0  0.79991  0.11853  0.03799  1.0000
  C   C482      1.0  0.91139  0.28058  0.22688  1.0000
  C   C483      1.0  0.69484  0.26450  0.10652  1.0000
  C   C484      1.0  0.69264  0.30919  0.09502  1.0000
  C   C485      1.0  0.65442  0.33552  0.10103  1.0000
  C   C486      1.0  0.61753  0.31745  0.11835  1.0000
  C   C487      1.0  0.61936  0.27254  0.12963  1.0000
  C   C488      1.0  0.65797  0.24617  0.12394  1.0000
  H   H385      1.0  0.72033  0.32352  0.08080  1.0000
  H   H386      1.0  0.65321  0.36955  0.09147  1.0000
  H   H387      1.0  0.59088  0.25810  0.14287  1.0000
  H   H388      1.0  0.65903  0.21167  0.13272  1.0000
  C   C489      1.0  0.67311  0.03217  0.22199  1.0000
  C   C490      1.0  0.97925  0.06825  0.03685  1.0000
  C   C491      1.0  0.54319  0.33901  0.22346  1.0000
  C   C492      1.0  0.70953  0.02592  0.24476  1.0000
  C   C493      1.0  0.58273  0.23713  0.29149  1.0000
  H   H389      1.0  0.92711  0.00607  0.27412  1.0000
  C   C494      1.0  0.55871  0.06113  0.14310  1.0000
  Fe  Fe39      1.0  0.89367  0.43298  0.31439  1.0000
  P   P18       1.0  0.60125  0.03785  0.04220  1.0000
  C   C495      1.0  0.72789  0.26972  0.23059  1.0000
  C   C496      1.0  0.91060  0.11374  0.24586  1.0000
  C   C497      1.0  0.94503  0.13401  0.26490  1.0000
  C   C498      1.0  0.56612  0.28114  0.29336  1.0000
  C   C499      1.0  0.69522  0.28932  0.20903  1.0000
  H   H390      1.0  0.64586  0.12015  0.06376  1.0000
  H   H391      1.0  0.92662  0.25585  0.24418  1.0000
  C   C500      1.0  0.90225  0.04275  0.04016  1.0000
  H   H392      1.0  0.87058  0.43836  0.21657  1.0000
  C   C501      1.0  0.87438  0.45905  0.19325  1.0000
  H   H393      1.0  0.93152  0.08991  0.07625  1.0000
  H   H394      1.0  0.60123  0.03149  0.21769  1.0000
  H   H395      1.0  0.51229  0.14727  0.11426  1.0000
  H   H396      1.0  0.81925  0.04507  0.28473  1.0000
  C   C502      1.0  0.52065  0.03524  0.07896  1.0000
  C   C503      1.0  0.88865  0.35847  0.05547  1.0000
  C   C504      1.0  0.85590  0.32994  0.04211  1.0000
  C   C505      1.0  0.82012  0.31722  0.06340  1.0000
  C   C506      1.0  0.81635  0.33407  0.09768  1.0000
  C   C507      1.0  0.84775  0.36477  0.11056  1.0000
  C   C508      1.0  0.88507  0.37522  0.08977  1.0000
  P   P19       1.0  0.84357  0.38570  0.15510  1.0000
  C   C509      1.0  0.86507  0.44193  0.15956  1.0000
  C   C510      1.0  0.78676  0.38996  0.17045  1.0000
  C   C511      1.0  0.77800  0.38690  0.20677  1.0000
  C   C512      1.0  0.73475  0.39340  0.21950  1.0000
  C   C513      1.0  0.69981  0.40274  0.19606  1.0000
  C   C514      1.0  0.70820  0.40553  0.15990  1.0000
  C   C515      1.0  0.75161  0.39988  0.14710  1.0000
  C   C516      1.0  0.78677  0.12783  0.01234  1.0000
  H   H397      1.0  0.51100  0.12934  0.05035  1.0000
  H   H398      1.0  0.58869  0.01436  0.28079  1.0000
  H   H399      1.0  0.66493  0.40048  0.28925  1.0000
  C   C517      1.0  0.51014  0.20799  0.30731  1.0000
  C   C518      1.0  0.87125  0.34475  0.18263  1.0000
  C   C519      1.0  0.91285  0.35331  0.19830  1.0000
  C   C520      1.0  0.58663  0.29542  0.02123  1.0000
  C   C521      1.0  0.51315  0.05126  0.14124  1.0000
  H   H400      1.0  0.79556  0.29374  0.05353  1.0000
  H   H401      1.0  0.78923  0.32267  0.11420  1.0000
  H   H402      1.0  0.91143  0.39634  0.09996  1.0000
  H   H403      1.0  0.80481  0.38067  0.22541  1.0000
  H   H404      1.0  0.72856  0.39210  0.24760  1.0000
  H   H405      1.0  0.66640  0.40864  0.20595  1.0000
  H   H406      1.0  0.68132  0.41395  0.14190  1.0000
  H   H407      1.0  0.75771  0.40443  0.11923  1.0000
  H   H408      1.0  0.56798  0.16713  0.29680  1.0000
  H   H409      1.0  0.50637  0.22643  0.13376  1.0000
  C   C522      1.0  0.58542  0.05723  0.11307  1.0000
  H   H410      1.0  0.74322  0.02906  0.23484  1.0000
  H   H411      1.0  0.92987  0.38466  0.19384  1.0000
  C   C523      1.0  0.65666  0.30796  0.22390  1.0000
  C   C524      1.0  0.86812  0.47064  0.13016  1.0000
  C   C525      1.0  0.51491  0.36315  0.20094  1.0000
  C   C526      1.0  0.96434  0.01831  0.16288  1.0000
  C   C527      1.0  0.72227  0.26917  0.26716  1.0000
  H   H412      1.0  0.50527  0.02631  0.05413  1.0000
  C   C528      1.0  0.58151  0.99639  0.01118  1.0000
  S   S74       1.0  0.68074  0.04288  0.17660  1.0000
  H   H413      1.0  0.49838  0.28706  0.09009  1.0000
  P   P20       1.0  0.60031  0.32834  0.28084  1.0000
  C   C529      1.0  0.76952  0.15480  0.27418  1.0000
  C   C530      1.0  0.72289  0.15252  0.27422  1.0000
  C   C531      1.0  0.70109  0.12783  0.30026  1.0000
  C   C532      1.0  0.97004  0.47097  0.25603  1.0000
  H   H414      1.0  0.54658  0.30318  0.21987  1.0000
  H   H415      1.0  0.86589  0.29499  0.32730  1.0000
  H   H416      1.0  0.68031  0.28738  0.31050  1.0000
  H   H417      1.0  0.79040  0.41577  0.05117  1.0000
  H   H418      1.0  0.96414  0.32888  0.23349  1.0000
  C   C533      1.0  0.61541  0.36266  0.31817  1.0000
  H   H419      1.0  0.70367  0.16941  0.25384  1.0000
  H   H420      1.0  0.66496  0.12553  0.30014  1.0000
  C   C534      1.0  0.55476  0.20085  0.29826  1.0000
  C   C535      1.0  0.69295  0.03306  0.03059  1.0000
  C   C536      1.0  0.77272  0.10735  0.32641  1.0000
  C   C537      1.0  0.85045  0.30337  0.18861  1.0000
  H   H421      1.0  0.81862  0.29578  0.17632  1.0000
  H   H422      1.0  0.61702  0.23022  0.28455  1.0000
  C   C538      1.0  0.81720  0.02091  0.33865  1.0000
  C   C539      1.0  0.56680  0.04289  0.08100  1.0000
  H   H423      1.0  0.57352  0.07170  0.16782  1.0000
  H   H424      1.0  0.83049  0.13345  0.29875  1.0000
  H   H425      1.0  0.58025  0.29189  0.04923  1.0000
  S   S75       1.0  0.51295  0.47303  0.11190  1.0000
  C   C540      1.0  0.96836  0.06201  0.28858  1.0000
  H   H426      1.0  0.63163  0.32232  0.20650  1.0000
  S   S76       1.0  0.94559  0.42164  0.27221  1.0000
  C   C541      1.0  0.87036  0.27158  0.21079  1.0000
  H   H427      1.0  0.85391  0.23993  0.21556  1.0000
  H   H428      1.0  0.97302  0.21431  0.10053  1.0000
  H   H429      1.0  0.64728  0.19634  0.03817  1.0000
  H   H430      1.0  0.91698  0.36738  0.03923  1.0000
  C   C542      1.0  0.51037  0.40939  0.20476  1.0000
  H   H431      1.0  0.85832  0.45959  0.10413  1.0000
  C   C543      1.0  0.79434  0.13217  0.29997  1.0000
  Fe  Fe40      1.0  0.80228  0.47332  0.32251  1.0000
  H   H432      1.0  0.75731  0.25465  0.21891  1.0000
  C   C544      1.0  0.65115  0.30811  0.26070  1.0000
  C   C545      1.0  0.68440  0.28875  0.28216  1.0000
  C   C546      1.0  0.62700  0.12712  0.03988  1.0000
  S   S77       1.0  0.82555  0.40883  0.30028  1.0000
  H   H433      1.0  0.95721  0.03724  0.13906  1.0000
  C   C547      1.0  0.98766  0.18438  0.11206  1.0000
  C   C548      1.0  0.52118  0.28810  0.30255  1.0000
  C   C549      1.0  0.65877  0.01111  0.29361  1.0000
  C   C550      1.0  0.74504  0.14861  0.00961  1.0000
  H   H434      1.0  0.78670  0.17350  0.25385  1.0000
  H   H435      1.0  0.95528  0.44134  0.03880  1.0000
  C   C551      1.0  0.53378  0.43158  0.23139  1.0000
  H   H436      1.0  0.72707  0.46469  0.06871  1.0000
  C   C552      1.0  0.72582  0.10520  0.32617  1.0000
  C   C553      1.0  0.63076  0.29976  0.00972  1.0000
  C   C554      1.0  0.60183  0.09334  0.02354  1.0000
  C   C555      1.0  0.64862  0.39541  0.31440  1.0000
  C   C556      1.0  0.78046  0.44366  0.03452  1.0000
  H   H437      1.0  0.74698  0.25313  0.28407  1.0000
  C   C557      1.0  0.56199  0.40755  0.25410  1.0000
  C   C558      1.0  0.90387  0.06745  0.24918  1.0000
  H   H438      1.0  0.98357  0.44408  0.20440  1.0000
  C   C559      1.0  0.94913  0.47102  0.02312  1.0000
  S   S78       1.0  0.55184  0.08382  0.33505  1.0000
  C   C560      1.0  0.79679  0.32502  0.32398  1.0000
  C   C561      1.0  0.98586  0.47311  0.22123  1.0000
  C   C562      1.0  0.96670  0.16348  0.14051  1.0000
  C   C563      1.0  0.93704  0.06912  0.05333  1.0000
  C   C564      1.0  0.93226  0.04167  0.27129  1.0000
  H   H439      1.0  0.72600  0.15566  0.03323  1.0000
  H   H440      1.0  0.95009  0.16977  0.26284  1.0000
  H   H441      1.0  0.53049  0.46760  0.23419  1.0000
  H   H442      1.0  0.87704  0.05165  0.23474  1.0000
  H   H443      1.0  0.62063  0.06526  0.11509  1.0000
  H   H444      1.0  0.57936  0.42568  0.27456  1.0000
  C   C565      1.0  0.82212  0.01630  0.30201  1.0000
  H   H445      1.0  0.79239  0.31832  0.29618  1.0000
  C   C566      1.0  0.62797  0.17026  0.02543  1.0000
  H   H446      1.0  0.85873  0.31712  0.01548  1.0000
  H   H447      1.0  0.52805  0.37986  0.01290  1.0000
  C   C567      1.0  0.56697  0.36098  0.25027  1.0000
  C   C568      1.0  0.62959  0.02756  0.23515  1.0000
  C   C569      1.0  0.73624  0.01748  0.03754  1.0000
  C   C570      1.0  0.65753  0.02071  0.05272  1.0000
  C   C571      1.0  0.74483  0.47120  0.04433  1.0000
  C   C572      1.0  0.62240  0.01787  0.27096  1.0000
  H   H448      1.0  0.96888  0.10990  0.17799  1.0000
  H   H449      1.0  0.50755  0.32173  0.30384  1.0000
  C   C573      1.0  0.50351  0.19807  0.03407  1.0000
  C   C574      1.0  0.70228  0.01440  0.28030  1.0000
  C   C575      1.0  0.50838  0.17386  0.09496  1.0000
  C   C576      1.0  0.50776  0.16374  0.05902  1.0000
  H   H450      1.0  0.76373  0.02756  0.02081  1.0000
  C   C577      1.0  0.98529  0.12478  0.15538  1.0000
  H   H451      1.0  0.73034  0.00874  0.29772  1.0000
  C   C578      1.0  0.98715  0.04096  0.00728  1.0000
  C   C579      1.0  0.97390  0.10831  0.28583  1.0000
  H   H452      1.0  0.49735  0.34612  0.17987  1.0000
  H   H453      1.0  0.80314  0.49311  0.24071  1.0000
  C   C580      1.0  0.49970  0.25271  0.08101  1.0000
  C   C581      1.0  0.49807  0.24269  0.04481  1.0000
  H   H454      1.0  0.68722  0.05464  0.00799  1.0000
  H   H455      1.0  0.68630  0.44765  0.33981  1.0000
  C   C582      1.0  0.49655  0.37849  0.02679  1.0000
  C   C583      1.0  0.90989  0.01644  0.01009  1.0000
  H   H456      1.0  0.49524  0.44951  0.03507  1.0000
  S   S79       1.0  0.65051  0.99628  0.33815  1.0000
  S   S80       1.0  0.89268  0.39980  0.36756  1.0000
  H   H457      1.0  0.92042  0.03403  0.55253  1.0000
  Fe  Fe41      1.0  0.81988  0.37443  0.35628  1.0000
  S   S81       1.0  0.77476  0.26837  0.37312  1.0000
  C   C584      1.0  0.88928  0.43966  0.64622  1.0000
  C   C585      1.0  0.58958  0.14207  0.51473  1.0000
  Fe  Fe42      1.0  0.89008  0.13214  0.57322  1.0000
  S   S82       1.0  0.83475  0.09161  0.59644  1.0000
  S   S83       1.0  0.91703  0.12116  0.51813  1.0000
  Fe  Fe43      1.0  0.80582  0.15787  0.61359  1.0000
  S   S84       1.0  0.73256  0.17343  0.60370  1.0000
  C   C586      1.0  0.93330  0.41765  0.49922  1.0000
  S   S85       1.0  0.85858  0.19833  0.58687  1.0000
  S   S86       1.0  0.93244  0.13085  0.62198  1.0000
  Fe  Fe44      1.0  0.58863  0.39151  0.62721  1.0000
  S   S87       1.0  0.52973  0.36255  0.59909  1.0000
  S   S88       1.0  0.66171  0.37313  0.62020  1.0000
  H   H458      1.0  0.51995  0.45577  0.42956  1.0000
  C   C587      1.0  0.92571  0.02943  0.52457  1.0000
  Fe  Fe45      1.0  0.56032  0.12155  0.38588  1.0000
  S   S89       1.0  0.60303  0.06996  0.41257  1.0000
  S   S90       1.0  0.57562  0.19542  0.38879  1.0000
  H   H459      1.0  0.72878  0.02042  0.37694  1.0000
  Fe  Fe46      1.0  0.50509  0.43369  0.59300  1.0000
  Fe  Fe47      1.0  0.53847  0.04062  0.43202  1.0000
  H   H460      1.0  0.50513  0.22840  0.62147  1.0000
  Fe  Fe48      1.0  0.59110  0.03030  0.36314  1.0000
  C   C588      1.0  0.57840  0.13787  0.55037  1.0000
  Fe  Fe49      1.0  0.87502  0.09460  0.64668  1.0000
  H   H461      1.0  0.89299  0.21005  0.38605  1.0000
  C   C589      1.0  0.53353  0.14030  0.56106  1.0000
  C   C590      1.0  0.71425  0.22967  0.60621  1.0000
  C   C591      1.0  0.74215  0.26342  0.61902  1.0000
  C   C592      1.0  0.72554  0.30728  0.62305  1.0000
  C   C593      1.0  0.68089  0.31756  0.61484  1.0000
  C   C594      1.0  0.65340  0.28413  0.60114  1.0000
  C   C595      1.0  0.67021  0.24048  0.59643  1.0000
  H   H462      1.0  0.77636  0.25561  0.62615  1.0000
  H   H463      1.0  0.71165  0.04897  0.48688  1.0000
  H   H464      1.0  0.61899  0.29165  0.59460  1.0000
  H   H465      1.0  0.64851  0.21468  0.58617  1.0000
  C   C596      1.0  0.92436  0.06635  0.50185  1.0000
  C   C597      1.0  0.85529  0.15116  0.37320  1.0000
  C   C598      1.0  0.93089  0.05990  0.46554  1.0000
  S   S91       1.0  0.49645  0.09568  0.40930  1.0000
  H   H466      1.0  0.66165  0.14989  0.37867  1.0000
  H   H467      1.0  0.88662  0.44160  0.53781  1.0000
  H   H468      1.0  0.56830  0.33286  0.35453  1.0000
  C   C599      1.0  0.71876  0.24912  0.37768  1.0000
  C   C600      1.0  0.68241  0.27800  0.38331  1.0000
  C   C601      1.0  0.63911  0.26074  0.38728  1.0000
  C   C602      1.0  0.63116  0.21471  0.38500  1.0000
  C   C603      1.0  0.66726  0.18559  0.37996  1.0000
  C   C604      1.0  0.71086  0.20277  0.37667  1.0000
  H   H469      1.0  0.69445  0.45417  0.47345  1.0000
  H   H470      1.0  0.59059  0.37963  0.40488  1.0000
  C   C605      1.0  0.51156  0.15246  0.49994  1.0000
  H   H471      1.0  0.66374  0.41381  0.52543  1.0000
  C   C606      1.0  0.53687  0.21871  0.63294  1.0000
  C   C607      1.0  0.60666  0.38422  0.37956  1.0000
  H   H472      1.0  0.69928  0.34327  0.54558  1.0000
  H   H473      1.0  0.61656  0.33756  0.54129  1.0000
  C   C608      1.0  0.93759  0.10652  0.37198  1.0000
  S   S92       1.0  0.92828  0.25522  0.65966  1.0000
  C   C609      1.0  0.89825  0.08289  0.36524  1.0000
  C   C610      1.0  0.55612  0.14889  0.48949  1.0000
  S   S93       1.0  0.53038  0.01554  0.48822  1.0000
  H   H474      1.0  0.52749  0.39107  0.46922  1.0000
  C   C611      1.0  0.69133  0.39963  0.51064  1.0000
  H   H475      1.0  0.64968  0.43710  0.39785  1.0000
  H   H476      1.0  0.68753  0.00988  0.43238  1.0000
  H   H477      1.0  0.99117  0.05909  0.57669  1.0000
  H   H478      1.0  0.97382  0.22471  0.56714  1.0000
  C   C612      1.0  0.60192  0.31633  0.52124  1.0000
  H   H479      1.0  0.94458  0.01222  0.42405  1.0000
  Fe  Fe50      1.0  0.89535  0.19276  0.63853  1.0000
  H   H480      1.0  0.82207  0.34780  0.64623  1.0000
  H   H481      1.0  0.97170  0.38993  0.45672  1.0000
  H   H482      1.0  0.87414  0.30434  0.39431  1.0000
  H   H483      1.0  0.66108  0.27572  0.51464  1.0000
  H   H484      1.0  0.96631  0.17046  0.38483  1.0000
  C   C613      1.0  0.89464  0.17459  0.38015  1.0000
  C   C614      1.0  0.56318  0.26123  0.47030  1.0000
  C   C615      1.0  0.76235  0.45436  0.64273  1.0000
  H   H485      1.0  0.61151  0.28311  0.39247  1.0000
  H   H486      1.0  0.90051  0.04748  0.35946  1.0000
  C   C616      1.0  0.55764  0.32340  0.51081  1.0000
  C   C617      1.0  0.93929  0.01683  0.45202  1.0000
  C   C618      1.0  0.53148  0.06754  0.65849  1.0000
  H   H487      1.0  0.71570  0.08202  0.63219  1.0000
  C   C619      1.0  0.89111  0.42124  0.51447  1.0000
  H   H488      1.0  0.54897  0.23893  0.45110  1.0000
  C   C620      1.0  0.59412  0.35764  0.35086  1.0000
  C   C621      1.0  0.99327  0.01749  0.62300  1.0000
  C   C622      1.0  0.53649  0.07796  0.62262  1.0000
  H   H489      1.0  0.56475  0.15157  0.46180  1.0000
  C   C623      1.0  0.66877  0.04346  0.66268  1.0000
  C   C624      1.0  0.69796  0.07909  0.65700  1.0000
  H   H490      1.0  0.90853  0.34946  0.43090  1.0000
  H   H491      1.0  0.73782  0.36736  0.39923  1.0000
  C   C625      1.0  0.77587  0.06759  0.39889  1.0000
  C   C626      1.0  0.78981  0.08904  0.43002  1.0000
  C   C627      1.0  0.76682  0.08206  0.46165  1.0000
  C   C628      1.0  0.72976  0.05385  0.46248  1.0000
  C   C629      1.0  0.71619  0.03181  0.43184  1.0000
  H   H492      1.0  0.54978  0.28486  0.65300  1.0000
  H   H493      1.0  0.96948  0.08921  0.37118  1.0000
  H   H494      1.0  0.55301  0.05109  0.57110  1.0000
  H   H495      1.0  0.74706  0.33328  0.63304  1.0000
  C   C630      1.0  0.85680  0.10507  0.36588  1.0000
  H   H496      1.0  0.74293  0.45485  0.55411  1.0000
  C   C631      1.0  0.92539  0.42187  0.62754  1.0000
  S   S94       1.0  0.79423  0.44390  0.37613  1.0000
  C   C632      1.0  0.56215  0.25089  0.65066  1.0000
  H   H497      1.0  0.81858  0.11079  0.43031  1.0000
  H   H498      1.0  0.77782  0.09847  0.48561  1.0000
  P   P21       1.0  0.80556  0.07512  0.35772  1.0000
  C   C633      1.0  0.85058  0.36895  0.64112  1.0000
  H   H499      1.0  0.73865  0.18004  0.37310  1.0000
  S   S95       1.0  0.56699  0.46276  0.61756  1.0000
  C   C634      1.0  0.93581  0.15229  0.37952  1.0000
  H   H500      1.0  0.62418  0.13964  0.50663  1.0000
  H   H501      1.0  0.60850  0.13010  0.64128  1.0000
  H   H502      1.0  0.62699  0.22771  0.46862  1.0000
  C   C635      1.0  0.92390  0.37784  0.61528  1.0000
  C   C636      1.0  0.64001  0.41646  0.37566  1.0000
  H   H503      1.0  0.82364  0.16901  0.37381  1.0000
  C   C637      1.0  0.73765  0.46141  0.58183  1.0000
  C   C638      1.0  0.55243  0.17442  0.63044  1.0000
  H   H504      1.0  0.53872  0.35028  0.52288  1.0000
  Fe  Fe51      1.0  0.52999  0.45658  0.66906  1.0000
  H   H505      1.0  0.68699  0.31358  0.38488  1.0000
  C   C639      1.0  0.62692  0.28169  0.50623  1.0000
  H   H506      1.0  0.95821  0.00867  0.62128  1.0000
  H   H507      1.0  0.76171  0.31048  0.51296  1.0000
  Fe  Fe52      1.0  0.86460  0.46555  0.38584  1.0000
  C   C640      1.0  0.85155  0.41331  0.65326  1.0000
  C   C641      1.0  0.60386  0.23957  0.66471  1.0000
  C   C642      1.0  0.60764  0.25443  0.48054  1.0000
  H   H508      1.0  0.75962  0.42356  0.44203  1.0000
  H   H509      1.0  0.89145  0.47391  0.65504  1.0000
  C   C643      1.0  0.70853  0.42221  0.48140  1.0000
  P   P22       1.0  0.52029  0.13284  0.60723  1.0000
  C   C644      1.0  0.79041  0.20821  0.46790  1.0000
  C   C645      1.0  0.83031  0.19325  0.48319  1.0000
  C   C646      1.0  0.86516  0.22329  0.48904  1.0000
  C   C647      1.0  0.86035  0.26828  0.47955  1.0000
  C   C648      1.0  0.82043  0.28361  0.46396  1.0000
  C   C649      1.0  0.78543  0.25323  0.45852  1.0000
  P   P23       1.0  0.81298  0.34153  0.45109  1.0000
  C   C650      1.0  0.76328  0.36269  0.47283  1.0000
  C   C651      1.0  0.85977  0.37363  0.46843  1.0000
  C   C652      1.0  0.85459  0.39934  0.49930  1.0000
  H   H510      1.0  0.88520  0.31732  0.61245  1.0000
  C   C653      1.0  0.93901  0.39217  0.46876  1.0000
  C   C654      1.0  0.90260  0.37006  0.45360  1.0000
  C   C655      1.0  0.74498  0.40432  0.46311  1.0000
  C   C656      1.0  0.59471  0.16346  0.64415  1.0000
  C   C657      1.0  0.76872  0.44585  0.60667  1.0000
  C   C658      1.0  0.71106  0.35961  0.52185  1.0000
  C   C659      1.0  0.74657  0.34099  0.50301  1.0000
  C   C660      1.0  0.80874  0.34088  0.40291  1.0000
  C   C661      1.0  0.76556  0.35423  0.38439  1.0000
  C   C662      1.0  0.55004  0.04436  0.59910  1.0000
  C   C663      1.0  0.73936  0.03830  0.40031  1.0000
  C   C664      1.0  0.53836  0.02382  0.67056  1.0000
  C   C665      1.0  0.84528  0.31874  0.38141  1.0000
  H   H511      1.0  0.76326  0.18509  0.46326  1.0000
  H   H512      1.0  0.83432  0.15848  0.49076  1.0000
  H   H513      1.0  0.89593  0.21168  0.50118  1.0000
  H   H514      1.0  0.88778  0.29063  0.48483  1.0000
  H   H515      1.0  0.75417  0.26446  0.44698  1.0000
  H   H516      1.0  0.82257  0.40263  0.51210  1.0000
  C   C666      1.0  0.62038  0.19607  0.66086  1.0000
  C   C667      1.0  0.53779  0.29588  0.48525  1.0000
  H   H517      1.0  0.92984  0.08840  0.44789  1.0000
  H   H518      1.0  0.95188  0.36397  0.60085  1.0000
  C   C668      1.0  0.88636  0.35153  0.62187  1.0000
  H   H519      1.0  0.95450  0.44249  0.62263  1.0000
  H   H520      1.0  0.60479  0.13219  0.56954  1.0000
  H   H521      1.0  0.65356  0.18782  0.67005  1.0000
  H   H522      1.0  0.79752  0.42733  0.59749  1.0000
  H   H523      1.0  0.96410  0.48114  0.41880  1.0000
  S   S96       1.0  0.84029  0.15651  0.66651  1.0000
  H   H524      1.0  0.96135  0.43554  0.51052  1.0000
  C   C669      1.0  0.50022  0.14869  0.53561  1.0000
  C   C670      1.0  0.69966  0.48485  0.59279  1.0000
  C   C671      1.0  0.75982  0.34731  0.34491  1.0000
  C   C672      1.0  0.55828  0.00088  0.61146  1.0000
  C   C673      1.0  0.72467  0.47893  0.65346  1.0000
  H   H525      1.0  0.66378  0.01865  0.64227  1.0000
  H   H526      1.0  0.70793  0.08583  0.34554  1.0000
  C   C674      1.0  0.49861  0.42691  0.42589  1.0000
  Fe  Fe53      1.0  0.49566  0.36435  0.65162  1.0000
  H   H527      1.0  0.49770  0.26243  0.40530  1.0000
  C   C675      1.0  0.50278  0.38993  0.44841  1.0000
  C   C676      1.0  0.69321  0.49365  0.62860  1.0000
  H   H528      1.0  0.99085  0.17018  0.67187  1.0000
  C   C677      1.0  0.84000  0.31192  0.34205  1.0000
  C   C678      1.0  0.66075  0.42227  0.34301  1.0000
  H   H529      1.0  0.67497  0.49581  0.57363  1.0000
  Fe  Fe54      1.0  0.89368  0.45767  0.84483  1.0000
  S   S97       1.0  0.94509  0.41377  0.87086  1.0000
  H   H530      1.0  0.93061  0.19649  0.72117  1.0000
  Fe  Fe55      1.0  0.81717  0.39400  0.86331  1.0000
  S   S98       1.0  0.86302  0.34681  0.89217  1.0000
  S   S99       1.0  0.74362  0.38157  0.85205  1.0000
  Fe  Fe56      1.0  0.89536  0.40855  0.91466  1.0000
  S   S100      1.0  0.91996  0.41321  0.97132  1.0000
  Fe  Fe57      1.0  0.90829  0.35700  0.84572  1.0000
  S   S101      1.0  0.94249  0.29626  0.82306  1.0000
  S   S102      1.0  0.84530  0.45525  0.88998  1.0000
  S   S103      1.0  0.86103  0.40119  0.81555  1.0000
  C   C679      1.0  0.92781  0.31029  0.71723  1.0000
  H   H531      1.0  0.55411  0.07945  0.98169  1.0000
  H   H532      1.0  0.81308  0.32733  0.77276  1.0000
  C   C680      1.0  0.94155  0.17444  0.96551  1.0000
  Fe  Fe58      1.0  0.57650  0.18622  0.88103  1.0000
  H   H533      1.0  0.59361  0.14161  0.73190  1.0000
  S   S104      1.0  0.64670  0.20247  0.89996  1.0000
  H   H534      1.0  0.61183  0.30886  0.92159  1.0000
  S   S105      1.0  0.54888  0.20223  0.82783  1.0000
  S   S106      1.0  0.54991  0.11563  0.88111  1.0000
  C   C681      1.0  0.65849  0.43106  0.96671  1.0000
  H   H535      1.0  0.85851  0.09641  0.84145  1.0000
  H   H536      1.0  0.92937  0.35427  0.76234  1.0000
  C   C682      1.0  0.57063  0.42122  0.78193  1.0000
  H   H537      1.0  0.79673  0.04336  0.93542  1.0000
  C   C683      1.0  0.62386  0.41383  0.91045  1.0000
  H   H538      1.0  0.54660  0.27477  0.75120  1.0000
  H   H539      1.0  0.53469  0.30083  0.94108  1.0000
  C   C684      1.0  0.74516  0.33494  0.75453  1.0000
  S   S107      1.0  0.51771  0.10213  0.77606  1.0000
  H   H540      1.0  0.89099  0.10629  0.72614  1.0000
  H   H541      1.0  0.88304  0.99638  0.99955  1.0000
  C   C685      1.0  0.92925  0.31986  0.75351  1.0000
  C   C686      1.0  0.79110  0.34303  0.75356  1.0000
  C   C687      1.0  0.71701  0.35470  0.72938  1.0000
  H   H542      1.0  0.84458  0.10392  0.98513  1.0000
  C   C688      1.0  0.71769  0.33103  0.86475  1.0000
  C   C689      1.0  0.73666  0.30313  0.89043  1.0000
  C   C690      1.0  0.71452  0.26391  0.90095  1.0000
  C   C691      1.0  0.67351  0.25190  0.88563  1.0000
  C   C692      1.0  0.65452  0.27977  0.85983  1.0000
  C   C693      1.0  0.67642  0.31937  0.84963  1.0000
  H   H543      1.0  0.76817  0.31196  0.90250  1.0000
  H   H544      1.0  0.72924  0.24304  0.92123  1.0000
  H   H545      1.0  0.62277  0.27108  0.84805  1.0000
  H   H546      1.0  0.66132  0.34108  0.82998  1.0000
  C   C694      1.0  0.93305  0.28499  0.77805  1.0000
  C   C695      1.0  0.93373  0.24051  0.76622  1.0000
  C   C696      1.0  0.93059  0.23089  0.73001  1.0000
  C   C697      1.0  0.92854  0.26581  0.70536  1.0000
  H   H547      1.0  0.98998  0.08738  0.67875  1.0000
  H   H548      1.0  0.53285  0.19699  0.73151  1.0000
  H   H549      1.0  0.93708  0.21341  0.78508  1.0000
  H   H550      1.0  0.53274  0.01589  0.69817  1.0000
  H   H551      1.0  0.91858  0.11299  0.78768  1.0000
  H   H552      1.0  0.62420  0.39407  0.88661  1.0000
  H   H553      1.0  0.61608  0.02535  0.96652  1.0000
  C   C698      1.0  0.64625  0.03979  0.69477  1.0000
  P   P24       1.0  0.68988  0.14875  0.74992  1.0000
  H   H554      1.0  0.73142  0.31329  0.77469  1.0000
  C   C699      1.0  0.69473  0.11750  0.79065  1.0000
  C   C700      1.0  0.72217  0.07924  0.79197  1.0000
  S   S108      1.0  0.51735  0.21509  0.90888  1.0000
  C   C701      1.0  0.69964  0.06517  0.85226  1.0000
  C   C702      1.0  0.67205  0.10299  0.85111  1.0000
  C   C703      1.0  0.66952  0.12917  0.82047  1.0000
  H   H555      1.0  0.52122  0.09309  0.67702  1.0000
  H   H556      1.0  0.84891  0.19116  0.76541  1.0000
  H   H557      1.0  0.88003  0.21039  0.88409  1.0000
  H   H558      1.0  0.55334  0.31709  0.81568  1.0000
  C   C704      1.0  0.64335  0.18737  0.75260  1.0000
  H   H559      1.0  0.70151  0.04508  0.87606  1.0000
  C   C705      1.0  0.82684  0.07569  0.89016  1.0000
  C   C706      1.0  0.65021  0.23082  0.76559  1.0000
  H   H560      1.0  0.78374  0.14312  0.77561  1.0000
  C   C707      1.0  0.91487  0.03868  0.71980  1.0000
  C   C708      1.0  0.94430  0.49203  0.72390  1.0000
  C   C709      1.0  0.80328  0.45210  0.00316  1.0000
  H   H561      1.0  0.65256  0.11215  0.87402  1.0000
  H   H562      1.0  0.64768  0.15818  0.82029  1.0000
  H   H563      1.0  0.97039  0.21122  0.89957  1.0000
  H   H564      1.0  0.68426  0.42473  0.98630  1.0000
  C   C710      1.0  0.98725  0.17092  0.85457  1.0000
  H   H565      1.0  0.68239  0.24060  0.77609  1.0000
  C   C711      1.0  0.60052  0.17515  0.74100  1.0000
  C   C712      1.0  0.56074  0.30065  0.96075  1.0000
  C   C713      1.0  0.81438  0.23526  0.72936  1.0000
  C   C714      1.0  0.96405  0.10657  0.93573  1.0000
  C   C715      1.0  0.84208  0.02662  0.84056  1.0000
  C   C716      1.0  0.70456  0.11116  0.68329  1.0000
  C   C717      1.0  0.95478  0.00723  0.77046  1.0000
  H   H566      1.0  0.68306  0.38118  0.93051  1.0000
  C   C718      1.0  0.59387  0.47327  0.94671  1.0000
  C   C719      1.0  0.72464  0.05330  0.82267  1.0000
  C   C720      1.0  0.62690  0.46492  0.97211  1.0000
  C   C721      1.0  0.56515  0.44637  0.81264  1.0000
  H   H567      1.0  0.62166  0.29579  0.77444  1.0000
  H   H568      1.0  0.67412  0.30687  0.96484  1.0000
  C   C722      1.0  0.99277  0.20701  0.87749  1.0000
  C   C723      1.0  0.65756  0.40627  0.93549  1.0000
  H   H569      1.0  0.94890  0.20148  0.98357  1.0000
  P   P25       1.0  0.80306  0.43638  0.67513  1.0000
  C   C724      1.0  0.89939  0.17176  0.94959  1.0000
  C   C725      1.0  0.88910  0.13594  0.92704  1.0000
  P   P26       1.0  0.83266  0.12972  0.91074  1.0000
  C   C726      1.0  0.79648  0.13384  0.94883  1.0000
  C   C727      1.0  0.81219  0.11992  0.98214  1.0000
  H   H570      1.0  0.71183  0.39910  0.68523  1.0000
  H   H571      1.0  0.94017  0.46315  0.70713  1.0000
  S   S109      1.0  0.55661  0.38762  0.68047  1.0000
  C   C728      1.0  0.75374  0.15322  0.94623  1.0000
  C   C729      1.0  0.81887  0.17211  0.87824  1.0000
  C   C730      1.0  0.79317  0.24047  0.83129  1.0000
  C   C731      1.0  0.76483  0.20432  0.83727  1.0000
  C   C732      1.0  0.77816  0.16969  0.85985  1.0000
  H   H572      1.0  0.87431  0.19684  0.95567  1.0000
  H   H573      1.0  0.70217  0.46693  0.86208  1.0000
  C   C733      1.0  0.63990  0.30433  0.97382  1.0000
  H   H574      1.0  0.92620  0.33744  0.69828  1.0000
  C   C734      1.0  0.80743  0.99686  0.89321  1.0000
  H   H575      1.0  0.73983  0.16360  0.92126  1.0000
  Fe  Fe59      1.0  0.51628  0.13479  0.82972  1.0000
  H   H576      1.0  0.73227  0.20348  0.82479  1.0000
  H   H577      1.0  0.75597  0.14175  0.86396  1.0000
  H   H578      1.0  0.83087  0.43065  0.99551  1.0000
  C   C735      1.0  0.59104  0.44684  0.91623  1.0000
  P   P27       1.0  0.54640  0.45674  0.88468  1.0000
  C   C736      1.0  0.55595  0.42494  0.84487  1.0000
  C   C737      1.0  0.60484  0.30525  0.94943  1.0000
  H   H579      1.0  0.84271  0.25687  0.72523  1.0000
  H   H580      1.0  0.70670  0.22510  0.70325  1.0000
  C   C738      1.0  0.73732  0.21719  0.71719  1.0000
  C   C739      1.0  0.92440  0.08237  0.77318  1.0000
  H   H581      1.0  0.77248  0.27214  0.69328  1.0000
  C   C740      1.0  0.55193  0.37809  0.84568  1.0000
  C   C741      1.0  0.55757  0.35312  0.81490  1.0000
  C   C742      1.0  0.56659  0.37473  0.78298  1.0000
  C   C743      1.0  0.90871  0.07864  0.73834  1.0000
  C   C744      1.0  0.68129  0.10822  0.71532  1.0000
  C   C745      1.0  0.61568  0.26236  0.76471  1.0000
  S   S110      1.0  0.89247  0.03170  0.67711  1.0000
  H   H582      1.0  0.55977  0.15374  0.95490  1.0000
  C   C746      1.0  0.93118  0.46690  0.98891  1.0000
  C   C747      1.0  0.73955  0.18117  0.74113  1.0000
  C   C748      1.0  0.81698  0.48574  0.70044  1.0000
  H   H583      1.0  0.54365  0.36085  0.86999  1.0000
  H   H584      1.0  0.56939  0.35572  0.75882  1.0000
  C   C749      1.0  0.60468  0.17950  0.99420  1.0000
  H   H585      1.0  0.72767  0.13818  0.67821  1.0000
  C   C750      1.0  0.83488  0.24184  0.84778  1.0000
  C   C751      1.0  0.57624  0.10378  0.99354  1.0000
  C   C752      1.0  0.78044  0.17116  0.75772  1.0000
  C   C753      1.0  0.92192  0.10349  0.92004  1.0000
  H   H586      1.0  0.69599  0.17690  0.97398  1.0000
  C   C754      1.0  0.94726  0.04664  0.78936  1.0000
  H   H587      1.0  0.78280  0.26749  0.81398  1.0000
  H   H588      1.0  0.63392  0.06908  0.74546  1.0000
  H   H589      1.0  0.85698  0.26959  0.84261  1.0000
  C   C755      1.0  0.97384  0.14170  0.95866  1.0000
  H   H590      1.0  0.91524  0.07523  0.90306  1.0000
  C   C756      1.0  0.80887  0.03929  0.90875  1.0000
  C   C757      1.0  0.84774  0.20803  0.87137  1.0000
  H   H591      1.0  0.91731  0.45885  0.76956  1.0000
  C   C758      1.0  0.84325  0.06910  0.85589  1.0000
  H   H592      1.0  0.85604  0.02165  0.81447  1.0000
  H   H593      1.0  0.80634  0.45593  0.75213  1.0000
  H   H594      1.0  0.57727  0.43794  0.75709  1.0000
  C   C759      1.0  0.78034  0.39394  0.70405  1.0000
  C   C760      1.0  0.72830  0.16072  0.97647  1.0000
  H   H595      1.0  0.84433  0.37863  0.72822  1.0000
  C   C761      1.0  0.81761  0.19845  0.75207  1.0000
  C   C762      1.0  0.77456  0.24409  0.71143  1.0000
  H   H596      1.0  0.50455  0.18971  0.00631  1.0000
  C   C763      1.0  0.65213  0.07219  0.72088  1.0000
  C   C764      1.0  0.95198  0.01558  0.99367  1.0000
  C   C765      1.0  0.80873  0.37200  0.72818  1.0000
  C   C766      1.0  0.56585  0.20670  0.74047  1.0000
  H   H597      1.0  0.74135  0.06924  0.76907  1.0000
  S   S111      1.0  0.96198  0.05099  0.83420  1.0000
  C   C767      1.0  0.72268  0.49444  0.87120  1.0000
  C   C768      1.0  0.73447  0.38408  0.70420  1.0000
  C   C769      1.0  0.57360  0.25051  0.75172  1.0000
  H   H598      1.0  0.68149  0.34784  0.72960  1.0000
  C   C770      1.0  0.79077  0.48825  0.98171  1.0000
  C   C771      1.0  0.55123  0.29504  0.99675  1.0000
  H   H599      1.0  0.50646  0.45799  0.95642  1.0000
  H   H600      1.0  0.96110  0.14664  0.85915  1.0000
  H   H601      1.0  0.56729  0.48242  0.81063  1.0000
  H   H602      1.0  0.60645  0.21228  0.98210  1.0000
  H   H603      1.0  0.74560  0.02371  0.82332  1.0000
  H   H604      1.0  0.80921  0.49433  0.95765  1.0000
  C   C772      1.0  0.57873  0.14633  0.97848  1.0000
  H   H605      1.0  0.71923  0.48602  0.68113  1.0000
  C   C773      1.0  0.93812  0.00309  0.73588  1.0000
  C   C774      1.0  0.59510  0.99834  0.97575  1.0000
  C   C775      1.0  0.93147  0.48945  0.75939  1.0000
  H   H606      1.0  0.62421  0.01182  0.69954  1.0000
  H   H607      1.0  0.69540  0.49350  0.92329  1.0000
  H   H608      1.0  0.62790  0.48495  0.99593  1.0000
  H   H609      1.0  0.62398  0.26488  0.67755  1.0000
  H   H610      1.0  0.98874  0.08082  0.93082  1.0000
  C   C776      1.0  0.81578  0.48547  0.73752  1.0000
  H   H611      1.0  0.88674  0.53620  0.11137  1.0000
  H   H612      1.0  0.70802  0.63168  0.15401  1.0000
  H   H613      1.0  0.70407  0.52749  0.03125  1.0000
  H   H614      1.0  0.52472  0.78532  0.27663  1.0000
  H   H615      1.0  0.84138  0.90399  0.29752  1.0000
  C   C777      1.0  0.95217  0.84016  0.23971  1.0000
  S   S112      1.0  0.96384  0.64720  0.13346  1.0000
  H   H616      1.0  0.56410  0.95262  0.11242  1.0000
  C   C778      1.0  0.95940  0.83277  0.20358  1.0000
  H   H617      1.0  0.93785  0.81782  0.07158  1.0000
  H   H618      1.0  0.88167  0.67116  0.19627  1.0000
  C   C779      1.0  0.83413  0.93647  0.30890  1.0000
  H   H619      1.0  0.97401  0.51624  0.06322  1.0000
  H   H620      1.0  0.90426  0.56527  0.17109  1.0000
  S   S113      1.0  0.58791  0.55373  0.11143  1.0000
  C   C780      1.0  0.81776  0.62235  0.08132  1.0000
  C   C781      1.0  0.83046  0.97424  0.28722  1.0000
  C   C782      1.0  0.82174  0.66798  0.08885  1.0000
  H   H621      1.0  0.81566  0.71927  0.12809  1.0000
  H   H622      1.0  0.63164  0.61303  0.17212  1.0000
  H   H623      1.0  0.73328  0.68733  0.25729  1.0000
  H   H624      1.0  0.89920  0.74703  0.08282  1.0000
  H   H625      1.0  0.60600  0.62909  0.23266  1.0000
  C   C783      1.0  0.95301  0.55197  0.01660  1.0000
  Fe  Fe60      1.0  0.63920  0.50094  0.12194  1.0000
  H   H626      1.0  0.83272  0.69092  0.06855  1.0000
  C   C784      1.0  0.96066  0.78905  0.19016  1.0000
  C   C785      1.0  0.95462  0.75275  0.21306  1.0000
  C   C786      1.0  0.94565  0.76028  0.24896  1.0000
  C   C787      1.0  0.94456  0.80400  0.26236  1.0000
  C   C788      1.0  0.63289  0.62075  0.01319  1.0000
  H   H627      1.0  0.93987  0.73214  0.26637  1.0000
  C   C789      1.0  0.99272  0.54791  0.26479  1.0000
  H   H628      1.0  0.58221  0.70701  0.17063  1.0000
  H   H629      1.0  0.77237  0.60471  0.24887  1.0000
  H   H630      1.0  0.73431  0.74756  0.16237  1.0000
  S   S114      1.0  0.96677  0.60623  0.03176  1.0000
  C   C790      1.0  0.69372  0.89099  0.29068  1.0000
  S   S115      1.0  0.71137  0.51613  0.13412  1.0000
  H   H631      1.0  0.86219  0.67546  0.31558  1.0000
  H   H632      1.0  0.71576  0.95659  0.11169  1.0000
  H   H633      1.0  0.78998  0.49692  0.17572  1.0000
  H   H634      1.0  0.89478  0.51635  0.22340  1.0000
  C   C791      1.0  0.72084  0.51514  0.18022  1.0000
  H   H635      1.0  0.82592  0.60979  0.05541  1.0000
  H   H636      1.0  0.75691  0.85732  0.29758  1.0000
  H   H637      1.0  0.82574  0.56490  0.28647  1.0000
  C   C792      1.0  0.92664  0.71376  0.03731  1.0000
  H   H638      1.0  0.51757  0.62368  0.11907  1.0000
  C   C793      1.0  0.88780  0.50352  0.19729  1.0000
  C   C794      1.0  0.69376  0.52389  0.24019  1.0000
  C   C795      1.0  0.95551  0.71739  0.00849  1.0000
  H   H639      1.0  0.95581  0.71892  0.20296  1.0000
  C   C796      1.0  0.54573  0.89176  0.13885  1.0000
  C   C797      1.0  0.54212  0.70204  0.21737  1.0000
  H   H640      1.0  0.62605  0.63526  0.03879  1.0000
  H   H641      1.0  0.65370  0.53443  0.19367  1.0000
  S   S116      1.0  0.52297  0.56864  0.19128  1.0000
  C   C798      1.0  0.95995  0.51343  0.03699  1.0000
  H   H642      1.0  0.91009  0.68238  0.04279  1.0000
  H   H643      1.0  0.90701  0.57811  0.28056  1.0000
  C   C799      1.0  0.55666  0.95935  0.02269  1.0000
  H   H644      1.0  0.83427  0.97116  0.25893  1.0000
  C   C800      1.0  0.57025  0.72420  0.19390  1.0000
  C   C801      1.0  0.58257  0.76849  0.20032  1.0000
  C   C802      1.0  0.56609  0.79132  0.22996  1.0000
  C   C803      1.0  0.53824  0.76863  0.25370  1.0000
  P   P28       1.0  0.58210  0.84880  0.23744  1.0000
  C   C804      1.0  0.63758  0.85115  0.25654  1.0000
  C   C805      1.0  0.58050  0.87884  0.19608  1.0000
  C   C806      1.0  0.60475  0.91864  0.19206  1.0000
  C   C807      1.0  0.59895  0.94501  0.16188  1.0000
  C   C808      1.0  0.56944  0.93163  0.13533  1.0000
  S   S117      1.0  0.53782  0.53165  0.01766  1.0000
  C   C809      1.0  0.55050  0.86587  0.16938  1.0000
  C   C810      1.0  0.65087  0.88890  0.27594  1.0000
  C   C811      1.0  0.87810  0.65601  0.33633  1.0000
  C   C812      1.0  0.72370  0.85550  0.28621  1.0000
  C   C813      1.0  0.71078  0.81776  0.26706  1.0000
  C   C814      1.0  0.66795  0.81555  0.25222  1.0000
  C   C815      1.0  0.54354  0.87718  0.26648  1.0000
  H   H645      1.0  0.50466  0.70676  0.26566  1.0000
  C   C816      1.0  0.94333  0.79001  0.05381  1.0000
  H   H646      1.0  0.73404  0.79024  0.26358  1.0000
  C   C817      1.0  0.51992  0.89652  0.32582  1.0000
  C   C818      1.0  0.54669  0.87114  0.30315  1.0000
  C   C819      1.0  0.51231  0.90804  0.25288  1.0000
  C   C820      1.0  0.89293  0.53111  0.16781  1.0000
  H   H647      1.0  0.95078  0.87386  0.24991  1.0000
  H   H648      1.0  0.60441  0.78520  0.18182  1.0000
  C   C821      1.0  0.68622  0.52498  0.20364  1.0000
  H   H649      1.0  0.62683  0.93044  0.21267  1.0000
  H   H650      1.0  0.61659  0.97644  0.15961  1.0000
  C   C822      1.0  0.73206  0.50731  0.02290  1.0000
  H   H651      1.0  0.90021  0.98591  0.16205  1.0000
  S   S118      1.0  0.93002  0.81323  0.30673  1.0000
  H   H652      1.0  0.62825  0.91696  0.27964  1.0000
  H   H653      1.0  0.65632  0.66750  0.27491  1.0000
  C   C823      1.0  0.99500  0.94692  0.08882  1.0000
  C   C824      1.0  0.52660  0.72400  0.24748  1.0000
  H   H654      1.0  0.65883  0.78600  0.23752  1.0000
  H   H655      1.0  0.70190  0.60777  0.02498  1.0000
  C   C825      1.0  0.93205  0.98874  0.17558  1.0000
  H   H656      1.0  0.57042  0.84750  0.31416  1.0000
  H   H657      1.0  0.78336  0.58500  0.16127  1.0000
  C   C826      1.0  0.66595  0.99222  0.08147  1.0000
  C   C827      1.0  0.94096  0.96268  0.20547  1.0000
  S   S119      1.0  0.96796  0.78074  0.14455  1.0000
  C   C828      1.0  0.76366  0.80803  0.18228  1.0000
  C   C829      1.0  0.79683  0.82657  0.20371  1.0000
  C   C830      1.0  0.82624  0.79860  0.22225  1.0000
  C   C831      1.0  0.82274  0.75207  0.21926  1.0000
  C   C832      1.0  0.78997  0.73312  0.19726  1.0000
  C   C833      1.0  0.76020  0.76150  0.17906  1.0000
  P   P29       1.0  0.78405  0.67314  0.19283  1.0000
  C   C834      1.0  0.72689  0.66047  0.20455  1.0000
  C   C835      1.0  0.79701  0.65427  0.14887  1.0000
  C   C836      1.0  0.79387  0.60848  0.14118  1.0000
  C   C837      1.0  0.80352  0.59268  0.10743  1.0000
  H   H658      1.0  0.52234  0.88158  0.11851  1.0000
  C   C838      1.0  0.81162  0.68399  0.12260  1.0000
  C   C839      1.0  0.71130  0.67145  0.23837  1.0000
  C   C840      1.0  0.66777  0.66039  0.24843  1.0000
  C   C841      1.0  0.63927  0.63903  0.22461  1.0000
  C   C842      1.0  0.65383  0.62982  0.19044  1.0000
  C   C843      1.0  0.69750  0.64028  0.18040  1.0000
  C   C844      1.0  0.82280  0.64304  0.22093  1.0000
  C   C845      1.0  0.86906  0.64868  0.21637  1.0000
  C   C846      1.0  0.89941  0.62557  0.23797  1.0000
  C   C847      1.0  0.88375  0.59591  0.26362  1.0000
  C   C848      1.0  0.83794  0.58876  0.26726  1.0000
  C   C849      1.0  0.80754  0.61198  0.24595  1.0000
  H   H659      1.0  0.74063  0.82977  0.16814  1.0000
  H   H660      1.0  0.79965  0.86262  0.20606  1.0000
  H   H661      1.0  0.85198  0.81292  0.23893  1.0000
  H   H662      1.0  0.84567  0.73147  0.23433  1.0000
  H   H663      1.0  0.52935  0.83677  0.17256  1.0000
  H   H664      1.0  0.93510  0.63036  0.23465  1.0000
  H   H665      1.0  0.91586  0.93992  0.21540  1.0000
  H   H666      1.0  0.79977  0.55732  0.10169  1.0000
  C   C850      1.0  0.73574  0.51193  0.25375  1.0000
  C   C851      1.0  0.97349  0.79339  0.02566  1.0000
  H   H667      1.0  0.77810  0.97834  0.07241  1.0000
  C   C852      1.0  0.70933  0.97735  0.08872  1.0000
  C   C853      1.0  0.92053  0.75006  0.05991  1.0000
  S   S120      1.0  0.74381  0.51175  0.29987  1.0000
  C   C854      1.0  0.97329  0.50852  0.27764  1.0000
  H   H668      1.0  0.50839  0.91335  0.22481  1.0000
  H   H669      1.0  0.66682  0.53219  0.25801  1.0000
  Fe  Fe61      1.0  0.54689  0.51738  0.15175  1.0000
  H   H670      1.0  0.53241  0.66784  0.21206  1.0000
  C   C855      1.0  0.76318  0.50428  0.19375  1.0000
  H   H671      1.0  0.70362  0.92036  0.30551  1.0000
  H   H672      1.0  0.96379  0.86094  0.18595  1.0000
  H   H673      1.0  0.54715  0.95567  0.05000  1.0000
  H   H674      1.0  0.91748  0.89646  0.01784  1.0000
  C   C856      1.0  0.88316  0.51464  0.13422  1.0000
  H   H675      1.0  0.94116  0.68715  0.32881  1.0000
  S   S121      1.0  0.87059  0.50035  0.33339  1.0000
  C   C857      1.0  0.77054  0.50201  0.23045  1.0000
  H   H676      1.0  0.96149  0.50680  0.30446  1.0000
  Fe  Fe62      1.0  0.55748  0.50662  0.07231  1.0000
  H   H677      1.0  0.63914  0.98162  0.09840  1.0000
  Fe  Fe63      1.0  0.96953  0.86738  0.33415  1.0000
  C   C858      1.0  0.74443  0.98973  0.06665  1.0000
  H   H678      1.0  0.52219  0.89918  0.00755  1.0000
  C   C859      1.0  0.98205  0.96649  0.22287  1.0000
  H   H679      1.0  0.98854  0.94725  0.24660  1.0000
  H   H680      1.0  0.98508  0.98184  0.08927  1.0000
  C   C860      1.0  0.99383  0.92337  0.05703  1.0000
  H   H681      1.0  0.98409  0.94081  0.03316  1.0000
  H   H682      1.0  0.89206  0.83245  0.37743  1.0000
  C   C861      1.0  0.86699  0.85444  0.51320  1.0000
  C   C862      1.0  0.91148  0.72597  0.54477  1.0000
  H   H683      1.0  0.97988  0.82104  0.46101  1.0000
  H   H684      1.0  0.98852  0.56099  0.34468  1.0000
  C   C863      1.0  0.89495  0.82027  0.43343  1.0000
  C   C864      1.0  0.96424  0.50023  0.44301  1.0000
  C   C865      1.0  0.54507  0.88382  0.55226  1.0000
  C   C866      1.0  0.82733  0.86123  0.49386  1.0000
  H   H685      1.0  0.96526  0.62579  0.45140  1.0000
  C   C867      1.0  0.61329  0.85323  0.38424  1.0000
  H   H686      1.0  0.66347  0.51131  0.63718  1.0000
  H   H687      1.0  0.55571  0.69606  0.46529  1.0000
  H   H688      1.0  0.88738  0.69451  0.40954  1.0000
  C   C868      1.0  0.55773  0.86783  0.42950  1.0000
  H   H689      1.0  0.81317  0.78340  0.53677  1.0000
  C   C869      1.0  0.52759  0.71848  0.46127  1.0000
  C   C870      1.0  0.53425  0.76473  0.45905  1.0000
  C   C871      1.0  0.96538  0.54886  0.50630  1.0000
  C   C872      1.0  0.92459  0.53772  0.48996  1.0000
  H   H690      1.0  0.89343  0.54779  0.50201  1.0000
  H   H691      1.0  0.81683  0.83726  0.47417  1.0000
  S   S122      1.0  0.93983  0.93166  0.35463  1.0000
  C   C873      1.0  0.85358  0.62422  0.35499  1.0000
  C   C874      1.0  0.87441  0.59861  0.38119  1.0000
  H   H692      1.0  0.91990  0.66447  0.57399  1.0000
  C   C875      1.0  0.94463  0.63702  0.37068  1.0000
  H   H693      1.0  0.81859  0.61883  0.34884  1.0000
  H   H694      1.0  0.84075  0.66118  0.59274  1.0000
  S   S123      1.0  0.95548  0.92599  0.45956  1.0000
  C   C876      1.0  0.63249  0.89503  0.39050  1.0000
  C   C877      1.0  0.83687  0.75786  0.54482  1.0000
  C   C878      1.0  0.50434  0.89142  0.56919  1.0000
  H   H695      1.0  0.55977  0.80842  0.39677  1.0000
  C   C879      1.0  0.89671  0.69056  0.56585  1.0000
  C   C880      1.0  0.93534  0.98663  0.51120  1.0000
  H   H696      1.0  0.56773  0.77782  0.46188  1.0000
  C   C881      1.0  0.81365  0.93061  0.52505  1.0000
  H   H697      1.0  0.83314  0.91168  0.36232  1.0000
  H   H698      1.0  0.90883  0.88117  0.55485  1.0000
  H   H699      1.0  0.82952  0.52658  0.65425  1.0000
  C   C882      1.0  0.95877  0.81581  0.51556  1.0000
  C   C883      1.0  0.89563  0.78788  0.46037  1.0000
  H   H700      1.0  0.86199  0.94772  0.56493  1.0000
  H   H701      1.0  0.85542  0.57358  0.39533  1.0000
  H   H702      1.0  0.57761  0.86671  0.50376  1.0000
  H   H703      1.0  0.62686  0.83177  0.36389  1.0000
  H   H704      1.0  0.55689  0.95653  0.65649  1.0000
  H   H705      1.0  0.53059  0.71367  0.65756  1.0000
  H   H706      1.0  0.52304  0.89270  0.35411  1.0000
  H   H707      1.0  0.62829  0.95628  0.42007  1.0000
  C   C884      1.0  0.85210  0.68873  0.57644  1.0000
  C   C885      1.0  0.57724  0.90973  0.43561  1.0000
  C   C886      1.0  0.88929  0.76204  0.38941  1.0000
  C   C887      1.0  0.54583  0.87318  0.51634  1.0000
  H   H708      1.0  0.88725  0.75225  0.36195  1.0000
  H   H709      1.0  0.79376  0.96055  0.52915  1.0000
  H   H710      1.0  0.56833  0.97508  0.59307  1.0000
  C   C888      1.0  0.91980  0.60448  0.38871  1.0000
  H   H711      1.0  0.94612  0.72664  0.53668  1.0000
  H   H712      1.0  0.89437  0.71657  0.47148  1.0000
  P   P30       1.0  0.50640  0.85334  0.45144  1.0000
  C   C889      1.0  0.92335  0.66239  0.34400  1.0000
  C   C890      1.0  0.88973  0.72962  0.41609  1.0000
  H   H713      1.0  0.57607  0.88626  0.56693  1.0000
  C   C891      1.0  0.61446  0.92321  0.41616  1.0000
  H   H714      1.0  0.98183  0.65393  0.51060  1.0000
  H   H715      1.0  0.96555  0.56761  0.53065  1.0000
  H   H716      1.0  0.66060  0.90621  0.37485  1.0000
  S   S124      1.0  0.97307  0.53447  0.66447  1.0000
  C   C892      1.0  0.57563  0.83987  0.40329  1.0000
  C   C893      1.0  0.89186  0.80734  0.39812  1.0000
  C   C894      1.0  0.80108  0.89942  0.49951  1.0000
  H   H717      1.0  0.93855  0.95861  0.52910  1.0000
  H   H718      1.0  0.89743  0.85552  0.43970  1.0000
  H   H719      1.0  0.56272  0.93273  0.45449  1.0000
  C   C895      1.0  0.89330  0.74237  0.45141  1.0000
  H   H720      1.0  0.93550  0.58305  0.40822  1.0000
  H   H721      1.0  0.81949  0.98576  0.38874  1.0000
  C   C896      1.0  0.97354  0.81672  0.55074  1.0000
  C   C897      1.0  0.94200  0.98010  0.47495  1.0000
  C   C898      1.0  0.88170  0.76001  0.53419  1.0000
  C   C899      1.0  0.49705  0.72499  0.65123  1.0000
  C   C900      1.0  0.50582  0.87063  0.49700  1.0000
  P   P31       1.0  0.90065  0.80482  0.50590  1.0000
  H   H722      1.0  0.95026  0.81200  0.57222  1.0000
  H   H723      1.0  0.78758  0.72082  0.57409  1.0000
  Fe  Fe64      1.0  0.97982  0.91730  0.40361  1.0000
  C   C901      1.0  0.87875  0.88547  0.53936  1.0000
  C   C902      1.0  0.92388  0.51349  0.45823  1.0000
  H   H724      1.0  0.51818  0.78978  0.63270  1.0000
  C   C903      1.0  0.82220  0.72236  0.56593  1.0000
  C   C904      1.0  0.85215  0.92336  0.54522  1.0000
  H   H725      1.0  0.77116  0.90502  0.48393  1.0000
  H   H726      1.0  0.49746  0.98591  0.55529  1.0000
  C   C905      1.0  0.82168  0.98290  0.36032  1.0000
  C   C906      1.0  0.99005  0.82125  0.48837  1.0000
  S   S125      1.0  0.53094  0.99553  0.38516  1.0000
  C   C907      1.0  0.98809  0.65346  0.45403  1.0000
  S   S126      1.0  0.87193  0.49969  0.43897  1.0000
  C   C908      1.0  0.82948  0.94079  0.34542  1.0000
  C   C909      1.0  0.55185  0.99046  0.64707  1.0000
  H   H727      1.0  0.50363  0.90028  0.59690  1.0000
  C   C910      1.0  0.49783  0.79371  0.45335  1.0000
  H   H728      1.0  0.88762  0.91038  0.90752  1.0000
  C   C911      1.0  0.75379  0.51383  0.84853  1.0000
  H   H729      1.0  0.95769  0.86964  0.89280  1.0000
  C   C912      1.0  0.96215  0.53170  0.71004  1.0000
  C   C913      1.0  0.93089  0.68027  0.91408  1.0000
  C   C914      1.0  0.93494  0.72682  0.91193  1.0000
  H   H730      1.0  0.86776  0.92345  0.97023  1.0000
  C   C915      1.0  0.93552  0.52688  0.78116  1.0000
  H   H731      1.0  0.91011  0.50289  0.94245  1.0000
  H   H732      1.0  0.82797  0.52287  0.78503  1.0000
  C   C916      1.0  0.93466  0.54774  0.98259  1.0000
  C   C917      1.0  0.82428  0.99048  0.85921  1.0000
  C   C918      1.0  0.78085  0.54872  0.86051  1.0000
  C   C919      1.0  0.97911  0.75701  0.00281  1.0000
  C   C920      1.0  0.58569  0.58309  0.85725  1.0000
  C   C921      1.0  0.55502  0.92991  0.96323  1.0000
  C   C922      1.0  0.76354  0.65357  0.96309  1.0000
  C   C923      1.0  0.77653  0.56444  0.89510  1.0000
  H   H733      1.0  0.50386  0.56104  0.95067  1.0000
  H   H734      1.0  0.96897  0.82962  0.82612  1.0000
  C   C924      1.0  0.92723  0.89156  0.99063  1.0000
  C   C925      1.0  0.92348  0.50555  0.96891  1.0000
  H   H735      1.0  0.83437  0.56874  0.98694  1.0000
  H   H736      1.0  0.72991  0.66012  0.95367  1.0000
  H   H737      1.0  0.54351  0.90498  0.94460  1.0000
  H   H738      1.0  0.94287  0.97210  0.72166  1.0000
  C   C926      1.0  0.94882  0.87554  0.92011  1.0000
  C   C927      1.0  0.82877  0.52539  0.68281  1.0000
  H   H739      1.0  0.85120  0.59158  0.75356  1.0000
  C   C928      1.0  0.95427  0.56638  0.76762  1.0000
  C   C929      1.0  0.54574  0.51576  0.87425  1.0000
  H   H740      1.0  0.61673  0.59987  0.85112  1.0000
  C   C930      1.0  0.50519  0.53944  0.87138  1.0000
  C   C931      1.0  0.67564  0.60460  0.00538  1.0000
  H   H741      1.0  0.78144  0.72336  0.96181  1.0000
  C   C932      1.0  0.54307  0.92659  0.99872  1.0000
  H   H742      1.0  0.95768  0.59536  0.78444  1.0000
  H   H743      1.0  0.80588  0.56292  0.84321  1.0000
  C   C933      1.0  0.96786  0.87037  0.98238  1.0000
  C   C934      1.0  0.82204  0.60220  0.98159  1.0000
  C   C935      1.0  0.84106  0.56342  0.70189  1.0000
  H   H744      1.0  0.79828  0.59107  0.90378  1.0000
  H   H745      1.0  0.85206  0.59319  0.68811  1.0000
  C   C936      1.0  0.83656  0.68196  0.97885  1.0000
  P   P32       1.0  0.73999  0.56343  0.96333  1.0000
  S   S127      1.0  0.54139  0.50677  0.71288  1.0000
  C   C937      1.0  0.85117  0.63834  0.98583  1.0000
  C   C938      1.0  0.71894  0.50948  0.90592  1.0000
  H   H746      1.0  0.89816  0.66505  0.91570  1.0000
  H   H747      1.0  0.61755  0.52008  0.86882  1.0000
  H   H748      1.0  0.65519  0.56740  0.92187  1.0000
  H   H749      1.0  0.98062  0.78207  0.90681  1.0000
  C   C939      1.0  0.75521  0.51648  0.99145  1.0000
  H   H750      1.0  0.79386  0.96881  0.90775  1.0000
  C   C940      1.0  0.97722  0.74617  0.90929  1.0000
  C   C941      1.0  0.60708  0.59814  0.95543  1.0000
  C   C942      1.0  0.64970  0.58163  0.94760  1.0000
  C   C943      1.0  0.68422  0.58393  0.97280  1.0000
  H   H751      1.0  0.59056  0.96817  0.92426  1.0000
  C   C944      1.0  0.58603  0.53798  0.86734  1.0000
  C   C945      1.0  0.96905  0.65309  0.91322  1.0000
  H   H752      1.0  0.92999  0.57711  0.96629  1.0000
  S   S128      1.0  0.91581  0.52540  0.82484  1.0000
  H   H753      1.0  0.96492  0.61711  0.91397  1.0000
  C   C946      1.0  0.84045  0.56259  0.73872  1.0000
  C   C947      1.0  0.54518  0.60632  0.85425  1.0000
  H   H754      1.0  0.97219  0.97955  0.78286  1.0000
  C   C948      1.0  0.89853  0.90619  0.96369  1.0000
  C   C949      1.0  0.77779  0.60961  0.97049  1.0000
  H   H755      1.0  0.90538  0.74787  0.91204  1.0000
  H   H756      1.0  0.51819  0.59867  0.70291  1.0000
  C   C950      1.0  0.74520  0.54507  0.91805  1.0000
  H   H757      1.0  0.98151  0.59944  0.72159  1.0000
  C   C951      1.0  0.82735  0.52381  0.75647  1.0000
  C   C952      1.0  0.49805  0.58588  0.72429  1.0000
  H   H758      1.0  0.88517  0.63244  0.99460  1.0000
  C   C953      1.0  0.79276  0.68956  0.96745  1.0000
  C   C954      1.0  0.90946  0.89845  0.92841  1.0000
  H   H759      1.0  0.54461  0.64103  0.84577  1.0000
  H   H760      1.0  0.58026  0.59547  0.93626  1.0000
  H   H761      1.0  0.82390  0.95753  0.84733  1.0000
  C   C955      1.0  0.96793  0.56870  0.73214  1.0000
  H   H762      1.0  0.56520  0.62901  0.99457  1.0000
  C   C956      1.0  0.97793  0.86170  0.94698  1.0000
  H   H763      1.0  0.75749  0.50104  0.82196  1.0000
  H   H764      1.0  0.96086  0.68893  0.99134  1.0000
  H   H765      1.0  0.85925  0.70985  0.98206  1.0000
  H   H766      1.0  0.99460  0.90030  0.79846  1.0000
  C   C957      1.0  0.50505  0.58458  0.86156  1.0000
  C   C958      1.0  0.59863  0.61746  0.98823  1.0000
  H   H767      1.0  0.57037  0.50036  0.95096  1.0000
  C   C959      1.0  0.58126  0.96564  0.95178  1.0000
  C   C960      1.0  0.49987  0.54032  0.73281  1.0000
  H   H768      1.0  0.95735  0.99468  0.97085  1.0000
