data_image0
_chemical_formula_structural       CHCFeSFeS2FeSFeS3C7H2CHC3H4CHCHC4HSCHC2HC2HC3HPC4HC4HCHC2HCHCHCHCH2C3HC2H4CHCFeH2SHCHCHFeH2CHCHCHC3HCSH3CH2PC2H2CHCFeS2FeS2FeSFeS3H3C3SCHC2SH7CHCH4CHC2H2SHC6HC2HCPCH3C3HC4HC3H3C3H3C6HCH3C3PH2CH7C3HC3H2C5SCHC3HC2HCHFeS2FeS2Fe2S3CH4C8H4C3H2CHCH3CHCH3SC3HCH4CHCHC2HFeSHCHC2HSC3HC4H2C3H4C3HPC5HC2H4C3HC2HCSHCHSHCHCH2C4H2C4H4CH2C5HCHC2FeS2FeS2FeSFeS4HCH3C10H2C2H2CHCHC2HC6H3CH6FeHC3HCPHPH2CHC2HCHC2H2CH2C2PH2CHC2SH4C4HC3HC2H2C2HC2HC6SCSHSFeSHCSH2CHSH2SC3HC6H4C2H2CH3PCHFeHC5H3CH6C5PC16SC2H4FeH2SCH5C2H3FeSHCH3CHC4HCH2CS2CHCHSH2C2H2SHSH2CHPC4H3CSC5H2C3H3C2HC4PC20H9SH8C5SH2C4HCH5C2FeH3C4HCHFeH2C6HCHCSH2C4HFeHSH3C2FeCFeHC3HCS2FeSPCSCSC2SC4H2C6H7C2H2FeSC2HC2HC2H2SCFeC2H2SPC2H2C4HFeC2H3CH3S2H2SC3PHSCHCH2CH2C2HC4HFeC2SC2HCHC3HCHSHCH4C2S2CHSC3FeSHC6HC2HC2H2C5H2C6PC13HC3H13C3H4CH2CH2CH2CHCHCHCHCH4CFeCSH5CHCHCHC2H3PC7H2CH2C2SHC3H2C2HFeCHCSFeCHCFeCSFeS2H3FeSC2S2CHC3SCHCH3C6H4C6HCHCHFeH2CSH3C3HCHC5HC2H2C2H5FeC2H2CH4CHCH4CHSC2HC6PC4HSC3HC3HC2PHSCH3FeSCFeSHFeSFeS3C4HC2S2C3H3C2Fe2H2CFeHC4H2C3H6C2H2C4PC5HC3H2SH2CHC2FeHCHSHCH6CHC2HC2PC3HC9H9C4FeSHCHCHFeHSCHFeS2PHFeSCSCHC7H4CHCH2C2HC3HCHCPC3HC9HCH9C2H2CHC4PH5CH2C9H2C2SH2C3H4CHCHCH3C4HSC3HC4H2FeH3CHC4HSHCHCHC2FeC2FeS2FeCFeSFeCS2H2CHC3H2CHC2HC2HFeSCHC4HSC3H2SHC4H2C2SC3HC2H2C2HC2SH3CPC7H2C5HCHC2H6CH2CH2FeSH3FeC2H2CSHCH3C
_chemical_formula_sum              "C792 H628 Fe64 S128 P25"
_cell_length_a       28.2836
_cell_length_b       28.0979
_cell_length_c       28.0247
_cell_angle_alpha    90.3248
_cell_angle_beta     90.3193
_cell_angle_gamma    87.7668

_space_group_name_H-M_alt    "P 1"
_space_group_IT_number       1

loop_
  _space_group_symop_operation_xyz
  'x, y, z'

loop_
  _atom_site_type_symbol
  _atom_site_label
  _atom_site_symmetry_multiplicity
  _atom_site_fract_x
  _atom_site_fract_y
  _atom_site_fract_z
  _atom_site_occupancy
  C   C1        1.0  0.20380  0.07452  0.21471  1.0000
  H   H1        1.0  0.08556  0.36417  0.23394  1.0000
  C   C2        1.0  0.29646  0.15983  0.06739  1.0000
  Fe  Fe1       1.0  0.30229  0.25067  0.25636  1.0000
  S   S1        1.0  0.23703  0.20942  0.27104  1.0000
  Fe  Fe2       1.0  0.24733  0.34547  0.25293  1.0000
  S   S2        1.0  0.17707  0.31269  0.26573  1.0000
  S   S3        1.0  0.27116  0.41906  0.23367  1.0000
  Fe  Fe3       1.0  0.21691  0.26952  0.32230  1.0000
  S   S4        1.0  0.18169  0.25015  0.39296  1.0000
  Fe  Fe4       1.0  0.20073  0.25391  0.21433  1.0000
  S   S5        1.0  0.16201  0.22639  0.14731  1.0000
  S   S6        1.0  0.28550  0.30605  0.31231  1.0000
  S   S7        1.0  0.26749  0.29111  0.19686  1.0000
  C   C3        1.0  0.17842  0.24055  0.49097  1.0000
  C   C4        1.0  0.13116  0.17675  0.12420  1.0000
  C   C5        1.0  0.12851  0.17043  0.07436  1.0000
  C   C6        1.0  0.09876  0.13662  0.05364  1.0000
  C   C7        1.0  0.07234  0.10742  0.08262  1.0000
  C   C8        1.0  0.07642  0.11231  0.13246  1.0000
  C   C9        1.0  0.10546  0.14667  0.15311  1.0000
  H   H2        1.0  0.14873  0.19285  0.05157  1.0000
  H   H3        1.0  0.28032  0.42521  0.40534  1.0000
  C   C10       1.0  0.02423  0.33889  0.47403  1.0000
  H   H4        1.0  0.10685  0.15024  0.19132  1.0000
  C   C11       1.0  0.22801  0.30234  0.46311  1.0000
  C   C12       1.0  0.19683  0.26622  0.45276  1.0000
  C   C13       1.0  0.02654  0.29093  0.01304  1.0000
  H   H5        1.0  0.24171  0.32283  0.43416  1.0000
  H   H6        1.0  0.05830  0.24749  0.12262  1.0000
  H   H7        1.0  0.23601  0.07872  0.42123  1.0000
  H   H8        1.0  0.25460  0.17827  0.44589  1.0000
  C   C14       1.0  0.24498  0.47589  0.24607  1.0000
  H   H9        1.0  0.25775  0.19040  0.12739  1.0000
  C   C15       1.0  0.27478  0.24717  0.02249  1.0000
  H   H10       1.0  0.18401  0.45079  0.28242  1.0000
  C   C16       1.0  0.32947  0.36682  0.42019  1.0000
  C   C17       1.0  0.08617  0.34790  0.36947  1.0000
  C   C18       1.0  0.33149  0.18327  0.35370  1.0000
  C   C19       1.0  0.26906  0.09336  0.14265  1.0000
  H   H11       1.0  0.31709  0.44428  0.32744  1.0000
  S   S8        1.0  0.04624  0.19491  0.47888  1.0000
  C   C20       1.0  0.31093  0.40460  0.39275  1.0000
  H   H12       1.0  0.21543  0.06793  0.09434  1.0000
  C   C21       1.0  0.04277  0.26922  0.30228  1.0000
  C   C22       1.0  0.09441  0.18239  0.31192  1.0000
  H   H13       1.0  0.15882  0.05088  0.15780  1.0000
  C   C23       1.0  0.33503  0.01361  0.05752  1.0000
  C   C24       1.0  0.05084  0.36785  0.21751  1.0000
  H   H14       1.0  0.12901  0.20192  0.24712  1.0000
  C   C25       1.0  0.15203  0.38455  0.00641  1.0000
  C   C26       1.0  0.04540  0.29275  0.47735  1.0000
  C   C27       1.0  0.04644  0.38899  0.17252  1.0000
  H   H15       1.0  0.16149  0.46521  0.49295  1.0000
  P   P1        1.0  0.31156  0.10390  0.09626  1.0000
  C   C28       1.0  0.03565  0.23975  0.34180  1.0000
  C   C29       1.0  0.20229  0.03801  0.36636  1.0000
  C   C30       1.0  0.24115  0.05287  0.39265  1.0000
  C   C31       1.0  0.28669  0.03502  0.38162  1.0000
  H   H16       1.0  0.14394  0.44792  0.39972  1.0000
  C   C32       1.0  0.01065  0.35266  0.24150  1.0000
  C   C33       1.0  0.22500  0.07488  0.13106  1.0000
  C   C34       1.0  0.24724  0.09361  0.22653  1.0000
  C   C35       1.0  0.25892  0.23908  0.06877  1.0000
  H   H17       1.0  0.14291  0.36156  0.41856  1.0000
  C   C36       1.0  0.11820  0.37699  0.39267  1.0000
  H   H18       1.0  0.08344  0.28847  0.48105  1.0000
  C   C37       1.0  0.05424  0.36707  0.33532  1.0000
  C   C38       1.0  0.31362  0.22420  0.44294  1.0000
  H   H19       1.0  0.23806  0.26649  0.08740  1.0000
  C   C39       1.0  0.29369  0.00118  0.34481  1.0000
  H   H20       1.0  0.30438  0.24086  0.47647  1.0000
  C   C40       1.0  0.06100  0.19630  0.34623  1.0000
  H   H21       1.0  0.26996  0.14283  0.36599  1.0000
  C   C41       1.0  0.08716  0.44490  0.34830  1.0000
  H   H22       1.0  0.08868  0.25345  0.04086  1.0000
  C   C42       1.0  0.27948  0.10375  0.19065  1.0000
  H   H23       1.0  0.09550  0.13370  0.01531  1.0000
  H   H24       1.0  0.16693  0.05194  0.37466  1.0000
  C   C43       1.0  0.29363  0.16844  0.38070  1.0000
  C   C44       1.0  0.05466  0.41605  0.32541  1.0000
  C   C45       1.0  0.19327  0.48538  0.49429  1.0000
  H   H25       1.0  0.08717  0.31042  0.37821  1.0000
  C   C46       1.0  0.11884  0.42544  0.38200  1.0000
  C   C47       1.0  0.05366  0.26774  0.04865  1.0000
  H   H26       1.0  0.15346  0.21326  0.48353  1.0000
  H   H27       1.0  0.07765  0.40074  0.15433  1.0000
  H   H28       1.0  0.33750  0.16826  0.31861  1.0000
  H   H29       1.0  0.25560  0.10148  0.26346  1.0000
  C   C48       1.0  0.07514  0.25411  0.26707  1.0000
  H   H30       1.0  0.05623  0.17454  0.37752  1.0000
  C   C49       1.0  0.19267  0.06528  0.16700  1.0000
  Fe  Fe5       1.0  0.00986  0.12417  0.47720  1.0000
  H   H31       1.0  0.14108  0.02079  0.06948  1.0000
  H   H32       1.0  0.08189  0.36678  0.02617  1.0000
  S   S9        1.0  0.05472  0.05617  0.48605  1.0000
  H   H33       1.0  0.05609  0.09008  0.15536  1.0000
  C   C50       1.0  0.14243  0.00430  0.03458  1.0000
  H   H34       1.0  0.31306  0.35924  0.45378  1.0000
  C   C51       1.0  0.31367  0.16884  0.02154  1.0000
  H   H35       1.0  0.08190  0.27607  0.23652  1.0000
  Fe  Fe6       1.0  0.01250  0.02761  0.42489  1.0000
  H   H36       1.0  0.01219  0.25124  0.37044  1.0000
  H   H37       1.0  0.31217  0.12029  0.20051  1.0000
  C   C52       1.0  0.26993  0.19568  0.09131  1.0000
  H   H38       1.0  0.04586  0.36977  0.47516  1.0000
  C   C53       1.0  0.28500  0.18850  0.42555  1.0000
  H   H39       1.0  0.17846  0.06751  0.24240  1.0000
  C   C54       1.0  0.01782  0.25217  0.47528  1.0000
  H   H40       1.0  0.11561  0.14983  0.31663  1.0000
  C   C55       1.0  0.20196  0.48172  0.27018  1.0000
  C   C56       1.0  0.20894  0.00462  0.32970  1.0000
  C   C57       1.0  0.10159  0.21142  0.27254  1.0000
  H   H41       1.0  0.31649  0.04756  0.40198  1.0000
  C   C58       1.0  0.30752  0.05598  0.05274  1.0000
  S   S10       1.0  0.03296  0.06501  0.05926  1.0000
  H   H42       1.0  0.03045  0.43191  0.29945  1.0000
  H   H43       1.0  0.15671  0.40772  0.03705  1.0000
  H   H44       1.0  0.08787  0.48248  0.33998  1.0000
  C   C59       1.0  0.03672  0.26480  0.09524  1.0000
  H   H45       1.0  0.25322  0.09202  0.00975  1.0000
  H   H46       1.0  0.26605  0.28083  0.00517  1.0000
  P   P2        1.0  0.01623  0.32875  0.30130  1.0000
  C   C60       1.0  0.27538  0.06007  0.01437  1.0000
  C   C61       1.0  0.33180  0.41554  0.34929  1.0000
  H   H47       1.0  0.08018  0.00153  0.11802  1.0000
  H   H48       1.0  0.33586  0.14234  0.00337  1.0000
  C   C62       1.0  0.23765  0.46195  0.50141  1.0000
  H   H49       1.0  0.04291  0.34797  0.57502  1.0000
  C   C63       1.0  0.26806  0.48920  0.96839  1.0000
  Fe  Fe7       1.0  0.21794  0.33617  0.77301  1.0000
  S   S11       1.0  0.27672  0.28929  0.74211  1.0000
  S   S12       1.0  0.22763  0.40672  0.81325  1.0000
  Fe  Fe8       1.0  0.14394  0.26124  0.75200  1.0000
  S   S13       1.0  0.19797  0.21123  0.71759  1.0000
  S   S14       1.0  0.07176  0.23172  0.76529  1.0000
  Fe  Fe9       1.0  0.24487  0.22768  0.78066  1.0000
  S   S15       1.0  0.27159  0.16168  0.82344  1.0000
  Fe  Fe10      1.0  0.22429  0.27672  0.68222  1.0000
  S   S16       1.0  0.25072  0.29062  0.60675  1.0000
  S   S17       1.0  0.18981  0.27546  0.81554  1.0000
  S   S18       1.0  0.16672  0.32537  0.71228  1.0000
  H   H50       1.0  0.03975  0.15439  0.84960  1.0000
  H   H51       1.0  0.29517  0.06545  0.70024  1.0000
  H   H52       1.0  0.22120  0.39648  0.97817  1.0000
  C   C64       1.0  0.27837  0.07855  0.60393  1.0000
  C   C65       1.0  0.15430  0.01208  0.94942  1.0000
  C   C66       1.0  0.22582  0.28353  0.54862  1.0000
  S   S19       1.0  0.02577  0.49373  0.53539  1.0000
  C   C67       1.0  0.04760  0.05867  0.71797  1.0000
  H   H53       1.0  0.24791  0.01904  0.52333  1.0000
  C   C68       1.0  0.23069  0.48390  0.93573  1.0000
  C   C69       1.0  0.17647  0.08348  0.60602  1.0000
  S   S20       1.0  0.03016  0.05588  0.81442  1.0000
  H   H54       1.0  0.15481  0.48802  0.92389  1.0000
  H   H55       1.0  0.00622  0.40485  0.82118  1.0000
  H   H56       1.0  0.16635  0.11420  0.67699  1.0000
  H   H57       1.0  0.11265  0.17921  0.65078  1.0000
  H   H58       1.0  0.00954  0.37479  0.65289  1.0000
  H   H59       1.0  0.24114  0.14775  0.59816  1.0000
  H   H60       1.0  0.02988  0.22437  0.60895  1.0000
  C   C70       1.0  0.15105  0.03261  0.99487  1.0000
  H   H61       1.0  0.15428  0.01259  0.68571  1.0000
  C   C71       1.0  0.13477  0.12696  0.54301  1.0000
  H   H62       1.0  0.03401  0.32507  0.73162  1.0000
  H   H63       1.0  0.06180  0.36892  0.87954  1.0000
  H   H64       1.0  0.20882  0.34831  0.90513  1.0000
  H   H65       1.0  0.14798  0.00876  0.77319  1.0000
  C   C72       1.0  0.05718  0.43219  0.66119  1.0000
  H   H66       1.0  0.28778  0.06189  0.78775  1.0000
  C   C73       1.0  0.23415  0.46560  0.79077  1.0000
  C   C74       1.0  0.26800  0.47522  0.75631  1.0000
  H   H67       1.0  0.21463  0.03351  0.82449  1.0000
  H   H68       1.0  0.17869  0.06481  0.53085  1.0000
  S   S21       1.0  0.33430  0.45591  0.50947  1.0000
  H   H69       1.0  0.28782  0.07881  0.88207  1.0000
  C   C75       1.0  0.05702  0.37847  0.59328  1.0000
  C   C76       1.0  0.09423  0.40260  0.57313  1.0000
  C   C77       1.0  0.11272  0.44177  0.59683  1.0000
  C   C78       1.0  0.31727  0.14637  0.86533  1.0000
  C   C79       1.0  0.27389  0.12729  0.59260  1.0000
  C   C80       1.0  0.08597  0.46705  0.83321  1.0000
  H   H70       1.0  0.12380  0.39993  0.82247  1.0000
  C   C81       1.0  0.20655  0.44029  0.65970  1.0000
  C   C82       1.0  0.25149  0.42972  0.64107  1.0000
  H   H71       1.0  0.10891  0.39084  0.53921  1.0000
  C   C83       1.0  0.11240  0.43354  0.80660  1.0000
  P   P3        1.0  0.22745  0.04638  0.62249  1.0000
  C   C84       1.0  0.02529  0.03443  0.75487  1.0000
  H   H72       1.0  0.14179  0.45979  0.58080  1.0000
  H   H73       1.0  0.18495  0.41126  0.66941  1.0000
  H   H74       1.0  0.26438  0.39297  0.63801  1.0000
  C   C85       1.0  0.11260  0.48771  0.73913  1.0000
  C   C86       1.0  0.27894  0.46629  0.62458  1.0000
  C   C87       1.0  0.04351  0.04357  0.67009  1.0000
  H   H75       1.0  0.14745  0.41833  0.74065  1.0000
  C   C88       1.0  0.31163  0.15040  0.57234  1.0000
  C   C89       1.0  0.31697  0.10186  0.88836  1.0000
  C   C90       1.0  0.01001  0.32455  0.91197  1.0000
  C   C91       1.0  0.10361  0.33120  0.96041  1.0000
  H   H76       1.0  0.31346  0.45804  0.60948  1.0000
  C   C92       1.0  0.16407  0.08863  0.55770  1.0000
  C   C93       1.0  0.22575  0.03818  0.68633  1.0000
  C   C94       1.0  0.21806  0.03398  0.78602  1.0000
  H   H77       1.0  0.31497  0.21843  0.96318  1.0000
  H   H78       1.0  0.26806  0.33753  0.51833  1.0000
  H   H79       1.0  0.06065  0.06270  0.64211  1.0000
  C   C95       1.0  0.03820  0.39360  0.63705  1.0000
  C   C96       1.0  0.09518  0.45614  0.64172  1.0000
  C   C97       1.0  0.13928  0.32736  0.92587  1.0000
  H   H80       1.0  0.32653  0.01673  0.60521  1.0000
  H   H81       1.0  0.06754  0.08979  0.72639  1.0000
  H   H82       1.0  0.13495  0.23435  0.97318  1.0000
  C   C98       1.0  0.18841  0.48751  0.66229  1.0000
  C   C99       1.0  0.06990  0.23832  0.93179  1.0000
  C   C100      1.0  0.11300  0.21678  0.94729  1.0000
  C   C101      1.0  0.12912  0.17303  0.92810  1.0000
  C   C102      1.0  0.10227  0.15025  0.89344  1.0000
  C   C103      1.0  0.18147  0.35102  0.93210  1.0000
  H   H83       1.0  0.30697  0.18754  0.56239  1.0000
  C   C104      1.0  0.04339  0.21512  0.89668  1.0000
  H   H84       1.0  0.09567  0.19050  0.56468  1.0000
  H   H85       1.0  0.15996  0.03408  0.91850  1.0000
  H   H86       1.0  0.28894  0.44637  0.74053  1.0000
  C   C105      1.0  0.24268  0.31065  0.51072  1.0000
  C   C106      1.0  0.15689  0.11604  0.63957  1.0000
  C   C107      1.0  0.12594  0.44404  0.75999  1.0000
  P   P4        1.0  0.05119  0.29684  0.95396  1.0000
  H   H87       1.0  0.07623  0.45939  0.86959  1.0000
  H   H88       1.0  0.04316  0.44209  0.69580  1.0000
  C   C108      1.0  0.25940  0.04981  0.76523  1.0000
  H   H89       1.0  0.32003  0.37953  0.78393  1.0000
  H   H90       1.0  0.01098  0.23100  0.88239  1.0000
  H   H91       1.0  0.13434  0.30578  0.89430  1.0000
  H   H92       1.0  0.23876  0.47206  0.89987  1.0000
  H   H93       1.0  0.17975  0.22819  0.56737  1.0000
  H   H94       1.0  0.16281  0.15721  0.93944  1.0000
  H   H95       1.0  0.11475  0.11675  0.87774  1.0000
  C   C109      1.0  0.05956  0.17134  0.87778  1.0000
  C   C110      1.0  0.12701  0.15383  0.62478  1.0000
  C   C111      1.0  0.27168  0.02284  0.98131  1.0000
  H   H96       1.0  0.33606  0.17619  0.74987  1.0000
  C   C112      1.0  0.26338  0.05188  0.71554  1.0000
  C   C113      1.0  0.19288  0.24907  0.53854  1.0000
  C   C114      1.0  0.11702  0.15992  0.57639  1.0000
  H   H97       1.0  0.24818  0.02687  0.95095  1.0000
  H   H98       1.0  0.03155  0.13610  0.59717  1.0000
  C   C115      1.0  0.01626  0.00456  0.65845  1.0000
  C   C116      1.0  0.01423  0.25876  0.76232  1.0000
  C   C117      1.0  0.32207  0.05419  0.59689  1.0000
  C   C118      1.0  0.18058  0.02001  0.75715  1.0000
  C   C119      1.0  0.18434  0.02210  0.70752  1.0000
  S   S22       1.0  0.32717  0.47571  0.94993  1.0000
  C   C120      1.0  0.02549  0.35848  0.87964  1.0000
  H   H99       1.0  0.12662  0.13204  0.50550  1.0000
  C   C121      1.0  0.27944  0.48752  0.50205  1.0000
  C   C122      1.0  0.00503  0.30428  0.74365  1.0000
  C   C123      1.0  0.18826  0.37864  0.97297  1.0000
  H   H100      1.0  0.15510  0.07049  0.99931  1.0000
  C   C124      1.0  0.18308  0.49257  0.94943  1.0000
  C   C125      1.0  0.30232  0.21208  0.99892  1.0000
  H   H101      1.0  0.23966  0.42371  0.50594  1.0000
  C   C126      1.0  0.10959  0.36134  0.99999  1.0000
  H   H102      1.0  0.27484  0.96674  0.21171  1.0000
  Fe  Fe11      1.0  0.18484  0.76787  0.16861  1.0000
  S   S23       1.0  0.23202  0.70232  0.16855  1.0000
  S   S24       1.0  0.13399  0.78078  0.10728  1.0000
  Fe  Fe12      1.0  0.21897  0.79959  0.26714  1.0000
  S   S25       1.0  0.26879  0.73537  0.27487  1.0000
  S   S26       1.0  0.21880  0.85764  0.32396  1.0000
  Fe  Fe13      1.0  0.28706  0.75008  0.19853  1.0000
  Fe  Fe14      1.0  0.20937  0.69320  0.24407  1.0000
  S   S27       1.0  0.17779  0.62525  0.27104  1.0000
  S   S28       1.0  0.24094  0.81657  0.19282  1.0000
  S   S29       1.0  0.15811  0.75653  0.24290  1.0000
  C   C127      1.0  0.20983  0.51070  0.02923  1.0000
  H   H103      1.0  0.22362  0.85091  0.09922  1.0000
  H   H104      1.0  0.30615  0.74635  0.01616  1.0000
  H   H105      1.0  0.27021  0.84647  0.42330  1.0000
  H   H106      1.0  0.23012  0.59848  0.48408  1.0000
  C   C128      1.0  0.26815  0.51641  0.23070  1.0000
  C   C129      1.0  0.04706  0.88692  0.12303  1.0000
  C   C130      1.0  0.16582  0.89042  0.33498  1.0000
  C   C131      1.0  0.13111  0.89518  0.29958  1.0000
  C   C132      1.0  0.09110  0.92534  0.30705  1.0000
  C   C133      1.0  0.08503  0.95008  0.35036  1.0000
  C   C134      1.0  0.11930  0.94461  0.38625  1.0000
  C   C135      1.0  0.15971  0.91480  0.37853  1.0000
  H   H107      1.0  0.13603  0.87685  0.26586  1.0000
  H   H108      1.0  0.06508  0.93019  0.27886  1.0000
  H   H109      1.0  0.22755  0.94836  0.06788  1.0000
  H   H110      1.0  0.18684  0.91168  0.40582  1.0000
  C   C136      1.0  0.20471  0.56819  0.26164  1.0000
  C   C137      1.0  0.24816  0.56239  0.23851  1.0000
  C   C138      1.0  0.01606  0.84305  0.38368  1.0000
  H   H111      1.0  0.26630  0.59327  0.22659  1.0000
  H   H112      1.0  0.30170  0.51214  0.21235  1.0000
  C   C139      1.0  0.04636  0.81227  0.22856  1.0000
  H   H113      1.0  0.08901  0.83148  0.36323  1.0000
  C   C140      1.0  0.00953  0.83010  0.25715  1.0000
  H   H114      1.0  0.19744  0.93972  0.24156  1.0000
  H   H115      1.0  0.19006  0.69452  0.33516  1.0000
  H   H116      1.0  0.32919  0.84197  0.35829  1.0000
  C   C141      1.0  0.19038  0.53469  0.48789  1.0000
  H   H117      1.0  0.09086  0.84425  0.45848  1.0000
  C   C142      1.0  0.25735  0.50301  0.01523  1.0000
  H   H118      1.0  0.30821  0.60876  0.15342  1.0000
  H   H119      1.0  0.07272  0.66747  0.19702  1.0000
  H   H120      1.0  0.07903  0.83089  0.22635  1.0000
  S   S30       1.0  0.03475  0.98829  0.35705  1.0000
  C   C143      1.0  0.15780  0.76904  0.42571  1.0000
  C   C144      1.0  0.11286  0.63605  0.13948  1.0000
  C   C145      1.0  0.14119  0.67776  0.39049  1.0000
  H   H121      1.0  0.14384  0.60543  0.07569  1.0000
  C   C146      1.0  0.12721  0.73975  0.45025  1.0000
  H   H122      1.0  0.13594  0.64184  0.37751  1.0000
  H   H123      1.0  0.11542  0.96460  0.41915  1.0000
  H   H124      1.0  0.09821  0.66927  0.45213  1.0000
  H   H125      1.0  0.25826  0.95840  0.29269  1.0000
  C   C147      1.0  0.05477  0.81590  0.36613  1.0000
  H   H126      1.0  0.25269  0.83204  0.01895  1.0000
  C   C148      1.0  0.25922  0.60936  0.09430  1.0000
  H   H127      1.0  0.23326  0.58936  0.11320  1.0000
  C   C149      1.0  0.24726  0.95719  0.18709  1.0000
  C   C150      1.0  0.11930  0.69380  0.43243  1.0000
  H   H128      1.0  0.14849  0.53219  0.29623  1.0000
  Fe  Fe15      1.0  0.06112  0.53997  0.48175  1.0000
  S   S31       1.0  0.11356  0.51751  0.01667  1.0000
  H   H129      1.0  0.14117  0.62274  0.16270  1.0000
  C   C151      1.0  0.28504  0.62448  0.37691  1.0000
  H   H130      1.0  0.08369  0.92783  0.48647  1.0000
  C   C152      1.0  0.30131  0.62046  0.11721  1.0000
  C   C153      1.0  0.18192  0.52780  0.27790  1.0000
  H   H131      1.0  0.02072  0.87982  0.39420  1.0000
  S   S32       1.0  0.01240  0.60301  0.49698  1.0000
  C   C154      1.0  0.13580  0.95526  0.02902  1.0000
  C   C155      1.0  0.30240  0.72868  0.42993  1.0000
  C   C156      1.0  0.33593  0.72601  0.39307  1.0000
  H   H132      1.0  0.29459  0.69730  0.45036  1.0000
  C   C157      1.0  0.25068  0.62386  0.04723  1.0000
  C   C158      1.0  0.17162  0.70718  0.36655  1.0000
  C   C159      1.0  0.07793  0.64341  0.06066  1.0000
  C   C160      1.0  0.25579  0.95861  0.13823  1.0000
  H   H133      1.0  0.26785  0.65861  0.36923  1.0000
  H   H134      1.0  0.17771  0.70051  0.03162  1.0000
  C   C161      1.0  0.11460  0.62663  0.09048  1.0000
  C   C162      1.0  0.27950  0.77218  0.44146  1.0000
  C   C163      1.0  0.25825  0.58376  0.37466  1.0000
  H   H135      1.0  0.21763  0.61493  0.03109  1.0000
  H   H136      1.0  0.24470  0.75510  0.07791  1.0000
  H   H137      1.0  0.31998  0.95471  0.42794  1.0000
  H   H138      1.0  0.06834  0.76006  0.17672  1.0000
  C   C164      1.0  0.20359  0.94294  0.20377  1.0000
  C   C165      1.0  0.16798  0.93138  0.17156  1.0000
  C   C166      1.0  0.17561  0.93477  0.12232  1.0000
  H   H139      1.0  0.20481  0.77405  0.36600  1.0000
  P   P5        1.0  0.13074  0.91731  0.08066  1.0000
  C   C167      1.0  0.28001  0.53885  0.38156  1.0000
  C   C168      1.0  0.14384  0.85610  0.06466  1.0000
  C   C169      1.0  0.19757  0.83042  0.08104  1.0000
  C   C170      1.0  0.21087  0.77121  0.06753  1.0000
  C   C171      1.0  0.16998  0.73777  0.03877  1.0000
  H   H140      1.0  0.01782  0.77624  0.08740  1.0000
  C   C172      1.0  0.10241  0.82217  0.03661  1.0000
  C   C173      1.0  0.23206  0.56036  0.48949  1.0000
  H   H141      1.0  0.28562  0.50678  0.04101  1.0000
  H   H142      1.0  0.22062  0.58685  0.36704  1.0000
  H   H143      1.0  0.25413  0.77403  0.47019  1.0000
  H   H144      1.0  0.07905  0.63533  0.02281  1.0000
  C   C174      1.0  0.07401  0.92573  0.11002  1.0000
  C   C175      1.0  0.05861  0.97150  0.12451  1.0000
  C   C176      1.0  0.04932  0.76871  0.35180  1.0000
  H   H145      1.0  0.13482  0.91919  0.18515  1.0000
  C   C177      1.0  0.17972  0.75261  0.38395  1.0000
  C   C178      1.0  0.28890  0.81298  0.41547  1.0000
  H   H146      1.0  0.16693  0.80340  0.43983  1.0000
  C   C179      1.0  0.03714  0.67882  0.12902  1.0000
  S   S33       1.0  0.13603  0.56580  0.47605  1.0000
  H   H147      1.0  0.07914  0.74798  0.33743  1.0000
  C   C180      1.0  0.32690  0.65960  0.04580  1.0000
  H   H148      1.0  0.32707  0.85230  0.21131  1.0000
  S   S34       1.0  0.01729  0.51584  0.41945  1.0000
  H   H149      1.0  0.05924  0.85083  0.11558  1.0000
  C   C181      1.0  0.22009  0.94777  0.10577  1.0000
  H   H150      1.0  0.06819  0.83783  0.02688  1.0000
  C   C182      1.0  0.03928  0.66941  0.07983  1.0000
  H   H151      1.0  0.02862  0.72817  0.44890  1.0000
  H   H152      1.0  0.31113  0.89485  0.28718  1.0000
  C   C183      1.0  0.28498  0.64824  0.02187  1.0000
  C   C184      1.0  0.01724  0.72910  0.48555  1.0000
  C   C185      1.0  0.11549  0.76245  0.02419  1.0000
  C   C186      1.0  0.07407  0.66169  0.15880  1.0000
  H   H153      1.0  0.01427  0.86211  0.27783  1.0000
  H   H154      1.0  0.20203  0.52033  0.06585  1.0000
  C   C187      1.0  0.33648  0.90870  0.26257  1.0000
  C   C188      1.0  0.04041  0.77157  0.20080  1.0000
  C   C189      1.0  0.01526  0.97903  0.14767  1.0000
  C   C190      1.0  0.33076  0.97616  0.02483  1.0000
  H   H155      1.0  0.25189  0.94165  0.48134  1.0000
  H   H156      1.0  0.08917  0.74063  0.00799  1.0000
  H   H157      1.0  0.01063  0.68116  0.05646  1.0000
  H   H158      1.0  0.29032  0.96759  0.12576  1.0000
  C   C191      1.0  0.32206  0.81048  0.37870  1.0000
  H   H159      1.0  0.25904  0.50744  0.37987  1.0000
  H   H160      1.0  0.33769  0.62724  0.29206  1.0000
  C   C192      1.0  0.33386  0.62049  0.38659  1.0000
  C   C193      1.0  0.32859  0.53467  0.39100  1.0000
  C   C194      1.0  0.33441  0.64699  0.09351  1.0000
  C   C195      1.0  0.10003  0.85262  0.49497  1.0000
  C   C196      1.0  0.25428  0.98554  0.31963  1.0000
  H   H161      1.0  0.17857  0.99264  0.30991  1.0000
  C   C197      1.0  0.17718  0.81144  0.00193  1.0000
  H   H162      1.0  0.30827  0.55704  0.49742  1.0000
  C   C198      1.0  0.27641  0.53698  0.49688  1.0000
  C   C199      1.0  0.00531  0.74829  0.35571  1.0000
  Fe  Fe16      1.0  0.22562  0.69508  0.74457  1.0000
  S   S35       1.0  0.17079  0.73844  0.78710  1.0000
  S   S36       1.0  0.25888  0.61933  0.74085  1.0000
  Fe  Fe17      1.0  0.25458  0.78224  0.68484  1.0000
  S   S37       1.0  0.20262  0.83198  0.72151  1.0000
  S   S38       1.0  0.30201  0.79530  0.62060  1.0000
  Fe  Fe18      1.0  0.22455  0.79550  0.78952  1.0000
  S   S39       1.0  0.24481  0.84279  0.85124  1.0000
  Fe  Fe19      1.0  0.15136  0.77301  0.71680  1.0000
  S   S40       1.0  0.08087  0.79895  0.68690  1.0000
  S   S41       1.0  0.28071  0.74987  0.75342  1.0000
  S   S42       1.0  0.20136  0.72605  0.67436  1.0000
  S   S43       1.0  0.01245  0.86041  0.93616  1.0000
  H   H163      1.0  0.22150  0.87029  0.61193  1.0000
  C   C200      1.0  0.26123  0.51334  0.62619  1.0000
  H   H164      1.0  0.12768  0.66985  0.71545  1.0000
  H   H165      1.0  0.05338  0.72041  0.74723  1.0000
  H   H166      1.0  0.31034  0.53232  0.84100  1.0000
  C   C201      1.0  0.31594  0.75080  0.97932  1.0000
  C   C202      1.0  0.23171  0.69827  0.56685  1.0000
  C   C203      1.0  0.17370  0.63746  0.57053  1.0000
  C   C204      1.0  0.13908  0.66973  0.55302  1.0000
  C   C205      1.0  0.22004  0.65163  0.57735  1.0000
  C   C206      1.0  0.30226  0.71860  0.94386  1.0000
  C   C207      1.0  0.29902  0.98075  0.98672  1.0000
  C   C208      1.0  0.21728  0.83463  0.90657  1.0000
  C   C209      1.0  0.24245  0.84198  0.94782  1.0000
  C   C210      1.0  0.17139  0.82084  0.91029  1.0000
  H   H167      1.0  0.27732  0.85606  0.94526  1.0000
  H   H168      1.0  0.15007  0.81795  0.87824  1.0000
  C   C211      1.0  0.24805  0.56092  0.76146  1.0000
  C   C212      1.0  0.21424  0.55157  0.79605  1.0000
  H   H169      1.0  0.16484  0.60088  0.57687  1.0000
  H   H170      1.0  0.19336  0.58065  0.81172  1.0000
  C   C213      1.0  0.22601  0.90304  0.59244  1.0000
  H   H171      1.0  0.20914  0.58624  0.95580  1.0000
  C   C214      1.0  0.02575  0.78042  0.70700  1.0000
  H   H172      1.0  0.31644  0.96476  0.76349  1.0000
  C   C215      1.0  0.17243  0.50597  0.99646  1.0000
  C   C216      1.0  0.10481  0.91129  0.55836  1.0000
  H   H173      1.0  0.10022  0.94776  0.57088  1.0000
  C   C217      1.0  0.11031  0.56078  0.66609  1.0000
  C   C218      1.0  0.07572  0.57408  0.63236  1.0000
  C   C219      1.0  0.06090  0.62197  0.62784  1.0000
  C   C220      1.0  0.07951  0.65643  0.65785  1.0000
  C   C221      1.0  0.11396  0.64338  0.69151  1.0000
  C   C222      1.0  0.12992  0.59597  0.69508  1.0000
  H   H174      1.0  0.28227  0.54153  0.61247  1.0000
  H   H175      1.0  0.21430  0.94686  0.65395  1.0000
  H   H176      1.0  0.06896  0.55253  0.74985  1.0000
  C   C223      1.0  0.08363  0.52010  0.76546  1.0000
  H   H177      1.0  0.05926  0.54757  0.61070  1.0000
  H   H178      1.0  0.03407  0.63236  0.60187  1.0000
  H   H179      1.0  0.06688  0.69313  0.65554  1.0000
  H   H180      1.0  0.04952  0.53563  0.83238  1.0000
  H   H181      1.0  0.15629  0.58637  0.72179  1.0000
  H   H182      1.0  0.29154  0.88210  0.77338  1.0000
  Fe  Fe20      1.0  0.04060  0.52201  0.98104  1.0000
  H   H183      1.0  0.15058  0.94705  0.90846  1.0000
  C   C224      1.0  0.03241  0.74220  0.56954  1.0000
  C   C225      1.0  0.15012  0.71697  0.54362  1.0000
  C   C226      1.0  0.19682  0.73099  0.55047  1.0000
  H   H184      1.0  0.10428  0.65704  0.54490  1.0000
  C   C227      1.0  0.21623  0.66041  0.93922  1.0000
  P   P6        1.0  0.12651  0.49905  0.67711  1.0000
  H   H185      1.0  0.20654  0.76692  0.54244  1.0000
  P   P7        1.0  0.10921  0.75453  0.51009  1.0000
  H   H186      1.0  0.20367  0.56070  0.64535  1.0000
  H   H187      1.0  0.24691  0.62637  0.59042  1.0000
  C   C228      1.0  0.20811  0.50435  0.81119  1.0000
  H   H188      1.0  0.30190  0.52950  0.71616  1.0000
  C   C229      1.0  0.14910  0.96317  0.94373  1.0000
  C   C230      1.0  0.24354  0.94315  0.51897  1.0000
  H   H189      1.0  0.21159  0.73349  0.91608  1.0000
  C   C231      1.0  0.31439  0.62054  0.92481  1.0000
  H   H190      1.0  0.30318  0.88699  0.66913  1.0000
  C   C232      1.0  0.12274  0.82803  0.57475  1.0000
  C   C233      1.0  0.11782  0.87524  0.59046  1.0000
  H   H191      1.0  0.23986  0.86691  0.52591  1.0000
  H   H192      1.0  0.29587  0.95182  0.96121  1.0000
  C   C234      1.0  0.27541  0.52255  0.74256  1.0000
  H   H193      1.0  0.30132  0.70467  0.86770  1.0000
  H   H194      1.0  0.01039  0.86094  0.56501  1.0000
  C   C235      1.0  0.14423  0.61686  0.92786  1.0000
  C   C236      1.0  0.24044  0.98707  0.54281  1.0000
  P   P8        1.0  0.27738  0.66214  0.95878  1.0000
  H   H195      1.0  0.25782  0.58566  0.88679  1.0000
  H   H196      1.0  0.04887  0.76404  0.93112  1.0000
  C   C237      1.0  0.04878  0.74028  0.52242  1.0000
  H   H197      1.0  0.05568  0.75235  0.59828  1.0000
  C   C238      1.0  0.01318  0.76319  0.94436  1.0000
  C   C239      1.0  0.29537  0.58842  0.89186  1.0000
  S   S44       1.0  0.01560  0.57629  0.92638  1.0000
  H   H198      1.0  0.11467  0.80475  0.95097  1.0000
  H   H199      1.0  0.13185  0.80049  0.60045  1.0000
  H   H200      1.0  0.12280  0.88364  0.62796  1.0000
  H   H201      1.0  0.12564  0.58398  0.93068  1.0000
  C   C240      1.0  0.11334  0.81625  0.52704  1.0000
  C   C241      1.0  0.13845  0.93532  0.98311  1.0000
  C   C242      1.0  0.14570  0.69958  0.90528  1.0000
  C   C243      1.0  0.12124  0.65762  0.90936  1.0000
  H   H202      1.0  0.26764  0.70931  0.57230  1.0000
  C   C244      1.0  0.19146  0.61827  0.94251  1.0000
  C   C245      1.0  0.21630  0.52401  0.64501  1.0000
  C   C246      1.0  0.19305  0.70094  0.91997  1.0000
  H   H203      1.0  0.13126  0.89852  0.97731  1.0000
  C   C247      1.0  0.15174  0.81154  0.95513  1.0000
  C   C248      1.0  0.22191  0.94689  0.61622  1.0000
  H   H204      1.0  0.12797  0.73102  0.89040  1.0000
  H   H205      1.0  0.08468  0.65664  0.89774  1.0000
  C   C249      1.0  0.09592  0.90000  0.51062  1.0000
  C   C250      1.0  0.02189  0.73981  0.73502  1.0000
  H   H206      1.0  0.18264  0.49785  0.83871  1.0000
  C   C251      1.0  0.31268  0.72821  0.89595  1.0000
  C   C252      1.0  0.23655  0.90112  0.54387  1.0000
  H   H207      1.0  0.01723  0.68725  0.95685  1.0000
  C   C253      1.0  0.32798  0.88878  0.76483  1.0000
  C   C254      1.0  0.07157  0.51028  0.81255  1.0000
  C   C255      1.0  0.22526  0.82857  0.99231  1.0000
  C   C256      1.0  0.33065  0.88596  0.64248  1.0000
  C   C257      1.0  0.33687  0.84581  0.61338  1.0000
  C   C258      1.0  0.32526  0.55860  0.86449  1.0000
  S   S45       1.0  0.03996  0.98866  0.93276  1.0000
  C   C259      1.0  0.22891  0.98946  0.59157  1.0000
  S   S46       1.0  0.00765  0.98584  0.59834  1.0000
  H   H208      1.0  0.42002  0.40813  0.17001  1.0000
  S   S47       1.0  0.54856  0.03964  0.02491  1.0000
  Fe  Fe21      1.0  0.64044  0.28172  0.28111  1.0000
  S   S48       1.0  0.56717  0.31769  0.28284  1.0000
  H   H209      1.0  0.54373  0.05659  0.33273  1.0000
  C   C260      1.0  0.38703  0.03211  0.33211  1.0000
  S   S49       1.0  0.42757  0.45169  0.04700  1.0000
  H   H210      1.0  0.36562  0.03957  0.16094  1.0000
  H   H211      1.0  0.40870  0.12706  0.26240  1.0000
  C   C261      1.0  0.64293  0.41167  0.19107  1.0000
  H   H212      1.0  0.55829  0.07792  0.24838  1.0000
  S   S50       1.0  0.56945  0.06886  0.46281  1.0000
  H   H213      1.0  0.38523  0.17603  0.09482  1.0000
  H   H214      1.0  0.57455  0.39661  0.21977  1.0000
  S   S51       1.0  0.45687  0.44590  0.44664  1.0000
  C   C262      1.0  0.38955  0.35077  0.36084  1.0000
  C   C263      1.0  0.41696  0.04222  0.37046  1.0000
  C   C264      1.0  0.43710  0.33400  0.15588  1.0000
  H   H215      1.0  0.38582  0.48674  0.26231  1.0000
  C   C265      1.0  0.51380  0.28818  0.27238  1.0000
  C   C266      1.0  0.47107  0.31507  0.26905  1.0000
  C   C267      1.0  0.42797  0.29274  0.26072  1.0000
  C   C268      1.0  0.42747  0.24357  0.25363  1.0000
  C   C269      1.0  0.47039  0.21675  0.25624  1.0000
  C   C270      1.0  0.51303  0.23876  0.26713  1.0000
  H   H216      1.0  0.47121  0.35340  0.27317  1.0000
  H   H217      1.0  0.39520  0.31384  0.25857  1.0000
  H   H218      1.0  0.47092  0.17878  0.25033  1.0000
  H   H219      1.0  0.54530  0.21757  0.27171  1.0000
  C   C271      1.0  0.53812  0.03086  0.30463  1.0000
  C   C272      1.0  0.54630  0.04285  0.25668  1.0000
  H   H220      1.0  0.64040  0.46461  0.39079  1.0000
  H   H221      1.0  0.53652  0.47174  0.19118  1.0000
  C   C273      1.0  0.45864  0.11179  0.16797  1.0000
  H   H222      1.0  0.61101  0.39018  0.42302  1.0000
  H   H223      1.0  0.65889  0.46312  0.30915  1.0000
  H   H224      1.0  0.39858  0.37315  0.49447  1.0000
  P   P9        1.0  0.38875  0.28669  0.43699  1.0000
  C   C274      1.0  0.44991  0.27139  0.42323  1.0000
  H   H225      1.0  0.61523  0.33145  0.13373  1.0000
  Fe  Fe22      1.0  0.52844  0.99570  0.08812  1.0000
  H   H226      1.0  0.46220  0.14490  0.33013  1.0000
  C   C275      1.0  0.46526  0.22354  0.41730  1.0000
  C   C276      1.0  0.51079  0.21219  0.40035  1.0000
  C   C277      1.0  0.54151  0.24846  0.39007  1.0000
  C   C278      1.0  0.52724  0.29596  0.39805  1.0000
  C   C279      1.0  0.48198  0.30736  0.41540  1.0000
  H   H227      1.0  0.66774  0.03941  0.17598  1.0000
  H   H228      1.0  0.46253  0.18005  0.13554  1.0000
  H   H229      1.0  0.47084  0.21014  0.05826  1.0000
  C   C280      1.0  0.47485  0.23441  0.02896  1.0000
  H   H230      1.0  0.46792  0.09027  0.39891  1.0000
  H   H231      1.0  0.44217  0.19497  0.42566  1.0000
  H   H232      1.0  0.52260  0.17533  0.39585  1.0000
  H   H233      1.0  0.57674  0.23987  0.37687  1.0000
  H   H234      1.0  0.55144  0.32402  0.39102  1.0000
  H   H235      1.0  0.47173  0.34432  0.42157  1.0000
  C   C281      1.0  0.37155  0.38904  0.33367  1.0000
  C   C282      1.0  0.64813  0.48731  0.14993  1.0000
  C   C283      1.0  0.43145  0.07213  0.17478  1.0000
  C   C284      1.0  0.39761  0.14639  0.11656  1.0000
  C   C285      1.0  0.59503  0.42156  0.19990  1.0000
  P   P10       1.0  0.54754  0.27443  0.08113  1.0000
  C   C286      1.0  0.51180  0.31634  0.11572  1.0000
  C   C287      1.0  0.55920  0.21976  0.11247  1.0000
  C   C288      1.0  0.56976  0.22114  0.16138  1.0000
  C   C289      1.0  0.58663  0.17994  0.18456  1.0000
  C   C290      1.0  0.59238  0.13732  0.15934  1.0000
  C   C291      1.0  0.58177  0.13563  0.11078  1.0000
  C   C292      1.0  0.56552  0.17674  0.08712  1.0000
  C   C293      1.0  0.51973  0.36530  0.11412  1.0000
  C   C294      1.0  0.48713  0.39806  0.13450  1.0000
  C   C295      1.0  0.38237  0.06444  0.29431  1.0000
  C   C296      1.0  0.44584  0.38249  0.15535  1.0000
  C   C297      1.0  0.47033  0.30096  0.13713  1.0000
  C   C298      1.0  0.60626  0.29310  0.06737  1.0000
  C   C299      1.0  0.66565  0.43619  0.40015  1.0000
  C   C300      1.0  0.36991  0.10642  0.12307  1.0000
  C   C301      1.0  0.36040  0.21879  0.37106  1.0000
  S   S52       1.0  0.54865  0.02760  0.15981  1.0000
  C   C302      1.0  0.44158  0.14903  0.13935  1.0000
  C   C303      1.0  0.41036  0.10413  0.29310  1.0000
  H   H236      1.0  0.56690  0.25438  0.18119  1.0000
  H   H237      1.0  0.59728  0.18096  0.22168  1.0000
  H   H238      1.0  0.60622  0.10569  0.17738  1.0000
  H   H239      1.0  0.38871  0.23092  0.34884  1.0000
  Fe  Fe23      1.0  0.52050  0.00964  0.44490  1.0000
  H   H240      1.0  0.54993  0.37855  0.09564  1.0000
  H   H241      1.0  0.49244  0.43586  0.13199  1.0000
  S   S53       1.0  0.37411  0.21480  0.24079  1.0000
  C   C304      1.0  0.51214  0.26592  0.02848  1.0000
  H   H242      1.0  0.46265  0.26362  0.13788  1.0000
  H   H243      1.0  0.35859  0.05796  0.26479  1.0000
  H   H244      1.0  0.55923  0.17506  0.04904  1.0000
  H   H245      1.0  0.65978  0.37897  0.20427  1.0000
  H   H246      1.0  0.41920  0.32968  0.34761  1.0000
  C   C305      1.0  0.35203  0.23932  0.41616  1.0000
  C   C306      1.0  0.57346  0.46389  0.18339  1.0000
  H   H247      1.0  0.38752  0.39741  0.29981  1.0000
  H   H248      1.0  0.56830  0.19819  0.49223  1.0000
  H   H249      1.0  0.58735  0.10235  0.09177  1.0000
  Fe  Fe24      1.0  0.49581  0.47202  0.01343  1.0000
  S   S54       1.0  0.46055  0.04054  0.48970  1.0000
  H   H250      1.0  0.59841  0.27968  0.48165  1.0000
  C   C307      1.0  0.36884  0.33936  0.40442  1.0000
  H   H251      1.0  0.49298  0.11373  0.18513  1.0000
  H   H252      1.0  0.40424  0.32209  0.17052  1.0000
  H   H253      1.0  0.35935  0.00870  0.08681  1.0000
  C   C308      1.0  0.63164  0.31966  0.10068  1.0000
  H   H254      1.0  0.44534  0.04342  0.19689  1.0000
  C   C309      1.0  0.38687  0.06976  0.15336  1.0000
  C   C310      1.0  0.44068  0.11387  0.33107  1.0000
  C   C311      1.0  0.44363  0.08316  0.36999  1.0000
  C   C312      1.0  0.62950  0.27509  0.02653  1.0000
  H   H255      1.0  0.65756  0.45019  0.05639  1.0000
  C   C313      1.0  0.64876  0.39445  0.41954  1.0000
  H   H256      1.0  0.42070  0.01774  0.39993  1.0000
  H   H257      1.0  0.66641  0.03286  0.00284  1.0000
  C   C314      1.0  0.53923  0.00985  0.21958  1.0000
  S   S55       1.0  0.55934  0.42120  0.00307  1.0000
  S   S56       1.0  0.66722  0.21429  0.31686  1.0000
  C   C315      1.0  0.66915  0.44396  0.16544  1.0000
  H   H258      1.0  0.66750  0.32699  0.45214  1.0000
  C   C316      1.0  0.38410  0.29845  0.50035  1.0000
  H   H259      1.0  0.48209  0.06819  0.71297  1.0000
  S   S57       1.0  0.44027  0.09987  0.96660  1.0000
  H   H260      1.0  0.61835  0.16935  0.68584  1.0000
  H   H261      1.0  0.64716  0.48620  0.81766  1.0000
  C   C317      1.0  0.56995  0.08511  0.84927  1.0000
  C   C318      1.0  0.64294  0.48616  0.89372  1.0000
  H   H262      1.0  0.54259  0.32364  0.99096  1.0000
  H   H263      1.0  0.35440  0.24519  0.60440  1.0000
  S   S58       1.0  0.53856  0.05023  0.57457  1.0000
  H   H264      1.0  0.61576  0.39849  0.70284  1.0000
  S   S59       1.0  0.46096  0.46575  0.56262  1.0000
  H   H265      1.0  0.48641  0.11553  0.63996  1.0000
  H   H266      1.0  0.39377  0.05881  0.57215  1.0000
  C   C319      1.0  0.36765  0.31938  0.59713  1.0000
  H   H267      1.0  0.35877  0.00635  0.84696  1.0000
  P   P11       1.0  0.54457  0.05782  0.79687  1.0000
  C   C320      1.0  0.61365  0.43705  0.70048  1.0000
  C   C321      1.0  0.50131  0.30830  0.54762  1.0000
  C   C322      1.0  0.48609  0.26211  0.55581  1.0000
  C   C323      1.0  0.63980  0.10002  0.89739  1.0000
  H   H268      1.0  0.35557  0.21026  0.85746  1.0000
  H   H269      1.0  0.48247  0.33870  0.56317  1.0000
  H   H270      1.0  0.45633  0.25720  0.57856  1.0000
  C   C324      1.0  0.60901  0.36837  0.85588  1.0000
  S   S60       1.0  0.63106  0.35578  0.79825  1.0000
  C   C325      1.0  0.61802  0.37142  0.94187  1.0000
  C   C326      1.0  0.57617  0.39958  0.94607  1.0000
  C   C327      1.0  0.54948  0.41025  0.90515  1.0000
  C   C328      1.0  0.56589  0.39457  0.86024  1.0000
  C   C329      1.0  0.47816  0.99663  0.83275  1.0000
  H   H271      1.0  0.51684  0.43135  0.90801  1.0000
  H   H272      1.0  0.54537  0.40328  0.82864  1.0000
  C   C330      1.0  0.39304  0.11542  0.92646  1.0000
  C   C331      1.0  0.39274  0.16009  0.90405  1.0000
  C   C332      1.0  0.50856  0.22237  0.53417  1.0000
  H   H273      1.0  0.38396  0.14332  0.54851  1.0000
  H   H274      1.0  0.42206  0.18267  0.90970  1.0000
  H   H275      1.0  0.53959  0.12481  0.96061  1.0000
  C   C333      1.0  0.56195  0.11425  0.93082  1.0000
  C   C334      1.0  0.41547  0.37665  0.85802  1.0000
  H   H276      1.0  0.62717  0.12383  0.96942  1.0000
  C   C335      1.0  0.39407  0.01580  0.83673  1.0000
  C   C336      1.0  0.38561  0.34055  0.77010  1.0000
  C   C337      1.0  0.43064  0.32717  0.78773  1.0000
  C   C338      1.0  0.44609  0.34694  0.83099  1.0000
  P   P12       1.0  0.46873  0.28599  0.75440  1.0000
  C   C339      1.0  0.43295  0.24100  0.72704  1.0000
  C   C340      1.0  0.50084  0.31773  0.70963  1.0000
  C   C341      1.0  0.53755  0.29453  0.68374  1.0000
  C   C342      1.0  0.56114  0.31860  0.64811  1.0000
  C   C343      1.0  0.54834  0.36593  0.63794  1.0000
  C   C344      1.0  0.51238  0.38956  0.66380  1.0000
  C   C345      1.0  0.48866  0.36563  0.69950  1.0000
  C   C346      1.0  0.44320  0.22290  0.68125  1.0000
  C   C347      1.0  0.41520  0.18831  0.66066  1.0000
  C   C348      1.0  0.37693  0.17107  0.68556  1.0000
  C   C349      1.0  0.44102  0.23550  0.99241  1.0000
  C   C350      1.0  0.39393  0.22385  0.75150  1.0000
  C   C351      1.0  0.50754  0.25659  0.79754  1.0000
  C   C352      1.0  0.48822  0.23087  0.83509  1.0000
  C   C353      1.0  0.51726  0.21320  0.87201  1.0000
  C   C354      1.0  0.56577  0.22045  0.87150  1.0000
  C   C355      1.0  0.58533  0.24523  0.83406  1.0000
  C   C356      1.0  0.55637  0.26348  0.79741  1.0000
  C   C357      1.0  0.36456  0.27278  0.58026  1.0000
  C   C358      1.0  0.51042  0.09269  0.70955  1.0000
  H   H277      1.0  0.37373  0.32743  0.73582  1.0000
  H   H278      1.0  0.48163  0.33911  0.84395  1.0000
  H   H279      1.0  0.54781  0.25764  0.69067  1.0000
  H   H280      1.0  0.58877  0.30024  0.62751  1.0000
  H   H281      1.0  0.56626  0.38418  0.60977  1.0000
  H   H282      1.0  0.50289  0.42643  0.65598  1.0000
  H   H283      1.0  0.46074  0.38470  0.71869  1.0000
  H   H284      1.0  0.47249  0.23514  0.66082  1.0000
  H   H285      1.0  0.42325  0.17518  0.62506  1.0000
  S   S61       1.0  0.56148  0.37272  0.50926  1.0000
  H   H286      1.0  0.37147  0.08367  0.80705  1.0000
  H   H287      1.0  0.38421  0.23805  0.78612  1.0000
  H   H288      1.0  0.45063  0.22576  0.83679  1.0000
  H   H289      1.0  0.50220  0.19437  0.90149  1.0000
  H   H290      1.0  0.58833  0.20714  0.90015  1.0000
  H   H291      1.0  0.62294  0.25128  0.83391  1.0000
  H   H292      1.0  0.57233  0.28407  0.76996  1.0000
  H   H293      1.0  0.63595  0.43804  0.62772  1.0000
  C   C359      1.0  0.38908  0.34479  0.51804  1.0000
  C   C360      1.0  0.38065  0.35523  0.56618  1.0000
  C   C361      1.0  0.62580  0.45945  0.65830  1.0000
  C   C362      1.0  0.51300  0.11900  0.66758  1.0000
  C   C363      1.0  0.48551  0.04050  0.81080  1.0000
  S   S62       1.0  0.66732  0.00917  0.55098  1.0000
  H   H294      1.0  0.34566  0.41055  0.86232  1.0000
  H   H295      1.0  0.63796  0.36240  0.97358  1.0000
  C   C364      1.0  0.36972  0.38779  0.84134  1.0000
  C   C365      1.0  0.35469  0.12560  0.56454  1.0000
  C   C366      1.0  0.54155  0.31493  0.52035  1.0000
  C   C367      1.0  0.40113  0.05928  0.81435  1.0000
  H   H296      1.0  0.66768  0.33542  0.89405  1.0000
  C   C368      1.0  0.54138  0.09959  0.88788  1.0000
  H   H297      1.0  0.61282  0.12660  0.76241  1.0000
  H   H298      1.0  0.35944  0.32769  0.63399  1.0000
  H   H299      1.0  0.58492  0.44602  0.77039  1.0000
  H   H300      1.0  0.38310  0.39144  0.57905  1.0000
  H   H301      1.0  0.42280  0.45564  0.79793  1.0000
  C   C369      1.0  0.48149  0.29920  0.95434  1.0000
  C   C370      1.0  0.44399  0.26833  0.95531  1.0000
  Fe  Fe25      1.0  0.59247  0.02070  0.52314  1.0000
  H   H302      1.0  0.48392  0.32521  0.92634  1.0000
  H   H303      1.0  0.41712  0.27010  0.92758  1.0000
  H   H304      1.0  0.62986  0.49187  0.96910  1.0000
  C   C371      1.0  0.37406  0.26206  0.53234  1.0000
  C   C372      1.0  0.63461  0.35588  0.89697  1.0000
  C   C373      1.0  0.35515  0.17569  0.87401  1.0000
  C   C374      1.0  0.54535  0.09626  0.74521  1.0000
  H   H305      1.0  0.42699  0.39129  0.89186  1.0000
  C   C375      1.0  0.44676  0.07227  0.80285  1.0000
  H   H306      1.0  0.50327  0.09867  0.88547  1.0000
  Fe  Fe26      1.0  0.47481  0.03017  0.99633  1.0000
  H   H307      1.0  0.55450  0.16613  0.62596  1.0000
  H   H308      1.0  0.41204  0.21141  0.99354  1.0000
  C   C376      1.0  0.58403  0.12496  0.73689  1.0000
  C   C377      1.0  0.58724  0.14975  0.69384  1.0000
  C   C378      1.0  0.55147  0.14741  0.65957  1.0000
  C   C379      1.0  0.61116  0.11402  0.93575  1.0000
  C   C380      1.0  0.61928  0.08566  0.85448  1.0000
  C   C381      1.0  0.55004  0.22860  0.50855  1.0000
  H   H309      1.0  0.45174  0.10729  0.78816  1.0000
  C   C382      1.0  0.59702  0.46413  0.73912  1.0000
  H   H310      1.0  0.64203  0.07236  0.82614  1.0000
  C   C383      1.0  0.36627  0.18892  0.73093  1.0000
  S   S63       1.0  0.48106  0.16688  0.53762  1.0000
  H   H311      1.0  0.64959  0.21579  0.51518  1.0000
  H   H312      1.0  0.65971  0.40254  0.52252  1.0000
  C   C384      1.0  0.36013  0.07780  0.57763  1.0000
  C   C385      1.0  0.35464  0.08647  0.91870  1.0000
  C   C386      1.0  0.35521  0.37035  0.79707  1.0000
  C   C387      1.0  0.51521  0.29805  0.99084  1.0000
  H   H313      1.0  0.37376  0.22552  0.52025  1.0000
  Fe  Fe27      1.0  0.51221  0.09497  0.51365  1.0000
  H   H314      1.0  0.35426  0.05217  0.93588  1.0000
  S   S64       1.0  0.66588  0.23685  0.73644  1.0000
  H   H315      1.0  0.50202  0.47933  0.82376  1.0000
  H   H316      1.0  0.35523  0.14430  0.66954  1.0000
  H   H317      1.0  0.57951  0.01345  0.70678  1.0000
  C   C388      1.0  0.43887  0.48548  0.78119  1.0000
  C   C389      1.0  0.56692  0.27481  0.50242  1.0000
  Fe  Fe28      1.0  0.51001  0.43660  0.50593  1.0000
  C   C390      1.0  0.58218  0.00610  0.78395  1.0000
  Fe  Fe29      1.0  0.40951  0.48083  0.50229  1.0000
  H   H318      1.0  0.61122  0.25289  0.00129  1.0000
  C   C391      1.0  0.66375  0.50075  0.30401  1.0000
  C   C392      1.0  0.63804  0.57430  0.26542  1.0000
  C   C393      1.0  0.63607  0.75424  0.42282  1.0000
  H   H319      1.0  0.43371  0.68452  0.04776  1.0000
  C   C394      1.0  0.62655  0.61269  0.12557  1.0000
  S   S65       1.0  0.55431  0.92654  0.05481  1.0000
  S   S66       1.0  0.64506  0.83784  0.20629  1.0000
  Fe  Fe30      1.0  0.60879  0.80207  0.26727  1.0000
  S   S67       1.0  0.53300  0.81181  0.29260  1.0000
  P   P13       1.0  0.37018  0.67156  0.38227  1.0000
  C   C395      1.0  0.63481  0.89878  0.42950  1.0000
  S   S68       1.0  0.50515  0.53574  0.06121  1.0000
  C   C396      1.0  0.52447  0.96444  0.23097  1.0000
  S   S69       1.0  0.39338  0.56457  0.03765  1.0000
  C   C397      1.0  0.41732  0.66844  0.42648  1.0000
  C   C398      1.0  0.49131  0.66547  0.49411  1.0000
  S   S70       1.0  0.51240  0.54539  0.36683  1.0000
  C   C399      1.0  0.41015  0.68688  0.47278  1.0000
  C   C400      1.0  0.48306  0.53597  0.31168  1.0000
  C   C401      1.0  0.50250  0.55390  0.26969  1.0000
  C   C402      1.0  0.48078  0.54669  0.22500  1.0000
  H   H320      1.0  0.53417  0.57402  0.27190  1.0000
  H   H321      1.0  0.49587  0.56102  0.19302  1.0000
  C   C403      1.0  0.48517  0.79945  0.25449  1.0000
  C   C404      1.0  0.43919  0.80269  0.27298  1.0000
  C   C405      1.0  0.40058  0.78772  0.24575  1.0000
  C   C406      1.0  0.40749  0.77068  0.19931  1.0000
  C   C407      1.0  0.45327  0.76928  0.18001  1.0000
  C   C408      1.0  0.49212  0.78345  0.20759  1.0000
  H   H322      1.0  0.43372  0.81537  0.30903  1.0000
  H   H323      1.0  0.36546  0.78890  0.26069  1.0000
  H   H324      1.0  0.45894  0.75620  0.14406  1.0000
  H   H325      1.0  0.52744  0.78107  0.19292  1.0000
  H   H326      1.0  0.45438  0.71152  0.33837  1.0000
  H   H327      1.0  0.37618  0.70191  0.48357  1.0000
  H   H328      1.0  0.41891  0.84241  0.46817  1.0000
  C   C409      1.0  0.62090  0.78726  0.45763  1.0000
  C   C410      1.0  0.40635  0.86868  0.44248  1.0000
  H   H329      1.0  0.55952  0.82439  0.48796  1.0000
  H   H330      1.0  0.38789  0.87867  0.15620  1.0000
  Fe  Fe31      1.0  0.43399  0.51871  0.09074  1.0000
  S   S71       1.0  0.35972  0.74975  0.16539  1.0000
  C   C411      1.0  0.37105  0.64367  0.28595  1.0000
  C   C412      1.0  0.57212  0.79686  0.46346  1.0000
  H   H331      1.0  0.37456  0.61749  0.21354  1.0000
  C   C413      1.0  0.60334  0.73016  0.39511  1.0000
  C   C414      1.0  0.55498  0.73965  0.40133  1.0000
  H   H332      1.0  0.43549  0.94780  0.17764  1.0000
  C   C415      1.0  0.64172  0.93777  0.39992  1.0000
  C   C416      1.0  0.44104  0.51145  0.30876  1.0000
  H   H333      1.0  0.34843  0.89491  0.48618  1.0000
  H   H334      1.0  0.52008  0.93824  0.20304  1.0000
  S   S72       1.0  0.50991  0.96909  0.37540  1.0000
  C   C417      1.0  0.41369  0.90682  0.36587  1.0000
  Fe  Fe32      1.0  0.46409  0.57662  0.00457  1.0000
  C   C418      1.0  0.45612  0.79909  0.01597  1.0000
  C   C419      1.0  0.53930  0.77276  0.43571  1.0000
  H   H335      1.0  0.61562  0.70539  0.36762  1.0000
  H   H336      1.0  0.52983  0.72236  0.37845  1.0000
  S   S73       1.0  0.43605  0.85853  0.02934  1.0000
  P   P14       1.0  0.35321  0.97909  0.33132  1.0000
  C   C420      1.0  0.36668  0.89826  0.45257  1.0000
  C   C421      1.0  0.40668  0.93797  0.20053  1.0000
  H   H337      1.0  0.59898  0.88847  0.43595  1.0000
  H   H338      1.0  0.35460  0.67724  0.02748  1.0000
  C   C422      1.0  0.39830  0.96229  0.24349  1.0000
  C   C423      1.0  0.43681  0.69024  0.31191  1.0000
  C   C424      1.0  0.46176  0.64778  0.41499  1.0000
  C   C425      1.0  0.49863  0.64651  0.44847  1.0000
  H   H339      1.0  0.37271  0.76634  0.34076  1.0000
  Fe  Fe33      1.0  0.48083  0.92388  0.02419  1.0000
  C   C426      1.0  0.45822  0.68292  0.26750  1.0000
  C   C427      1.0  0.43547  0.65732  0.23190  1.0000
  H   H340      1.0  0.46792  0.63208  0.38023  1.0000
  H   H341      1.0  0.53256  0.62981  0.43908  1.0000
  H   H342      1.0  0.58205  0.52942  0.14669  1.0000
  C   C428      1.0  0.39379  0.66930  0.32219  1.0000
  H   H343      1.0  0.49215  0.69789  0.26036  1.0000
  H   H344      1.0  0.45151  0.65266  0.19709  1.0000
  H   H345      1.0  0.46150  0.85135  0.39136  1.0000
  S   S74       1.0  0.43465  0.55441  0.48937  1.0000
  S   S75       1.0  0.40831  0.51465  0.16733  1.0000
  H   H346      1.0  0.56530  0.68148  0.04503  1.0000
  H   H347      1.0  0.35237  0.94358  0.02898  1.0000
  S   S76       1.0  0.54280  0.50714  0.49378  1.0000
  C   C429      1.0  0.37999  0.89904  0.18846  1.0000
  C   C430      1.0  0.39179  0.63794  0.24104  1.0000
  C   C431      1.0  0.41874  0.50514  0.26421  1.0000
  P   P15       1.0  0.66327  0.82317  0.48836  1.0000
  H   H348      1.0  0.61290  0.59407  0.24315  1.0000
  S   S77       1.0  0.64079  0.72959  0.25198  1.0000
  C   C432      1.0  0.43629  0.76101  0.04024  1.0000
  H   H349      1.0  0.36686  0.65617  0.11156  1.0000
  C   C433      1.0  0.63171  0.52623  0.27486  1.0000
  H   H350      1.0  0.61164  0.95678  0.38387  1.0000
  H   H351      1.0  0.39350  0.57108  0.39696  1.0000
  C   C434      1.0  0.59976  0.49678  0.15858  1.0000
  H   H352      1.0  0.58383  0.67772  0.13140  1.0000
  H   H353      1.0  0.63502  0.61223  0.16323  1.0000
  C   C435      1.0  0.37397  0.93671  0.37564  1.0000
  C   C436      1.0  0.51639  0.95243  0.27892  1.0000
  H   H354      1.0  0.41150  0.76844  0.06888  1.0000
  C   C437      1.0  0.60640  0.61746  0.02801  1.0000
  C   C438      1.0  0.63542  0.58006  0.04582  1.0000
  C   C439      1.0  0.34616  0.76740  0.36823  1.0000
  C   C440      1.0  0.58735  0.65224  0.05894  1.0000
  H   H355      1.0  0.50555  0.91695  0.28728  1.0000
  Fe  Fe34      1.0  0.48603  0.51819  0.43783  1.0000
  C   C441      1.0  0.59749  0.64990  0.10767  1.0000
  C   C442      1.0  0.64552  0.57725  0.09486  1.0000
  S   S78       1.0  0.45373  0.99074  0.06220  1.0000
  C   C443      1.0  0.36161  0.94936  0.27405  1.0000
  C   C444      1.0  0.43869  0.52232  0.22211  1.0000
  H   H356      1.0  0.43292  0.90998  0.33277  1.0000
  C   C445      1.0  0.44816  0.71332  0.02782  1.0000
  H   H357      1.0  0.50179  0.78089  0.43954  1.0000
  C   C446      1.0  0.42999  0.87321  0.39923  1.0000
  C   C447      1.0  0.52281  0.98560  0.31596  1.0000
  C   C448      1.0  0.35553  0.57523  0.39263  1.0000
  H   H358      1.0  0.65022  0.55390  0.02127  1.0000
  C   C449      1.0  0.34525  0.88432  0.21962  1.0000
  H   H359      1.0  0.65173  0.83031  0.01522  1.0000
  S   S79       1.0  0.66483  0.81839  0.32150  1.0000
  H   H360      1.0  0.34560  0.50005  0.39707  1.0000
  C   C450      1.0  0.35058  0.93225  0.41935  1.0000
  H   H361      1.0  0.42251  0.98932  0.25374  1.0000
  H   H362      1.0  0.60118  0.50891  0.26081  1.0000
  H   H363      1.0  0.42562  0.49745  0.34073  1.0000
  H   H364      1.0  0.66109  0.80406  0.09237  1.0000
  C   C451      1.0  0.67004  0.77934  0.06370  1.0000
  C   C452      1.0  0.66581  0.79395  0.01616  1.0000
  S   S80       1.0  0.49675  0.96302  0.95655  1.0000
  S   S81       1.0  0.45932  0.51321  0.95518  1.0000
  C   C453      1.0  0.47839  0.70310  0.98954  1.0000
  H   H365      1.0  0.50335  0.81758  0.95969  1.0000
  S   S82       1.0  0.43775  0.96968  0.60511  1.0000
  C   C454      1.0  0.60539  0.87008  0.63498  1.0000
  C   C455      1.0  0.60876  0.53636  0.69489  1.0000
  C   C456      1.0  0.35997  0.92483  0.63714  1.0000
  Fe  Fe35      1.0  0.48974  0.53750  0.54592  1.0000
  S   S83       1.0  0.50356  0.58887  0.60773  1.0000
  H   H366      1.0  0.52194  0.73350  0.93582  1.0000
  C   C457      1.0  0.55565  0.62133  0.61408  1.0000
  C   C458      1.0  0.59137  0.61864  0.57986  1.0000
  C   C459      1.0  0.63164  0.64600  0.58544  1.0000
  C   C460      1.0  0.63695  0.67593  0.62515  1.0000
  C   C461      1.0  0.60157  0.67839  0.65974  1.0000
  C   C462      1.0  0.56105  0.65117  0.65415  1.0000
  H   H367      1.0  0.58775  0.59589  0.54888  1.0000
  C   C463      1.0  0.48068  0.56173  0.73670  1.0000
  C   C464      1.0  0.63895  0.94590  0.81296  1.0000
  H   H368      1.0  0.53363  0.65363  0.68079  1.0000
  C   C465      1.0  0.59457  0.99405  0.73683  1.0000
  C   C466      1.0  0.54638  0.64584  0.79250  1.0000
  H   H369      1.0  0.35495  0.95564  0.65993  1.0000
  H   H370      1.0  0.55933  0.54612  0.95980  1.0000
  C   C467      1.0  0.34205  0.93545  0.75940  1.0000
  C   C468      1.0  0.39624  0.92393  0.60319  1.0000
  C   C469      1.0  0.40060  0.88509  0.57196  1.0000
  C   C470      1.0  0.37116  0.84600  0.57719  1.0000
  C   C471      1.0  0.59499  0.51398  0.73689  1.0000
  H   H371      1.0  0.42793  0.88436  0.54518  1.0000
  H   H372      1.0  0.50957  0.63763  0.79677  1.0000
  C   C472      1.0  0.49750  0.83653  0.60685  1.0000
  C   C473      1.0  0.50628  0.79085  0.58838  1.0000
  C   C474      1.0  0.50086  0.75131  0.61732  1.0000
  C   C475      1.0  0.48592  0.75731  0.66453  1.0000
  C   C476      1.0  0.47388  0.80299  0.68256  1.0000
  C   C477      1.0  0.48093  0.84265  0.65348  1.0000
  P   P16       1.0  0.45117  0.81010  0.74278  1.0000
  C   C478      1.0  0.42579  0.75496  0.76143  1.0000
  C   C479      1.0  0.49644  0.82742  0.78395  1.0000
  C   C480      1.0  0.48304  0.84653  0.82860  1.0000
  C   C481      1.0  0.51684  0.86509  0.85914  1.0000
  C   C482      1.0  0.57789  0.84436  0.80188  1.0000
  C   C483      1.0  0.54427  0.82575  0.77095  1.0000
  C   C484      1.0  0.43425  0.73657  0.80738  1.0000
  C   C485      1.0  0.41525  0.69346  0.82080  1.0000
  C   C486      1.0  0.38775  0.66824  0.78851  1.0000
  C   C487      1.0  0.37929  0.68612  0.74275  1.0000
  C   C488      1.0  0.39750  0.72968  0.72946  1.0000
  C   C489      1.0  0.40761  0.85882  0.74644  1.0000
  C   C490      1.0  0.36057  0.85065  0.75831  1.0000
  H   H373      1.0  0.60633  0.57462  0.69185  1.0000
  C   C491      1.0  0.56402  0.86496  0.84524  1.0000
  C   C492      1.0  0.38899  0.94403  0.74814  1.0000
  C   C493      1.0  0.42184  0.90604  0.74274  1.0000
  H   H374      1.0  0.50331  0.86750  0.58499  1.0000
  H   H375      1.0  0.51829  0.78608  0.55204  1.0000
  H   H376      1.0  0.50838  0.71595  0.60310  1.0000
  H   H377      1.0  0.48313  0.72603  0.68646  1.0000
  H   H378      1.0  0.47333  0.87848  0.66589  1.0000
  H   H379      1.0  0.44629  0.84794  0.83947  1.0000
  H   H380      1.0  0.61488  0.84367  0.79245  1.0000
  H   H381      1.0  0.55561  0.81109  0.73689  1.0000
  H   H382      1.0  0.45508  0.75529  0.83334  1.0000
  H   H383      1.0  0.40000  0.98012  0.74292  1.0000
  H   H384      1.0  0.37965  0.64882  0.95202  1.0000
  H   H385      1.0  0.63202  0.52647  0.62232  1.0000
  H   H386      1.0  0.38907  0.74380  0.69432  1.0000
  C   C494      1.0  0.63761  0.82385  0.93032  1.0000
  C   C495      1.0  0.63782  0.84215  0.54430  1.0000
  C   C496      1.0  0.36378  0.62355  0.92806  1.0000
  H   H387      1.0  0.65721  0.92819  0.84242  1.0000
  H   H388      1.0  0.45842  0.91381  0.73619  1.0000
  H   H389      1.0  0.37200  0.63536  0.79904  1.0000
  H   H390      1.0  0.35694  0.66702  0.71817  1.0000
  C   C497      1.0  0.61006  0.82174  0.62313  1.0000
  H   H391      1.0  0.50757  0.97210  0.84056  1.0000
  H   H392      1.0  0.60782  0.84766  0.93852  1.0000
  C   C498      1.0  0.60312  0.98022  0.82175  1.0000
  H   H393      1.0  0.59355  0.75666  0.90085  1.0000
  H   H394      1.0  0.42720  0.95106  0.86381  1.0000
  C   C499      1.0  0.55970  0.69310  0.79782  1.0000
  H   H395      1.0  0.53340  0.72104  0.80531  1.0000
  H   H396      1.0  0.60181  0.79490  0.64905  1.0000
  C   C500      1.0  0.43550  0.54846  0.72273  1.0000
  H   H397      1.0  0.65583  0.59346  0.77550  1.0000
  C   C501      1.0  0.48789  0.78879  0.97882  1.0000
  H   H398      1.0  0.34908  0.81503  0.76321  1.0000
  C   C502      1.0  0.62562  0.80786  0.57773  1.0000
  H   H399      1.0  0.61797  0.74056  0.80076  1.0000
  C   C503      1.0  0.35509  0.79761  0.92017  1.0000
  H   H400      1.0  0.59322  0.88089  0.67009  1.0000
  C   C504      1.0  0.60736  0.70418  0.79530  1.0000
  H   H401      1.0  0.65895  0.64439  0.55881  1.0000
  H   H402      1.0  0.37550  0.82812  0.91134  1.0000
  H   H403      1.0  0.41741  0.56687  0.69355  1.0000
  H   H404      1.0  0.64182  0.95180  0.69220  1.0000
  C   C505      1.0  0.39338  0.59472  0.89952  1.0000
  Fe  Fe36      1.0  0.56895  0.97041  0.98996  1.0000
  C   C506      1.0  0.49839  0.74107  0.96532  1.0000
  S   S84       1.0  0.63314  0.95474  0.94347  1.0000
  H   H405      1.0  0.59386  0.98862  0.85830  1.0000
  H   H406      1.0  0.59003  0.88126  0.86785  1.0000
  H   H407      1.0  0.44085  0.69884  0.54218  1.0000
  H   H408      1.0  0.42128  0.68012  0.85663  1.0000
  H   H409      1.0  0.60511  0.70165  0.69029  1.0000
  C   C507      1.0  0.33872  0.76774  0.88422  1.0000
  H   H410      1.0  0.43132  0.59778  0.90190  1.0000
  C   C508      1.0  0.37417  0.56155  0.86859  1.0000
  H   H411      1.0  0.34571  0.77543  0.84721  1.0000
  C   C509      1.0  0.62960  0.95870  0.72821  1.0000
  H   H412      1.0  0.50649  0.88013  0.89334  1.0000
  C   C510      1.0  0.62855  0.62106  0.78090  1.0000
  C   C511      1.0  0.63373  0.89041  0.55657  1.0000
  H   H413      1.0  0.39713  0.53787  0.84822  1.0000
  H   H414      1.0  0.53077  0.56905  0.87955  1.0000
  H   H415      1.0  0.62929  0.77032  0.56901  1.0000
  P   P17       1.0  0.56652  0.54775  0.78409  1.0000
  C   C512      1.0  0.58087  0.60958  0.78355  1.0000
  C   C513      1.0  0.58585  0.52806  0.84237  1.0000
  C   C514      1.0  0.56192  0.54555  0.88297  1.0000
  C   C515      1.0  0.57831  0.53311  0.92854  1.0000
  C   C516      1.0  0.50477  0.53781  0.77397  1.0000
  C   C517      1.0  0.64164  0.66802  0.78709  1.0000
  C   C518      1.0  0.61703  0.90440  0.60156  1.0000
  H   H416      1.0  0.64420  0.91725  0.53174  1.0000
  H   H417      1.0  0.49745  0.58938  0.71704  1.0000
  C   C519      1.0  0.65248  0.93557  0.76631  1.0000
  H   H418      1.0  0.51961  0.66364  0.52029  1.0000
  H   H419      1.0  0.37582  0.81532  0.55396  1.0000
  C   C520      1.0  0.62891  0.76758  0.90855  1.0000
  C   C521      1.0  0.62704  0.49898  0.84810  1.0000
  S   S85       1.0  0.49164  0.64371  0.97010  1.0000
  H   H420      1.0  0.61440  0.94198  0.61061  1.0000
  C   C522      1.0  0.41465  0.51020  0.74489  1.0000
  C   C523      1.0  0.44699  0.68540  0.50635  1.0000
  C   C524      1.0  0.62354  0.50911  0.65544  1.0000
  H   H421      1.0  0.35424  0.81347  0.99541  1.0000
  H   H422      1.0  0.67069  0.69466  0.88294  1.0000
  C   C525      1.0  0.34330  0.78929  0.96762  1.0000
  C   C526      1.0  0.43261  0.98460  0.84615  1.0000
  H   H423      1.0  0.59870  0.61999  0.99019  1.0000
  Fe  Fe37      1.0  0.39113  0.49866  0.99275  1.0000
  C   C527      1.0  0.61855  0.50320  0.93387  1.0000
  H   H424      1.0  0.38003  0.49926  0.73352  1.0000
  C   C528      1.0  0.48357  0.49940  0.79605  1.0000
  S   S86       1.0  0.54622  0.96007  0.50333  1.0000
  Fe  Fe38      1.0  0.48935  0.99476  0.54878  1.0000
  C   C529      1.0  0.80062  0.44645  0.31129  1.0000
  H   H425      1.0  0.90970  0.30844  0.46184  1.0000
  C   C530      1.0  0.88351  0.28872  0.33791  1.0000
  Fe  Fe39      1.0  0.73174  0.25498  0.33574  1.0000
  C   C531      1.0  0.70983  0.18451  0.10081  1.0000
  S   S87       1.0  0.77643  0.25080  0.40301  1.0000
  Fe  Fe40      1.0  0.73741  0.30429  0.23750  1.0000
  S   S88       1.0  0.77227  0.36978  0.20602  1.0000
  S   S89       1.0  0.77176  0.23752  0.26823  1.0000
  H   H426      1.0  0.78400  0.40955  0.40948  1.0000
  H   H427      1.0  0.67505  0.06226  0.46261  1.0000
  H   H428      1.0  0.94305  0.14309  0.15340  1.0000
  Fe  Fe41      1.0  0.91933  0.07063  0.46315  1.0000
  S   S90       1.0  0.84386  0.08518  0.43952  1.0000
  C   C532      1.0  0.79419  0.48440  0.34371  1.0000
  C   C533      1.0  0.68930  0.03237  0.20736  1.0000
  S   S91       1.0  0.97314  0.09729  0.41225  1.0000
  S   S92       1.0  0.89821  0.42202  0.02584  1.0000
  C   C534      1.0  0.70798  0.07052  0.23305  1.0000
  H   H429      1.0  0.84872  0.40939  0.26330  1.0000
  C   C535      1.0  0.74756  0.20820  0.12126  1.0000
  C   C536      1.0  0.74631  0.01318  0.28682  1.0000
  C   C537      1.0  0.78907  0.18270  0.13425  1.0000
  S   S93       1.0  0.70162  0.32404  0.30677  1.0000
  C   C538      1.0  0.93255  0.14475  0.11641  1.0000
  H   H430      1.0  0.70602  0.43526  0.15803  1.0000
  C   C539      1.0  0.74971  0.07120  0.45241  1.0000
  H   H431      1.0  0.68541  0.21796  0.43464  1.0000
  H   H432      1.0  0.74459  0.09210  0.42033  1.0000
  H   H433      1.0  0.93422  0.34755  0.23679  1.0000
  C   C540      1.0  0.80650  0.38371  0.15518  1.0000
  C   C541      1.0  0.81456  0.35142  0.11772  1.0000
  C   C542      1.0  0.84169  0.36437  0.07807  1.0000
  C   C543      1.0  0.86202  0.40929  0.07571  1.0000
  C   C544      1.0  0.85371  0.44176  0.11306  1.0000
  C   C545      1.0  0.82587  0.42909  0.15235  1.0000
  H   H434      1.0  0.79994  0.31648  0.11928  1.0000
  H   H435      1.0  0.84755  0.33908  0.04923  1.0000
  H   H436      1.0  0.86890  0.47644  0.11178  1.0000
  H   H437      1.0  0.81974  0.45446  0.18101  1.0000
  C   C546      1.0  0.85553  0.01652  0.08826  1.0000
  C   C547      1.0  0.75069  0.24602  0.45999  1.0000
  C   C548      1.0  0.70495  0.23001  0.46542  1.0000
  C   C549      1.0  0.77589  0.26093  0.50049  1.0000
  C   C550      1.0  0.96310  0.16530  0.08408  1.0000
  C   C551      1.0  0.73582  0.06075  0.27349  1.0000
  H   H438      1.0  0.67701  0.20388  0.09254  1.0000
  C   C552      1.0  0.84385  0.43919  0.28778  1.0000
  H   H439      1.0  0.75023  0.08968  0.29379  1.0000
  C   C553      1.0  0.70156  0.31246  0.05116  1.0000
  H   H440      1.0  0.92720  0.38527  0.15816  1.0000
  Fe  Fe42      1.0  0.70530  0.20043  0.24787  1.0000
  H   H441      1.0  0.80531  0.02824  0.19829  1.0000
  H   H442      1.0  0.87304  0.03618  0.06093  1.0000
  C   C554      1.0  0.71751  0.43539  0.01124  1.0000
  S   S94       1.0  0.94677  0.40196  0.46362  1.0000
  H   H443      1.0  0.86236  0.25748  0.33433  1.0000
  H   H444      1.0  0.82889  0.32950  0.37476  1.0000
  H   H445      1.0  0.86464  0.02051  0.30543  1.0000
  C   C555      1.0  0.72914  0.36522  0.43282  1.0000
  C   C556      1.0  0.67699  0.28475  0.01851  1.0000
  C   C557      1.0  0.94767  0.30427  0.46632  1.0000
  H   H446      1.0  0.81146  0.27317  0.49651  1.0000
  C   C558      1.0  0.95771  0.32817  0.32672  1.0000
  H   H447      1.0  0.73833  0.31999  0.04498  1.0000
  C   C559      1.0  0.71450  0.44084  0.39346  1.0000
  C   C560      1.0  0.79296  0.13316  0.12731  1.0000
  C   C561      1.0  0.88096  0.46956  0.29658  1.0000
  C   C562      1.0  0.92975  0.28825  0.32043  1.0000
  C   C563      1.0  0.98291  0.31308  0.02556  1.0000
  H   H448      1.0  0.75712  0.07167  0.09974  1.0000
  C   C564      1.0  0.71389  0.13542  0.09261  1.0000
  C   C565      1.0  0.92103  0.09282  0.26813  1.0000
  H   H449      1.0  0.89871  0.11748  0.33801  1.0000
  H   H450      1.0  0.68442  0.11677  0.07767  1.0000
  C   C566      1.0  0.86452  0.32929  0.36080  1.0000
  C   C567      1.0  0.96879  0.25815  0.46977  1.0000
  H   H451      1.0  0.75401  0.33919  0.44749  1.0000
  H   H452      1.0  0.93176  0.32572  0.08112  1.0000
  H   H453      1.0  0.69848  0.35009  0.11827  1.0000
  H   H454      1.0  0.84340  0.11926  0.03914  1.0000
  H   H455      1.0  0.99701  0.17719  0.09621  1.0000
  Fe  Fe43      1.0  0.97841  0.47422  0.47423  1.0000
  C   C568      1.0  0.99212  0.28433  0.10659  1.0000
  C   C569      1.0  0.74613  0.40558  0.41120  1.0000
  H   H456      1.0  0.79825  0.14208  0.22526  1.0000
  H   H457      1.0  0.94351  0.25669  0.30211  1.0000
  C   C570      1.0  0.93823  0.36880  0.34954  1.0000
  H   H458      1.0  0.97877  0.28150  0.14257  1.0000
  H   H459      1.0  0.87741  0.40026  0.38530  1.0000
  H   H460      1.0  0.91467  0.46329  0.27896  1.0000
  H   H461      1.0  0.77220  0.42255  0.30396  1.0000
  C   C571      1.0  0.79561  0.06201  0.47020  1.0000
  H   H462      1.0  0.00296  0.01497  0.15657  1.0000
  C   C572      1.0  0.89180  0.36923  0.36651  1.0000
  H   H463      1.0  0.94709  0.22729  0.46793  1.0000
  H   H464      1.0  0.95465  0.07781  0.28090  1.0000
  H   H465      1.0  0.82074  0.14847  0.31019  1.0000
  H   H466      1.0  0.93214  0.06981  0.19561  1.0000
  C   C573      1.0  0.75525  0.10976  0.10580  1.0000
  H   H467      1.0  0.81798  0.20146  0.15018  1.0000
  S   S95       1.0  0.69893  0.12909  0.21065  1.0000
  C   C574      1.0  0.96546  0.30883  0.07187  1.0000
  C   C575      1.0  0.97523  0.34483  0.46853  1.0000
  H   H468      1.0  0.74426  0.24612  0.12802  1.0000
  C   C576      1.0  0.84563  0.13286  0.28460  1.0000
  C   C577      1.0  0.88972  0.11519  0.30038  1.0000
  C   C578      1.0  0.87685  0.13188  0.05219  1.0000
  C   C579      1.0  0.90826  0.08857  0.21996  1.0000
  C   C580      1.0  0.86481  0.10832  0.20335  1.0000
  C   C581      1.0  0.83312  0.12938  0.23634  1.0000
  P   P18       1.0  0.84807  0.10143  0.14126  1.0000
  C   C582      1.0  0.88946  0.12693  0.10054  1.0000
  C   C583      1.0  0.84108  0.03855  0.13112  1.0000
  C   C584      1.0  0.69296  0.46048  0.04723  1.0000
  C   C585      1.0  0.71021  0.05436  0.47636  1.0000
  H   H469      1.0  0.95896  0.39993  0.35516  1.0000
  S   S96       1.0  0.95627  0.99917  0.47189  1.0000
  C   C586      1.0  0.96171  0.38048  0.17480  1.0000
  C   C587      1.0  0.95079  0.16897  0.03588  1.0000
  C   C588      1.0  0.96600  0.35881  0.21951  1.0000
  H   H470      1.0  0.76891  0.00593  0.31733  1.0000
  C   C589      1.0  0.00186  0.39556  0.15127  1.0000
  C   C590      1.0  0.67895  0.32977  0.09230  1.0000
  C   C591      1.0  0.78403  0.48585  0.02185  1.0000
  H   H471      1.0  0.74507  0.06921  0.00886  1.0000
  C   C592      1.0  0.81791  0.01177  0.16544  1.0000
  C   C593      1.0  0.90741  0.15262  0.02004  1.0000
  P   P19       1.0  0.73739  0.49529  0.37155  1.0000
  H   H472      1.0  0.99842  0.41204  0.11641  1.0000
  S   S97       1.0  0.67422  0.26581  0.21042  1.0000
  C   C594      1.0  0.68054  0.35881  0.43584  1.0000
  H   H473      1.0  0.82850  0.00551  0.38339  1.0000
  H   H474      1.0  0.81974  0.49475  0.01253  1.0000
  H   H475      1.0  0.97516  0.18383  0.01080  1.0000
  Fe  Fe44      1.0  0.68872  0.30147  0.77574  1.0000
  S   S98       1.0  0.74878  0.26193  0.81315  1.0000
  C   C595      1.0  0.80654  0.15729  0.56607  1.0000
  Fe  Fe45      1.0  0.71482  0.25647  0.67791  1.0000
  S   S99       1.0  0.77736  0.21459  0.70715  1.0000
  H   H476      1.0  0.90716  0.33669  0.64229  1.0000
  Fe  Fe46      1.0  0.72888  0.19832  0.76796  1.0000
  S   S100      1.0  0.71725  0.12532  0.79976  1.0000
  Fe  Fe47      1.0  0.79284  0.28072  0.74945  1.0000
  S   S101      1.0  0.86150  0.32074  0.75255  1.0000
  S   S102      1.0  0.99965  0.46302  0.94834  1.0000
  S   S103      1.0  0.73336  0.32396  0.71479  1.0000
  C   C596      1.0  0.92286  0.39224  0.59269  1.0000
  C   C597      1.0  0.76311  0.13693  0.57370  1.0000
  C   C598      1.0  0.93122  0.33210  0.87683  1.0000
  C   C599      1.0  0.94667  0.36698  0.84596  1.0000
  H   H477      1.0  0.70514  0.41880  0.79766  1.0000
  C   C600      1.0  0.96284  0.31057  0.90944  1.0000
  C   C601      1.0  0.76236  0.01835  0.53584  1.0000
  S   S104      1.0  0.96055  0.07422  0.93576  1.0000
  S   S105      1.0  0.83395  0.04893  0.96343  1.0000
  C   C602      1.0  0.73842  0.43071  0.78425  1.0000
  C   C603      1.0  0.89790  0.37234  0.62990  1.0000
  C   C604      1.0  0.97633  0.23254  0.77844  1.0000
  H   H478      1.0  0.92958  0.45300  0.54797  1.0000
  H   H479      1.0  0.95059  0.28274  0.93232  1.0000
  H   H480      1.0  0.67807  0.09870  0.90107  1.0000
  C   C605      1.0  0.70875  0.24584  0.55112  1.0000
  C   C606      1.0  0.00448  0.15363  0.61858  1.0000
  Fe  Fe48      1.0  0.00399  0.03313  0.98957  1.0000
  Fe  Fe49      1.0  0.99543  0.03313  0.53294  1.0000
  H   H481      1.0  0.68849  0.09771  0.70374  1.0000
  H   H482      1.0  0.83988  0.38129  0.67807  1.0000
  C   C607      1.0  0.68468  0.41613  0.54817  1.0000
  Fe  Fe50      1.0  0.90686  0.01762  0.94389  1.0000
  H   H483      1.0  0.96460  0.26345  0.65492  1.0000
  C   C608      1.0  0.72408  0.48231  0.58454  1.0000
  C   C609      1.0  0.91992  0.29577  0.75579  1.0000
  C   C610      1.0  0.92941  0.25081  0.77534  1.0000
  C   C611      1.0  0.95796  0.32268  0.74043  1.0000
  H   H484      1.0  0.90062  0.23010  0.78798  1.0000
  H   H485      1.0  0.95099  0.35807  0.72640  1.0000
  C   C612      1.0  0.72468  0.07141  0.76649  1.0000
  C   C613      1.0  0.74726  0.03120  0.78754  1.0000
  C   C614      1.0  0.70702  0.06753  0.72000  1.0000
  H   H486      1.0  0.76001  0.03337  0.82396  1.0000
  H   H487      1.0  0.77436  0.42331  0.85204  1.0000
  H   H488      1.0  0.85896  0.47036  0.73638  1.0000
  H   H489      1.0  0.73593  0.13886  0.54626  1.0000
  H   H490      1.0  0.80451  0.12656  0.75181  1.0000
  H   H491      1.0  0.77404  0.27378  0.57673  1.0000
  C   C615      1.0  0.00304  0.20307  0.62470  1.0000
  C   C616      1.0  0.91005  0.43788  0.57663  1.0000
  H   H492      1.0  0.67368  0.46230  0.89798  1.0000
  H   H493      1.0  0.70127  0.02241  0.65759  1.0000
  C   C617      1.0  0.69287  0.46480  0.55031  1.0000
  C   C618      1.0  0.73989  0.40231  0.61345  1.0000
  C   C619      1.0  0.74736  0.45129  0.61695  1.0000
  C   C620      1.0  0.88248  0.02031  0.71466  1.0000
  P   P20       1.0  0.79285  0.47226  0.65658  1.0000
  C   C621      1.0  0.78630  0.45566  0.71807  1.0000
  C   C622      1.0  0.84655  0.44376  0.63426  1.0000
  C   C623      1.0  0.85991  0.39798  0.65052  1.0000
  C   C624      1.0  0.87151  0.46333  0.59656  1.0000
  C   C625      1.0  0.71448  0.02488  0.69382  1.0000
  H   H494      1.0  0.83718  0.02801  0.52575  1.0000
  C   C626      1.0  0.77741  0.43324  0.81494  1.0000
  C   C627      1.0  0.82066  0.44785  0.79750  1.0000
  C   C628      1.0  0.82506  0.45923  0.74931  1.0000
  H   H495      1.0  0.95495  0.12623  0.84296  1.0000
  H   H496      1.0  0.95667  0.12038  0.75569  1.0000
  S   S106      1.0  0.95306  0.10271  0.52752  1.0000
  H   H497      1.0  0.92236  0.38351  0.82037  1.0000
  H   H498      1.0  0.78266  0.42775  0.97169  1.0000
  C   C629      1.0  0.69563  0.01903  0.98151  1.0000
  H   H499      1.0  0.75955  0.37733  0.63585  1.0000
  C   C630      1.0  0.96608  0.22518  0.65030  1.0000
  C   C631      1.0  0.75480  0.26136  0.54592  1.0000
  Fe  Fe51      1.0  0.93963  0.48484  0.99739  1.0000
  H   H500      1.0  0.85119  0.44977  0.82099  1.0000
  C   C632      1.0  0.96930  0.12635  0.63806  1.0000
  H   H501      1.0  0.87809  0.13160  0.88577  1.0000
  S   S107      1.0  0.95442  0.49300  0.82169  1.0000
  H   H502      1.0  0.96318  0.48956  0.64711  1.0000
  C   C633      1.0  0.70822  0.38491  0.57966  1.0000
  H   H503      1.0  0.71247  0.43936  0.71252  1.0000
  H   H504      1.0  0.70210  0.34709  0.57757  1.0000
  H   H505      1.0  0.80363  0.13229  0.84036  1.0000
  H   H506      1.0  0.96196  0.45378  0.72788  1.0000
  H   H507      1.0  0.70145  0.40591  0.99336  1.0000
  H   H508      1.0  0.89766  0.15503  0.98265  1.0000
  C   C634      1.0  0.80196  0.03501  0.51169  1.0000
  H   H509      1.0  0.95152  0.37209  0.57553  1.0000
  C   C635      1.0  0.77889  0.02130  0.95818  1.0000
  C   C636      1.0  0.74272  0.44209  0.73594  1.0000
  H   H510      1.0  0.81331  0.17404  0.53219  1.0000
  C   C637      1.0  0.93232  0.14822  0.66347  1.0000
  C   C638      1.0  0.93063  0.19787  0.66945  1.0000
  P   P21       1.0  0.88359  0.11475  0.68349  1.0000
  C   C639      1.0  0.83440  0.12989  0.64406  1.0000
  C   C640      1.0  0.88899  0.05091  0.67579  1.0000
  C   C641      1.0  0.88927  0.03186  0.62944  1.0000
  H   H511      1.0  0.69472  0.27068  0.98695  1.0000
  C   C642      1.0  0.79139  0.10782  0.65028  1.0000
  C   C643      1.0  0.75549  0.11224  0.61577  1.0000
  C   C644      1.0  0.84177  0.15449  0.60117  1.0000
  C   C645      1.0  0.88040  0.12562  0.74696  1.0000
  C   C646      1.0  0.92277  0.12458  0.77341  1.0000
  C   C647      1.0  0.92198  0.12742  0.82317  1.0000
  C   C648      1.0  0.87893  0.13064  0.84713  1.0000
  C   C649      1.0  0.83671  0.13112  0.82123  1.0000
  C   C650      1.0  0.83733  0.12829  0.77125  1.0000
  H   H512      1.0  0.96963  0.08854  0.63129  1.0000
  H   H513      1.0  0.90116  0.21545  0.68782  1.0000
  H   H514      1.0  0.89252  0.05479  0.59886  1.0000
  H   H515      1.0  0.88102  0.03348  0.75095  1.0000
  H   H516      1.0  0.78703  0.08520  0.68068  1.0000
  H   H517      1.0  0.72241  0.09477  0.62024  1.0000
  H   H518      1.0  0.87535  0.16945  0.59301  1.0000
  H   H519      1.0  0.89495  0.32118  0.87459  1.0000
  H   H520      1.0  0.98359  0.19766  0.79322  1.0000
  C   C651      1.0  0.68446  0.22933  0.51094  1.0000
  C   C652      1.0  0.96072  0.49214  0.72419  1.0000
  C   C653      1.0  0.74029  0.03939  0.98506  1.0000
  C   C654      1.0  0.71632  0.02838  0.51847  1.0000
  Fe  Fe52      1.0  0.99294  0.02588  0.87914  1.0000
  S   S108      1.0  0.67897  0.24885  0.60632  1.0000
  H   H521      1.0  0.67494  0.48878  0.52535  1.0000
  C   C655      1.0  0.99400  0.37926  0.84660  1.0000
  H   H522      1.0  0.76728  0.99861  0.56870  1.0000
  C   C656      1.0  0.76309  0.44787  0.99875  1.0000
  H   H523      1.0  0.96265  0.33480  0.00046  1.0000
  Fe  Fe53      1.0  0.70023  0.74836  0.30072  1.0000
  H   H524      1.0  0.79198  0.53408  0.25855  1.0000
  S   S109      1.0  0.72566  0.69091  0.35292  1.0000
  C   C657      1.0  0.77778  0.52419  0.45740  1.0000
  H   H525      1.0  0.93378  0.97040  0.27817  1.0000
  Fe  Fe54      1.0  0.70332  0.85013  0.25998  1.0000
  S   S110      1.0  0.74601  0.91583  0.27599  1.0000
  S   S111      1.0  0.74332  0.78078  0.24367  1.0000
  P   P22       1.0  0.68336  0.52960  0.11886  1.0000
  H   H526      1.0  0.93787  0.82106  0.28026  1.0000
  Fe  Fe55      1.0  0.96660  0.57659  0.43807  1.0000
  S   S112      1.0  0.94208  0.62759  0.37933  1.0000
  C   C658      1.0  0.70023  0.52438  0.32719  1.0000
  S   S113      1.0  0.69807  0.71663  0.13338  1.0000
  C   C659      1.0  0.82290  0.94239  0.11378  1.0000
  H   H527      1.0  0.72818  0.62136  0.11812  1.0000
  C   C660      1.0  0.74076  0.53183  0.42436  1.0000
  C   C661      1.0  0.78628  0.67504  0.36015  1.0000
  C   C662      1.0  0.82031  0.68915  0.32768  1.0000
  C   C663      1.0  0.86813  0.67490  0.33433  1.0000
  C   C664      1.0  0.88218  0.64658  0.37345  1.0000
  C   C665      1.0  0.84834  0.63350  0.40652  1.0000
  C   C666      1.0  0.80054  0.64742  0.39963  1.0000
  H   H528      1.0  0.80975  0.71077  0.29737  1.0000
  H   H529      1.0  0.89424  0.68569  0.30894  1.0000
  H   H530      1.0  0.85885  0.61217  0.43707  1.0000
  H   H531      1.0  0.77452  0.63716  0.42524  1.0000
  C   C667      1.0  0.68738  0.95208  0.39053  1.0000
  H   H532      1.0  0.80588  0.49772  0.45053  1.0000
  C   C668      1.0  0.83130  0.51530  0.35162  1.0000
  H   H533      1.0  0.80633  0.71802  0.07938  1.0000
  H   H534      1.0  0.74319  0.77641  0.39167  1.0000
  C   C669      1.0  0.00399  0.89435  0.14690  1.0000
  C   C670      1.0  0.69412  0.70206  0.03766  1.0000
  H   H535      1.0  0.70455  0.66558  0.04596  1.0000
  C   C671      1.0  0.87469  0.50759  0.32859  1.0000
  C   C672      1.0  0.74519  0.53136  0.19796  1.0000
  C   C673      1.0  0.90741  0.82630  0.07251  1.0000
  H   H536      1.0  0.92671  0.74964  0.23050  1.0000
  C   C674      1.0  0.91738  0.96329  0.31205  1.0000
  H   H537      1.0  0.68390  0.95600  0.20137  1.0000
  C   C675      1.0  0.96086  0.76585  0.23098  1.0000
  P   P23       1.0  0.98463  0.70677  0.15464  1.0000
  C   C676      1.0  0.95364  0.74660  0.11422  1.0000
  C   C677      1.0  0.95653  0.81992  0.06907  1.0000
  C   C678      1.0  0.77234  0.62421  0.18025  1.0000
  H   H538      1.0  0.96912  0.66410  0.24877  1.0000
  C   C679      1.0  0.90421  0.75280  0.11696  1.0000
  C   C680      1.0  0.88118  0.79242  0.09588  1.0000
  C   C681      1.0  0.97955  0.77999  0.08936  1.0000
  C   C682      1.0  0.94986  0.65822  0.17397  1.0000
  C   C683      1.0  0.94997  0.64442  0.22206  1.0000
  C   C684      1.0  0.92650  0.60387  0.23594  1.0000
  C   C685      1.0  0.90368  0.57631  0.20179  1.0000
  C   C686      1.0  0.90368  0.58971  0.15382  1.0000
  C   C687      1.0  0.92673  0.63052  0.13989  1.0000
  H   H539      1.0  0.78188  0.66062  0.17379  1.0000
  C   C688      1.0  0.74116  0.60207  0.14912  1.0000
  H   H540      1.0  0.97675  0.84567  0.04995  1.0000
  H   H541      1.0  0.88362  0.72820  0.13698  1.0000
  H   H542      1.0  0.84306  0.79728  0.09820  1.0000
  H   H543      1.0  0.93313  0.75805  0.37652  1.0000
  H   H544      1.0  0.69254  0.98228  0.36752  1.0000
  H   H545      1.0  0.92691  0.59345  0.27317  1.0000
  H   H546      1.0  0.88625  0.54440  0.21243  1.0000
  H   H547      1.0  0.88665  0.56801  0.12720  1.0000
  H   H548      1.0  0.92768  0.63981  0.10236  1.0000
  C   C689      1.0  0.70411  0.59020  0.47808  1.0000
  C   C690      1.0  0.72608  0.55604  0.15842  1.0000
  H   H549      1.0  0.83333  0.57890  0.01971  1.0000
  H   H550      1.0  0.88971  0.85694  0.05599  1.0000
  C   C691      1.0  0.72768  0.97503  0.26104  1.0000
  H   H551      1.0  0.76163  0.93795  0.40208  1.0000
  C   C692      1.0  0.97207  0.85910  0.49810  1.0000
  C   C693      1.0  0.87562  0.94585  0.39996  1.0000
  C   C694      1.0  0.91271  0.91521  0.38375  1.0000
  C   C695      1.0  0.93373  0.92469  0.33972  1.0000
  P   P24       1.0  0.92178  0.85758  0.41151  1.0000
  H   H552      1.0  0.94701  0.70763  0.46742  1.0000
  H   H553      1.0  0.90344  0.53112  0.33583  1.0000
  H   H554      1.0  0.81373  0.61735  0.24471  1.0000
  H   H555      1.0  0.79055  0.94364  0.18323  1.0000
  H   H556      1.0  0.98319  0.86426  0.15629  1.0000
  C   C696      1.0  0.85854  0.98348  0.37163  1.0000
  H   H557      1.0  0.77710  0.53962  0.07611  1.0000
  H   H558      1.0  0.69063  0.72024  0.49473  1.0000
  C   C697      1.0  0.80920  0.96381  0.15689  1.0000
  C   C698      1.0  0.86794  0.82721  0.40036  1.0000
  C   C699      1.0  0.83579  0.84360  0.36509  1.0000
  C   C700      1.0  0.79104  0.82497  0.36210  1.0000
  C   C701      1.0  0.77856  0.78910  0.39298  1.0000
  C   C702      1.0  0.81163  0.76981  0.42525  1.0000
  C   C703      1.0  0.85606  0.78917  0.42955  1.0000
  C   C704      1.0  0.99775  0.74790  0.20180  1.0000
  C   C705      1.0  0.82200  0.61575  0.01529  1.0000
  H   H559      1.0  0.85552  0.95270  0.04544  1.0000
  H   H560      1.0  0.85783  0.93945  0.43318  1.0000
  C   C706      1.0  0.77762  0.55310  0.22811  1.0000
  C   C707      1.0  0.75982  0.51093  0.05805  1.0000
  S   S114      1.0  0.98252  0.54030  0.03395  1.0000
  H   H561      1.0  0.81472  0.90568  0.10662  1.0000
  H   H562      1.0  0.73603  0.59068  0.33295  1.0000
  C   C708      1.0  0.79021  0.59990  0.22008  1.0000
  C   C709      1.0  0.72629  0.92705  0.41021  1.0000
  C   C710      1.0  0.92774  0.86436  0.47552  1.0000
  H   H563      1.0  0.84392  0.87191  0.34078  1.0000
  H   H564      1.0  0.76554  0.83923  0.33656  1.0000
  H   H565      1.0  0.80260  0.74001  0.44698  1.0000
  H   H566      1.0  0.88065  0.77520  0.45624  1.0000
  C   C711      1.0  0.71958  0.88783  0.43964  1.0000
  H   H567      1.0  0.85252  0.87728  0.48746  1.0000
  C   C712      1.0  0.96677  0.80686  0.25855  1.0000
  H   H568      1.0  0.73513  0.49570  0.20623  1.0000
  C   C713      1.0  0.70363  0.56457  0.43531  1.0000
  H   H569      1.0  0.67540  0.61564  0.48554  1.0000
  H   H570      1.0  0.95380  0.94632  0.17590  1.0000
  H   H571      1.0  0.82716  0.63241  0.09017  1.0000
  C   C714      1.0  0.77834  0.55019  0.50008  1.0000
  C   C715      1.0  0.80858  0.69448  0.04872  1.0000
  C   C716      1.0  0.84602  0.96876  0.07948  1.0000
  C   C717      1.0  0.81948  0.64607  0.05489  1.0000
  H   H572      1.0  0.82675  0.54555  0.37527  1.0000
  S   S115      1.0  0.92371  0.53360  0.48769  1.0000
  C   C718      1.0  0.96665  0.77506  0.37379  1.0000
  C   C719      1.0  0.69839  0.98491  0.22171  1.0000
  C   C720      1.0  0.97162  0.82285  0.38768  1.0000
  H   H573      1.0  0.96186  0.90182  0.32602  1.0000
  C   C721      1.0  0.68613  0.73408  0.07447  1.0000
  C   C722      1.0  0.98766  0.94047  0.15845  1.0000
  C   C723      1.0  0.71421  0.49823  0.07122  1.0000
  C   C724      1.0  0.70715  0.57229  0.31660  1.0000
  H   H574      1.0  0.75048  0.86877  0.45324  1.0000
  H   H575      1.0  0.67323  0.74803  0.41614  1.0000
  Fe  Fe56      1.0  0.68193  0.76574  0.19550  1.0000
  H   H576      1.0  0.00364  0.85138  0.47785  1.0000
  H   H577      1.0  0.00116  0.71147  0.34506  1.0000
  H   H578      1.0  0.67383  0.57002  0.41121  1.0000
  C   C725      1.0  0.67645  0.59701  0.28542  1.0000
  H   H579      1.0  0.68192  0.63410  0.27771  1.0000
  C   C726      1.0  0.97061  0.71802  0.49595  1.0000
  C   C727      1.0  0.79970  0.71254  0.00301  1.0000
  C   C728      1.0  0.67365  0.87359  0.45009  1.0000
  C   C729      1.0  0.87906  0.99200  0.32758  1.0000
  H   H580      1.0  0.86726  0.91658  0.65508  1.0000
  S   S116      1.0  0.90763  0.53728  0.94479  1.0000
  H   H581      1.0  0.73036  0.51988  0.58511  1.0000
  C   C730      1.0  0.79140  0.53637  0.65993  1.0000
  H   H582      1.0  0.69957  0.68661  0.96678  1.0000
  C   C731      1.0  0.95404  0.59067  0.71397  1.0000
  H   H583      1.0  0.86359  0.63084  0.65936  1.0000
  C   C732      1.0  0.95510  0.71840  0.54325  1.0000
  C   C733      1.0  0.75267  0.81588  0.53031  1.0000
  Fe  Fe57      1.0  0.98180  0.93680  0.93898  1.0000
  C   C734      1.0  0.79049  0.60452  0.79727  1.0000
  C   C735      1.0  0.88223  0.98353  0.62194  1.0000
  Fe  Fe58      1.0  0.81323  0.77018  0.73484  1.0000
  S   S117      1.0  0.78871  0.83580  0.77547  1.0000
  S   S118      1.0  0.88030  0.72472  0.74207  1.0000
  Fe  Fe59      1.0  0.71711  0.75640  0.68772  1.0000
  C   C736      1.0  0.68885  0.98118  0.94989  1.0000
  Fe  Fe60      1.0  0.75074  0.85758  0.70851  1.0000
  S   S119      1.0  0.74750  0.93268  0.67889  1.0000
  Fe  Fe61      1.0  0.72394  0.79468  0.79048  1.0000
  C   C737      1.0  0.93862  0.80381  0.96252  1.0000
  S   S120      1.0  0.78132  0.79552  0.66601  1.0000
  S   S121      1.0  0.75081  0.72784  0.75472  1.0000
  H   H584      1.0  0.75200  0.54032  0.79054  1.0000
  H   H585      1.0  0.71842  0.62738  0.91285  1.0000
  C   C738      1.0  0.98559  0.80578  0.94782  1.0000
  H   H586      1.0  0.80713  0.54439  0.52534  1.0000
  C   C739      1.0  0.89141  0.87809  0.55306  1.0000
  C   C740      1.0  0.83291  0.56170  0.65706  1.0000
  C   C741      1.0  0.00008  0.99401  0.74349  1.0000
  H   H587      1.0  0.88478  0.75917  0.98981  1.0000
  H   H588      1.0  0.91660  0.83611  0.96407  1.0000
  C   C742      1.0  0.92070  0.76014  0.97719  1.0000
  H   H589      1.0  0.82578  0.72289  0.56389  1.0000
  C   C743      1.0  0.96140  0.51232  0.67831  1.0000
  C   C744      1.0  0.99620  0.97884  0.69559  1.0000
  H   H590      1.0  0.77244  0.95799  0.77790  1.0000
  C   C745      1.0  0.83128  0.61134  0.66143  1.0000
  C   C746      1.0  0.69118  0.71636  0.98986  1.0000
  H   H591      1.0  0.70000  0.87647  0.95747  1.0000
  Fe  Fe62      1.0  0.97383  0.55515  0.54582  1.0000
  S   S122      1.0  0.68402  0.81997  0.72474  1.0000
  C   C747      1.0  0.81226  0.63351  0.96960  1.0000
  H   H592      1.0  0.93921  0.87877  0.61326  1.0000
  C   C748      1.0  0.79260  0.79147  0.54887  1.0000
  C   C749      1.0  0.72728  0.96376  0.92230  1.0000
  C   C750      1.0  0.73860  0.98523  0.71408  1.0000
  C   C751      1.0  0.97605  0.86403  0.54764  1.0000
  H   H593      1.0  0.72251  0.93484  0.89733  1.0000
  S   S123      1.0  0.92623  0.66456  0.99773  1.0000
  C   C752      1.0  0.93579  0.74805  0.72998  1.0000
  C   C753      1.0  0.94910  0.71799  0.97600  1.0000
  C   C754      1.0  0.93967  0.78969  0.70349  1.0000
  H   H594      1.0  0.86877  0.94900  0.73696  1.0000
  H   H595      1.0  0.90812  0.80905  0.69128  1.0000
  S   S124      1.0  0.93564  0.97257  0.88248  1.0000
  H   H596      1.0  0.98330  0.97454  0.77150  1.0000
  C   C755      1.0  0.74863  0.56103  0.67070  1.0000
  C   C756      1.0  0.87525  0.97198  0.70699  1.0000
  C   C757      1.0  0.99519  0.71950  0.95856  1.0000
  C   C758      1.0  0.93579  0.87379  0.57505  1.0000
  H   H597      1.0  0.86011  0.88586  0.57428  1.0000
  H   H598      1.0  0.74933  0.85423  0.53488  1.0000
  C   C759      1.0  0.74128  0.58285  0.51065  1.0000
  C   C760      1.0  0.95785  0.52103  0.76528  1.0000
  S   S125      1.0  0.94887  0.58812  0.61586  1.0000
  C   C761      1.0  0.79571  0.74183  0.54772  1.0000
  C   C762      1.0  0.88734  0.87360  0.50358  1.0000
  C   C763      1.0  0.98463  0.80554  0.69171  1.0000
  H   H599      1.0  0.80141  0.96948  0.90540  1.0000
  C   C764      1.0  0.77225  0.98321  0.92690  1.0000
  C   C765      1.0  0.68113  0.76565  0.97320  1.0000
  H   H600      1.0  0.95210  0.59331  0.79120  1.0000
  H   H601      1.0  0.74105  0.60180  0.54446  1.0000
  C   C766      1.0  0.75906  0.71661  0.52743  1.0000
  C   C767      1.0  0.98590  0.73085  0.57999  1.0000
  H   H602      1.0  0.70527  0.55607  0.86424  1.0000
  C   C768      1.0  0.78826  0.63583  0.66980  1.0000
  C   C769      1.0  0.74708  0.61057  0.67547  1.0000
  S   S126      1.0  0.68825  0.70972  0.62859  1.0000
  H   H603      1.0  0.78722  0.67432  0.67284  1.0000
  H   H604      1.0  0.71405  0.62941  0.68392  1.0000
  H   H605      1.0  0.76103  0.67828  0.52775  1.0000
  C   C770      1.0  0.79945  0.68192  0.96320  1.0000
  P   P25       1.0  0.78460  0.70507  0.90450  1.0000
  C   C771      1.0  0.73377  0.74683  0.91059  1.0000
  C   C772      1.0  0.83812  0.73136  0.88379  1.0000
  C   C773      1.0  0.83840  0.77869  0.86830  1.0000
  C   C774      1.0  0.88023  0.79791  0.85199  1.0000
  C   C775      1.0  0.92179  0.76956  0.84962  1.0000
  C   C776      1.0  0.92162  0.72204  0.86384  1.0000
  C   C777      1.0  0.88026  0.70322  0.88166  1.0000
  H   H606      1.0  0.94970  0.62889  0.71010  1.0000
  H   H607      1.0  0.88150  0.96996  0.58584  1.0000
  C   C778      1.0  0.87459  0.95368  0.66066  1.0000
  C   C779      1.0  0.75437  0.98835  0.76146  1.0000
  C   C780      1.0  0.74184  0.80278  0.93374  1.0000
  C   C781      1.0  0.77133  0.65499  0.86605  1.0000
  C   C782      1.0  0.73786  0.62219  0.88003  1.0000
  H   H608      1.0  0.82006  0.81089  0.56639  1.0000
  C   C783      1.0  0.75696  0.57237  0.81136  1.0000
  H   H609      1.0  0.81601  0.60956  0.93942  1.0000
  C   C784      1.0  0.79756  0.64564  0.82428  1.0000
  C   C785      1.0  0.95717  0.56173  0.67292  1.0000
  H   H610      1.0  0.80640  0.80071  0.86782  1.0000
  H   H611      1.0  0.88038  0.83460  0.84036  1.0000
  H   H612      1.0  0.95404  0.78436  0.83650  1.0000
  H   H613      1.0  0.95380  0.70001  0.86178  1.0000
  H   H614      1.0  0.88116  0.66658  0.89347  1.0000
  H   H615      1.0  0.97393  0.73115  0.61673  1.0000
  C   C786      1.0  0.97696  0.72336  0.74595  1.0000
  H   H616      1.0  0.91948  0.70846  0.55164  1.0000
  H   H617      1.0  0.77678  0.81391  0.94326  1.0000
  C   C787      1.0  0.95517  0.57054  0.76002  1.0000
  H   H618      1.0  0.86664  0.54318  0.65250  1.0000
  H   H619      1.0  0.82386  0.66977  0.81220  1.0000
  Fe  Fe63      1.0  0.95571  0.59108  0.97727  1.0000
  S   S127      1.0  0.69003  0.80706  0.86263  1.0000
  H   H620      1.0  0.97407  0.69132  0.76677  1.0000
  H   H621      1.0  0.81176  0.59743  0.76574  1.0000
  H   H622      1.0  0.71660  0.54189  0.67577  1.0000
  Fe  Fe64      1.0  0.96949  0.51868  0.89750  1.0000
  C   C788      1.0  0.73063  0.58127  0.85271  1.0000
  C   C789      1.0  0.67666  0.72942  0.89757  1.0000
  H   H623      1.0  0.98773  0.83728  0.67052  1.0000
  H   H624      1.0  0.97651  0.94761  0.68722  1.0000
  C   C790      1.0  0.69453  0.84160  0.94261  1.0000
  S   S128      1.0  0.94920  0.97799  0.00041  1.0000
  H   H625      1.0  0.67859  0.67603  0.78687  1.0000
  C   C791      1.0  0.71646  0.79091  0.50796  1.0000
  H   H626      1.0  0.68238  0.91140  0.75998  1.0000
  H   H627      1.0  0.86104  0.49770  0.58196  1.0000
  H   H628      1.0  0.79160  0.75017  0.99921  1.0000
  C   C792      1.0  0.71943  0.74085  0.50790  1.0000
