data_image0
_chemical_formula_structural       SHC3H2CHC2HC2PC2H3CHC2HC6SHCHC2HCH2PHC3HCHC2H2C2H2C4HFeCHCHSC2H2CH3CHC2HCHCH2CP2H2CHC2HCH2SH2C3HCSC5HCHCH2FeHCHC3FeHC2HSHCSC4FeH2PHSCH2CHC2HC3SCHC3HFeS2C5H2C4HCHCHC5FeS2FeS2HC4H3CSH2C2H2CHCHCHC3SCSHFeCHCH2C3HCHCH3C3HC2PCSH2CH3CSH4CFeC2PSH3C3H2C2H2C2FeCS2FeSHC2HC3H2C3H2C7HSCHC2H3FeSHC3HC3H2C2HC6H3CPCH3C3H3CHC2HC2H2C2HCH2CH2C4HCHCHC2H2C5HCH2CPCH3SCSHCHC4H4CH2CHCH2C3H2C2HCFeSHFeH2C2HC3FeCH2C2SH2CHCHSC2HCH2CHCSHC2HC2H2PC4FeSH2C2H3C3H2C2HCHCHC5HC3HCHCHC2HPHC7H6CHC2SC3SH2SCHC2H2C2SHC2H2CH2CH3CFeHFeC2HCHCH2S2C4H3FeSC3H4C6H2PHCHC2H2CHCHCHC4HC3HCHC5H3C4H2C2H4C3H2CSHCH3C3H3C3HCH3CSCHCHC3FeHC5HCH3CHCFeS2Fe2SC7H5SHSHSHC2HC2H2C4SC2FeHCHC2H2SCH2SCH2C2HC2H2SH2C3HSH6CH4SHCHC10PC15HFeCH2CH10CHCHCH3C3H3CHSCFeHCHCHFeCSHSH2CH5C2H3C4PCHC2HC2HC4HSHC2HCH2C2HC2HC3HCHC2HCH2CHCH2CH2CH2CHC9FeCH3C2H3C2FeSFeSFeHCSH2C7H6C5SH2C2PC2H2C2HCH4C2HC3HS2C2H2CHC3H4FeCSCHC3H5C2HFeCHCSCHCH3SFeCSFePSFeS2H3CFeSCHSC7H4C2HCSC2H4CSHFeHCHC5PC6HC8HCH8CH2CH2CH2C5H3CHC2H2CSC2HCH2FeSHSHCFeS2FeHFeSHCHFeSC3HCHCH2C3HC6H3C5SHC2HC2SCH7CH5C2PC4HC3HC4PCHC2HC2HFeH2CHCHCH2CSH2C2SHCH3C3SC3HC2H3CPC2SC3H3CHSH2SFeCSFeSCHFeSC3HCH2C6H4SHC3H2CSC6PC2HC2HFeC5H2CH6CH4CH2CH2CH2C4H4CH2C3HC2H2C3HCHCHCHC3HCSC3PCHC2HC2H2CPC5H3C2HC2H5CHC2HC2HC2PHCHCHCH2C2H2C4H
_chemical_formula_sum              "S96 H576 C720 P24 Fe48"
_cell_length_a       36.4824
_cell_length_b       36.6179
_cell_length_c       32.8346
_cell_angle_alpha    90.3202
_cell_angle_beta     89.8448
_cell_angle_gamma    119.666

_space_group_name_H-M_alt    "P 1"
_space_group_IT_number       1

loop_
  _space_group_symop_operation_xyz
  'x, y, z'

loop_
  _atom_site_type_symbol
  _atom_site_label
  _atom_site_symmetry_multiplicity
  _atom_site_fract_x
  _atom_site_fract_y
  _atom_site_fract_z
  _atom_site_occupancy
  S   S1        1.0  0.10403  0.32248  0.25868  1.0000
  H   H1        1.0  0.11093  0.19177  0.17165  1.0000
  C   C1        1.0  0.07104  0.31941  0.21809  1.0000
  C   C2        1.0  0.08621  0.32694  0.17782  1.0000
  C   C3        1.0  0.05975  0.32445  0.14543  1.0000
  H   H2        1.0  0.11809  0.33392  0.17148  1.0000
  H   H3        1.0  0.07133  0.32979  0.11443  1.0000
  C   C4        1.0  0.16549  0.32266  0.05401  1.0000
  H   H4        1.0  0.15554  0.31243  0.08494  1.0000
  C   C5        1.0  0.12251  0.46245  0.11176  1.0000
  C   C6        1.0  0.15168  0.41881  0.08870  1.0000
  H   H5        1.0  0.16051  0.39515  0.09491  1.0000
  C   C7        1.0  0.07930  0.11685  0.08473  1.0000
  C   C8        1.0  0.04793  0.09669  0.11448  1.0000
  P   P1        1.0  0.11254  0.17336  0.08485  1.0000
  C   C9        1.0  0.11991  0.19095  0.03258  1.0000
  C   C10       1.0  0.15935  0.22276  0.01892  1.0000
  H   H6        1.0  0.10847  0.32368  0.03851  1.0000
  H   H7        1.0  0.18595  0.23804  0.03944  1.0000
  H   H8        1.0  0.16042  0.12829  0.09719  1.0000
  C   C11       1.0  0.04000  0.44115  0.14449  1.0000
  H   H9        1.0  0.07161  0.21904  0.21087  1.0000
  C   C12       1.0  0.08626  0.19643  0.11308  1.0000
  C   C13       1.0  0.16311  0.18813  0.10777  1.0000
  H   H10       1.0  0.13212  0.41964  0.14986  1.0000
  C   C14       1.0  0.15495  0.43394  0.04915  1.0000
  C   C15       1.0  0.13550  0.43291  0.11989  1.0000
  C   C16       1.0  0.17883  0.15998  0.10873  1.0000
  C   C17       1.0  0.09051  0.20049  0.15567  1.0000
  C   C18       1.0  0.06783  0.21529  0.17810  1.0000
  C   C19       1.0  0.02937  0.30912  0.22566  1.0000
  S   S2        1.0  0.04197  0.37556  0.01848  1.0000
  H   H11       1.0  0.16583  0.42171  0.02470  1.0000
  C   C20       1.0  0.09704  0.43065  0.21779  1.0000
  H   H12       1.0  0.07662  0.40273  0.20020  1.0000
  C   C21       1.0  0.14294  0.46390  0.04087  1.0000
  C   C22       1.0  0.13866  0.32872  0.02768  1.0000
  H   H13       1.0  0.04275  0.11451  0.13794  1.0000
  C   C23       1.0  0.10688  0.42617  0.25786  1.0000
  H   H14       1.0  0.17340  0.40614  0.28138  1.0000
  H   H15       1.0  0.17722  0.25164  0.12172  1.0000
  P   P2        1.0  0.09612  0.47647  0.15054  1.0000
  H   H16       1.0  0.10947  0.10733  0.03200  1.0000
  C   C24       1.0  0.08516  0.09248  0.05497  1.0000
  C   C25       1.0  0.18823  0.22907  0.12291  1.0000
  C   C26       1.0  0.12679  0.47810  0.07198  1.0000
  H   H17       1.0  0.04211  0.43747  0.07864  1.0000
  C   C27       1.0  0.02261  0.42730  0.10555  1.0000
  H   H18       1.0  0.09440  0.39517  0.27077  1.0000
  C   C28       1.0  0.05945  0.20809  0.09335  1.0000
  C   C29       1.0  0.04028  0.22548  0.15831  1.0000
  H   H19       1.0  0.05579  0.20598  0.06064  1.0000
  H   H20       1.0  0.17866  0.38929  0.20483  1.0000
  C   C30       1.0  0.11223  0.47082  0.20109  1.0000
  C   C31       1.0  0.13177  0.46159  0.28173  1.0000
  H   H21       1.0  0.01690  0.30214  0.25623  1.0000
  H   H22       1.0  0.05526  0.14807  0.01482  1.0000
  C   C32       1.0  0.05960  0.04873  0.05460  1.0000
  C   C33       1.0  0.03651  0.22246  0.11597  1.0000
  C   C34       1.0  0.01797  0.31399  0.15334  1.0000
  C   C35       1.0  0.01314  0.42740  0.17855  1.0000
  H   H23       1.0  0.02537  0.43805  0.20893  1.0000
  Fe  Fe1       1.0  0.07953  0.32580  0.32166  1.0000
  C   C36       1.0  0.02813  0.02898  0.08401  1.0000
  H   H24       1.0  0.13819  0.45791  0.31324  1.0000
  C   C37       1.0  0.20582  0.40915  0.18611  1.0000
  H   H25       1.0  0.06411  0.03011  0.03144  1.0000
  S   S3        1.0  0.01320  0.27422  0.00725  1.0000
  C   C38       1.0  0.02236  0.05294  0.11395  1.0000
  C   C39       1.0  0.17473  0.22451  0.32109  1.0000
  H   H26       1.0  0.14472  0.47497  0.00998  1.0000
  H   H27       1.0  0.19265  0.35075  0.28561  1.0000
  C   C40       1.0  0.20348  0.41336  0.29447  1.0000
  H   H28       1.0  0.02236  0.23648  0.17573  1.0000
  H   H29       1.0  0.01587  0.23150  0.10072  1.0000
  H   H30       1.0  0.16975  0.19547  0.30728  1.0000
  C   C41       1.0  0.20519  0.33019  0.04057  1.0000
  H   H31       1.0  0.20203  0.35762  0.15058  1.0000
  C   C42       1.0  0.21175  0.26223  0.31301  1.0000
  C   C43       1.0  0.08610  0.17241  0.00493  1.0000
  H   H32       1.0  0.11619  0.50011  0.06454  1.0000
  C   C44       1.0  0.50140  0.10157  0.17489  1.0000
  H   H33       1.0  0.29642  0.00150  0.20253  1.0000
  C   C45       1.0  0.50475  0.48221  0.06785  1.0000
  H   H34       1.0  0.50228  0.04632  0.30901  1.0000
  H   H35       1.0  0.21707  0.46640  0.21562  1.0000
  C   C46       1.0  0.21752  0.34288  0.00042  1.0000
  P   P3        1.0  0.26589  0.34905  0.32019  1.0000
  P   P4        1.0  0.32208  0.49296  0.10676  1.0000
  H   H36       1.0  0.46430  0.23445  0.10007  1.0000
  H   H37       1.0  0.25699  0.36680  0.23416  1.0000
  C   C47       1.0  0.21921  0.17289  0.12422  1.0000
  H   H38       1.0  0.22165  0.47770  0.30817  1.0000
  C   C48       1.0  0.48732  0.19905  0.18664  1.0000
  C   C49       1.0  0.36732  0.48953  0.12420  1.0000
  H   H39       1.0  0.35831  0.39881  0.32491  1.0000
  C   C50       1.0  0.23064  0.45362  0.30958  1.0000
  H   H40       1.0  0.39501  0.13677  0.28352  1.0000
  H   H41       1.0  0.37137  0.48075  0.04162  1.0000
  S   S4        1.0  0.23873  0.32390  0.07482  1.0000
  H   H42       1.0  0.46525  0.48064  0.15640  1.0000
  H   H43       1.0  0.39252  0.18949  0.23291  1.0000
  C   C51       1.0  0.31719  0.02904  0.22029  1.0000
  C   C52       1.0  0.26297  0.47835  0.16847  1.0000
  C   C53       1.0  0.32827  0.08695  0.27379  1.0000
  H   H44       1.0  0.26399  0.40286  0.10822  1.0000
  C   C54       1.0  0.39764  0.45313  0.16066  1.0000
  S   S5        1.0  0.35837  0.36683  0.09103  1.0000
  C   C55       1.0  0.43108  0.14169  0.14916  1.0000
  C   C56       1.0  0.25276  0.39042  0.31522  1.0000
  C   C57       1.0  0.50091  0.20094  0.32096  1.0000
  C   C58       1.0  0.24419  0.21393  0.13867  1.0000
  C   C59       1.0  0.47015  0.02018  0.20476  1.0000
  H   H45       1.0  0.39362  0.42682  0.17888  1.0000
  C   C60       1.0  0.21446  0.38189  0.29714  1.0000
  H   H46       1.0  0.23179  0.01869  0.18562  1.0000
  C   C61       1.0  0.35332  0.15695  0.18147  1.0000
  H   H47       1.0  0.24613  0.46341  0.05686  1.0000
  H   H48       1.0  0.24821  0.27400  0.14827  1.0000
  Fe  Fe2       1.0  0.39393  0.39366  0.03287  1.0000
  H   H49       1.0  0.42934  0.03244  0.24203  1.0000
  C   C62       1.0  0.34725  0.20226  0.13016  1.0000
  H   H50       1.0  0.35210  0.30600  0.23744  1.0000
  C   C63       1.0  0.26090  0.44859  0.99785  1.0000
  C   C64       1.0  0.31551  0.32601  0.27358  1.0000
  C   C65       1.0  0.48058  0.14680  0.26877  1.0000
  Fe  Fe3       1.0  0.34926  0.04467  0.27417  1.0000
  H   H51       1.0  0.41276  0.15840  0.09310  1.0000
  C   C66       1.0  0.46304  0.21254  0.12284  1.0000
  C   C67       1.0  0.47861  0.18124  0.28545  1.0000
  H   H52       1.0  0.33337  0.32506  0.17193  1.0000
  S   S6        1.0  0.38845  0.28967  0.13640  1.0000
  H   H53       1.0  0.48785  0.44988  0.07785  1.0000
  C   C68       1.0  0.27819  0.35414  0.23562  1.0000
  S   S7        1.0  0.43660  0.46258  0.01704  1.0000
  C   C69       1.0  0.45355  0.04507  0.21894  1.0000
  C   C70       1.0  0.29421  0.34751  0.19923  1.0000
  C   C71       1.0  0.37957  0.19273  0.20452  1.0000
  C   C72       1.0  0.36240  0.45612  0.14878  1.0000
  Fe  Fe4       1.0  0.30077  0.33177  0.05205  1.0000
  H   H54       1.0  0.32325  0.31648  0.30197  1.0000
  H   H55       1.0  0.41054  0.26048  0.20811  1.0000
  P   P5        1.0  0.44977  0.11961  0.22411  1.0000
  H   H56       1.0  0.46006  0.19312  0.27080  1.0000
  S   S8        1.0  0.34082  0.10535  0.19635  1.0000
  C   C73       1.0  0.43402  0.16975  0.11890  1.0000
  H   H57       1.0  0.28535  0.35496  0.17022  1.0000
  H   H58       1.0  0.33153  0.43200  0.15836  1.0000
  C   C74       1.0  0.39400  0.09006  0.23712  1.0000
  H   H59       1.0  0.27587  0.22426  0.14977  1.0000
  C   C75       1.0  0.32107  0.33049  0.20005  1.0000
  C   C76       1.0  0.33716  0.16202  0.14431  1.0000
  H   H60       1.0  0.23152  0.15134  0.12455  1.0000
  C   C77       1.0  0.34040  0.47202  0.03004  1.0000
  C   C78       1.0  0.37386  0.23804  0.15300  1.0000
  C   C79       1.0  0.22860  0.24189  0.13810  1.0000
  S   S9        1.0  0.30851  0.27499  0.04395  1.0000
  C   C80       1.0  0.38981  0.23299  0.19028  1.0000
  H   H61       1.0  0.31521  0.10108  0.29389  1.0000
  C   C81       1.0  0.27009  0.46215  0.03835  1.0000
  C   C82       1.0  0.36464  0.05039  0.21378  1.0000
  C   C83       1.0  0.37538  0.10792  0.26749  1.0000
  H   H62       1.0  0.31704  0.13460  0.12613  1.0000
  Fe  Fe5       1.0  0.36854  0.31161  0.07961  1.0000
  S   S10       1.0  0.40864  0.34138  0.02366  1.0000
  S   S11       1.0  0.40569  0.05652  0.31685  1.0000
  C   C84       1.0  0.30997  0.47397  0.05481  1.0000
  C   C85       1.0  0.25408  0.41698  0.13170  1.0000
  C   C86       1.0  0.28912  0.34388  0.27319  1.0000
  C   C87       1.0  0.33165  0.31969  0.23715  1.0000
  C   C88       1.0  0.21902  0.39133  0.15574  1.0000
  H   H63       1.0  0.40779  0.10875  0.14598  1.0000
  H   H64       1.0  0.33483  0.20561  0.10141  1.0000
  C   C89       1.0  0.46880  0.08592  0.20391  1.0000
  C   C90       1.0  0.29902  0.04714  0.25042  1.0000
  C   C91       1.0  0.27653  0.46060  0.13802  1.0000
  C   C92       1.0  0.45647  0.15631  0.18411  1.0000
  H   H65       1.0  0.26527  0.03250  0.25458  1.0000
  C   C93       1.0  0.22761  0.45265  0.19228  1.0000
  H   H66       1.0  0.37692  0.03825  0.19060  1.0000
  C   C94       1.0  0.43799  0.48342  0.14809  1.0000
  H   H67       1.0  0.23492  0.26160  0.29289  1.0000
  C   C95       1.0  0.49013  0.22708  0.15637  1.0000
  C   C96       1.0  0.26907  0.46257  0.32709  1.0000
  C   C97       1.0  0.48677  0.49622  0.03863  1.0000
  C   C98       1.0  0.50242  0.03592  0.17584  1.0000
  C   C99       1.0  0.28018  0.43116  0.32989  1.0000
  Fe  Fe6       1.0  0.09108  0.31706  0.41344  1.0000
  S   S12       1.0  0.04275  0.33622  0.42991  1.0000
  S   S13       1.0  0.11767  0.29081  0.46150  1.0000
  Fe  Fe7       1.0  0.07315  0.38608  0.38179  1.0000
  S   S14       1.0  0.04980  0.27117  0.36472  1.0000
  S   S15       1.0  0.12445  0.37000  0.36888  1.0000
  H   H68       1.0  0.14627  0.25760  0.52531  1.0000
  C   C100      1.0  0.16716  0.31224  0.48738  1.0000
  C   C101      1.0  0.20128  0.35183  0.47820  1.0000
  C   C102      1.0  0.21078  0.30380  0.53948  1.0000
  C   C103      1.0  0.17234  0.28830  0.51798  1.0000
  H   H69       1.0  0.19798  0.37068  0.45480  1.0000
  H   H70       1.0  0.21402  0.28502  0.56299  1.0000
  H   H71       1.0  0.03269  0.20740  0.44085  1.0000
  C   C104      1.0  0.05871  0.47631  0.38003  1.0000
  S   S16       1.0  0.09295  0.45551  0.38808  1.0000
  H   H72       1.0  0.19156  0.32805  0.37096  1.0000
  H   H73       1.0  0.12672  0.26140  0.38470  1.0000
  C   C105      1.0  0.18734  0.29944  0.35667  1.0000
  C   C106      1.0  0.15045  0.26166  0.36464  1.0000
  H   H74       1.0  0.20908  0.08251  0.58118  1.0000
  H   H75       1.0  0.16653  0.32804  0.64957  1.0000
  C   C107      1.0  0.23384  0.08512  0.56108  1.0000
  H   H76       1.0  0.11534  0.19512  0.35319  1.0000
  C   C108      1.0  0.14408  0.22424  0.34687  1.0000
  H   H77       1.0  0.21515  0.01935  0.56464  1.0000
  C   C109      1.0  0.01550  0.45026  0.37318  1.0000
  H   H78       1.0  0.07089  0.48000  0.47378  1.0000
  C   C110      1.0  0.23977  0.36725  0.49958  1.0000
  C   C111      1.0  0.23733  0.04963  0.55192  1.0000
  C   C112      1.0  0.04057  0.47723  0.48099  1.0000
  S   S17       1.0  0.03075  0.34539  0.33176  1.0000
  C   C113      1.0  0.21832  0.30007  0.33069  1.0000
  S   S18       1.0  0.30635  0.02152  0.33268  1.0000
  H   H79       1.0  0.44780  0.04432  0.41703  1.0000
  Fe  Fe8       1.0  0.32045  0.34348  0.60917  1.0000
  C   C114      1.0  0.34629  0.38761  0.35519  1.0000
  H   H80       1.0  0.44557  0.30140  0.57813  1.0000
  C   C115      1.0  0.33070  0.17640  0.66224  1.0000
  H   H81       1.0  0.49922  0.22747  0.33357  1.0000
  H   H82       1.0  0.38192  0.39566  0.45251  1.0000
  C   C116      1.0  0.24481  0.34351  0.53049  1.0000
  C   C117      1.0  0.41293  0.19895  0.59925  1.0000
  C   C118      1.0  0.31676  0.36180  0.43434  1.0000
  H   H83       1.0  0.28999  0.49371  0.33914  1.0000
  C   C119      1.0  0.29961  0.09261  0.51153  1.0000
  H   H84       1.0  0.46618  0.12929  0.65728  1.0000
  C   C120      1.0  0.50035  0.03761  0.50000  1.0000
  H   H85       1.0  0.30988  0.43879  0.34403  1.0000
  H   H86       1.0  0.42315  0.21952  0.47249  1.0000
  H   H87       1.0  0.31491  0.23300  0.55320  1.0000
  C   C121      1.0  0.31852  0.13500  0.65038  1.0000
  C   C122      1.0  0.40301  0.19665  0.45007  1.0000
  C   C123      1.0  0.28813  0.34994  0.40201  1.0000
  H   H88       1.0  0.25195  0.27402  0.47102  1.0000
  C   C124      1.0  0.36000  0.38629  0.42718  1.0000
  C   C125      1.0  0.48633  0.08320  0.65246  1.0000
  P   P6        1.0  0.49041  0.01869  0.55192  1.0000
  C   C126      1.0  0.46950  0.08136  0.56919  1.0000
  S   S19       1.0  0.36138  0.39044  0.65748  1.0000
  H   H89       1.0  0.46230  0.08092  0.53727  1.0000
  H   H90       1.0  0.26069  0.15168  0.55401  1.0000
  C   C127      1.0  0.26309  0.12437  0.54531  1.0000
  H   H91       1.0  0.45137  0.12780  0.58332  1.0000
  H   H92       1.0  0.30023  0.12501  0.43002  1.0000
  H   H93       1.0  0.41757  0.17971  0.62133  1.0000
  C   C128      1.0  0.30394  0.23319  0.52273  1.0000
  S   S20       1.0  0.28472  0.29210  0.65477  1.0000
  H   H94       1.0  0.26237  0.23461  0.41460  1.0000
  H   H95       1.0  0.29867  0.19414  0.42714  1.0000
  H   H96       1.0  0.40833  0.41871  0.38223  1.0000
  H   H97       1.0  0.33338  0.11271  0.36993  1.0000
  C   C129      1.0  0.26831  0.25654  0.47642  1.0000
  Fe  Fe9       1.0  0.36110  0.03051  0.36985  1.0000
  C   C130      1.0  0.39641  0.15963  0.38669  1.0000
  C   C131      1.0  0.27412  0.23424  0.44476  1.0000
  P   P7        1.0  0.33524  0.17959  0.50174  1.0000
  S   S21       1.0  0.31547  0.20629  0.63176  1.0000
  H   H98       1.0  0.41087  0.15301  0.36096  1.0000
  H   H99       1.0  0.25479  0.33164  0.40869  1.0000
  H   H100      1.0  0.43539  0.02126  0.48845  1.0000
  C   C132      1.0  0.29481  0.21129  0.45207  1.0000
  C   C133      1.0  0.37477  0.39923  0.38762  1.0000
  C   C134      1.0  0.47187  0.10923  0.63689  1.0000
  H   H101      1.0  0.27329  0.02603  0.52056  1.0000
  H   H102      1.0  0.39500  0.08113  0.51641  1.0000
  C   C135      1.0  0.33406  0.14374  0.42605  1.0000
  C   C136      1.0  0.35107  0.02403  0.54733  1.0000
  H   H103      1.0  0.32564  0.09493  0.49359  1.0000
  H   H104      1.0  0.45767  0.25748  0.62750  1.0000
  C   C137      1.0  0.27016  0.05341  0.52712  1.0000
  C   C138      1.0  0.38307  0.17981  0.56824  1.0000
  Fe  Fe10      1.0  0.40690  0.36677  0.64759  1.0000
  C   C139      1.0  0.39867  0.24840  0.54394  1.0000
  S   S22       1.0  0.36881  0.32350  0.59624  1.0000
  S   S23       1.0  0.47887  0.40467  0.65122  1.0000
  Fe  Fe11      1.0  0.33530  0.27467  0.64462  1.0000
  S   S24       1.0  0.37957  0.06434  0.43047  1.0000
  H   H105      1.0  0.39352  0.26808  0.52289  1.0000
  C   C140      1.0  0.28348  0.25623  0.51531  1.0000
  C   C141      1.0  0.37015  0.04889  0.51275  1.0000
  H   H106      1.0  0.45546  0.20684  0.41208  1.0000
  C   C142      1.0  0.49668  0.48496  0.62824  1.0000
  C   C143      1.0  0.49213  0.05609  0.62653  1.0000
  C   C144      1.0  0.48398  0.05506  0.58463  1.0000
  H   H107      1.0  0.46364  0.47121  0.62052  1.0000
  H   H108      1.0  0.30550  0.35258  0.46525  1.0000
  C   C145      1.0  0.35656  0.03239  0.47348  1.0000
  C   C146      1.0  0.42846  0.26744  0.57504  1.0000
  C   C147      1.0  0.46339  0.10825  0.59528  1.0000
  H   H109      1.0  0.36554  0.14584  0.56657  1.0000
  H   H110      1.0  0.26582  0.39798  0.49225  1.0000
  C   C148      1.0  0.35912  0.17338  0.45575  1.0000
  C   C149      1.0  0.37511  0.20438  0.54079  1.0000
  C   C150      1.0  0.46692  0.03411  0.47591  1.0000
  C   C151      1.0  0.35268  0.13689  0.39174  1.0000
  C   C152      1.0  0.43535  0.24272  0.60286  1.0000
  C   C153      1.0  0.47378  0.04703  0.43528  1.0000
  C   C154      1.0  0.42152  0.18970  0.41568  1.0000
  H   H111      1.0  0.30104  0.12241  0.62248  1.0000
  S   S25       1.0  0.29461  0.36463  0.55576  1.0000
  C   C155      1.0  0.29583  0.12835  0.51983  1.0000
  H   H112      1.0  0.27930  0.27383  0.53984  1.0000
  C   C156      1.0  0.30989  0.21050  0.49124  1.0000
  C   C157      1.0  0.30270  0.36250  0.36203  1.0000
  H   H113      1.0  0.36117  0.03713  0.57751  1.0000
  H   H114      1.0  0.50213  0.03529  0.63946  1.0000
  H   H115      1.0  0.00546  0.41333  0.45960  1.0000
  Fe  Fe12      1.0  0.05433  0.33519  0.97510  1.0000
  S   S26       1.0  0.12066  0.35435  0.95521  1.0000
  H   H116      1.0  0.24757  0.27255  0.91309  1.0000
  C   C158      1.0  0.22873  0.26329  0.88553  1.0000
  C   C159      1.0  0.19075  0.34902  0.97413  1.0000
  C   C160      1.0  0.23095  0.37801  0.83322  1.0000
  H   H117      1.0  0.20088  0.35979  0.94337  1.0000
  C   C161      1.0  0.20806  0.28489  0.87327  1.0000
  C   C162      1.0  0.12972  0.31547  0.74696  1.0000
  C   C163      1.0  0.18721  0.35484  0.83967  1.0000
  H   H118      1.0  0.16161  0.22924  0.78678  1.0000
  H   H119      1.0  0.24692  0.36414  0.81679  1.0000
  C   C164      1.0  0.16695  0.37414  0.85926  1.0000
  C   C165      1.0  0.20186  0.21814  0.82630  1.0000
  H   H120      1.0  0.23658  0.11573  0.69189  1.0000
  C   C166      1.0  0.07044  0.24638  0.81843  1.0000
  C   C167      1.0  0.18062  0.23928  0.81419  1.0000
  C   C168      1.0  0.10558  0.27284  0.84253  1.0000
  C   C169      1.0  0.19475  0.31576  0.70143  1.0000
  C   C170      1.0  0.18489  0.27382  0.83680  1.0000
  C   C171      1.0  0.19240  0.30863  0.74339  1.0000
  H   H121      1.0  0.21714  0.30512  0.75783  1.0000
  H   H122      1.0  0.21061  0.31043  0.89208  1.0000
  H   H123      1.0  0.13309  0.35763  0.86353  1.0000
  C   C172      1.0  0.15924  0.30740  0.76637  1.0000
  P   P8        1.0  0.15799  0.30150  0.82103  1.0000
  C   C173      1.0  0.22666  0.23081  0.86149  1.0000
  H   H124      1.0  0.07396  0.24224  0.78629  1.0000
  H   H125      1.0  0.10536  0.31719  0.76440  1.0000
  H   H126      1.0  0.05239  0.45909  0.94948  1.0000
  C   C174      1.0  0.19044  0.41532  0.87396  1.0000
  C   C175      1.0  0.23412  0.43787  0.86830  1.0000
  C   C176      1.0  0.10009  0.27512  0.88459  1.0000
  H   H127      1.0  0.12692  0.29411  0.90400  1.0000
  H   H128      1.0  0.17453  0.42953  0.88992  1.0000
  H   H129      1.0  0.24471  0.21591  0.87015  1.0000
  C   C177      1.0  0.03846  0.47915  0.95108  1.0000
  H   H130      1.0  0.19948  0.19230  0.80812  1.0000
  C   C178      1.0  0.25434  0.41928  0.84768  1.0000
  C   C179      1.0  0.13200  0.32230  0.70490  1.0000
  H   H131      1.0  0.19106  0.10766  0.85311  1.0000
  C   C180      1.0  0.20691  0.03018  0.85812  1.0000
  C   C181      1.0  0.05989  0.25352  0.90195  1.0000
  H   H132      1.0  0.13543  0.22717  0.91961  1.0000
  H   H133      1.0  0.19638  0.04469  0.88044  1.0000
  C   C182      1.0  0.03014  0.22474  0.83589  1.0000
  C   C183      1.0  0.15155  0.34254  0.98784  1.0000
  H   H134      1.0  0.05598  0.25666  0.93429  1.0000
  C   C184      1.0  0.13114  0.21702  0.95101  1.0000
  H   H135      1.0  0.19524  0.26070  0.96835  1.0000
  H   H136      1.0  0.06541  0.17153  0.94327  1.0000
  C   C185      1.0  0.24567  0.13247  0.72069  1.0000
  H   H137      1.0  0.16570  0.13470  0.90936  1.0000
  H   H138      1.0  0.24995  0.18880  0.69594  1.0000
  C   C186      1.0  0.19735  0.13918  0.91028  1.0000
  C   C187      1.0  0.21179  0.12389  0.87853  1.0000
  C   C188      1.0  0.16485  0.23568  0.97832  1.0000
  C   C189      1.0  0.24211  0.05437  0.83320  1.0000
  H   H139      1.0  0.25216  0.46983  0.87955  1.0000
  C   C190      1.0  0.25333  0.17375  0.72293  1.0000
  H   H140      1.0  0.24626  0.08183  0.75187  1.0000
  C   C191      1.0  0.25152  0.11341  0.75497  1.0000
  H   H141      1.0  0.24796  0.34865  0.98979  1.0000
  C   C192      1.0  0.22426  0.16155  0.94252  1.0000
  C   C193      1.0  0.09172  0.18552  0.96434  1.0000
  H   H142      1.0  0.21362  0.17453  0.96654  1.0000
  H   H143      1.0  0.22999  0.43912  0.98534  1.0000
  C   C194      1.0  0.26450  0.13540  0.79211  1.0000
  C   C195      1.0  0.25287  0.12972  0.87943  1.0000
  C   C196      1.0  0.26538  0.16811  0.94326  1.0000
  C   C197      1.0  0.25571  0.03360  0.80611  1.0000
  C   C198      1.0  0.16440  0.32225  0.68210  1.0000
  H   H144      1.0  0.22064  0.31707  0.68398  1.0000
  C   C199      1.0  0.26689  0.19612  0.75946  1.0000
  H   H145      1.0  0.10908  0.32834  0.69000  1.0000
  H   H146      1.0  0.27335  0.22836  0.76088  1.0000
  C   C200      1.0  0.27246  0.17709  0.79391  1.0000
  P   P9        1.0  0.27160  0.11132  0.83726  1.0000
  C   C201      1.0  0.02482  0.22864  0.87758  1.0000
  H   H147      1.0  0.28809  0.43683  0.84258  1.0000
  H   H148      1.0  0.38125  0.46747  0.73345  1.0000
  H   H149      1.0  0.43930  0.46595  0.69560  1.0000
  S   S27       1.0  0.37930  0.02164  0.66583  1.0000
  C   C202      1.0  0.49785  0.01172  0.74777  1.0000
  S   S28       1.0  0.33485  0.36319  0.99480  1.0000
  H   H150      1.0  0.28669  0.18651  0.96764  1.0000
  C   C203      1.0  0.27964  0.15213  0.91201  1.0000
  H   H151      1.0  0.49180  0.08295  0.68488  1.0000
  C   C204      1.0  0.48399  0.33998  0.73369  1.0000
  C   C205      1.0  0.48093  0.34794  0.80701  1.0000
  C   C206      1.0  0.45696  0.41554  0.89727  1.0000
  C   C207      1.0  0.33097  0.45805  0.98972  1.0000
  H   H152      1.0  0.41894  0.28093  0.96200  1.0000
  H   H153      1.0  0.31630  0.06833  0.86744  1.0000
  H   H154      1.0  0.31890  0.07773  0.66515  1.0000
  H   H155      1.0  0.47328  0.01626  0.76121  1.0000
  C   C208      1.0  0.44965  0.30002  0.94816  1.0000
  H   H156      1.0  0.38628  0.44703  0.87306  1.0000
  H   H157      1.0  0.28368  0.43462  0.94263  1.0000
  C   C209      1.0  0.45247  0.29795  0.73634  1.0000
  H   H158      1.0  0.43319  0.29238  0.83786  1.0000
  C   C210      1.0  0.45364  0.32468  0.91430  1.0000
  H   H159      1.0  0.42588  0.32441  0.90238  1.0000
  H   H160      1.0  0.32243  0.34391  0.91195  1.0000
  C   C211      1.0  0.44835  0.30594  0.80923  1.0000
  C   C212      1.0  0.32654  0.33194  0.88332  1.0000
  C   C213      1.0  0.40827  0.43554  0.86891  1.0000
  H   H161      1.0  0.28322  0.19507  0.82188  1.0000
  H   H162      1.0  0.31181  0.15814  0.91316  1.0000
  C   C214      1.0  0.41449  0.42352  0.83021  1.0000
  C   C215      1.0  0.44190  0.40754  0.82488  1.0000
  H   H163      1.0  0.47291  0.41248  0.92374  1.0000
  C   C216      1.0  0.32861  0.10961  0.67453  1.0000
  Fe  Fe13      1.0  0.34613  0.02885  0.72041  1.0000
  S   S29       1.0  0.37719  0.31573  0.69481  1.0000
  H   H164      1.0  0.35458  0.45598  0.97126  1.0000
  Fe  Fe14      1.0  0.34727  0.30938  0.98888  1.0000
  H   H165      1.0  0.34938  0.19188  0.82353  1.0000
  H   H166      1.0  0.44591  0.16394  0.85850  1.0000
  C   C217      1.0  0.38214  0.11313  0.86458  1.0000
  C   C218      1.0  0.35339  0.19238  0.69839  1.0000
  H   H167      1.0  0.30963  0.37067  0.84797  1.0000
  C   C219      1.0  0.32695  0.12813  0.84393  1.0000
  C   C220      1.0  0.36338  0.16689  0.72262  1.0000
  C   C221      1.0  0.32326  0.33135  0.80907  1.0000
  Fe  Fe15      1.0  0.32965  0.33698  0.70185  1.0000
  C   C222      1.0  0.35799  0.16959  0.83507  1.0000
  H   H168      1.0  0.39148  0.09102  0.87537  1.0000
  H   H169      1.0  0.42412  0.44014  0.93256  1.0000
  C   C223      1.0  0.33713  0.30012  0.88261  1.0000
  C   C224      1.0  0.43419  0.28116  0.77399  1.0000
  S   S30       1.0  0.34112  0.27657  0.92816  1.0000
  H   H170      1.0  0.36240  0.22398  0.70801  1.0000
  H   H171      1.0  0.44550  0.39785  0.79462  1.0000
  C   C225      1.0  0.29121  0.44621  0.97364  1.0000
  H   H172      1.0  0.44120  0.27883  0.70899  1.0000
  C   C226      1.0  0.42945  0.43149  0.90242  1.0000
  H   H173      1.0  0.38071  0.17911  0.75061  1.0000
  S   S31       1.0  0.31123  0.34992  0.76420  1.0000
  C   C227      1.0  0.41280  0.15420  0.85505  1.0000
  C   C228      1.0  0.34238  0.28510  0.84482  1.0000
  H   H174      1.0  0.35105  0.26084  0.84393  1.0000
  C   C229      1.0  0.33610  0.30109  0.80815  1.0000
  H   H175      1.0  0.40845  0.24916  0.77566  1.0000
  H   H176      1.0  0.28349  0.05133  0.78740  1.0000
  C   C230      1.0  0.35079  0.12538  0.71095  1.0000
  H   H177      1.0  0.34038  0.28942  0.77927  1.0000
  C   C231      1.0  0.40072  0.18253  0.84072  1.0000
  S   S32       1.0  0.36252  0.09386  0.74289  1.0000
  H   H178      1.0  0.42461  0.21433  0.83348  1.0000
  C   C232      1.0  0.33939  0.10024  0.85952  1.0000
  C   C233      1.0  0.31883  0.34683  0.84683  1.0000
  H   H179      1.0  0.39681  0.42499  0.80442  1.0000
  C   C234      1.0  0.46318  0.40316  0.85845  1.0000
  C   C235      1.0  0.48516  0.30040  0.96441  1.0000
  H   H180      1.0  0.48203  0.28170  0.99102  1.0000
  H   H181      1.0  0.49695  0.35346  0.70421  1.0000
  P   P10       1.0  0.49742  0.38099  0.85201  1.0000
  C   C236      1.0  0.49309  0.34956  0.89598  1.0000
  C   C237      1.0  0.49766  0.36508  0.76872  1.0000
  C   C238      1.0  0.41351  0.48616  0.74410  1.0000
  C   C239      1.0  0.44615  0.48507  0.72286  1.0000
  Fe  Fe16      1.0  0.06472  0.69917  0.03218  1.0000
  S   S33       1.0  0.08703  0.70244  0.09700  1.0000
  H   H182      1.0  0.04788  0.68060  0.24076  1.0000
  H   H183      1.0  0.18158  0.62625  0.11091  1.0000
  C   C240      1.0  0.07784  0.54140  0.16077  1.0000
  C   C241      1.0  0.14442  0.56094  0.12771  1.0000
  H   H184      1.0  0.11038  0.89702  0.09430  1.0000
  H   H185      1.0  0.18916  0.92483  0.09152  1.0000
  H   H186      1.0  0.06284  0.77060  0.25979  1.0000
  C   C242      1.0  0.05059  0.68814  0.13716  1.0000
  C   C243      1.0  0.06413  0.68774  0.17697  1.0000
  C   C244      1.0  0.03698  0.68026  0.21013  1.0000
  H   H187      1.0  0.09605  0.69423  0.18226  1.0000
  H   H188      1.0  0.08338  0.63197  0.05267  1.0000
  C   C245      1.0  0.13209  0.81326  0.18069  1.0000
  C   C246      1.0  0.06347  0.59880  0.05895  1.0000
  H   H189      1.0  0.12965  0.64557  0.13749  1.0000
  C   C247      1.0  0.15876  0.81677  0.06425  1.0000
  H   H190      1.0  0.10202  0.58069  0.02421  1.0000
  C   C248      1.0  0.19455  0.95447  0.20583  1.0000
  H   H191      1.0  0.06428  0.59187  0.17057  1.0000
  C   C249      1.0  0.07433  0.56992  0.04333  1.0000
  C   C250      1.0  0.08650  0.58307  0.15849  1.0000
  C   C251      1.0  0.12362  0.61350  0.14012  1.0000
  C   C252      1.0  0.15266  0.60248  0.12489  1.0000
  C   C253      1.0  0.06049  0.79133  0.11004  1.0000
  H   H192      1.0  0.11437  0.74852  0.27968  1.0000
  C   C254      1.0  0.16076  0.80002  0.19194  1.0000
  C   C255      1.0  0.09034  0.77920  0.24095  1.0000
  C   C256      1.0  0.09675  0.80261  0.20549  1.0000
  H   H193      1.0  0.17681  0.76710  0.23638  1.0000
  C   C257      1.0  0.21923  0.85977  0.10706  1.0000
  H   H194      1.0  0.06501  0.76710  0.12373  1.0000
  C   C258      1.0  0.15441  0.77691  0.22761  1.0000
  H   H195      1.0  0.16785  0.55331  0.11679  1.0000
  C   C259      1.0  0.11928  0.76654  0.25210  1.0000
  C   C260      1.0  0.17219  0.91221  0.19400  1.0000
  H   H196      1.0  0.18819  0.80765  0.17353  1.0000
  P   P11       1.0  0.14195  0.84653  0.13681  1.0000
  H   H197      1.0  0.07435  0.81268  0.19767  1.0000
  C   C261      1.0  0.16937  0.90105  0.15262  1.0000
  C   C262      1.0  0.10630  0.52979  0.14461  1.0000
  C   C263      1.0  0.09247  0.83348  0.11237  1.0000
  C   C264      1.0  0.17551  0.84012  0.10022  1.0000
  C   C265      1.0  0.18998  0.93280  0.12348  1.0000
  C   C266      1.0  0.04881  0.85295  0.07234  1.0000
  C   C267      1.0  0.08628  0.86433  0.09347  1.0000
  H   H198      1.0  0.15794  0.88855  0.21744  1.0000
  H   H199      1.0  0.12524  0.80069  0.05815  1.0000
  H   H200      1.0  0.19712  0.96259  0.23792  1.0000
  H   H201      1.0  0.04443  0.87673  0.05724  1.0000
  H   H202      1.0  0.14985  0.53779  0.21330  1.0000
  H   H203      1.0  0.23282  0.87769  0.13471  1.0000
  C   C268      1.0  0.21213  0.97504  0.13541  1.0000
  H   H204      1.0  0.01839  0.60783  0.09322  1.0000
  C   C269      1.0  0.02309  0.78002  0.08900  1.0000
  C   C270      1.0  0.01732  0.81078  0.06991  1.0000
  S   S34       1.0  0.22520  0.91115  0.30921  1.0000
  C   C271      1.0  0.18549  0.81429  0.03514  1.0000
  C   C272      1.0  0.22891  0.83416  0.04201  1.0000
  C   C273      1.0  0.02649  0.58494  0.08174  1.0000
  S   S35       1.0  0.01342  0.64028  0.00381  1.0000
  H   H205      1.0  0.04907  0.51840  0.17534  1.0000
  H   H206      1.0  0.16612  0.52911  0.28417  1.0000
  S   S36       1.0  0.04598  0.74206  0.00125  1.0000
  C   C274      1.0  0.04885  0.52717  0.05147  1.0000
  H   H207      1.0  0.13616  0.85514  0.30840  1.0000
  C   C275      1.0  0.14988  0.84191  0.32859  1.0000
  C   C276      1.0  0.21420  0.98591  0.17652  1.0000
  H   H208      1.0  0.00816  0.99509  0.08359  1.0000
  H   H209      1.0  0.05663  0.50464  0.03851  1.0000
  C   C277      1.0  0.24577  0.85668  0.07809  1.0000
  C   C278      1.0  0.00930  0.67972  0.13043  1.0000
  S   S37       1.0  0.03349  0.64909  0.32847  1.0000
  H   H210      1.0  0.24936  0.83206  0.01924  1.0000
  C   C279      1.0  0.13794  0.50638  0.22506  1.0000
  C   C280      1.0  0.01228  0.51331  0.07478  1.0000
  H   H211      1.0  0.17249  0.79715  0.00696  1.0000
  H   H212      1.0  0.22819  0.99938  0.11285  1.0000
  C   C281      1.0  0.14748  0.50168  0.26528  1.0000
  H   H213      1.0  0.48366  0.92155  0.29832  1.0000
  H   H214      1.0  0.36368  0.66474  0.11626  1.0000
  C   C282      1.0  0.50464  0.95506  0.30131  1.0000
  H   H215      1.0  0.30215  0.54608  0.05402  1.0000
  H   H216      1.0  0.32046  0.62028  0.05867  1.0000
  H   H217      1.0  0.27944  0.87196  0.08347  1.0000
  C   C283      1.0  0.36934  0.61482  0.14461  1.0000
  Fe  Fe17      1.0  0.38981  0.98908  0.30969  1.0000
  H   H218      1.0  0.37010  0.55987  0.16582  1.0000
  Fe  Fe18      1.0  0.29474  0.95649  0.32070  1.0000
  C   C284      1.0  0.32079  0.56472  0.07955  1.0000
  C   C285      1.0  0.33111  0.60690  0.08207  1.0000
  H   H219      1.0  0.49525  0.54958  0.00376  1.0000
  C   C286      1.0  0.48759  0.98207  0.30354  1.0000
  H   H220      1.0  0.27945  0.51189  0.17392  1.0000
  C   C287      1.0  0.35902  0.57264  0.14224  1.0000
  H   H221      1.0  0.47453  0.54005  0.11372  1.0000
  H   H222      1.0  0.38841  0.63434  0.16967  1.0000
  S   S38       1.0  0.43203  0.96023  0.29940  1.0000
  S   S39       1.0  0.33719  0.97554  0.26642  1.0000
  C   C288      1.0  0.33483  0.54730  0.10957  1.0000
  C   C289      1.0  0.44322  0.51698  0.12402  1.0000
  C   C290      1.0  0.35544  0.63196  0.11452  1.0000
  C   C291      1.0  0.40811  0.52008  0.11210  1.0000
  H   H223      1.0  0.41278  0.54575  0.09251  1.0000
  H   H224      1.0  0.45840  0.98877  0.21672  1.0000
  H   H225      1.0  0.15321  0.93738  0.50828  1.0000
  Fe  Fe19      1.0  0.04225  0.69382  0.37978  1.0000
  S   S40       1.0  0.10897  0.73909  0.40095  1.0000
  C   C292      1.0  0.23874  0.79772  0.52773  1.0000
  C   C293      1.0  0.14106  0.78632  0.37445  1.0000
  C   C294      1.0  0.18498  0.80739  0.38039  1.0000
  H   H226      1.0  0.19880  0.79392  0.40010  1.0000
  H   H227      1.0  0.20792  0.93247  0.56234  1.0000
  H   H228      1.0  0.08498  0.82267  0.57572  1.0000
  H   H229      1.0  0.09872  0.76847  0.53269  1.0000
  C   C295      1.0  0.17323  0.93642  0.48440  1.0000
  C   C296      1.0  0.17892  0.90135  0.47983  1.0000
  C   C297      1.0  0.10604  0.67969  0.48603  1.0000
  C   C298      1.0  0.18699  0.83410  0.52003  1.0000
  C   C299      1.0  0.21900  0.96995  0.42667  1.0000
  C   C300      1.0  0.17945  0.91369  0.57976  1.0000
  H   H230      1.0  0.10846  0.54047  0.38745  1.0000
  H   H231      1.0  0.04099  0.58110  0.45022  1.0000
  P   P12       1.0  0.15367  0.85747  0.51449  1.0000
  H   H232      1.0  0.10479  0.70151  0.54671  1.0000
  C   C301      1.0  0.19359  0.97076  0.45818  1.0000
  H   H233      1.0  0.21776  0.86753  0.57563  1.0000
  C   C302      1.0  0.21082  0.78670  0.49496  1.0000
  C   C303      1.0  0.14691  0.87589  0.56367  1.0000
  H   H234      1.0  0.09872  0.64997  0.42757  1.0000
  H   H235      1.0  0.09879  0.85929  0.44940  1.0000
  C   C304      1.0  0.11061  0.85189  0.58720  1.0000
  H   H236      1.0  0.06147  0.57128  0.38014  1.0000
  C   C305      1.0  0.24087  0.82684  0.55667  1.0000
  H   H237      1.0  0.13047  0.71002  0.47547  1.0000
  C   C306      1.0  0.21519  0.84500  0.55283  1.0000
  H   H238      1.0  0.16336  0.79571  0.46573  1.0000
  C   C307      1.0  0.05860  0.63598  0.53907  1.0000
  C   C308      1.0  0.20393  0.90057  0.44766  1.0000
  C   C309      1.0  0.08413  0.82798  0.46205  1.0000
  C   C310      1.0  0.18490  0.80463  0.49125  1.0000
  H   H239      1.0  0.20923  0.76435  0.47227  1.0000
  C   C311      1.0  0.05570  0.60672  0.47198  1.0000
  C   C312      1.0  0.22379  0.93471  0.42122  1.0000
  C   C313      1.0  0.04847  0.53761  0.37836  1.0000
  H   H240      1.0  0.20838  0.87381  0.44288  1.0000
  C   C314      1.0  0.09131  0.67488  0.52605  1.0000
  H   H241      1.0  0.06342  0.56996  0.58602  1.0000
  C   C315      1.0  0.08402  0.77683  0.50866  1.0000
  C   C316      1.0  0.10371  0.81804  0.49348  1.0000
  C   C317      1.0  0.07507  0.52006  0.38224  1.0000
  C   C318      1.0  0.08822  0.64568  0.45901  1.0000
  C   C319      1.0  0.04126  0.60136  0.51234  1.0000
  H   H242      1.0  0.26251  0.83570  0.58216  1.0000
  H   H243      1.0  0.24318  0.93392  0.39654  1.0000
  H   H244      1.0  0.25872  0.78374  0.53069  1.0000
  C   C320      1.0  0.04550  0.79708  0.44608  1.0000
  C   C321      1.0  0.04542  0.74604  0.49261  1.0000
  C   C322      1.0  0.17641  0.92667  0.61911  1.0000
  C   C323      1.0  0.10744  0.86517  0.62647  1.0000
  H   H245      1.0  0.07970  0.84621  0.64478  1.0000
  H   H246      1.0  0.20256  0.95501  0.63176  1.0000
  C   C324      1.0  0.14048  0.90235  0.64255  1.0000
  C   C325      1.0  0.12359  0.80372  0.34846  1.0000
  H   H247      1.0  0.24503  0.86163  0.36536  1.0000
  H   H248      1.0  0.27905  0.93442  0.49966  1.0000
  H   H249      1.0  0.06754  0.54040  0.50321  1.0000
  H   H250      1.0  0.04650  0.63322  0.56970  1.0000
  C   C326      1.0  0.21127  0.84570  0.36065  1.0000
  C   C327      1.0  0.03347  0.54976  0.64433  1.0000
  C   C328      1.0  0.03372  0.55612  0.60234  1.0000
  H   H251      1.0  0.03082  0.80466  0.42140  1.0000
  H   H252      1.0  0.03070  0.71411  0.50388  1.0000
  C   C329      1.0  0.03846  0.51154  0.49716  1.0000
  S   S41       1.0  0.28989  0.95165  0.58458  1.0000
  H   H253      1.0  0.08984  0.78786  0.34379  1.0000
  C   C330      1.0  0.02609  0.75620  0.46145  1.0000
  H   H254      1.0  0.23492  0.99647  0.40632  1.0000
  H   H255      1.0  0.06281  0.55907  0.66026  1.0000
  H   H256      1.0  0.18972  0.99803  0.46228  1.0000
  C   C331      1.0  0.19375  0.86313  0.33472  1.0000
  C   C332      1.0  0.00504  0.51143  0.37291  1.0000
  C   C333      1.0  0.48722  0.90859  0.42763  1.0000
  H   H257      1.0  0.39265  0.86251  0.65670  1.0000
  H   H258      1.0  0.34663  0.91485  0.59780  1.0000
  H   H259      1.0  0.39202  0.88073  0.49153  1.0000
  C   C334      1.0  0.45688  0.87631  0.64916  1.0000
  C   C335      1.0  0.32406  0.99093  0.46897  1.0000
  C   C336      1.0  0.41449  0.86736  0.40455  1.0000
  H   H260      1.0  0.41405  0.98067  0.60407  1.0000
  C   C337      1.0  0.48631  0.94554  0.41830  1.0000
  H   H261      1.0  0.46294  0.86514  0.50003  1.0000
  H   H262      1.0  0.38700  0.83716  0.39817  1.0000
  H   H263      1.0  0.31318  0.97806  0.43895  1.0000
  C   C338      1.0  0.44971  0.94323  0.40237  1.0000
  S   S42       1.0  0.34604  0.96359  0.36341  1.0000
  C   C339      1.0  0.41388  0.90426  0.39547  1.0000
  H   H264      1.0  0.45991  0.94687  0.49715  1.0000
  C   C340      1.0  0.37165  0.92159  0.57619  1.0000
  H   H265      1.0  0.50049  0.94461  0.56789  1.0000
  C   C341      1.0  0.36512  0.89337  0.54454  1.0000
  C   C342      1.0  0.43551  0.93994  0.51945  1.0000
  C   C343      1.0  0.40997  0.95919  0.57944  1.0000
  Fe  Fe20      1.0  0.31544  0.96974  0.64837  1.0000
  H   H266      1.0  0.44947  0.97158  0.39366  1.0000
  C   C344      1.0  0.49055  0.86613  0.51304  1.0000
  C   C345      1.0  0.44194  0.96894  0.55062  1.0000
  C   C346      1.0  0.31791  0.98276  0.54264  1.0000
  C   C347      1.0  0.39718  0.90239  0.51631  1.0000
  C   C348      1.0  0.30470  0.96628  0.50340  1.0000
  H   H267      1.0  0.38613  0.90280  0.38183  1.0000
  C   C349      1.0  0.48669  0.84703  0.55084  1.0000
  H   H268      1.0  0.33503  0.86480  0.54169  1.0000
  H   H269      1.0  0.45635  0.83120  0.56604  1.0000
  H   H270      1.0  0.45166  0.84058  0.42569  1.0000
  C   C350      1.0  0.45107  0.86946  0.42030  1.0000
  H   H271      1.0  0.46372  0.90024  0.62654  1.0000
  C   C351      1.0  0.48877  0.86888  0.66324  1.0000
  Fe  Fe21      1.0  0.09045  0.74686  0.95083  1.0000
  S   S43       1.0  0.04098  0.69092  0.91602  1.0000
  S   S44       1.0  0.13717  0.81379  0.93027  1.0000
  Fe  Fe22      1.0  0.05998  0.65177  0.95417  1.0000
  Fe  Fe23      1.0  0.29244  0.93477  0.73562  1.0000
  S   S45       1.0  0.23727  0.87469  0.76163  1.0000
  C   C352      1.0  0.04544  0.54891  0.94501  1.0000
  C   C353      1.0  0.16594  0.82962  0.88378  1.0000
  C   C354      1.0  0.15555  0.80239  0.85041  1.0000
  C   C355      1.0  0.17798  0.81680  0.81350  1.0000
  C   C356      1.0  0.21134  0.85837  0.80954  1.0000
  C   C357      1.0  0.22224  0.88543  0.84314  1.0000
  C   C358      1.0  0.19933  0.87122  0.87989  1.0000
  H   H272      1.0  0.12997  0.77035  0.85288  1.0000
  H   H273      1.0  0.16939  0.79554  0.78777  1.0000
  H   H274      1.0  0.24802  0.91734  0.84071  1.0000
  H   H275      1.0  0.20766  0.89254  0.90553  1.0000
  H   H276      1.0  0.18169  0.93206  0.82520  1.0000
  S   S46       1.0  0.07732  0.60288  0.93353  1.0000
  H   H277      1.0  0.05430  0.78885  0.89169  1.0000
  S   S47       1.0  0.28107  0.98054  0.69968  1.0000
  H   H278      1.0  0.09616  0.53563  0.93551  1.0000
  S   S48       1.0  0.11266  0.70835  0.98473  1.0000
  H   H279      1.0  0.03783  0.76354  0.82047  1.0000
  C   C359      1.0  0.19847  0.96609  0.82747  1.0000
  C   C360      1.0  0.06317  0.52248  0.94320  1.0000
  H   H280      1.0  0.15810  0.96770  0.87435  1.0000
  C   C361      1.0  0.01302  0.76179  0.84003  1.0000
  C   C362      1.0  0.02237  0.77606  0.88023  1.0000
  H   H281      1.0  0.24483  0.97380  0.78273  1.0000
  H   H282      1.0  0.13854  0.91202  0.67337  1.0000
  C   C363      1.0  0.18511  0.98628  0.85503  1.0000
  C   C364      1.0  0.23396  0.98971  0.80331  1.0000
  C   C365      1.0  0.49698  0.53286  0.77237  1.0000
  C   C366      1.0  0.43974  0.81829  0.71136  1.0000
  S   S49       1.0  0.32226  0.92079  0.68224  1.0000
  C   C367      1.0  0.50369  0.78393  0.74012  1.0000
  C   C368      1.0  0.48923  0.98667  0.71290  1.0000
  Fe  Fe24      1.0  0.38466  0.97337  0.70334  1.0000
  H   H283      1.0  0.45777  0.75051  0.69265  1.0000
  C   C369      1.0  0.48778  0.50895  0.73638  1.0000
  H   H284      1.0  0.46832  0.67266  0.78372  1.0000
  C   C370      1.0  0.47197  0.74785  0.72060  1.0000
  C   C371      1.0  0.45915  0.70792  0.73642  1.0000
  H   H285      1.0  0.43296  0.79731  0.73689  1.0000
  H   H286      1.0  0.47079  0.55486  0.81940  1.0000
  S   S50       1.0  0.43881  0.96097  0.68984  1.0000
  C   C372      1.0  0.41662  0.85503  0.66627  1.0000
  H   H287      1.0  0.49621  0.89029  0.75889  1.0000
  H   H288      1.0  0.43489  0.68021  0.72105  1.0000
  S   S51       1.0  0.35593  0.98390  0.76012  1.0000
  C   C373      1.0  0.42256  0.51145  0.77884  1.0000
  H   H289      1.0  0.49455  0.51037  0.85598  1.0000
  H   H290      1.0  0.50410  0.51135  0.93053  1.0000
  C   C374      1.0  0.48032  0.83934  0.69409  1.0000
  C   C375      1.0  0.47800  0.70365  0.77170  1.0000
  H   H291      1.0  0.39729  0.51277  0.79492  1.0000
  C   C376      1.0  0.46417  0.53494  0.79280  1.0000
  C   C377      1.0  0.40799  0.82590  0.69724  1.0000
  H   H292      1.0  0.37710  0.81049  0.71140  1.0000
  H   H293      1.0  0.93413  0.47741  0.03924  1.0000
  S   S52       1.0  0.98223  0.30776  0.11448  1.0000
  H   H294      1.0  0.88068  0.45442  0.15999  1.0000
  H   H295      1.0  0.58014  0.07501  0.30881  1.0000
  C   C378      1.0  0.52788  0.15250  0.32366  1.0000
  C   C379      1.0  0.95309  0.38579  0.13479  1.0000
  C   C380      1.0  0.97936  0.39996  0.10074  1.0000
  H   H296      1.0  0.88544  0.40387  0.02045  1.0000
  S   S53       1.0  0.63186  0.03625  0.30117  1.0000
  H   H297      1.0  0.83349  0.35523  0.07080  1.0000
  H   H298      1.0  0.50807  0.10654  0.27607  1.0000
  H   H299      1.0  0.91617  0.27729  0.30416  1.0000
  H   H300      1.0  0.96635  0.10453  0.26683  1.0000
  H   H301      1.0  0.91102  0.32957  0.26054  1.0000
  H   H302      1.0  0.88647  0.31131  0.18880  1.0000
  C   C381      1.0  0.50568  0.13281  0.28812  1.0000
  H   H303      1.0  0.91979  0.36384  0.13086  1.0000
  H   H304      1.0  0.51556  0.01667  0.16541  1.0000
  H   H305      1.0  0.89045  0.05624  0.25247  1.0000
  H   H306      1.0  0.97087  0.29828  0.19971  1.0000
  S   S54       1.0  0.94267  0.30366  0.00833  1.0000
  H   H307      1.0  0.86819  0.24183  0.16070  1.0000
  C   C382      1.0  0.73823  0.11604  0.19388  1.0000
  H   H308      1.0  0.96637  0.38907  0.07053  1.0000
  C   C383      1.0  0.91243  0.45649  0.06191  1.0000
  C   C384      1.0  0.96391  0.49458  0.19047  1.0000
  C   C385      1.0  0.51800  0.07658  0.16085  1.0000
  C   C386      1.0  0.00311  0.30659  0.19348  1.0000
  C   C387      1.0  0.96543  0.15938  0.24473  1.0000
  C   C388      1.0  0.94748  0.11654  0.25318  1.0000
  C   C389      1.0  0.90480  0.08930  0.24496  1.0000
  C   C390      1.0  0.87995  0.10482  0.22844  1.0000
  C   C391      1.0  0.89753  0.14790  0.22070  1.0000
  C   C392      1.0  0.94069  0.17495  0.22808  1.0000
  P   P13       1.0  0.86659  0.16792  0.19706  1.0000
  C   C393      1.0  0.81144  0.13884  0.21011  1.0000
  C   C394      1.0  0.88274  0.21995  0.21625  1.0000
  C   C395      1.0  0.87903  0.24934  0.19190  1.0000
  C   C396      1.0  0.90293  0.29902  0.24815  1.0000
  C   C397      1.0  0.90600  0.26963  0.27272  1.0000
  C   C398      1.0  0.89549  0.23008  0.25704  1.0000
  C   C399      1.0  0.79914  0.12244  0.24938  1.0000
  C   C400      1.0  0.75666  0.10268  0.26070  1.0000
  C   C401      1.0  0.78080  0.13643  0.18271  1.0000
  C   C402      1.0  0.87473  0.16630  0.14305  1.0000
  C   C403      1.0  0.90898  0.20019  0.12410  1.0000
  C   C404      1.0  0.91519  0.19945  0.08212  1.0000
  C   C405      1.0  0.88789  0.16428  0.05898  1.0000
  C   C406      1.0  0.85476  0.12948  0.07801  1.0000
  C   C407      1.0  0.84839  0.13028  0.12000  1.0000
  H   H309      1.0  0.99834  0.18069  0.25157  1.0000
  Fe  Fe25      1.0  0.75949  0.02012  0.32829  1.0000
  C   C408      1.0  0.88918  0.28876  0.20783  1.0000
  H   H310      1.0  0.84689  0.08320  0.22249  1.0000
  H   H311      1.0  0.95515  0.20819  0.22136  1.0000
  C   C409      1.0  0.72617  0.09906  0.23283  1.0000
  H   H312      1.0  0.94974  0.38815  0.20019  1.0000
  H   H313      1.0  0.89694  0.20734  0.27700  1.0000
  H   H314      1.0  0.82243  0.12536  0.27136  1.0000
  H   H315      1.0  0.74736  0.09009  0.29111  1.0000
  H   H316      1.0  0.78972  0.15068  0.15291  1.0000
  H   H317      1.0  0.93076  0.22721  0.14185  1.0000
  H   H318      1.0  0.94102  0.22636  0.06751  1.0000
  H   H319      1.0  0.89255  0.16400  0.02634  1.0000
  H   H320      1.0  0.83396  0.10196  0.06015  1.0000
  H   H321      1.0  0.82292  0.10288  0.13440  1.0000
  C   C410      1.0  0.97000  0.39934  0.17371  1.0000
  H   H322      1.0  0.83077  0.38102  0.14031  1.0000
  C   C411      1.0  0.88245  0.44353  0.12970  1.0000
  H   H323      1.0  0.54326  0.08887  0.13863  1.0000
  C   C412      1.0  0.91290  0.47070  0.10183  1.0000
  H   H324      1.0  0.51450  0.13325  0.16340  1.0000
  H   H325      1.0  0.69321  0.08336  0.24153  1.0000
  H   H326      1.0  0.97372  0.47201  0.24785  1.0000
  C   C413      1.0  0.85395  0.40197  0.11857  1.0000
  C   C414      1.0  0.85527  0.38749  0.07939  1.0000
  C   C415      1.0  0.88438  0.41484  0.05100  1.0000
  H   H327      1.0  0.71455  0.11368  0.17255  1.0000
  H   H328      1.0  0.55852  0.49918  0.10682  1.0000
  H   H329      1.0  0.95511  0.46550  0.17461  1.0000
  C   C416      1.0  0.55911  0.04142  0.30718  1.0000
  H   H330      1.0  0.99307  0.48017  0.08074  1.0000
  S   S55       1.0  0.83068  0.06265  0.32402  1.0000
  C   C417      1.0  0.51504  0.02533  0.30723  1.0000
  Fe  Fe26      1.0  0.99721  0.31420  0.04742  1.0000
  H   H331      1.0  0.99790  0.03760  0.13672  1.0000
  C   C418      1.0  0.57618  0.01439  0.30431  1.0000
  H   H332      1.0  0.51294  0.26024  0.15913  1.0000
  C   C419      1.0  0.97478  0.49827  0.23175  1.0000
  H   H333      1.0  0.50921  0.21106  0.21180  1.0000
  Fe  Fe27      1.0  0.66919  0.00291  0.31668  1.0000
  C   C420      1.0  0.94028  0.12453  0.47358  1.0000
  S   S56       1.0  0.93275  0.25328  0.38401  1.0000
  H   H334      1.0  0.64174  0.04637  0.38430  1.0000
  S   S57       1.0  0.72316  0.07007  0.60146  1.0000
  H   H335      1.0  0.54253  0.20157  0.36780  1.0000
  H   H336      1.0  0.93152  0.46674  0.50449  1.0000
  C   C421      1.0  0.72025  0.04934  0.52089  1.0000
  H   H337      1.0  0.79539  0.09123  0.43662  1.0000
  H   H338      1.0  0.73437  0.08269  0.51532  1.0000
  H   H339      1.0  0.57806  0.07772  0.42804  1.0000
  H   H340      1.0  0.91917  0.12027  0.33284  1.0000
  H   H341      1.0  0.75269  0.12267  0.41618  1.0000
  C   C422      1.0  0.90493  0.20007  0.36794  1.0000
  C   C423      1.0  0.86061  0.17854  0.36830  1.0000
  H   H342      1.0  0.80332  0.12025  0.35537  1.0000
  H   H343      1.0  0.84415  0.19473  0.37833  1.0000
  H   H344      1.0  0.81841  0.22328  0.50216  1.0000
  C   C424      1.0  0.71184  0.03433  0.56095  1.0000
  C   C425      1.0  0.77628  0.13767  0.43979  1.0000
  C   C426      1.0  0.00360  0.43952  0.47299  1.0000
  C   C427      1.0  0.81333  0.19429  0.48818  1.0000
  P   P14       1.0  0.86319  0.11608  0.49810  1.0000
  C   C428      1.0  0.80915  0.02952  0.50567  1.0000
  H   H345      1.0  0.98944  0.24222  0.44560  1.0000
  C   C429      1.0  0.78262  0.17492  0.45798  1.0000
  C   C430      1.0  0.51377  0.06262  0.41801  1.0000
  H   H346      1.0  0.63501  0.04221  0.51464  1.0000
  C   C431      1.0  0.54715  0.06601  0.44161  1.0000
  C   C432      1.0  0.92591  0.17884  0.35495  1.0000
  H   H347      1.0  0.92716  0.09180  0.48179  1.0000
  C   C433      1.0  0.83764  0.06227  0.48053  1.0000
  C   C434      1.0  0.83773  0.17643  0.50019  1.0000
  C   C435      1.0  0.54057  0.05380  0.48251  1.0000
  C   C436      1.0  0.83407  0.11375  0.61900  1.0000
  H   H348      1.0  0.56681  0.05663  0.50009  1.0000
  S   S58       1.0  0.71641  0.03216  0.36791  1.0000
  H   H349      1.0  0.76394  0.18891  0.44848  1.0000
  C   C437      1.0  0.57135  0.04837  0.58309  1.0000
  C   C438      1.0  0.93387  0.18693  0.46654  1.0000
  H   H350      1.0  0.93215  0.12640  0.63107  1.0000
  C   C439      1.0  0.97581  0.20938  0.45355  1.0000
  H   H351      1.0  0.95529  0.44725  0.36574  1.0000
  H   H352      1.0  0.88124  0.20164  0.66279  1.0000
  C   C440      1.0  0.83740  0.13628  0.35550  1.0000
  C   C441      1.0  0.80083  0.11990  0.45151  1.0000
  H   H353      1.0  0.57505  0.07947  0.58021  1.0000
  C   C442      1.0  0.96439  0.43595  0.48141  1.0000
  C   C443      1.0  0.55523  0.47797  0.65288  1.0000
  H   H354      1.0  0.71662  0.03311  0.45716  1.0000
  C   C444      1.0  0.86650  0.11785  0.55313  1.0000
  C   C445      1.0  0.83183  0.13918  0.48183  1.0000
  C   C446      1.0  0.90264  0.12263  0.57316  1.0000
  H   H355      1.0  0.63417  0.07178  0.60727  1.0000
  C   C447      1.0  0.83227  0.11343  0.57645  1.0000
  H   H356      1.0  0.00101  0.13176  0.45807  1.0000
  C   C448      1.0  0.62361  0.02706  0.48533  1.0000
  C   C449      1.0  0.60055  0.00440  0.60284  1.0000
  H   H357      1.0  0.51876  0.07168  0.38625  1.0000
  C   C450      1.0  0.91576  0.14431  0.47685  1.0000
  H   H358      1.0  0.54698  0.14131  0.33841  1.0000
  H   H359      1.0  0.66694  0.08143  0.45105  1.0000
  C   C451      1.0  0.98882  0.46776  0.36999  1.0000
  H   H360      1.0  0.80726  0.10982  0.63671  1.0000
  C   C452      1.0  0.86998  0.11837  0.63872  1.0000
  H   H361      1.0  0.86466  0.07810  0.41993  1.0000
  H   H362      1.0  0.80257  0.03570  0.53631  1.0000
  C   C453      1.0  0.84393  0.05318  0.44035  1.0000
  H   H363      1.0  0.80389  0.10917  0.56175  1.0000
  H   H364      1.0  0.91590  0.20312  0.46812  1.0000
  C   C454      1.0  0.90432  0.12294  0.61579  1.0000
  H   H365      1.0  0.86139  0.19179  0.52366  1.0000
  H   H366      1.0  0.92948  0.12592  0.55612  1.0000
  C   C455      1.0  0.60479  0.04420  0.59853  1.0000
  H   H367      1.0  0.93578  0.40677  0.47482  1.0000
  C   C456      1.0  0.98220  0.14708  0.46036  1.0000
  C   C457      1.0  0.71010  0.02132  0.48790  1.0000
  C   C458      1.0  0.64164  0.04912  0.44957  1.0000
  C   C459      1.0  0.96213  0.47015  0.49781  1.0000
  C   C460      1.0  0.52537  0.18644  0.34018  1.0000
  C   C461      1.0  0.90269  0.13653  0.34244  1.0000
  C   C462      1.0  0.62765  0.02914  0.41192  1.0000
  C   C463      1.0  0.82204  0.01196  0.42557  1.0000
  C   C464      1.0  0.00004  0.18960  0.45058  1.0000
  Fe  Fe28      1.0  0.00400  0.29376  0.37834  1.0000
  C   C465      1.0  0.51203  0.45953  0.64356  1.0000
  H   H368      1.0  0.82623  0.00547  0.39416  1.0000
  H   H369      1.0  0.00246  0.41656  0.37151  1.0000
  H   H370      1.0  0.95998  0.19490  0.35480  1.0000
  C   C466      1.0  0.53340  0.01263  0.57159  1.0000
  C   C467      1.0  0.85838  0.11513  0.34232  1.0000
  H   H371      1.0  0.62671  0.00143  0.61449  1.0000
  H   H372      1.0  0.79646  0.27517  0.70739  1.0000
  H   H373      1.0  0.64660  0.44091  0.80968  1.0000
  C   C468      1.0  0.97774  0.48815  0.96140  1.0000
  C   C469      1.0  0.78548  0.32704  0.71504  1.0000
  Fe  Fe29      1.0  0.96210  0.26888  0.96477  1.0000
  S   S59       1.0  0.91002  0.20410  0.94352  1.0000
  Fe  Fe30      1.0  0.76957  0.07548  0.74689  1.0000
  S   S60       1.0  0.83477  0.12742  0.76779  1.0000
  Fe  Fe31      1.0  0.67297  0.03900  0.74481  1.0000
  H   H374      1.0  0.78396  0.16297  0.80052  1.0000
  C   C470      1.0  0.75726  0.16680  0.80853  1.0000
  S   S61       1.0  0.72713  0.09419  0.71461  1.0000
  H   H375      1.0  0.71742  0.10103  0.82172  1.0000
  H   H376      1.0  0.78303  0.37139  0.80559  1.0000
  C   C471      1.0  0.79407  0.31908  0.79860  1.0000
  C   C472      1.0  0.88835  0.18530  0.89420  1.0000
  C   C473      1.0  0.90977  0.20512  0.85844  1.0000
  C   C474      1.0  0.89273  0.18711  0.82011  1.0000
  C   C475      1.0  0.85363  0.14976  0.81690  1.0000
  C   C476      1.0  0.83152  0.13076  0.85261  1.0000
  C   C477      1.0  0.84907  0.14817  0.89096  1.0000
  H   H377      1.0  0.93983  0.23381  0.86034  1.0000
  H   H378      1.0  0.91012  0.20206  0.79275  1.0000
  H   H379      1.0  0.80135  0.10218  0.85074  1.0000
  H   H380      1.0  0.83215  0.13261  0.91838  1.0000
  H   H381      1.0  0.88153  0.33465  0.80658  1.0000
  H   H382      1.0  0.65539  0.10823  0.83969  1.0000
  C   C478      1.0  0.79371  0.29586  0.72926  1.0000
  C   C479      1.0  0.78597  0.35029  0.78426  1.0000
  C   C480      1.0  0.81050  0.01481  0.82641  1.0000
  C   C481      1.0  0.59645  0.48853  0.74868  1.0000
  C   C482      1.0  0.82401  0.19518  0.68854  1.0000
  S   S62       1.0  0.71578  0.02354  0.78137  1.0000
  H   H383      1.0  0.58457  0.45541  0.74328  1.0000
  H   H384      1.0  0.94439  0.47482  0.96730  1.0000
  C   C483      1.0  0.83206  0.23513  0.75055  1.0000
  C   C484      1.0  0.80628  0.20703  0.72016  1.0000
  P   P15       1.0  0.80879  0.25156  0.79017  1.0000
  C   C485      1.0  0.68731  0.17505  0.82912  1.0000
  C   C486      1.0  0.76015  0.20643  0.80644  1.0000
  H   H385      1.0  0.77238  0.19404  0.72102  1.0000
  H   H386      1.0  0.79701  0.31623  0.83111  1.0000
  C   C487      1.0  0.62372  0.44678  0.82510  1.0000
  C   C488      1.0  0.55167  0.42248  0.84742  1.0000
  H   H387      1.0  0.92690  0.36538  0.86729  1.0000
  C   C489      1.0  0.52467  0.32517  0.94649  1.0000
  H   H388      1.0  0.99354  0.21236  0.89105  1.0000
  H   H389      1.0  0.65995  0.17795  0.83670  1.0000
  H   H390      1.0  0.78202  0.33003  0.68265  1.0000
  H   H391      1.0  0.72608  0.24038  0.81573  1.0000
  C   C490      1.0  0.84425  0.27283  0.83314  1.0000
  C   C491      1.0  0.83922  0.24808  0.86749  1.0000
  H   H392      1.0  0.86101  0.24664  0.92811  1.0000
  C   C492      1.0  0.89639  0.30805  0.90148  1.0000
  C   C493      1.0  0.90236  0.33262  0.86711  1.0000
  C   C494      1.0  0.87654  0.31509  0.83295  1.0000
  H   H393      1.0  0.82074  0.02249  0.89114  1.0000
  S   S63       1.0  0.76697  0.03276  0.69554  1.0000
  S   S64       1.0  0.96267  0.40724  0.96784  1.0000
  C   C495      1.0  0.68472  0.13574  0.83094  1.0000
  C   C496      1.0  0.71969  0.13165  0.82074  1.0000
  H   H394      1.0  0.54452  0.04898  0.79314  1.0000
  H   H395      1.0  0.91613  0.32183  0.92803  1.0000
  C   C497      1.0  0.52867  0.34957  0.91232  1.0000
  H   H396      1.0  0.82110  0.04778  0.82107  1.0000
  C   C498      1.0  0.72491  0.21035  0.81702  1.0000
  C   C499      1.0  0.78169  0.35429  0.74249  1.0000
  C   C500      1.0  0.87587  0.25137  0.74867  1.0000
  H   H397      1.0  0.55959  0.36848  0.89911  1.0000
  H   H398      1.0  0.92721  0.25126  0.71616  1.0000
  H   H399      1.0  0.77539  0.37846  0.73140  1.0000
  H   H400      1.0  0.81549  0.21516  0.86828  1.0000
  Fe  Fe32      1.0  0.98864  0.36281  0.97634  1.0000
  C   C501      1.0  0.86507  0.26579  0.90159  1.0000
  S   S65       1.0  0.61999  0.04608  0.77330  1.0000
  C   C502      1.0  0.58157  0.41488  0.82784  1.0000
  H   H401      1.0  0.57238  0.38425  0.81493  1.0000
  C   C503      1.0  0.79823  0.29172  0.77119  1.0000
  C   C504      1.0  0.53821  0.03020  0.76579  1.0000
  C   C505      1.0  0.56482  0.46210  0.86496  1.0000
  H   H402      1.0  0.89647  0.27273  0.77182  1.0000
  H   H403      1.0  0.87096  0.11819  0.67177  1.0000
  H   H404      1.0  0.80380  0.17302  0.66555  1.0000
  H   H405      1.0  0.55225  0.32562  0.95924  1.0000
  H   H406      1.0  0.54279  0.46841  0.88123  1.0000
  C   C506      1.0  0.57025  0.02411  0.74886  1.0000
  C   C507      1.0  0.99550  0.46178  0.95981  1.0000
  H   H407      1.0  0.52057  0.39801  0.76565  1.0000
  Fe  Fe33      1.0  0.72055  0.04796  0.66611  1.0000
  C   C508      1.0  0.86760  0.21127  0.68700  1.0000
  H   H408      1.0  0.53786  0.47963  0.77273  1.0000
  C   C509      1.0  0.89349  0.23931  0.71705  1.0000
  S   S66       1.0  0.00458  0.32743  0.92948  1.0000
  C   C510      1.0  0.63632  0.48641  0.84194  1.0000
  H   H409      1.0  0.00289  0.20501  0.81715  1.0000
  C   C511      1.0  0.60690  0.49397  0.86200  1.0000
  H   H410      1.0  0.56751  0.45851  0.66427  1.0000
  H   H411      1.0  0.99849  0.67947  0.09971  1.0000
  H   H412      1.0  0.91446  0.60333  0.01965  1.0000
  S   S67       1.0  0.96248  0.66695  0.24468  1.0000
  Fe  Fe34      1.0  0.75600  0.70939  0.05037  1.0000
  C   C512      1.0  0.96797  0.79058  0.16424  1.0000
  S   S68       1.0  0.82440  0.72730  0.06249  1.0000
  Fe  Fe35      1.0  0.66181  0.65101  0.06599  1.0000
  P   P16       1.0  0.95114  0.52386  0.11645  1.0000
  S   S69       1.0  0.61767  0.58637  0.09246  1.0000
  Fe  Fe36      1.0  0.70009  0.74688  0.07658  1.0000
  S   S70       1.0  0.71003  0.80859  0.10499  1.0000
  S   S71       1.0  0.71458  0.69978  0.10479  1.0000
  H   H413      1.0  0.90228  0.55528  0.16253  1.0000
  H   H414      1.0  0.94463  0.55873  0.03894  1.0000
  H   H415      1.0  0.73978  0.65291  0.18810  1.0000
  C   C513      1.0  0.73171  0.61742  0.13346  1.0000
  Fe  Fe37      1.0  0.68995  0.93138  0.30294  1.0000
  S   S72       1.0  0.67248  0.86601  0.27773  1.0000
  C   C514      1.0  0.98691  0.53595  0.25254  1.0000
  H   H416      1.0  0.75991  0.78196  0.16684  1.0000
  S   S73       1.0  0.70460  0.65688  0.01371  1.0000
  C   C515      1.0  0.54477  0.51021  0.08424  1.0000
  C   C516      1.0  0.70023  0.82362  0.15383  1.0000
  C   C517      1.0  0.71271  0.86618  0.16094  1.0000
  C   C518      1.0  0.70502  0.87981  0.19870  1.0000
  C   C519      1.0  0.68449  0.85093  0.22995  1.0000
  C   C520      1.0  0.67245  0.80840  0.22308  1.0000
  C   C521      1.0  0.68032  0.79479  0.18533  1.0000
  H   H417      1.0  0.72813  0.88878  0.13686  1.0000
  H   H418      1.0  0.71447  0.91256  0.20341  1.0000
  H   H419      1.0  0.65646  0.78573  0.24695  1.0000
  H   H420      1.0  0.67045  0.76198  0.18040  1.0000
  C   C522      1.0  0.54913  0.56627  0.04230  1.0000
  C   C523      1.0  0.56731  0.55227  0.07131  1.0000
  H   H421      1.0  0.99880  0.74728  0.08717  1.0000
  C   C524      1.0  0.75574  0.64551  0.16433  1.0000
  S   S74       1.0  0.74420  0.75890  0.02379  1.0000
  C   C525      1.0  0.54864  0.97104  0.30199  1.0000
  C   C526      1.0  0.91209  0.59297  0.05088  1.0000
  H   H422      1.0  0.91035  0.74611  0.06698  1.0000
  H   H423      1.0  0.98853  0.80185  0.05311  1.0000
  H   H424      1.0  0.56130  0.94994  0.29930  1.0000
  H   H425      1.0  0.73289  0.58721  0.07750  1.0000
  C   C527      1.0  0.89541  0.72320  0.04288  1.0000
  S   S75       1.0  0.64376  0.69737  0.04183  1.0000
  H   H426      1.0  0.95098  0.66794  0.15849  1.0000
  Fe  Fe38      1.0  0.98185  0.66158  0.30875  1.0000
  H   H427      1.0  0.69766  0.60373  0.13331  1.0000
  C   C528      1.0  0.85248  0.70779  0.03427  1.0000
  H   H428      1.0  0.57071  0.82136  0.31977  1.0000
  C   C529      1.0  0.97848  0.56662  0.19056  1.0000
  C   C530      1.0  0.80453  0.60690  0.28567  1.0000
  C   C531      1.0  0.80249  0.62922  0.25210  1.0000
  C   C532      1.0  0.83107  0.67248  0.24840  1.0000
  C   C533      1.0  0.86094  0.69309  0.27941  1.0000
  P   P17       1.0  0.83060  0.70119  0.20379  1.0000
  C   C534      1.0  0.88398  0.73463  0.18595  1.0000
  C   C535      1.0  0.79996  0.66443  0.16398  1.0000
  C   C536      1.0  0.81967  0.65419  0.13268  1.0000
  C   C537      1.0  0.79545  0.62612  0.10178  1.0000
  C   C538      1.0  0.89387  0.77003  0.16204  1.0000
  C   C539      1.0  0.93573  0.79792  0.15135  1.0000
  H   H429      1.0  0.87288  0.60037  0.14269  1.0000
  C   C540      1.0  0.95818  0.75432  0.18616  1.0000
  C   C541      1.0  0.91630  0.72613  0.19650  1.0000
  C   C542      1.0  0.80737  0.73383  0.21517  1.0000
  C   C543      1.0  0.80645  0.74729  0.25515  1.0000
  C   C544      1.0  0.78894  0.77310  0.26308  1.0000
  C   C545      1.0  0.77190  0.78531  0.23137  1.0000
  C   C546      1.0  0.77293  0.77228  0.19155  1.0000
  C   C547      1.0  0.79081  0.74691  0.18344  1.0000
  H   H430      1.0  0.68269  0.73873  0.31626  1.0000
  C   C548      1.0  0.92738  0.55516  0.10256  1.0000
  H   H431      1.0  0.98300  0.74796  0.19534  1.0000
  H   H432      1.0  0.77913  0.61232  0.22884  1.0000
  H   H433      1.0  0.88347  0.72634  0.27728  1.0000
  H   H434      1.0  0.85369  0.66869  0.13133  1.0000
  H   H435      1.0  0.81073  0.61952  0.07680  1.0000
  H   H436      1.0  0.86944  0.77625  0.15151  1.0000
  H   H437      1.0  0.94306  0.82525  0.13311  1.0000
  H   H438      1.0  0.88000  0.62559  0.07130  1.0000
  C   C549      1.0  0.86309  0.67052  0.31266  1.0000
  H   H439      1.0  0.90942  0.69799  0.21309  1.0000
  H   H440      1.0  0.81931  0.73820  0.28021  1.0000
  C   C550      1.0  0.75156  0.60800  0.10202  1.0000
  H   H441      1.0  0.75801  0.80504  0.23747  1.0000
  H   H442      1.0  0.79200  0.73772  0.15223  1.0000
  C   C551      1.0  0.89231  0.60522  0.08000  1.0000
  H   H443      1.0  0.98120  0.59374  0.17484  1.0000
  H   H444      1.0  0.52851  0.85563  0.30356  1.0000
  C   C552      1.0  0.91924  0.70960  0.02008  1.0000
  C   C553      1.0  0.96475  0.52844  0.16981  1.0000
  C   C554      1.0  0.98244  0.67311  0.16369  1.0000
  C   C555      1.0  0.92933  0.56784  0.06199  1.0000
  C   C556      1.0  0.88854  0.59118  0.12012  1.0000
  H   H445      1.0  0.99490  0.53875  0.28465  1.0000
  H   H446      1.0  0.56596  0.59865  0.03242  1.0000
  H   H447      1.0  0.78300  0.57342  0.28796  1.0000
  C   C557      1.0  0.83315  0.67750  0.00366  1.0000
  H   H448      1.0  0.78860  0.78378  0.29377  1.0000
  C   C558      1.0  0.90567  0.56591  0.13135  1.0000
  C   C559      1.0  0.50903  0.53837  0.02612  1.0000
  H   H449      1.0  0.00048  0.81269  0.15683  1.0000
  H   H450      1.0  0.95241  0.72217  0.02630  1.0000
  C   C560      1.0  0.98882  0.57010  0.23191  1.0000
  S   S76       1.0  0.71469  0.99551  0.27471  1.0000
  C   C561      1.0  0.83495  0.62752  0.31584  1.0000
  C   C562      1.0  0.99635  0.67373  0.20364  1.0000
  H   H451      1.0  0.91202  0.83988  0.32274  1.0000
  C   C563      1.0  0.99987  0.54189  0.08864  1.0000
  H   H452      1.0  0.99812  0.59926  0.24808  1.0000
  H   H453      1.0  0.70287  0.81373  0.32441  1.0000
  Fe  Fe39      1.0  0.94757  0.65679  0.39568  1.0000
  S   S77       1.0  0.88850  0.65620  0.42100  1.0000
  H   H454      1.0  0.58467  0.86502  0.44274  1.0000
  S   S78       1.0  0.96955  0.53137  0.37043  1.0000
  H   H455      1.0  0.83721  0.61024  0.34156  1.0000
  C   C564      1.0  0.92221  0.79336  0.35240  1.0000
  Fe  Fe40      1.0  0.76579  0.67722  0.62260  1.0000
  S   S79       1.0  0.71738  0.69132  0.59555  1.0000
  S   S80       1.0  0.82575  0.68004  0.59652  1.0000
  Fe  Fe41      1.0  0.67052  0.64230  0.63880  1.0000
  H   H456      1.0  0.88993  0.53687  0.42604  1.0000
  Fe  Fe42      1.0  0.73179  0.73638  0.64797  1.0000
  S   S81       1.0  0.74690  0.80326  0.63438  1.0000
  H   H457      1.0  0.85349  0.76553  0.55015  1.0000
  C   C565      1.0  0.70807  0.75863  0.33686  1.0000
  H   H458      1.0  0.80901  0.64435  0.44947  1.0000
  Fe  Fe43      1.0  0.69135  0.96596  0.38934  1.0000
  S   S82       1.0  0.67559  0.94184  0.45411  1.0000
  C   C566      1.0  0.89920  0.81353  0.34353  1.0000
  C   C567      1.0  0.68277  0.96314  0.53497  1.0000
  C   C568      1.0  0.52436  0.52825  0.62216  1.0000
  H   H459      1.0  0.66836  0.92976  0.54055  1.0000
  C   C569      1.0  0.93437  0.54117  0.47145  1.0000
  H   H460      1.0  0.58859  0.87074  0.56395  1.0000
  C   C570      1.0  0.93633  0.57801  0.53359  1.0000
  H   H461      1.0  0.80585  0.78781  0.58176  1.0000
  H   H462      1.0  0.92790  0.50366  0.66171  1.0000
  C   C571      1.0  0.90570  0.75946  0.37922  1.0000
  C   C572      1.0  0.56759  0.54666  0.63136  1.0000
  C   C573      1.0  0.69365  0.99125  0.56797  1.0000
  H   H463      1.0  0.61602  0.53504  0.65417  1.0000
  C   C574      1.0  0.87188  0.66291  0.47021  1.0000
  C   C575      1.0  0.89884  0.67639  0.50391  1.0000
  C   C576      1.0  0.88408  0.68145  0.54218  1.0000
  C   C577      1.0  0.84238  0.67346  0.54725  1.0000
  C   C578      1.0  0.81553  0.66030  0.51344  1.0000
  C   C579      1.0  0.83020  0.65493  0.47527  1.0000
  H   H464      1.0  0.93097  0.68272  0.50059  1.0000
  H   H465      1.0  0.90514  0.69166  0.56810  1.0000
  H   H466      1.0  0.78341  0.65399  0.51681  1.0000
  C   C580      1.0  0.56108  0.86926  0.54984  1.0000
  C   C581      1.0  0.90365  0.58383  0.51880  1.0000
  C   C582      1.0  0.75205  0.82669  0.36794  1.0000
  C   C583      1.0  0.95761  0.52484  0.60314  1.0000
  C   C584      1.0  0.59618  0.98686  0.40986  1.0000
  S   S83       1.0  0.73772  0.95561  0.35345  1.0000
  H   H467      1.0  0.99624  0.73225  0.44895  1.0000
  C   C585      1.0  0.63083  0.85412  0.63060  1.0000
  C   C586      1.0  0.56510  0.88865  0.51230  1.0000
  H   H468      1.0  0.78735  0.68647  0.35133  1.0000
  C   C587      1.0  0.74558  0.62539  0.37564  1.0000
  C   C588      1.0  0.90213  0.54753  0.45649  1.0000
  S   S84       1.0  0.64157  0.93756  0.34096  1.0000
  C   C589      1.0  0.71971  0.60258  0.40817  1.0000
  H   H469      1.0  0.59859  0.82654  0.38951  1.0000
  H   H470      1.0  0.65801  0.85895  0.61287  1.0000
  H   H471      1.0  0.79889  0.83083  0.41011  1.0000
  H   H472      1.0  0.77558  0.94780  0.43889  1.0000
  H   H473      1.0  0.92346  0.74373  0.38635  1.0000
  H   H474      1.0  0.57828  0.96884  0.51142  1.0000
  H   H475      1.0  0.76458  0.96327  0.50987  1.0000
  C   C590      1.0  0.59170  0.98508  0.48339  1.0000
  H   H476      1.0  0.75232  0.79279  0.54000  1.0000
  H   H477      1.0  0.58605  0.97185  0.38037  1.0000
  H   H478      1.0  0.76564  0.88862  0.62742  1.0000
  H   H479      1.0  0.84299  0.81650  0.35450  1.0000
  H   H480      1.0  0.55972  0.93793  0.59546  1.0000
  C   C591      1.0  0.84274  0.76563  0.38844  1.0000
  C   C592      1.0  0.86597  0.74529  0.39668  1.0000
  P   P18       1.0  0.79179  0.74753  0.41236  1.0000
  C   C593      1.0  0.76320  0.69078  0.41053  1.0000
  C   C594      1.0  0.79834  0.76345  0.46542  1.0000
  C   C595      1.0  0.82838  0.76036  0.48968  1.0000
  C   C596      1.0  0.83113  0.76925  0.53140  1.0000
  H   H481      1.0  0.51873  0.83260  0.59780  1.0000
  C   C597      1.0  0.77390  0.78430  0.52561  1.0000
  C   C598      1.0  0.77066  0.77493  0.48394  1.0000
  C   C599      1.0  0.57889  0.84023  0.38286  1.0000
  H   H482      1.0  0.94676  0.52577  0.45219  1.0000
  C   C600      1.0  0.58284  0.52134  0.64714  1.0000
  C   C601      1.0  0.71526  0.62369  0.44173  1.0000
  C   C602      1.0  0.73677  0.66762  0.44291  1.0000
  C   C603      1.0  0.76258  0.76791  0.38518  1.0000
  P   P19       1.0  0.99642  0.55225  0.52737  1.0000
  C   C604      1.0  0.57799  0.96441  0.44570  1.0000
  H   H483      1.0  0.92788  0.51407  0.58752  1.0000
  C   C605      1.0  0.59926  0.81347  0.64018  1.0000
  C   C606      1.0  0.78745  0.98829  0.49079  1.0000
  H   H484      1.0  0.74905  0.60899  0.34969  1.0000
  C   C607      1.0  0.77355  0.81033  0.38977  1.0000
  C   C608      1.0  0.57092  0.86244  0.41316  1.0000
  H   H485      1.0  0.95282  0.80393  0.33855  1.0000
  Fe  Fe44      1.0  0.98502  0.59986  0.36934  1.0000
  H   H486      1.0  0.84895  0.74985  0.47705  1.0000
  H   H487      1.0  0.68767  0.97973  0.59881  1.0000
  C   C609      1.0  0.72946  0.74210  0.35866  1.0000
  H   H488      1.0  0.74580  0.77565  0.46671  1.0000
  C   C610      1.0  0.88670  0.56878  0.48018  1.0000
  H   H489      1.0  0.70323  0.56852  0.40750  1.0000
  C   C611      1.0  0.52968  0.88622  0.49285  1.0000
  H   H490      1.0  0.69537  0.60605  0.46710  1.0000
  H   H491      1.0  0.73294  0.68324  0.46935  1.0000
  C   C612      1.0  0.76728  0.66934  0.37673  1.0000
  S   S85       1.0  0.93248  0.60919  0.34576  1.0000
  H   H492      1.0  0.51393  0.97613  0.42217  1.0000
  H   H493      1.0  0.95025  0.59138  0.56285  1.0000
  C   C613      1.0  0.56276  0.96865  0.59205  1.0000
  C   C614      1.0  0.80412  0.78148  0.54930  1.0000
  S   S86       1.0  0.60116  0.60103  0.62156  1.0000
  H   H494      1.0  0.65317  0.92007  0.63849  1.0000
  C   C615      1.0  0.54671  0.88170  0.40452  1.0000
  H   H495      1.0  0.85341  0.71827  0.41652  1.0000
  H   H496      1.0  0.76055  0.85942  0.37153  1.0000
  H   H497      1.0  0.59606  0.90584  0.49851  1.0000
  C   C616      1.0  0.95746  0.51853  0.64515  1.0000
  C   C617      1.0  0.69067  0.97808  0.49480  1.0000
  C   C618      1.0  0.79366  0.97954  0.45072  1.0000
  S   S87       1.0  0.99425  0.71041  0.35671  1.0000
  C   C619      1.0  0.85982  0.80002  0.36169  1.0000
  C   C620      1.0  0.95144  0.55597  0.51025  1.0000
  C   C621      1.0  0.74512  0.87536  0.65350  1.0000
  H   H498      1.0  0.89197  0.60078  0.53687  1.0000
  C   C622      1.0  0.62798  0.88862  0.64484  1.0000
  C   C623      1.0  0.71942  0.80090  0.34141  1.0000
  H   H499      1.0  0.86223  0.57440  0.46826  1.0000
  H   H500      1.0  0.51435  0.89489  0.35629  1.0000
  H   H501      1.0  0.72010  0.70931  0.35444  1.0000
  C   C624      1.0  0.53170  0.87915  0.36455  1.0000
  P   P20       1.0  0.53563  0.91046  0.44336  1.0000
  C   C625      1.0  0.53955  0.85676  0.33439  1.0000
  C   C626      1.0  0.99587  0.54457  0.58162  1.0000
  S   S88       1.0  0.99653  0.64345  0.42267  1.0000
  C   C627      1.0  0.99916  0.50846  0.50509  1.0000
  C   C628      1.0  0.52181  0.84804  0.56892  1.0000
  C   C629      1.0  0.52930  0.97267  0.57631  1.0000
  H   H502      1.0  0.52032  0.88755  0.65132  1.0000
  H   H503      1.0  0.88723  0.68597  0.33565  1.0000
  H   H504      1.0  0.88381  0.74206  0.66186  1.0000
  C   C630      1.0  0.56313  0.83727  0.34353  1.0000
  H   H505      1.0  0.60193  0.78679  0.62954  1.0000
  S   S89       1.0  0.71771  0.62446  0.66170  1.0000
  H   H506      1.0  0.51226  0.54753  0.60981  1.0000
  H   H507      1.0  0.93060  0.80099  0.70783  1.0000
  S   S90       1.0  0.92927  0.66398  0.95776  1.0000
  Fe  Fe45      1.0  0.73186  0.67404  0.70952  1.0000
  C   C631      1.0  0.79668  0.98650  0.79379  1.0000
  S   S91       1.0  0.74369  0.66160  0.77447  1.0000
  Fe  Fe46      1.0  0.68945  0.70597  0.99150  1.0000
  S   S92       1.0  0.67149  0.71297  0.92696  1.0000
  C   C632      1.0  0.76710  0.86334  0.93191  1.0000
  H   H508      1.0  0.57310  0.64609  0.82922  1.0000
  Fe  Fe47      1.0  0.71013  0.98210  0.72777  1.0000
  S   S93       1.0  0.69284  0.91462  0.74098  1.0000
  C   C633      1.0  0.75372  0.81218  0.79101  1.0000
  C   C634      1.0  0.58944  0.94476  0.80864  1.0000
  C   C635      1.0  0.70732  0.88385  0.71046  1.0000
  H   H509      1.0  0.69236  0.78391  0.70601  1.0000
  C   C636      1.0  0.69254  0.84165  0.72095  1.0000
  H   H510      1.0  0.80906  0.72960  0.95093  1.0000
  H   H511      1.0  0.67232  0.82852  0.74723  1.0000
  C   C637      1.0  0.72116  0.67398  0.81626  1.0000
  C   C638      1.0  0.72763  0.66379  0.85577  1.0000
  C   C639      1.0  0.71229  0.67532  0.88988  1.0000
  C   C640      1.0  0.69005  0.69689  0.88475  1.0000
  C   C641      1.0  0.68204  0.70562  0.84521  1.0000
  C   C642      1.0  0.69756  0.69424  0.81103  1.0000
  H   H512      1.0  0.74509  0.64751  0.86034  1.0000
  H   H513      1.0  0.71828  0.66807  0.92018  1.0000
  H   H514      1.0  0.66403  0.72146  0.84095  1.0000
  H   H515      1.0  0.69147  0.70138  0.78077  1.0000
  S   S94       1.0  0.66354  0.99405  0.69413  1.0000
  H   H516      1.0  0.51525  0.96230  0.66858  1.0000
  C   C643      1.0  0.81859  0.87876  0.78542  1.0000
  C   C644      1.0  0.60957  0.92304  0.79486  1.0000
  C   C645      1.0  0.83038  0.86343  0.75170  1.0000
  H   H517      1.0  0.96483  0.73193  0.79472  1.0000
  H   H518      1.0  0.60601  0.97199  0.82832  1.0000
  C   C646      1.0  0.56530  0.80729  0.66482  1.0000
  S   S95       1.0  0.68214  0.68890  0.68917  1.0000
  C   C647      1.0  0.86553  0.60097  0.87402  1.0000
  C   C648      1.0  0.82201  0.57522  0.86921  1.0000
  C   C649      1.0  0.79810  0.59151  0.85212  1.0000
  C   C650      1.0  0.81767  0.63363  0.84030  1.0000
  C   C651      1.0  0.86127  0.65979  0.84529  1.0000
  C   C652      1.0  0.88517  0.64302  0.86193  1.0000
  P   P21       1.0  0.88518  0.71486  0.83271  1.0000
  C   C653      1.0  0.85383  0.73401  0.85821  1.0000
  C   C654      1.0  0.93923  0.74132  0.85098  1.0000
  H   H519      1.0  0.99526  0.52633  0.69834  1.0000
  C   C655      1.0  0.56995  0.50251  0.76467  1.0000
  C   C656      1.0  0.84279  0.72414  0.89931  1.0000
  H   H520      1.0  0.63988  0.60789  0.76551  1.0000
  Fe  Fe48      1.0  0.99805  0.68364  0.96891  1.0000
  C   C657      1.0  0.81168  0.76871  0.85663  1.0000
  C   C658      1.0  0.83756  0.75602  0.83683  1.0000
  C   C659      1.0  0.88513  0.72272  0.77829  1.0000
  C   C660      1.0  0.85878  0.68968  0.75196  1.0000
  C   C661      1.0  0.85857  0.69680  0.71017  1.0000
  H   H521      1.0  0.60273  0.72683  0.72568  1.0000
  H   H522      1.0  0.83952  0.91055  0.79587  1.0000
  C   C662      1.0  0.91103  0.76294  0.76203  1.0000
  H   H523      1.0  0.88416  0.58884  0.88810  1.0000
  H   H524      1.0  0.80687  0.54281  0.87907  1.0000
  H   H525      1.0  0.76435  0.57179  0.84836  1.0000
  H   H526      1.0  0.79891  0.64601  0.82720  1.0000
  H   H527      1.0  0.91878  0.66238  0.86687  1.0000
  H   H528      1.0  0.92489  0.75252  0.91250  1.0000
  C   C663      1.0  0.52388  0.53410  0.86923  1.0000
  H   H529      1.0  0.85323  0.70552  0.91580  1.0000
  H   H530      1.0  0.79814  0.78439  0.83972  1.0000
  H   H531      1.0  0.84346  0.76227  0.80463  1.0000
  H   H532      1.0  0.83792  0.65849  0.76328  1.0000
  C   C664      1.0  0.56265  0.84192  0.68003  1.0000
  H   H533      1.0  0.93114  0.78898  0.78184  1.0000
  H   H534      1.0  0.54214  0.77549  0.67274  1.0000
  C   C665      1.0  0.78280  0.94396  0.80044  1.0000
  H   H535      1.0  0.58593  0.99487  0.70009  1.0000
  H   H536      1.0  0.54729  0.80641  0.79101  1.0000
  C   C666      1.0  0.79647  0.95786  0.87263  1.0000
  H   H537      1.0  0.65888  0.50660  0.72683  1.0000
  H   H538      1.0  0.62152  0.85616  0.83209  1.0000
  C   C667      1.0  0.88455  0.73680  0.69427  1.0000
  C   C668      1.0  0.60052  0.59215  0.90496  1.0000
  C   C669      1.0  0.58879  0.68986  0.78037  1.0000
  C   C670      1.0  0.57600  0.65001  0.79654  1.0000
  H   H539      1.0  0.63014  0.61467  0.91898  1.0000
  H   H540      1.0  0.62135  0.61469  0.84443  1.0000
  H   H541      1.0  0.59647  0.71619  0.80056  1.0000
  H   H542      1.0  0.58575  0.78696  0.86677  1.0000
  C   C671      1.0  0.52935  0.53406  0.91144  1.0000
  H   H543      1.0  0.83288  0.84792  0.99372  1.0000
  H   H544      1.0  0.77155  0.92244  0.77477  1.0000
  C   C672      1.0  0.59521  0.59231  0.86282  1.0000
  C   C673      1.0  0.91077  0.76990  0.72019  1.0000
  C   C674      1.0  0.78280  0.92929  0.83986  1.0000
  H   H545      1.0  0.79628  0.94737  0.90341  1.0000
  C   C675      1.0  0.80184  0.75967  0.89782  1.0000
  C   C676      1.0  0.68709  0.80680  0.87175  1.0000
  H   H546      1.0  0.74567  0.76505  0.74667  1.0000
  H   H547      1.0  0.72385  0.79175  0.80547  1.0000
  C   C677      1.0  0.81749  0.73747  0.91919  1.0000
  C   C678      1.0  0.56748  0.61607  0.77052  1.0000
  C   C679      1.0  0.57065  0.62234  0.72824  1.0000
  H   H548      1.0  0.78078  0.76846  0.91283  1.0000
  C   C680      1.0  0.62714  0.57444  0.76081  1.0000
  H   H549      1.0  0.84103  0.86861  0.86471  1.0000
  C   C681      1.0  0.65380  0.56014  0.74608  1.0000
  H   H550      1.0  0.73830  0.86500  0.93377  1.0000
  C   C682      1.0  0.61958  0.80320  0.86236  1.0000
  H   H551      1.0  0.58570  0.66645  0.67945  1.0000
  C   C683      1.0  0.70394  0.81634  0.69773  1.0000
  C   C684      1.0  0.58268  0.66198  0.71219  1.0000
  C   C685      1.0  0.54772  0.87653  0.75477  1.0000
  H   H552      1.0  0.68649  0.58237  0.73961  1.0000
  C   C686      1.0  0.58467  0.54574  0.76933  1.0000
  S   S96       1.0  0.78279  0.72540  0.67252  1.0000
  C   C687      1.0  0.84140  0.85895  0.92898  1.0000
  C   C688      1.0  0.56767  0.56306  0.92923  1.0000
  C   C689      1.0  0.77973  0.85356  0.80487  1.0000
  P   P22       1.0  0.55079  0.56413  0.79002  1.0000
  C   C690      1.0  0.55651  0.56391  0.84468  1.0000
  H   H553      1.0  0.57215  0.56290  0.96181  1.0000
  C   C691      1.0  0.59386  0.88260  0.66906  1.0000
  C   C692      1.0  0.76600  0.79676  0.75769  1.0000
  H   H554      1.0  0.69843  0.89402  0.82357  1.0000
  C   C693      1.0  0.68356  0.86370  0.83826  1.0000
  C   C694      1.0  0.97163  0.74421  0.82552  1.0000
  H   H555      1.0  0.64175  0.93321  0.80403  1.0000
  H   H556      1.0  0.74509  0.93302  0.66819  1.0000
  C   C695      1.0  0.80396  0.82254  0.73769  1.0000
  P   P23       1.0  0.76449  0.87407  0.84800  1.0000
  C   C696      1.0  0.73353  0.90060  0.67654  1.0000
  C   C697      1.0  0.82478  0.86552  0.89317  1.0000
  C   C698      1.0  0.63834  0.51734  0.73933  1.0000
  C   C699      1.0  0.54837  0.93225  0.79594  1.0000
  C   C700      1.0  0.78716  0.86722  0.89428  1.0000
  H   H557      1.0  0.70499  0.79264  0.88322  1.0000
  H   H558      1.0  0.62795  0.75541  0.89209  1.0000
  H   H559      1.0  0.84184  0.64045  0.95724  1.0000
  C   C701      1.0  0.70765  0.84621  0.85272  1.0000
  C   C702      1.0  0.63972  0.84221  0.84302  1.0000
  H   H560      1.0  0.85970  0.88342  0.73598  1.0000
  C   C703      1.0  0.58877  0.88899  0.76816  1.0000
  C   C704      1.0  0.64329  0.78548  0.87665  1.0000
  H   H561      1.0  0.66881  0.51137  0.83937  1.0000
  H   H562      1.0  0.81258  0.81097  0.71097  1.0000
  H   H563      1.0  0.56418  0.59665  0.70751  1.0000
  H   H564      1.0  0.61677  0.52460  0.87532  1.0000
  H   H565      1.0  0.86988  0.85666  0.92785  1.0000
  C   C705      1.0  0.52142  0.98107  0.69579  1.0000
  H   H566      1.0  0.60513  0.87299  0.75718  1.0000
  C   C706      1.0  0.94900  0.75562  0.89146  1.0000
  C   C707      1.0  0.59224  0.69587  0.73822  1.0000
  H   H567      1.0  0.79624  0.99738  0.76328  1.0000
  C   C708      1.0  0.56171  0.99974  0.71354  1.0000
  C   C709      1.0  0.99034  0.77280  0.90595  1.0000
  H   H568      1.0  0.83771  0.67139  0.69000  1.0000
  C   C710      1.0  0.00271  0.53165  0.95471  1.0000
  C   C711      1.0  0.90015  0.68014  0.98877  1.0000
  P   P24       1.0  0.52294  0.83504  0.71721  1.0000
  H   H569      1.0  0.59287  0.90978  0.68079  1.0000
  C   C712      1.0  0.85689  0.66355  0.98121  1.0000
  H   H570      1.0  0.53322  0.94984  0.80588  1.0000
  C   C713      1.0  0.52754  0.89837  0.76904  1.0000
  H   H571      1.0  0.98869  0.55166  0.95589  1.0000
  C   C714      1.0  0.99538  0.53120  0.66578  1.0000
  H   H572      1.0  0.51260  0.50897  0.71821  1.0000
  H   H573      1.0  0.99738  0.78255  0.93751  1.0000
  C   C715      1.0  0.52242  0.77933  0.77562  1.0000
  C   C716      1.0  0.78365  0.85653  0.96758  1.0000
  H   H574      1.0  0.76738  0.85246  0.99638  1.0000
  H   H575      1.0  0.52426  0.73592  0.81856  1.0000
  C   C717      1.0  0.82064  0.85406  0.96609  1.0000
  C   C718      1.0  0.50955  0.73933  0.79131  1.0000
  C   C719      1.0  0.73065  0.83325  0.66410  1.0000
  C   C720      1.0  0.81032  0.00049  0.86584  1.0000
  H   H576      1.0  0.80000  0.66502  0.99712  1.0000
