data_image0
_chemical_formula_structural       CHCH2CH2CSCH4CHC3HC4H2C2HC2HCH2C6HC2HCHCH3CHCHC2SFeS2FeS2FeSFeS3HFeSFeSFeS2FeS2FeCFeS3FeS2FeS2FeSFeS3HC4HCH2C6H4C6H4C6H4C6H3C4H2C6H4C6H3PC6PC18H21C6H2SC4PC13H10C7H5C3HC3H2C3HC4H6CHC2HCH4CH2C2H3CH4CH3CH3C2H2CHC2HC2H2CH2CHCHCH5C2HCH3C3HC3HC3HC2HCHC3H2CH3C3HC5H2C4SHC3H2CH3C4H2C2HC2HC2HPCPCHC5HCH2CH4CH5C2HC2HCH5CHC2HCHC3H2FeS2FeS2FeSFeS3CFeSHCFeS2FeS2FeSFeS3FeS2FeS2FeSFeS3H2C5H2C6HCH2C6H4C6H4C7HC5H2SHC4H3C7H4C4HCHCH2C4H2C2HPHCH2SHCH4C5HCHCH3SC2HCHCH2CHPCH3CH2CH4C4HC2H2CH2C2HC3HCHC3H2CH3CHC2PC2HC3HC2HCH2CH2SHC8HCPC3H2C5HCH2C2H2C3H2C4HC5H3CPHCHC5HC4H2C2HC2H2CH2CHC2H3C2PHCH2CHCH2CPC4HCHC9HC3H2C3H4CH3CH2CHC2HCH3CHFeHCH4CH3C2H4C2HCH3C2HC2H3CSFeS2FeS2C4FeHCSCHFeSH2CH4C8H2CPC6H4C6HC2H2CH3C2HC2HCSC3HFeC8HCHFeC2H2CH4C2HC7H4C2H3C2H3CHC3H4CHC3H5CH2C7PC5HCH2C4HSCHC3HCH3CPHCHC2HCHSH3SCSCH5PCH3SHC3HCSHCHFeH2C2H3CHFeS2FeS2CH3CHS2FeSFeSCHCH4C8H4C6H3C7H2C2SCH3CH6CH2CHCHCHC2SC2H2CH4C4HCH2C4HC4H4C7HC6FeHCFeHCH6CH3C2H3CPHCH2CHC5H2C2HC2HC2H2CHSC6H3C2HCSC3HPHCHCH4CHCHCH2CH2C2PC2HCFeCSHC2HC2HC6H2C3SHC3H3CH2SFeS2FeS2FeSFeS3HCFeSFeSC3HC6H4C6H4C6H4C2H3CHCH2C2FeCHFeC5HCPC4H3CH2C2HCHCHCPHCHCHC2H3SH2C2H4C5HC3HPHC4H4CH2C4HC3HCSFePHCHC4PC7H2C2HC2SCH11C4H2C5H2C2HC2HCH2CHCHCHC3H4C5PC2HC2HC2H4C4H2C3H2C2H2C4H3CHFeC2H3C2H3CHSCH2C2HCSCHCSHFeSH4CSFeS2FeS2FeSFeS3HPFeSFeS2HCHC6H4C6H4C6H4CHC2H3CSCHC2HC2HCH2C3SC3H2CH2C2H3CHCH2CH3C4HCH4CH3C2HC2HCHCHFeHC3H3CH2CH2C3HC3HSH2CH3C8H2C3PCHC3H2C3H4C2H2C4HC3H3CH2CFeCH5PCHSC6PC15HC2HCH4CH2CH5CHC2H4CHPCHC2SPCFeS2FeS2FeSFeS3FeS2FeS2FeHFeS3FeS3FeSFeSHS3FeCFeSC6H4C7H3C6H4C6H4C6H4C2HC8H5C2H3C6PC16HCH16C7HCH5C3SHC3HC6HCHCHC7H2CHC3SHCHSCPCH2CH2PH4CHCPC8HCH10CH3C2H3C6HSCHC2HCPHC2H3CFeHC2HCHCH3C2H2C4H2CHC3H3CHCHC2H2CHCHC3HC2HC2HCH3CHSCSHC2H2C2HC6HC4SCH4CH2CH2C2HC2Fe2CHCH2CHPC2HC2HPHCHC2H2C4HCHCHC2HFeC3HSHFe2S2FeS2FeSFeS3FeS2FeS2FeSFeS3FeS3FeSFeSHS3FeCFeSC6H4C6H4C6H4C6H2PHC6H5C2HFeC6H5CHCHCH3CH2C6PCHC13HCPHSH4SH2CH8CHCHC2HCH2CHCHC2HC2HCHCSCHC2H2C2H2C2H2C2PC9H12CH2C3H5CHCH2C2HCH2FeCHC5HC2HC7H2CHCHC3H6CHSHC2H3C3HSCH3C3HCH2C6PC13H2C2HC2H3CHC2HSCHCH2CH2CPCH2C2PCHC3HCHC2HC4H2C4H7C2H6CHC4H5CFeSH2SC5H2C3SCH2C2H2CH2C2HCPHC2HC6SCH2C2HCHC3HCH5C2HC2H5C7H3C2HCH2CH2CH4C2SC3HC4H2CSCHCHC4SC3HFeCHCHCHCHCSH2CH3CH2C2HC2H3C2HC3HC2H2CHC5H2PHCHC2H4CH2CHCHPCH
_chemical_formula_sum              "C1440 H1152 S192 Fe96 P48"
_cell_length_a       56.4132
_cell_length_b       56.5813
_cell_length_c       48.9463
_cell_angle_alpha    89.985
_cell_angle_beta     89.9389
_cell_angle_gamma    120.054

_space_group_name_H-M_alt    "P 1"
_space_group_IT_number       1

loop_
  _space_group_symop_operation_xyz
  'x, y, z'

loop_
  _atom_site_type_symbol
  _atom_site_label
  _atom_site_symmetry_multiplicity
  _atom_site_fract_x
  _atom_site_fract_y
  _atom_site_fract_z
  _atom_site_occupancy
  C   C1        1.0  0.43769  0.02271  0.10649  1.0000
  H   H1        1.0  0.42025  0.04171  0.38564  1.0000
  C   C2        1.0  0.43815  0.04158  0.08777  1.0000
  H   H2        1.0  0.45214  0.20774  0.03416  1.0000
  H   H3        1.0  0.44279  0.08935  0.34441  1.0000
  C   C3        1.0  0.45499  0.04868  0.06473  1.0000
  H   H4        1.0  0.45481  0.06264  0.04971  1.0000
  H   H5        1.0  0.46581  0.10526  0.38933  1.0000
  C   C4        1.0  0.45379  0.01069  0.10195  1.0000
  S   S1        1.0  0.44200  0.03286  0.99579  1.0000
  C   C5        1.0  0.46144  0.10893  0.34601  1.0000
  H   H6        1.0  0.41590  0.02126  0.33965  1.0000
  H   H7        1.0  0.42455  0.01708  0.12430  1.0000
  H   H8        1.0  0.42521  0.05043  0.09086  1.0000
  H   H9        1.0  0.47118  0.09821  0.11250  1.0000
  C   C6        1.0  0.42284  0.00965  0.40654  1.0000
  H   H10       1.0  0.42407  0.01823  0.42666  1.0000
  C   C7        1.0  0.42061  0.02284  0.38339  1.0000
  C   C8        1.0  0.47438  0.11787  0.37129  1.0000
  C   C9        1.0  0.41853  0.98686  0.35481  1.0000
  H   H11       1.0  0.46241  0.11847  0.30326  1.0000
  C   C10       1.0  0.44428  0.98688  0.47757  1.0000
  C   C11       1.0  0.41826  0.01135  0.35754  1.0000
  C   C12       1.0  0.47076  0.01776  0.07881  1.0000
  C   C13       1.0  0.42317  0.98523  0.40386  1.0000
  H   H12       1.0  0.46553  0.17500  0.01615  1.0000
  H   H13       1.0  0.45675  0.10481  0.06648  1.0000
  C   C14       1.0  0.47249  0.12535  0.32286  1.0000
  C   C15       1.0  0.43185  0.99908  0.98420  1.0000
  H   H14       1.0  0.46565  0.99900  0.47206  1.0000
  C   C16       1.0  0.47512  0.12098  0.07585  1.0000
  C   C17       1.0  0.47311  0.21517  0.02791  1.0000
  H   H15       1.0  0.45289  0.99570  0.11634  1.0000
  C   C18       1.0  0.47137  0.03697  0.06029  1.0000
  H   H16       1.0  0.47281  0.98609  0.40002  1.0000
  H   H17       1.0  0.45134  0.01087  0.94486  1.0000
  C   C19       1.0  0.43967  0.04053  0.60217  1.0000
  C   C20       1.0  0.46553  0.04017  0.55347  1.0000
  C   C21       1.0  0.44321  0.02479  0.84927  1.0000
  C   C22       1.0  0.46809  0.02710  0.57673  1.0000
  C   C23       1.0  0.45013  0.05330  0.55466  1.0000
  C   C24       1.0  0.44606  0.99202  0.81958  1.0000
  H   H18       1.0  0.42562  0.06402  0.57978  1.0000
  C   C25       1.0  0.43852  0.99391  0.95814  1.0000
  C   C26       1.0  0.45454  0.02685  0.60091  1.0000
  H   H19       1.0  0.43227  0.02965  0.86445  1.0000
  C   C27       1.0  0.43174  0.99831  0.83890  1.0000
  H   H20       1.0  0.44759  0.06272  0.53646  1.0000
  C   C28       1.0  0.43747  0.05376  0.57903  1.0000
  H   H21       1.0  0.47478  0.03976  0.53420  1.0000
  H   H22       1.0  0.42950  0.04053  0.62095  1.0000
  H   H23       1.0  0.38966  0.99375  0.49449  1.0000
  C   C29       1.0  0.46925  0.04488  0.84077  1.0000
  H   H24       1.0  0.45534  0.01593  0.61874  1.0000
  C   C30       1.0  0.47191  0.01234  0.81016  1.0000
  H   H25       1.0  0.47238  0.01923  0.89181  1.0000
  C   C31       1.0  0.42936  0.00017  0.48352  1.0000
  C   C32       1.0  0.40156  0.98403  0.48998  1.0000
  S   S2        1.0  0.44293  0.03641  0.48228  1.0000
  Fe  Fe1       1.0  0.14025  0.58672  0.35508  1.0000
  S   S3        1.0  0.13085  0.61922  0.36879  1.0000
  S   S4        1.0  0.14138  0.58577  0.30818  1.0000
  Fe  Fe2       1.0  0.13861  0.56905  0.41461  1.0000
  S   S5        1.0  0.12855  0.60000  0.43098  1.0000
  S   S6        1.0  0.14174  0.53897  0.44326  1.0000
  Fe  Fe3       1.0  0.09865  0.58683  0.39584  1.0000
  S   S7        1.0  0.05562  0.58175  0.39914  1.0000
  Fe  Fe4       1.0  0.16195  0.62942  0.40247  1.0000
  S   S8        1.0  0.10681  0.55412  0.38099  1.0000
  S   S9        1.0  0.17327  0.59876  0.38724  1.0000
  S   S10       1.0  0.43571  0.59260  0.29980  1.0000
  H   H26       1.0  0.33462  0.38890  0.12098  1.0000
  Fe  Fe5       1.0  0.43863  0.56497  0.26853  1.0000
  S   S11       1.0  0.40553  0.54045  0.23722  1.0000
  Fe  Fe6       1.0  0.44656  0.57024  0.33121  1.0000
  S   S12       1.0  0.41821  0.54760  0.36725  1.0000
  Fe  Fe7       1.0  0.36733  0.44996  0.06390  1.0000
  S   S13       1.0  0.40333  0.48833  0.04795  1.0000
  S   S14       1.0  0.37065  0.41147  0.07083  1.0000
  Fe  Fe8       1.0  0.33101  0.47751  0.07098  1.0000
  S   S15       1.0  0.36600  0.51732  0.05552  1.0000
  S   S16       1.0  0.29489  0.48419  0.08307  1.0000
  Fe  Fe9       1.0  0.37254  0.49310  0.02293  1.0000
  C   C33       1.0  0.43590  0.44379  0.22448  1.0000
  Fe  Fe10      1.0  0.39312  0.50857  0.08218  1.0000
  S   S17       1.0  0.42618  0.54088  0.10941  1.0000
  S   S18       1.0  0.33634  0.45334  0.03703  1.0000
  S   S19       1.0  0.35832  0.47005  0.09932  1.0000
  Fe  Fe11      1.0  0.14080  0.50406  0.17147  1.0000
  S   S20       1.0  0.11806  0.45919  0.16127  1.0000
  S   S21       1.0  0.15601  0.51438  0.21558  1.0000
  Fe  Fe12      1.0  0.13809  0.51902  0.11147  1.0000
  S   S22       1.0  0.11594  0.47538  0.09791  1.0000
  S   S23       1.0  0.14552  0.55351  0.08264  1.0000
  Fe  Fe13      1.0  0.08958  0.46752  0.13554  1.0000
  S   S24       1.0  0.04343  0.45416  0.13446  1.0000
  Fe  Fe14      1.0  0.14676  0.47157  0.12470  1.0000
  S   S25       1.0  0.16986  0.44888  0.11291  1.0000
  S   S26       1.0  0.11131  0.51181  0.14809  1.0000
  S   S27       1.0  0.17024  0.51590  0.13599  1.0000
  H   H27       1.0  0.98711  0.48417  0.38370  1.0000
  C   C34       1.0  0.29773  0.49036  0.98122  1.0000
  C   C35       1.0  0.20548  0.63494  0.10377  1.0000
  C   C36       1.0  0.38880  0.58585  0.44370  1.0000
  C   C37       1.0  0.00918  0.42593  0.13718  1.0000
  H   H28       1.0  0.23363  0.64327  0.34648  1.0000
  C   C38       1.0  0.00330  0.39889  0.13991  1.0000
  H   H29       1.0  0.10246  0.63054  0.45627  1.0000
  H   H30       1.0  0.01992  0.39456  0.14052  1.0000
  C   C39       1.0  0.39945  0.40675  0.06559  1.0000
  C   C40       1.0  0.42375  0.42672  0.05338  1.0000
  C   C41       1.0  0.44534  0.42147  0.04817  1.0000
  C   C42       1.0  0.44311  0.39620  0.05496  1.0000
  C   C43       1.0  0.41916  0.37655  0.06798  1.0000
  C   C44       1.0  0.39752  0.38179  0.07317  1.0000
  H   H31       1.0  0.42561  0.44593  0.04725  1.0000
  H   H32       1.0  0.42248  0.62464  0.19340  1.0000
  H   H33       1.0  0.41697  0.35701  0.07335  1.0000
  H   H34       1.0  0.37890  0.36615  0.08267  1.0000
  C   C45       1.0  0.26001  0.47393  0.09156  1.0000
  C   C46       1.0  0.25263  0.49406  0.09600  1.0000
  C   C47       1.0  0.22537  0.48693  0.10256  1.0000
  C   C48       1.0  0.20494  0.45945  0.10507  1.0000
  C   C49       1.0  0.21231  0.43936  0.10045  1.0000
  C   C50       1.0  0.23950  0.44649  0.09368  1.0000
  H   H35       1.0  0.26810  0.51536  0.09421  1.0000
  H   H36       1.0  0.22017  0.50272  0.10568  1.0000
  H   H37       1.0  0.19679  0.41804  0.10200  1.0000
  H   H38       1.0  0.24457  0.43068  0.09007  1.0000
  C   C51       1.0  0.41338  0.53975  0.20234  1.0000
  C   C52       1.0  0.39537  0.51734  0.18631  1.0000
  C   C53       1.0  0.39927  0.51720  0.15796  1.0000
  C   C54       1.0  0.42119  0.53961  0.14524  1.0000
  C   C55       1.0  0.43960  0.56178  0.16134  1.0000
  C   C56       1.0  0.43591  0.56178  0.18984  1.0000
  H   H39       1.0  0.37833  0.49996  0.19584  1.0000
  H   H40       1.0  0.38512  0.49983  0.14603  1.0000
  H   H41       1.0  0.45945  0.59086  0.45586  1.0000
  H   H42       1.0  0.44986  0.57919  0.20197  1.0000
  C   C57       1.0  0.42152  0.54943  0.40349  1.0000
  C   C58       1.0  0.40132  0.52798  0.41931  1.0000
  C   C59       1.0  0.40222  0.52890  0.44813  1.0000
  C   C60       1.0  0.42304  0.55167  0.46152  1.0000
  C   C61       1.0  0.44329  0.57312  0.44572  1.0000
  C   C62       1.0  0.44272  0.57193  0.41689  1.0000
  H   H43       1.0  0.38479  0.51051  0.40919  1.0000
  H   H44       1.0  0.38641  0.51232  0.45993  1.0000
  H   H45       1.0  0.00183  0.41709  0.05507  1.0000
  C   C63       1.0  0.01714  0.43500  0.04422  1.0000
  C   C64       1.0  0.02200  0.55283  0.39575  1.0000
  C   C65       1.0  0.01739  0.52657  0.39032  1.0000
  C   C66       1.0  0.03109  0.51460  0.98501  1.0000
  H   H46       1.0  0.03466  0.52337  0.38810  1.0000
  H   H47       1.0  0.00240  0.57659  0.40306  1.0000
  C   C67       1.0  0.02385  0.51411  0.09572  1.0000
  C   C68       1.0  0.13419  0.56058  0.00165  1.0000
  C   C69       1.0  0.13734  0.56501  0.03005  1.0000
  C   C70       1.0  0.13978  0.54649  0.04727  1.0000
  C   C71       1.0  0.13856  0.52323  0.03587  1.0000
  C   C72       1.0  0.13566  0.51892  0.00749  1.0000
  H   H48       1.0  0.13429  0.58343  0.25030  1.0000
  H   H49       1.0  0.13815  0.58297  0.03866  1.0000
  H   H50       1.0  0.14029  0.50874  0.04884  1.0000
  H   H51       1.0  0.13517  0.50110  0.99884  1.0000
  C   C73       1.0  0.14362  0.56413  0.28317  1.0000
  C   C74       1.0  0.15042  0.54420  0.28973  1.0000
  C   C75       1.0  0.15356  0.52880  0.26880  1.0000
  C   C76       1.0  0.14930  0.53262  0.24119  1.0000
  C   C77       1.0  0.14160  0.55192  0.23472  1.0000
  C   C78       1.0  0.13920  0.56782  0.25557  1.0000
  H   H52       1.0  0.15395  0.54114  0.31082  1.0000
  H   H53       1.0  0.15957  0.51396  0.27404  1.0000
  H   H54       1.0  0.13841  0.55524  0.21360  1.0000
  P   P1        1.0  0.21982  0.49419  0.00180  1.0000
  C   C79       1.0  0.24914  0.53609  0.20547  1.0000
  C   C80       1.0  0.22577  0.52164  0.18933  1.0000
  C   C81       1.0  0.22344  0.50092  0.17207  1.0000
  C   C82       1.0  0.24419  0.49427  0.17129  1.0000
  C   C83       1.0  0.26719  0.50786  0.18837  1.0000
  C   C84       1.0  0.26994  0.52945  0.20478  1.0000
  P   P2        1.0  0.29347  0.49848  0.18882  1.0000
  C   C85       1.0  0.30179  0.49375  0.22333  1.0000
  C   C86       1.0  0.28089  0.46562  0.17260  1.0000
  C   C87       1.0  0.25602  0.44328  0.18140  1.0000
  C   C88       1.0  0.24509  0.41812  0.16804  1.0000
  C   C89       1.0  0.25903  0.41500  0.14600  1.0000
  C   C90       1.0  0.28416  0.43689  0.13764  1.0000
  C   C91       1.0  0.29532  0.46196  0.15114  1.0000
  C   C92       1.0  0.32471  0.49081  0.22796  1.0000
  C   C93       1.0  0.33177  0.48748  0.25446  1.0000
  C   C94       1.0  0.31537  0.48603  0.27653  1.0000
  C   C95       1.0  0.29184  0.48781  0.27202  1.0000
  C   C96       1.0  0.28493  0.49147  0.24551  1.0000
  C   C97       1.0  0.32260  0.52474  0.17038  1.0000
  C   C98       1.0  0.32020  0.52788  0.14227  1.0000
  C   C99       1.0  0.34316  0.54567  0.12683  1.0000
  C   C100      1.0  0.36851  0.56132  0.13957  1.0000
  C   C101      1.0  0.37068  0.55971  0.16786  1.0000
  C   C102      1.0  0.34784  0.54155  0.18330  1.0000
  H   H55       1.0  0.25087  0.55219  0.21875  1.0000
  H   H56       1.0  0.25871  0.48737  0.03545  1.0000
  H   H57       1.0  0.20538  0.48982  0.15939  1.0000
  H   H58       1.0  0.24200  0.47841  0.15740  1.0000
  H   H59       1.0  0.28790  0.54073  0.21747  1.0000
  H   H60       1.0  0.24471  0.44555  0.19811  1.0000
  H   H61       1.0  0.22550  0.40121  0.17441  1.0000
  H   H62       1.0  0.25022  0.39574  0.13516  1.0000
  H   H63       1.0  0.29478  0.43473  0.12018  1.0000
  H   H64       1.0  0.31485  0.47842  0.14417  1.0000
  H   H65       1.0  0.33726  0.49139  0.21102  1.0000
  H   H66       1.0  0.35011  0.48619  0.25786  1.0000
  H   H67       1.0  0.32081  0.48334  0.29707  1.0000
  H   H68       1.0  0.27886  0.48620  0.28910  1.0000
  H   H69       1.0  0.26628  0.49214  0.24248  1.0000
  H   H70       1.0  0.30081  0.51549  0.13205  1.0000
  H   H71       1.0  0.34137  0.54657  0.10484  1.0000
  H   H72       1.0  0.38652  0.57431  0.12745  1.0000
  H   H73       1.0  0.39035  0.57174  0.17774  1.0000
  H   H74       1.0  0.35033  0.54041  0.20506  1.0000
  H   H75       1.0  0.11616  0.60575  0.20530  1.0000
  C   C103      1.0  0.36180  0.55954  0.28882  1.0000
  C   C104      1.0  0.36573  0.54954  0.31347  1.0000
  C   C105      1.0  0.37063  0.56466  0.33749  1.0000
  C   C106      1.0  0.98502  0.42632  0.32790  1.0000
  C   C107      1.0  0.20420  0.60881  0.01765  1.0000
  C   C108      1.0  0.97712  0.44414  0.31655  1.0000
  H   H76       1.0  0.35899  0.54819  0.27008  1.0000
  H   H77       1.0  0.36629  0.53066  0.31385  1.0000
  S   S28       1.0  0.47010  0.38999  0.04495  1.0000
  C   C109      1.0  0.99915  0.55643  0.39876  1.0000
  C   C110      1.0  0.07145  0.49823  0.46161  1.0000
  C   C111      1.0  0.06617  0.53888  0.21007  1.0000
  C   C112      1.0  0.08444  0.56588  0.21806  1.0000
  P   P3        1.0  0.04387  0.51347  0.23454  1.0000
  C   C113      1.0  0.04206  0.52944  0.26598  1.0000
  C   C114      1.0  0.46118  0.34326  0.45901  1.0000
  C   C115      1.0  0.06464  0.54077  0.28377  1.0000
  C   C116      1.0  0.06398  0.55362  0.30793  1.0000
  C   C117      1.0  0.04056  0.55476  0.31492  1.0000
  C   C118      1.0  0.01776  0.54302  0.29768  1.0000
  C   C119      1.0  0.01846  0.53043  0.27329  1.0000
  C   C120      1.0  0.05651  0.49079  0.24338  1.0000
  C   C121      1.0  0.04577  0.47382  0.26638  1.0000
  C   C122      1.0  0.05496  0.45582  0.27347  1.0000
  C   C123      1.0  0.07476  0.45447  0.25746  1.0000
  C   C124      1.0  0.08529  0.47104  0.23436  1.0000
  C   C125      1.0  0.07637  0.48927  0.22737  1.0000
  H   H78       1.0  0.08563  0.57226  0.23907  1.0000
  H   H79       1.0  0.08230  0.54490  0.14223  1.0000
  H   H80       1.0  0.08301  0.54004  0.27882  1.0000
  H   H81       1.0  0.08173  0.56276  0.32127  1.0000
  H   H82       1.0  0.04009  0.56457  0.33383  1.0000
  H   H83       1.0  0.03032  0.47456  0.27883  1.0000
  H   H84       1.0  0.04688  0.44307  0.29145  1.0000
  H   H85       1.0  0.08215  0.44073  0.26296  1.0000
  H   H86       1.0  0.10073  0.47004  0.22201  1.0000
  H   H87       1.0  0.00774  0.53039  0.20951  1.0000
  C   C126      1.0  0.43378  0.48334  0.20890  1.0000
  C   C127      1.0  0.02658  0.46481  0.34545  1.0000
  C   C128      1.0  0.25082  0.49367  0.99354  1.0000
  C   C129      1.0  0.45814  0.63411  0.21734  1.0000
  C   C130      1.0  0.25335  0.55340  0.06107  1.0000
  C   C131      1.0  0.02551  0.58599  0.47481  1.0000
  C   C132      1.0  0.15541  0.64493  0.99904  1.0000
  H   H88       1.0  0.97716  0.38574  0.23376  1.0000
  H   H89       1.0  0.44510  0.62695  0.14915  1.0000
  H   H90       1.0  0.15150  0.63354  0.05380  1.0000
  H   H91       1.0  0.45637  0.57924  0.15153  1.0000
  H   H92       1.0  0.15648  0.41822  0.06215  1.0000
  C   C133      1.0  0.33092  0.41335  0.15264  1.0000
  C   C134      1.0  0.99840  0.50849  0.20692  1.0000
  C   C135      1.0  0.98766  0.47248  0.07562  1.0000
  H   H93       1.0  0.33591  0.55916  0.38467  1.0000
  C   C136      1.0  0.34464  0.43295  0.17284  1.0000
  C   C137      1.0  0.20138  0.51769  0.04007  1.0000
  C   C138      1.0  0.06564  0.51492  0.44525  1.0000
  H   H94       1.0  0.02700  0.47842  0.08792  1.0000
  H   H95       1.0  0.04436  0.52554  0.10406  1.0000
  C   C139      1.0  0.39411  0.60144  0.41993  1.0000
  C   C140      1.0  0.98040  0.51054  0.08436  1.0000
  C   C141      1.0  0.19474  0.45924  0.00961  1.0000
  H   H96       1.0  0.43504  0.42457  0.22079  1.0000
  C   C142      1.0  0.01011  0.44382  0.02043  1.0000
  C   C143      1.0  0.20235  0.58732  0.00194  1.0000
  C   C144      1.0  0.01413  0.48754  0.08631  1.0000
  C   C145      1.0  0.44415  0.38985  0.13828  1.0000
  H   H97       1.0  0.44997  0.38308  0.21995  1.0000
  H   H98       1.0  0.40750  0.39456  0.99308  1.0000
  H   H99       1.0  0.18662  0.53546  0.06979  1.0000
  H   H100      1.0  0.37487  0.55707  0.35606  1.0000
  H   H101      1.0  0.02003  0.55004  0.03497  1.0000
  H   H102      1.0  0.25339  0.63660  0.18999  1.0000
  C   C146      1.0  0.44370  0.62966  0.19295  1.0000
  H   H103      1.0  0.01442  0.54610  0.10245  1.0000
  C   C147      1.0  0.99919  0.46640  0.21301  1.0000
  C   C148      1.0  0.46489  0.64088  0.36304  1.0000
  H   H104      1.0  0.47292  0.34309  0.41718  1.0000
  C   C149      1.0  0.47144  0.48875  0.15240  1.0000
  H   H105      1.0  0.42850  0.34775  0.14910  1.0000
  H   H106      1.0  0.39498  0.38956  0.19388  1.0000
  H   H107      1.0  0.46420  0.37132  0.98664  1.0000
  H   H108      1.0  0.22718  0.59399  0.44092  1.0000
  C   C150      1.0  0.41047  0.36633  0.17370  1.0000
  H   H109      1.0  0.29749  0.63699  0.18720  1.0000
  H   H110      1.0  0.17151  0.61319  0.13138  1.0000
  C   C151      1.0  0.01100  0.49455  0.21783  1.0000
  C   C152      1.0  0.13826  0.54055  0.47920  1.0000
  H   H111      1.0  0.32806  0.60075  0.34945  1.0000
  H   H112      1.0  0.23442  0.63226  0.47059  1.0000
  H   H113      1.0  0.05188  0.51067  0.17588  1.0000
  C   C153      1.0  0.44423  0.47004  0.14522  1.0000
  H   H114      1.0  0.19013  0.46610  0.05240  1.0000
  H   H115      1.0  0.08174  0.48816  0.45287  1.0000
  H   H116      1.0  0.04956  0.54213  0.44367  1.0000
  H   H117      1.0  0.26858  0.53640  0.03156  1.0000
  C   C154      1.0  0.99389  0.47238  0.32049  1.0000
  H   H118      1.0  0.08617  0.58677  0.48053  1.0000
  H   H119      1.0  0.47148  0.51431  0.03082  1.0000
  H   H120      1.0  0.00578  0.50267  0.02129  1.0000
  C   C155      1.0  0.22568  0.61197  0.47924  1.0000
  H   H121      1.0  0.45583  0.43153  0.13109  1.0000
  H   H122      1.0  0.15042  0.62384  0.00085  1.0000
  H   H123      1.0  0.20939  0.52640  0.19021  1.0000
  C   C156      1.0  0.02834  0.54629  0.01660  1.0000
  C   C157      1.0  0.05644  0.48206  0.01737  1.0000
  H   H124      1.0  0.99125  0.45173  0.13450  1.0000
  H   H125      1.0  0.23252  0.56679  0.08859  1.0000
  C   C158      1.0  0.42791  0.36624  0.15346  1.0000
  H   H126      1.0  0.16121  0.65000  0.46456  1.0000
  C   C159      1.0  0.34503  0.40366  0.13712  1.0000
  C   C160      1.0  0.00698  0.52561  0.09480  1.0000
  H   H127      1.0  0.20415  0.60706  0.03964  1.0000
  C   C161      1.0  0.40934  0.39008  0.17883  1.0000
  C   C162      1.0  0.08266  0.55086  0.16334  1.0000
  H   H128      1.0  0.32708  0.53160  0.42659  1.0000
  H   H129      1.0  0.38231  0.45746  0.19380  1.0000
  C   C163      1.0  0.04725  0.56825  0.00077  1.0000
  H   H130      1.0  0.22027  0.63458  0.11760  1.0000
  H   H131      1.0  0.99598  0.46956  0.46697  1.0000
  C   C164      1.0  0.17804  0.62301  0.11161  1.0000
  H   H132      1.0  0.44806  0.48815  0.27691  1.0000
  C   C165      1.0  0.13375  0.53771  0.99024  1.0000
  H   H133      1.0  0.36115  0.54821  0.46411  1.0000
  C   C166      1.0  0.41868  0.63369  0.36198  1.0000
  H   H134      1.0  0.36975  0.61996  0.31123  1.0000
  H   H135      1.0  0.45840  0.58859  0.40508  1.0000
  H   H136      1.0  0.99590  0.52956  0.45211  1.0000
  H   H137      1.0  0.30050  0.48558  0.02448  1.0000
  H   H138      1.0  0.44555  0.44392  0.26719  1.0000
  C   C167      1.0  0.16691  0.63451  0.06759  1.0000
  C   C168      1.0  0.10182  0.58509  0.19885  1.0000
  H   H139      1.0  0.13960  0.57919  0.47919  1.0000
  C   C169      1.0  0.21074  0.56407  0.47307  1.0000
  H   H140      1.0  0.98780  0.48655  0.31309  1.0000
  H   H141      1.0  0.08524  0.50213  0.20961  1.0000
  H   H142      1.0  0.03128  0.50438  0.33809  1.0000
  C   C170      1.0  0.02991  0.46711  0.00639  1.0000
  C   C171      1.0  0.99036  0.50436  0.38781  1.0000
  C   C172      1.0  0.26547  0.48959  0.01440  1.0000
  H   H143      1.0  0.33373  0.44066  0.18469  1.0000
  C   C173      1.0  0.01856  0.48261  0.33479  1.0000
  C   C174      1.0  0.43920  0.49389  0.23543  1.0000
  C   C175      1.0  0.07167  0.59330  0.47525  1.0000
  H   H144      1.0  0.07185  0.50070  0.00758  1.0000
  C   C176      1.0  0.42612  0.41413  0.16412  1.0000
  C   C177      1.0  0.45966  0.48369  0.99960  1.0000
  C   C178      1.0  0.19437  0.64615  0.05936  1.0000
  H   H145      1.0  0.39739  0.34779  0.18500  1.0000
  C   C179      1.0  0.36272  0.58469  0.28822  1.0000
  C   C180      1.0  0.23034  0.55324  0.07193  1.0000
  H   H146      1.0  0.00051  0.52138  0.26049  1.0000
  C   C181      1.0  0.36473  0.56066  0.44603  1.0000
  H   H147      1.0  0.98914  0.43266  0.01362  1.0000
  C   C182      1.0  0.03492  0.61079  0.46106  1.0000
  C   C183      1.0  0.10097  0.57759  0.17152  1.0000
  C   C184      1.0  0.16476  0.42410  0.04167  1.0000
  H   H148      1.0  0.36231  0.37828  0.01351  1.0000
  H   H149      1.0  0.45681  0.38937  0.12185  1.0000
  C   C185      1.0  0.44343  0.41377  0.14362  1.0000
  H   H150      1.0  0.41473  0.45561  0.11205  1.0000
  H   H151      1.0  0.99948  0.54361  0.30339  1.0000
  H   H152      1.0  0.02066  0.61743  0.45520  1.0000
  C   C186      1.0  0.43133  0.45783  0.20332  1.0000
  C   C187      1.0  0.04374  0.44965  0.05455  1.0000
  C   C188      1.0  0.43535  0.47023  0.11848  1.0000
  H   H153      1.0  0.36040  0.59274  0.26897  1.0000
  C   C189      1.0  0.34566  0.55124  0.42477  1.0000
  C   C190      1.0  0.33799  0.61994  0.36043  1.0000
  C   C191      1.0  0.98708  0.43096  0.13639  1.0000
  C   C192      1.0  0.45648  0.63106  0.16806  1.0000
  C   C193      1.0  0.36451  0.63025  0.37098  1.0000
  H   H154      1.0  0.20078  0.56946  0.01187  1.0000
  H   H155      1.0  0.44812  0.63239  0.23673  1.0000
  C   C194      1.0  0.97881  0.45422  0.47868  1.0000
  C   C195      1.0  0.46154  0.43504  0.46978  1.0000
  C   C196      1.0  0.37140  0.58984  0.33716  1.0000
  C   C197      1.0  0.18383  0.45139  0.03600  1.0000
  S   S29       1.0  0.44579  0.54079  0.30011  1.0000
  H   H156      1.0  0.40375  0.59288  0.46006  1.0000
  C   C198      1.0  0.06329  0.47330  0.04127  1.0000
  C   C199      1.0  0.32382  0.63409  0.36456  1.0000
  C   C200      1.0  0.37280  0.41331  0.14196  1.0000
  H   H157      1.0  0.46376  0.43696  0.03835  1.0000
  H   H158      1.0  0.38333  0.40561  0.12946  1.0000
  C   C201      1.0  0.46682  0.46689  0.98482  1.0000
  H   H159      1.0  0.30939  0.40566  0.14889  1.0000
  H   H160      1.0  0.44637  0.48923  0.07892  1.0000
  H   H161      1.0  0.13261  0.57508  0.98853  1.0000
  C   C202      1.0  0.00976  0.43664  0.34209  1.0000
  C   C203      1.0  0.43683  0.62417  0.36770  1.0000
  C   C204      1.0  0.36780  0.59995  0.31224  1.0000
  C   C205      1.0  0.05367  0.52909  0.45667  1.0000
  H   H162      1.0  0.11468  0.59238  0.15671  1.0000
  H   H163      1.0  0.04565  0.47288  0.35668  1.0000
  C   C206      1.0  0.25041  0.53562  0.03979  1.0000
  C   C207      1.0  0.37546  0.59171  0.39809  1.0000
  H   H164      1.0  0.04903  0.44309  0.07330  1.0000
  C   C208      1.0  0.38678  0.43280  0.16242  1.0000
  C   C209      1.0  0.06544  0.53151  0.18252  1.0000
  H   H165      1.0  0.05338  0.58901  0.00660  1.0000
  C   C210      1.0  0.02028  0.51954  0.00877  1.0000
  C   C211      1.0  0.22429  0.51720  0.02950  1.0000
  H   H166      1.0  0.46714  0.37484  0.26354  1.0000
  P   P4        1.0  0.42240  0.44380  0.16914  1.0000
  C   C212      1.0  0.37243  0.44259  0.17783  1.0000
  P   P5        1.0  0.38240  0.61144  0.36705  1.0000
  C   C213      1.0  0.28902  0.48831  0.00826  1.0000
  H   H167      1.0  0.01574  0.42281  0.35085  1.0000
  C   C214      1.0  0.20441  0.53549  0.06134  1.0000
  C   C215      1.0  0.20458  0.63130  0.00492  1.0000
  C   C216      1.0  0.15663  0.40441  0.02114  1.0000
  C   C217      1.0  0.35085  0.56681  0.40098  1.0000
  C   C218      1.0  0.37111  0.39616  0.00044  1.0000
  H   H168      1.0  0.27348  0.56718  0.06927  1.0000
  C   C219      1.0  0.44190  0.45470  0.25091  1.0000
  H   H169      1.0  0.00894  0.45519  0.22000  1.0000
  H   H170      1.0  0.42927  0.60368  0.37546  1.0000
  C   C220      1.0  0.44325  0.47958  0.25645  1.0000
  H   H171      1.0  0.18111  0.50409  0.03206  1.0000
  H   H172      1.0  0.07098  0.51732  0.42380  1.0000
  H   H173      1.0  0.08371  0.48506  0.04972  1.0000
  H   H174      1.0  0.44056  0.51336  0.23970  1.0000
  C   C221      1.0  0.06264  0.62680  0.45437  1.0000
  H   H175      1.0  0.44038  0.48297  0.99597  1.0000
  H   H176      1.0  0.14197  0.38326  0.02572  1.0000
  H   H177      1.0  0.33738  0.40332  0.00595  1.0000
  H   H178      1.0  0.41298  0.62082  0.41856  1.0000
  H   H179      1.0  0.30326  0.62592  0.35657  1.0000
  C   C222      1.0  0.39697  0.40564  0.98881  1.0000
  C   C223      1.0  0.45331  0.48923  0.09948  1.0000
  H   H180      1.0  0.45078  0.41585  0.45888  1.0000
  C   C224      1.0  0.98353  0.51900  0.46981  1.0000
  C   C225      1.0  0.22197  0.59043  0.46241  1.0000
  H   H181      1.0  0.43099  0.49488  0.19280  1.0000
  C   C226      1.0  0.47428  0.35559  0.43452  1.0000
  H   H182      1.0  0.45446  0.40835  0.99546  1.0000
  H   H183      1.0  0.20702  0.54720  0.45984  1.0000
  H   H184      1.0  0.98092  0.41186  0.27528  1.0000
  H   H185      1.0  0.13743  0.61301  0.09942  1.0000
  H   H186      1.0  0.98046  0.45175  0.06898  1.0000
  C   C227      1.0  0.08105  0.61821  0.46174  1.0000
  H   H187      1.0  0.06981  0.64566  0.44310  1.0000
  C   C228      1.0  0.35710  0.41036  0.99630  1.0000
  C   C229      1.0  0.15882  0.62293  0.09359  1.0000
  H   H188      1.0  0.27414  0.64719  0.32225  1.0000
  C   C230      1.0  0.18673  0.43929  0.98915  1.0000
  H   H189      1.0  0.44969  0.32121  0.46076  1.0000
  C   C231      1.0  0.21364  0.64644  0.07774  1.0000
  C   C232      1.0  0.47094  0.39665  0.22614  1.0000
  C   C233      1.0  0.16765  0.41199  0.99488  1.0000
  H   H190      1.0  0.19538  0.63699  0.47573  1.0000
  H   H191      1.0  0.00402  0.57409  0.48002  1.0000
  Fe  Fe15      1.0  0.12749  0.57028  0.86290  1.0000
  S   S30       1.0  0.12868  0.61041  0.86934  1.0000
  S   S31       1.0  0.11609  0.54283  0.82491  1.0000
  Fe  Fe16      1.0  0.13082  0.56276  0.92522  1.0000
  S   S32       1.0  0.13183  0.60182  0.93567  1.0000
  S   S33       1.0  0.13152  0.53214  0.95461  1.0000
  Fe  Fe17      1.0  0.09836  0.58845  0.90367  1.0000
  S   S34       1.0  0.05903  0.58990  0.91189  1.0000
  Fe  Fe18      1.0  0.16210  0.62032  0.90092  1.0000
  S   S35       1.0  0.09595  0.54858  0.89584  1.0000
  S   S36       1.0  0.16236  0.58108  0.89197  1.0000
  S   S37       1.0  0.44263  0.58414  0.81603  1.0000
  C   C234      1.0  0.41760  0.38841  0.68008  1.0000
  Fe  Fe19      1.0  0.44661  0.55839  0.78283  1.0000
  S   S38       1.0  0.41160  0.53056  0.75450  1.0000
  H   H192      1.0  0.40094  0.63994  0.83193  1.0000
  C   C235      1.0  0.06482  0.49526  0.48937  1.0000
  Fe  Fe20      1.0  0.38500  0.46830  0.55866  1.0000
  S   S39       1.0  0.42349  0.50892  0.55740  1.0000
  S   S40       1.0  0.38676  0.42837  0.55555  1.0000
  Fe  Fe21      1.0  0.34811  0.49492  0.56694  1.0000
  S   S41       1.0  0.38564  0.53688  0.56676  1.0000
  S   S42       1.0  0.30656  0.49457  0.56692  1.0000
  Fe  Fe22      1.0  0.40046  0.52305  0.53076  1.0000
  S   S43       1.0  0.42344  0.55539  0.49768  1.0000
  Fe  Fe23      1.0  0.40522  0.51911  0.59313  1.0000
  S   S44       1.0  0.43502  0.54319  0.62693  1.0000
  S   S45       1.0  0.36239  0.48159  0.52946  1.0000
  S   S46       1.0  0.36728  0.47794  0.59596  1.0000
  Fe  Fe24      1.0  0.14526  0.52198  0.66795  1.0000
  S   S47       1.0  0.13767  0.47908  0.66840  1.0000
  S   S48       1.0  0.16271  0.55250  0.70344  1.0000
  Fe  Fe25      1.0  0.13464  0.51864  0.60576  1.0000
  S   S49       1.0  0.12697  0.47562  0.60271  1.0000
  S   S50       1.0  0.13081  0.54481  0.57259  1.0000
  Fe  Fe26      1.0  0.10138  0.46865  0.64094  1.0000
  S   S51       1.0  0.05852  0.43131  0.64926  1.0000
  Fe  Fe27      1.0  0.16424  0.49038  0.63036  1.0000
  S   S52       1.0  0.20174  0.48370  0.63265  1.0000
  S   S53       1.0  0.10784  0.51114  0.64272  1.0000
  S   S54       1.0  0.17285  0.53370  0.63106  1.0000
  H   H193      1.0  0.45154  0.50296  0.86292  1.0000
  H   H194      1.0  0.07295  0.58050  0.96501  1.0000
  C   C236      1.0  0.21744  0.60719  0.50676  1.0000
  C   C237      1.0  0.14868  0.43198  0.78540  1.0000
  C   C238      1.0  0.02180  0.41185  0.65201  1.0000
  C   C239      1.0  0.01015  0.38506  0.66182  1.0000
  C   C240      1.0  0.00406  0.42184  0.64535  1.0000
  H   H195      1.0  0.02331  0.37693  0.66706  1.0000
  H   H196      1.0  0.01261  0.44249  0.63782  1.0000
  C   C241      1.0  0.41022  0.41550  0.55590  1.0000
  C   C242      1.0  0.43891  0.43194  0.55774  1.0000
  C   C243      1.0  0.45594  0.41995  0.55734  1.0000
  C   C244      1.0  0.44448  0.39137  0.55547  1.0000
  C   C245      1.0  0.41591  0.37524  0.55393  1.0000
  C   C246      1.0  0.39910  0.38710  0.55415  1.0000
  H   H197      1.0  0.44794  0.45384  0.55916  1.0000
  C   C247      1.0  0.18613  0.64218  0.49225  1.0000
  H   H198      1.0  0.40660  0.35330  0.55231  1.0000
  H   H199      1.0  0.37712  0.37403  0.55274  1.0000
  C   C248      1.0  0.27800  0.49217  0.58595  1.0000
  C   C249      1.0  0.25887  0.49727  0.57252  1.0000
  C   C250      1.0  0.23575  0.49515  0.58634  1.0000
  C   C251      1.0  0.23112  0.48766  0.61398  1.0000
  C   C252      1.0  0.25046  0.48295  0.62753  1.0000
  C   C253      1.0  0.27366  0.48523  0.61374  1.0000
  H   H200      1.0  0.26175  0.50258  0.55106  1.0000
  H   H201      1.0  0.22127  0.49888  0.57544  1.0000
  H   H202      1.0  0.24727  0.47708  0.64883  1.0000
  H   H203      1.0  0.28784  0.48099  0.62449  1.0000
  C   C254      1.0  0.41833  0.53181  0.71901  1.0000
  C   C255      1.0  0.39680  0.51675  0.70060  1.0000
  C   C256      1.0  0.40159  0.51922  0.67216  1.0000
  C   C257      1.0  0.42796  0.53678  0.66211  1.0000
  C   C258      1.0  0.44956  0.55069  0.68055  1.0000
  C   C259      1.0  0.44476  0.54832  0.70876  1.0000
  H   H204      1.0  0.37633  0.50359  0.70834  1.0000
  H   H205      1.0  0.38492  0.50794  0.65808  1.0000
  H   H206      1.0  0.06974  0.48266  0.50213  1.0000
  H   H207      1.0  0.46163  0.55935  0.72250  1.0000
  C   C260      1.0  0.44019  0.54369  0.91189  1.0000
  C   C261      1.0  0.44699  0.54021  0.93872  1.0000
  C   C262      1.0  0.42659  0.52732  0.95898  1.0000
  C   C263      1.0  0.21903  0.62584  0.56353  1.0000
  C   C264      1.0  0.39226  0.52075  0.92564  1.0000
  C   C265      1.0  0.41264  0.53361  0.90540  1.0000
  C   C266      1.0  0.05828  0.56348  0.97728  1.0000
  H   H208      1.0  0.03792  0.48650  0.87680  1.0000
  C   C267      1.0  0.45038  0.49115  0.88085  1.0000
  C   C268      1.0  0.46130  0.38188  0.96959  1.0000
  C   C269      1.0  0.02260  0.56733  0.91030  1.0000
  C   C270      1.0  0.00959  0.53986  0.90162  1.0000
  C   C271      1.0  0.01387  0.47181  0.56885  1.0000
  H   H209      1.0  0.02198  0.53116  0.89542  1.0000
  H   H210      1.0  0.01558  0.59917  0.92482  1.0000
  S   S55       1.0  0.46695  0.56117  0.88758  1.0000
  H   H211      1.0  0.36797  0.60142  0.71907  1.0000
  C   C272      1.0  0.13546  0.56348  0.52010  1.0000
  C   C273      1.0  0.13373  0.54243  0.53675  1.0000
  C   C274      1.0  0.13419  0.52032  0.52451  1.0000
  C   C275      1.0  0.13635  0.51937  0.49585  1.0000
  H   H212      1.0  0.09783  0.50606  0.77959  1.0000
  H   H213      1.0  0.13524  0.58074  0.52930  1.0000
  H   H214      1.0  0.13281  0.50394  0.53708  1.0000
  C   C276      1.0  0.45340  0.40903  0.92592  1.0000
  C   C277      1.0  0.12926  0.54648  0.79109  1.0000
  C   C278      1.0  0.15264  0.57017  0.78209  1.0000
  C   C279      1.0  0.16253  0.57162  0.75525  1.0000
  C   C280      1.0  0.14919  0.54952  0.73702  1.0000
  C   C281      1.0  0.12589  0.52579  0.74608  1.0000
  C   C282      1.0  0.11598  0.52439  0.77287  1.0000
  H   H215      1.0  0.16307  0.58734  0.79582  1.0000
  H   H216      1.0  0.18056  0.59008  0.74850  1.0000
  H   H217      1.0  0.11557  0.50850  0.73247  1.0000
  H   H218      1.0  0.34605  0.43802  0.69140  1.0000
  C   C283      1.0  0.12920  0.40522  0.77780  1.0000
  C   C284      1.0  0.12955  0.38294  0.78978  1.0000
  C   C285      1.0  0.14927  0.38719  0.80940  1.0000
  C   C286      1.0  0.47342  0.48477  0.74080  1.0000
  H   H219      1.0  0.19436  0.45227  0.75373  1.0000
  C   C287      1.0  0.31072  0.64753  0.70135  1.0000
  H   H220      1.0  0.11370  0.40134  0.76268  1.0000
  C   C288      1.0  0.39480  0.44371  0.96885  1.0000
  H   H221      1.0  0.38145  0.57572  0.51009  1.0000
  H   H222      1.0  0.04802  0.42543  0.71407  1.0000
  C   C289      1.0  0.34789  0.58480  0.57582  1.0000
  C   C290      1.0  0.17147  0.50254  0.94467  1.0000
  C   C291      1.0  0.42747  0.39593  0.63170  1.0000
  C   C292      1.0  0.47007  0.48734  0.92344  1.0000
  H   H223      1.0  0.34683  0.51019  0.63503  1.0000
  H   H224      1.0  0.43786  0.61554  0.65000  1.0000
  C   C293      1.0  0.34158  0.52517  0.64205  1.0000
  C   C294      1.0  0.01986  0.48112  0.75403  1.0000
  H   H225      1.0  0.07476  0.50712  0.71100  1.0000
  P   P6        1.0  0.02138  0.47996  0.97625  1.0000
  H   H226      1.0  0.23228  0.55756  0.92635  1.0000
  C   C295      1.0  0.38790  0.59902  0.54691  1.0000
  H   H227      1.0  0.26145  0.59311  0.55482  1.0000
  H   H228      1.0  0.32118  0.57773  0.66659  1.0000
  S   S56       1.0  0.46473  0.37487  0.55436  1.0000
  H   H229      1.0  0.24248  0.60207  0.71014  1.0000
  C   C296      1.0  0.37602  0.60194  0.57087  1.0000
  H   H230      1.0  0.98105  0.49671  0.96179  1.0000
  H   H231      1.0  0.41042  0.45764  0.87111  1.0000
  H   H232      1.0  0.28923  0.49430  0.93921  1.0000
  H   H233      1.0  0.38898  0.61709  0.58569  1.0000
  C   C297      1.0  0.04749  0.52669  0.48467  1.0000
  C   C298      1.0  0.44702  0.48098  0.70033  1.0000
  C   C299      1.0  0.45989  0.49454  0.72450  1.0000
  C   C300      1.0  0.39728  0.43570  0.65661  1.0000
  C   C301      1.0  0.38320  0.43929  0.67845  1.0000
  H   H234      1.0  0.00798  0.55919  0.54530  1.0000
  C   C302      1.0  0.28506  0.63316  0.71430  1.0000
  H   H235      1.0  0.16164  0.53388  0.85693  1.0000
  C   C303      1.0  0.38417  0.42682  0.63128  1.0000
  H   H236      1.0  0.43705  0.48922  0.68774  1.0000
  H   H237      1.0  0.45949  0.51271  0.73068  1.0000
  H   H238      1.0  0.39239  0.44531  0.69847  1.0000
  S   S57       1.0  0.37242  0.50219  0.97732  1.0000
  C   C304      1.0  0.16842  0.43608  0.80517  1.0000
  C   C305      1.0  0.46360  0.37480  0.94280  1.0000
  H   H239      1.0  0.39452  0.42365  0.61422  1.0000
  C   C306      1.0  0.34381  0.42605  0.64928  1.0000
  H   H240      1.0  0.28251  0.63711  0.73541  1.0000
  C   C307      1.0  0.46107  0.44764  0.70893  1.0000
  H   H241      1.0  0.11450  0.36233  0.78377  1.0000
  H   H242      1.0  0.46141  0.38281  0.90021  1.0000
  C   C308      1.0  0.45143  0.41655  0.95283  1.0000
  H   H243      1.0  0.34335  0.62381  0.70154  1.0000
  P   P7        1.0  0.44353  0.44336  0.95965  1.0000
  C   C309      1.0  0.44665  0.46193  0.92856  1.0000
  H   H244      1.0  0.45030  0.41908  0.90867  1.0000
  H   H245      1.0  0.04762  0.50664  0.52230  1.0000
  H   H246      1.0  0.30847  0.60241  0.56352  1.0000
  C   C310      1.0  0.97738  0.56251  0.91680  1.0000
  H   H247      1.0  0.40382  0.46264  0.95737  1.0000
  H   H248      1.0  0.17512  0.59906  0.56309  1.0000
  C   C311      1.0  0.42534  0.45107  0.90929  1.0000
  H   H249      1.0  0.24729  0.59160  0.66204  1.0000
  H   H250      1.0  0.06705  0.57823  0.60908  1.0000
  H   H251      1.0  0.29235  0.61706  0.63872  1.0000
  H   H252      1.0  0.11784  0.63443  0.97798  1.0000
  C   C312      1.0  0.41290  0.36177  0.67734  1.0000
  C   C313      1.0  0.06695  0.47914  0.89817  1.0000
  C   C314      1.0  0.04612  0.49889  0.74384  1.0000
  C   C315      1.0  0.45322  0.46264  0.63445  1.0000
  H   H253      1.0  0.20384  0.64913  0.96596  1.0000
  C   C316      1.0  0.25909  0.49459  0.96626  1.0000
  C   C317      1.0  0.43394  0.60953  0.67126  1.0000
  H   H254      1.0  0.20082  0.61133  0.93863  1.0000
  H   H255      1.0  0.14951  0.36988  0.81861  1.0000
  C   C318      1.0  0.98313  0.44050  0.83425  1.0000
  H   H256      1.0  0.99621  0.40381  0.74312  1.0000
  H   H257      1.0  0.98801  0.50909  0.53789  1.0000
  C   C319      1.0  0.46841  0.50301  0.60618  1.0000
  C   C320      1.0  0.20200  0.61069  0.96068  1.0000
  H   H258      1.0  0.19948  0.57596  0.53828  1.0000
  C   C321      1.0  0.20643  0.58064  0.51737  1.0000
  C   C322      1.0  0.42279  0.36933  0.62901  1.0000
  C   C323      1.0  0.16869  0.41375  0.81710  1.0000
  H   H259      1.0  0.40710  0.43149  0.91283  1.0000
  C   C324      1.0  0.21446  0.47954  0.72037  1.0000
  H   H260      1.0  0.33642  0.51206  0.68398  1.0000
  C   C325      1.0  0.24268  0.63662  0.57984  1.0000
  C   C326      1.0  0.35130  0.64266  0.60895  1.0000
  C   C327      1.0  0.45968  0.46911  0.49820  1.0000
  H   H261      1.0  0.18367  0.45657  0.81124  1.0000
  H   H262      1.0  0.27949  0.55183  0.63578  1.0000
  C   C328      1.0  0.19491  0.46828  0.74124  1.0000
  H   H263      1.0  0.22975  0.50776  0.68655  1.0000
  H   H264      1.0  0.00007  0.44435  0.84748  1.0000
  H   H265      1.0  0.22376  0.56376  0.58657  1.0000
  C   C329      1.0  0.33554  0.52616  0.66956  1.0000
  H   H266      1.0  0.34475  0.54157  0.60206  1.0000
  C   C330      1.0  0.14239  0.49199  0.84374  1.0000
  C   C331      1.0  0.00607  0.57816  0.91809  1.0000
  P   P8        1.0  0.43101  0.44015  0.66084  1.0000
  C   C332      1.0  0.44701  0.45704  0.69260  1.0000
  C   C333      1.0  0.40805  0.58818  0.67868  1.0000
  H   H267      1.0  0.00232  0.40667  0.57363  1.0000
  C   C334      1.0  0.45476  0.62195  0.69095  1.0000
  C   C335      1.0  0.99943  0.44315  0.56720  1.0000
  C   C336      1.0  0.21523  0.49972  0.70330  1.0000
  H   H268      1.0  0.19428  0.53874  0.50875  1.0000
  C   C337      1.0  0.34036  0.54313  0.62328  1.0000
  C   C338      1.0  0.98212  0.45022  0.50632  1.0000
  H   H269      1.0  0.37474  0.61089  0.65119  1.0000
  C   C339      1.0  0.05488  0.47135  0.58251  1.0000
  H   H270      1.0  0.18725  0.55231  0.81378  1.0000
  H   H271      1.0  0.18202  0.52161  0.77599  1.0000
  C   C340      1.0  0.45023  0.48456  0.62544  1.0000
  H   H272      1.0  0.02294  0.57297  0.59292  1.0000
  H   H273      1.0  0.09404  0.47373  0.92510  1.0000
  S   S58       1.0  0.46700  0.54182  0.81015  1.0000
  H   H274      1.0  0.43401  0.48763  0.63336  1.0000
  C   C341      1.0  0.98038  0.52391  0.90037  1.0000
  C   C342      1.0  0.08764  0.42872  0.71334  1.0000
  C   C343      1.0  0.17109  0.51285  0.79479  1.0000
  C   C344      1.0  0.29811  0.57916  0.60120  1.0000
  C   C345      1.0  0.33320  0.56241  0.63186  1.0000
  C   C346      1.0  0.15996  0.52005  0.84074  1.0000
  C   C347      1.0  0.41578  0.35234  0.65186  1.0000
  C   C348      1.0  0.17585  0.47710  0.74508  1.0000
  H   H275      1.0  0.40707  0.53603  0.88488  1.0000
  C   C349      1.0  0.17437  0.53044  0.81635  1.0000
  P   P9        1.0  0.14881  0.46116  0.77022  1.0000
  C   C350      1.0  0.19655  0.50877  0.70717  1.0000
  C   C351      1.0  0.06218  0.47564  0.94748  1.0000
  C   C352      1.0  0.09598  0.45376  0.76443  1.0000
  H   H276      1.0  0.39766  0.61969  0.75999  1.0000
  H   H277      1.0  0.16179  0.50387  0.72979  1.0000
  C   C353      1.0  0.06847  0.55936  0.54337  1.0000
  C   C354      1.0  0.24452  0.56833  0.59074  1.0000
  C   C355      1.0  0.39909  0.51776  0.95259  1.0000
  C   C356      1.0  0.17676  0.49732  0.72776  1.0000
  C   C357      1.0  0.15343  0.48457  0.79759  1.0000
  H   H278      1.0  0.19669  0.52397  0.69358  1.0000
  C   C358      1.0  0.40910  0.42953  0.97288  1.0000
  H   H279      1.0  0.33182  0.54488  0.51894  1.0000
  H   H280      1.0  0.32316  0.54560  0.69960  1.0000
  C   C359      1.0  0.01298  0.42875  0.57376  1.0000
  C   C360      1.0  0.29033  0.62158  0.65981  1.0000
  H   H281      1.0  0.08447  0.41917  0.69344  1.0000
  H   H282      1.0  0.33764  0.63910  0.59204  1.0000
  C   C361      1.0  0.35667  0.43482  0.67464  1.0000
  C   C362      1.0  0.35748  0.42179  0.62771  1.0000
  C   C363      1.0  0.24075  0.62932  0.60744  1.0000
  H   H283      1.0  0.40972  0.61175  0.54341  1.0000
  H   H284      1.0  0.43176  0.40828  0.61347  1.0000
  C   C364      1.0  0.13919  0.47429  0.82231  1.0000
  C   C365      1.0  0.44634  0.44437  0.48409  1.0000
  C   C366      1.0  0.11689  0.45054  0.75259  1.0000
  C   C367      1.0  0.26494  0.60730  0.67289  1.0000
  H   H285      1.0  0.12831  0.43523  0.71733  1.0000
  C   C368      1.0  0.04427  0.48277  0.89646  1.0000
  C   C369      1.0  0.03062  0.48301  0.92022  1.0000
  C   C370      1.0  0.38660  0.62947  0.75246  1.0000
  C   C371      1.0  0.04149  0.48582  0.57646  1.0000
  C   C372      1.0  0.11250  0.43793  0.72694  1.0000
  H   H286      1.0  0.09877  0.46344  0.78412  1.0000
  H   H287      1.0  0.12523  0.45260  0.82484  1.0000
  H   H288      1.0  0.13081  0.48409  0.86247  1.0000
  C   C373      1.0  0.04061  0.44286  0.58132  1.0000
  P   P10       1.0  0.22092  0.63503  0.52782  1.0000
  H   H289      1.0  0.46847  0.35882  0.93901  1.0000
  C   C374      1.0  0.19358  0.60769  0.57529  1.0000
  H   H290      1.0  0.05916  0.53374  0.95100  1.0000
  C   C375      1.0  0.20342  0.55930  0.50063  1.0000
  C   C376      1.0  0.32699  0.56320  0.65956  1.0000
  C   C377      1.0  0.26579  0.58489  0.57291  1.0000
  C   C378      1.0  0.07589  0.47559  0.92365  1.0000
  C   C379      1.0  0.03550  0.56886  0.57915  1.0000
  H   H291      1.0  0.01343  0.48641  0.77278  1.0000
  C   C380      1.0  0.07124  0.44486  0.75054  1.0000
  C   C381      1.0  0.06040  0.57198  0.58823  1.0000
  C   C382      1.0  0.07698  0.56747  0.57025  1.0000
  C   C383      1.0  0.06706  0.43226  0.72503  1.0000
  H   H292      1.0  0.05540  0.44795  0.75941  1.0000
  H   H293      1.0  0.07814  0.48003  0.87980  1.0000
  C   C384      1.0  0.34400  0.56146  0.53292  1.0000
  C   C385      1.0  0.31312  0.64156  0.67398  1.0000
  H   H294      1.0  0.41838  0.58633  0.74691  1.0000
  C   C386      1.0  0.02695  0.56077  0.55223  1.0000
  C   C387      1.0  0.21526  0.61123  0.61893  1.0000
  H   H295      1.0  0.34767  0.41506  0.60793  1.0000
  H   H296      1.0  0.04301  0.46573  0.68481  1.0000
  C   C388      1.0  0.26228  0.61317  0.70007  1.0000
  H   H297      1.0  0.32328  0.42259  0.64624  1.0000
  H   H298      1.0  0.07625  0.48222  0.58846  1.0000
  C   C389      1.0  0.19172  0.60045  0.60283  1.0000
  H   H299      1.0  0.25897  0.63783  0.61998  1.0000
  C   C390      1.0  0.32816  0.54512  0.67832  1.0000
  C   C391      1.0  0.98164  0.36842  0.66481  1.0000
  H   H300      1.0  0.38287  0.56251  0.71160  1.0000
  H   H301      1.0  0.44643  0.64352  0.83625  1.0000
  H   H302      1.0  0.14987  0.49265  0.93971  1.0000
  C   C392      1.0  0.47480  0.45965  0.62406  1.0000
  C   C393      1.0  0.44857  0.61418  0.71843  1.0000
  P   P11       1.0  0.33281  0.58655  0.60781  1.0000
  H   H303      1.0  0.00505  0.44310  0.79745  1.0000
  C   C394      1.0  0.21788  0.53927  0.93729  1.0000
  H   H304      1.0  0.39274  0.57733  0.66312  1.0000
  H   H305      1.0  0.05262  0.50790  0.57781  1.0000
  C   C395      1.0  0.37194  0.62680  0.64225  1.0000
  H   H306      1.0  0.06986  0.47330  0.96689  1.0000
  C   C396      1.0  0.40244  0.57987  0.70594  1.0000
  H   H307      1.0  0.37105  0.51331  0.92044  1.0000
  H   H308      1.0  0.18301  0.53344  0.91374  1.0000
  C   C397      1.0  0.42615  0.40614  0.65751  1.0000
  P   P12       1.0  0.03216  0.54506  0.49951  1.0000
  C   C398      1.0  0.24984  0.55687  0.61352  1.0000
  C   C399      1.0  0.42719  0.46571  0.88558  1.0000
  C   C400      1.0  0.03944  0.47941  0.94595  1.0000
  C   C401      1.0  0.98550  0.46098  0.96725  1.0000
  H   H309      1.0  0.97947  0.35580  0.73065  1.0000
  C   C402      1.0  0.19019  0.52564  0.93006  1.0000
  H   H310      1.0  0.23312  0.54314  0.62674  1.0000
  C   C403      1.0  0.05024  0.53678  0.96931  1.0000
  C   C404      1.0  0.42253  0.59320  0.72586  1.0000
  C   C405      1.0  0.47184  0.50184  0.89966  1.0000
  C   C406      1.0  0.27640  0.56199  0.61863  1.0000
  C   C407      1.0  0.36997  0.61927  0.72936  1.0000
  C   C408      1.0  0.29244  0.59019  0.57802  1.0000
  C   C409      1.0  0.33202  0.56444  0.55672  1.0000
  C   C410      1.0  0.35298  0.62100  0.62103  1.0000
  C   C411      1.0  0.05450  0.49324  0.71901  1.0000
  H   H311      1.0  0.18402  0.41704  0.83228  1.0000
  C   C412      1.0  0.37192  0.57877  0.52798  1.0000
  C   C413      1.0  0.03658  0.46992  0.70425  1.0000
  C   C414      1.0  0.13779  0.56260  0.49155  1.0000
  H   H312      1.0  0.05992  0.51726  0.75505  1.0000
  H   H313      1.0  0.00371  0.48328  0.56441  1.0000
  C   C415      1.0  0.04294  0.55503  0.53440  1.0000
  C   C416      1.0  0.05261  0.50920  0.50080  1.0000
  C   C417      1.0  0.45965  0.38837  0.92098  1.0000
  H   H314      1.0  0.31060  0.55007  0.56070  1.0000
  H   H315      1.0  0.09653  0.57031  0.57710  1.0000
  H   H316      1.0  0.42438  0.36182  0.60908  1.0000
  H   H317      1.0  0.99659  0.43432  0.70245  1.0000
  C   C418      1.0  0.00210  0.45705  0.73985  1.0000
  H   H318      1.0  0.17189  0.58634  0.61163  1.0000
  H   H319      1.0  0.08199  0.55665  0.52964  1.0000
  H   H320      1.0  0.22859  0.47214  0.71690  1.0000
  C   C419      1.0  0.01039  0.45201  0.71447  1.0000
  H   H321      1.0  0.40663  0.34829  0.69489  1.0000
  H   H322      1.0  0.00207  0.46232  0.51534  1.0000
  C   C420      1.0  0.47398  0.46132  0.73303  1.0000
  H   H323      1.0  0.46604  0.51997  0.59947  1.0000
  C   C421      1.0  0.98594  0.44000  0.80586  1.0000
  C   C422      1.0  0.45559  0.40284  0.97456  1.0000
  H   H324      1.0  0.41203  0.33168  0.64964  1.0000
  C   C423      1.0  0.99561  0.52268  0.49571  1.0000
  H   H325      1.0  0.41428  0.39504  0.69975  1.0000
  H   H326      1.0  0.42415  0.43231  0.48452  1.0000
  H   H327      1.0  0.05084  0.43165  0.58690  1.0000
  C   C424      1.0  0.18036  0.49285  0.96634  1.0000
  H   H328      1.0  0.19810  0.57091  0.96149  1.0000
  Fe  Fe28      1.0  0.46699  0.57066  0.84196  1.0000
  H   H329      1.0  0.46242  0.42998  0.70310  1.0000
  C   C425      1.0  0.20378  0.63216  0.97629  1.0000
  H   H330      1.0  0.46399  0.62375  0.73414  1.0000
  H   H331      1.0  0.01352  0.48659  0.91851  1.0000
  H   H332      1.0  0.21357  0.60554  0.64031  1.0000
  H   H333      1.0  0.46822  0.54782  0.94392  1.0000
  C   C426      1.0  0.04372  0.57672  0.48132  1.0000
  H   H334      1.0  0.24821  0.54093  0.96501  1.0000
  H   H335      1.0  0.98400  0.42199  0.96595  1.0000
  H   H336      1.0  0.45290  0.34989  0.50042  1.0000
  C   C427      1.0  0.35597  0.63208  0.71950  1.0000
  C   C428      1.0  0.20092  0.58813  0.97351  1.0000
  H   H337      1.0  0.47017  0.56358  0.67306  1.0000
  H   H338      1.0  0.44776  0.47619  0.50934  1.0000
  H   H339      1.0  0.35815  0.44526  0.97745  1.0000
  H   H340      1.0  0.47336  0.59981  0.64723  1.0000
  C   C429      1.0  0.22682  0.52979  0.95915  1.0000
  C   C430      1.0  0.19384  0.64222  0.51956  1.0000
  H   H341      1.0  0.27518  0.64253  0.51617  1.0000
  C   C431      1.0  0.20822  0.50611  0.97340  1.0000
  H   H342      1.0  0.13674  0.50224  0.48652  1.0000
  H   H343      1.0  0.24733  0.49599  0.94957  1.0000
  H   H344      1.0  0.43217  0.52512  0.97955  1.0000
  C   C432      1.0  0.28266  0.49327  0.96020  1.0000
  C   C433      1.0  0.46305  0.35941  0.48138  1.0000
  H   H345      1.0  0.31601  0.48936  0.97657  1.0000
  C   C434      1.0  0.97917  0.50771  0.51798  1.0000
  C   C435      1.0  0.16651  0.64947  0.48575  1.0000
  H   H346      1.0  0.16533  0.47538  0.97784  1.0000
  H   H347      1.0  0.16157  0.39666  0.97905  1.0000
  H   H348      1.0  0.19533  0.44488  0.96879  1.0000
  C   C436      1.0  0.36887  0.43403  0.98039  1.0000
  S   S59       1.0  0.19252  0.67489  0.41288  1.0000
  Fe  Fe29      1.0  0.40791  0.83698  0.44625  1.0000
  S   S60       1.0  0.36950  0.83903  0.44138  1.0000
  S   S61       1.0  0.43705  0.83965  0.41302  1.0000
  Fe  Fe30      1.0  0.37544  0.82933  0.01406  1.0000
  S   S62       1.0  0.34435  0.83974  0.99761  1.0000
  S   S63       1.0  0.37707  0.83104  0.06083  1.0000
  C   C437      1.0  0.33588  0.65843  0.37947  1.0000
  C   C438      1.0  0.35385  0.88850  0.41747  1.0000
  C   C439      1.0  0.37911  0.74361  0.43905  1.0000
  C   C440      1.0  0.40546  0.74670  0.16449  1.0000
  Fe  Fe31      1.0  0.34960  0.80206  0.46928  1.0000
  H   H349      1.0  0.34079  0.68036  0.18096  1.0000
  C   C441      1.0  0.27203  0.68021  0.18523  1.0000
  S   S64       1.0  0.43485  0.79477  0.23066  1.0000
  C   C442      1.0  0.25622  0.68302  0.36492  1.0000
  H   H350      1.0  0.45402  0.92483  0.26976  1.0000
  Fe  Fe32      1.0  0.44498  0.83136  0.25678  1.0000
  S   S65       1.0  0.41413  0.83325  0.28539  1.0000
  H   H351      1.0  0.36564  0.81912  0.25214  1.0000
  H   H352      1.0  0.36997  0.71395  0.35016  1.0000
  C   C443      1.0  0.40941  0.72310  0.21321  1.0000
  H   H353      1.0  0.35979  0.71724  0.12355  1.0000
  H   H354      1.0  0.23640  0.66664  0.43620  1.0000
  H   H355      1.0  0.46811  0.97454  0.01858  1.0000
  H   H356      1.0  0.29593  0.72370  0.17989  1.0000
  C   C444      1.0  0.29654  0.70493  0.18188  1.0000
  C   C445      1.0  0.37392  0.72727  0.33279  1.0000
  C   C446      1.0  0.42897  0.83648  0.37792  1.0000
  C   C447      1.0  0.40767  0.83976  0.36760  1.0000
  C   C448      1.0  0.40280  0.83811  0.33922  1.0000
  C   C449      1.0  0.41930  0.83336  0.32107  1.0000
  C   C450      1.0  0.44003  0.82937  0.33162  1.0000
  C   C451      1.0  0.44501  0.83120  0.35983  1.0000
  H   H357      1.0  0.39530  0.84399  0.38142  1.0000
  H   H358      1.0  0.38645  0.84086  0.33129  1.0000
  C   C452      1.0  0.42094  0.91040  0.33098  1.0000
  P   P13       1.0  0.33739  0.74051  0.35715  1.0000
  C   C453      1.0  0.39883  0.82805  0.08516  1.0000
  C   C454      1.0  0.41467  0.81615  0.07876  1.0000
  C   C455      1.0  0.42994  0.81234  0.09934  1.0000
  C   C456      1.0  0.42993  0.82076  0.12640  1.0000
  C   C457      1.0  0.41453  0.83318  0.13269  1.0000
  C   C458      1.0  0.39888  0.83655  0.11222  1.0000
  H   H359      1.0  0.41467  0.80933  0.05812  1.0000
  H   H360      1.0  0.46108  0.97954  0.33396  1.0000
  H   H361      1.0  0.41448  0.83999  0.15332  1.0000
  H   H362      1.0  0.38660  0.84568  0.11742  1.0000
  C   C459      1.0  0.22629  0.69750  0.42611  1.0000
  C   C460      1.0  0.23626  0.72589  0.42613  1.0000
  C   C461      1.0  0.26272  0.74469  0.43612  1.0000
  C   C462      1.0  0.27981  0.73548  0.44650  1.0000
  C   C463      1.0  0.26993  0.70707  0.44629  1.0000
  C   C464      1.0  0.24349  0.68827  0.43620  1.0000
  H   H363      1.0  0.22336  0.73345  0.41835  1.0000
  C   C465      1.0  0.45920  0.70437  0.26545  1.0000
  C   C466      1.0  0.42885  0.65966  0.35022  1.0000
  H   H364      1.0  0.46480  0.69626  0.33620  1.0000
  H   H365      1.0  0.43893  0.69840  0.25806  1.0000
  C   C467      1.0  0.42126  0.92524  0.06597  1.0000
  H   H366      1.0  0.32964  0.77099  0.25987  1.0000
  H   H367      1.0  0.39630  0.83136  0.21196  1.0000
  H   H368      1.0  0.32391  0.73516  0.22747  1.0000
  C   C468      1.0  0.44774  0.92829  0.28961  1.0000
  C   C469      1.0  0.41486  0.97660  0.00098  1.0000
  H   H369      1.0  0.33761  0.79010  0.10425  1.0000
  C   C470      1.0  0.37627  0.65445  0.38638  1.0000
  C   C471      1.0  0.46618  0.96438  0.07552  1.0000
  H   H370      1.0  0.28278  0.69951  0.45411  1.0000
  C   C472      1.0  0.38301  0.73475  0.18242  1.0000
  S   S66       1.0  0.31336  0.75835  0.46007  1.0000
  C   C473      1.0  0.46543  0.68388  0.27313  1.0000
  C   C474      1.0  0.33047  0.76834  0.35464  1.0000
  C   C475      1.0  0.30477  0.70932  0.35389  1.0000
  H   H371      1.0  0.41595  0.77535  0.42016  1.0000
  Fe  Fe33      1.0  0.47531  0.80000  0.24457  1.0000
  C   C476      1.0  0.40433  0.94943  0.99181  1.0000
  C   C477      1.0  0.38532  0.72333  0.20706  1.0000
  C   C478      1.0  0.46439  0.91667  0.42289  1.0000
  C   C479      1.0  0.34065  0.78938  0.37413  1.0000
  C   C480      1.0  0.33427  0.81026  0.37227  1.0000
  C   C481      1.0  0.31766  0.81023  0.35112  1.0000
  C   C482      1.0  0.30725  0.78924  0.33182  1.0000
  C   C483      1.0  0.31352  0.76831  0.33362  1.0000
  H   H372      1.0  0.37222  0.91328  0.34253  1.0000
  C   C484      1.0  0.35097  0.72590  0.43604  1.0000
  H   H373      1.0  0.28334  0.72312  0.38058  1.0000
  Fe  Fe34      1.0  0.45758  0.82481  0.19699  1.0000
  C   C485      1.0  0.18035  0.66610  0.00921  1.0000
  C   C486      1.0  0.18642  0.69327  0.00620  1.0000
  H   H374      1.0  0.20563  0.71008  0.01338  1.0000
  H   H375      1.0  0.40331  0.71790  0.31503  1.0000
  C   C487      1.0  0.43151  0.73470  0.19507  1.0000
  H   H376      1.0  0.34212  0.82640  0.38736  1.0000
  H   H377      1.0  0.31263  0.82632  0.34988  1.0000
  H   H378      1.0  0.29407  0.78904  0.31563  1.0000
  H   H379      1.0  0.30500  0.75196  0.31873  1.0000
  C   C488      1.0  0.38156  0.75972  0.39273  1.0000
  C   C489      1.0  0.27240  0.65576  0.18739  1.0000
  H   H380      1.0  0.44262  0.94767  0.47326  1.0000
  C   C490      1.0  0.23824  0.68852  0.02509  1.0000
  C   C491      1.0  0.24566  0.70738  0.04661  1.0000
  C   C492      1.0  0.27098  0.73160  0.04630  1.0000
  C   C493      1.0  0.28899  0.73727  0.02444  1.0000
  C   C494      1.0  0.28182  0.71860  0.00303  1.0000
  C   C495      1.0  0.25650  0.69439  0.00321  1.0000
  C   C496      1.0  0.47370  0.94689  0.08839  1.0000
  H   H381      1.0  0.40682  0.89288  0.34302  1.0000
  H   H382      1.0  0.42432  0.97501  0.42211  1.0000
  H   H383      1.0  0.39024  0.77603  0.27114  1.0000
  H   H384      1.0  0.35682  0.72993  0.07582  1.0000
  C   C497      1.0  0.36744  0.90610  0.36342  1.0000
  C   C498      1.0  0.36077  0.74274  0.33055  1.0000
  H   H385      1.0  0.23162  0.70371  0.06331  1.0000
  H   H386      1.0  0.27642  0.74636  0.06263  1.0000
  H   H387      1.0  0.30817  0.75649  0.02367  1.0000
  C   C499      1.0  0.43965  0.95332  0.06468  1.0000
  C   C500      1.0  0.35310  0.74015  0.09257  1.0000
  H   H388      1.0  0.43331  0.96638  0.05477  1.0000
  H   H389      1.0  0.34600  0.76659  0.06621  1.0000
  H   H390      1.0  0.41146  0.71498  0.23254  1.0000
  C   C501      1.0  0.38087  0.90776  0.41069  1.0000
  H   H391      1.0  0.39362  0.77355  0.37643  1.0000
  C   C502      1.0  0.35500  0.73321  0.11960  1.0000
  C   C503      1.0  0.45695  0.67632  0.34553  1.0000
  C   C504      1.0  0.42865  0.90614  0.30511  1.0000
  H   H392      1.0  0.39063  0.79586  0.17897  1.0000
  H   H393      1.0  0.45232  0.82488  0.31814  1.0000
  H   H394      1.0  0.34062  0.77802  0.15195  1.0000
  H   H395      1.0  0.41584  0.97789  0.33472  1.0000
  C   C505      1.0  0.43164  0.93701  0.34120  1.0000
  H   H396      1.0  0.26978  0.76633  0.43599  1.0000
  C   C506      1.0  0.42959  0.74661  0.17080  1.0000
  C   C507      1.0  0.39435  0.76067  0.41746  1.0000
  C   C508      1.0  0.43116  0.95775  0.47810  1.0000
  H   H397      1.0  0.34852  0.88207  0.43855  1.0000
  H   H398      1.0  0.35333  0.78974  0.39090  1.0000
  H   H399      1.0  0.40103  0.91677  0.05706  1.0000
  H   H400      1.0  0.35813  0.77348  0.30627  1.0000
  H   H401      1.0  0.44720  0.75695  0.15740  1.0000
  C   C509      1.0  0.32184  0.68071  0.18264  1.0000
  H   H402      1.0  0.46226  0.89727  0.42909  1.0000
  H   H403      1.0  0.40498  0.75728  0.14625  1.0000
  C   C510      1.0  0.34677  0.76060  0.08710  1.0000
  C   C511      1.0  0.34245  0.77636  0.24184  1.0000
  C   C512      1.0  0.36274  0.80351  0.23751  1.0000
  C   C513      1.0  0.37998  0.81044  0.21479  1.0000
  C   C514      1.0  0.37665  0.79032  0.19612  1.0000
  C   C515      1.0  0.35580  0.76315  0.19985  1.0000
  C   C516      1.0  0.33916  0.75614  0.22326  1.0000
  P   P14       1.0  0.35298  0.73748  0.17613  1.0000
  C   C517      1.0  0.32167  0.70543  0.18114  1.0000
  C   C518      1.0  0.35112  0.74711  0.14136  1.0000
  C   C519      1.0  0.34421  0.76726  0.13568  1.0000
  C   C520      1.0  0.34207  0.77393  0.10864  1.0000
  C   C521      1.0  0.34047  0.88670  0.37025  1.0000
  H   H404      1.0  0.31278  0.86296  0.40270  1.0000
  C   C522      1.0  0.42901  0.90800  0.07852  1.0000
  H   H405      1.0  0.42025  0.88559  0.29724  1.0000
  H   H406      1.0  0.25272  0.67999  0.18609  1.0000
  C   C523      1.0  0.28171  0.70675  0.36770  1.0000
  C   C524      1.0  0.38539  0.76209  0.28814  1.0000
  C   C525      1.0  0.45157  0.95904  0.32593  1.0000
  C   C526      1.0  0.44466  0.91707  0.40593  1.0000
  H   H407      1.0  0.42757  0.89785  0.39905  1.0000
  S   S67       1.0  0.40874  0.85859  0.98577  1.0000
  C   C527      1.0  0.33370  0.87781  0.39726  1.0000
  H   H408      1.0  0.33889  0.71374  0.45321  1.0000
  C   C528      1.0  0.38794  0.91639  0.38353  1.0000
  C   C529      1.0  0.30193  0.68760  0.33760  1.0000
  C   C530      1.0  0.45937  0.95473  0.30011  1.0000
  H   H409      1.0  0.41475  0.88624  0.07939  1.0000
  C   C531      1.0  0.39273  0.72935  0.31292  1.0000
  H   H410      1.0  0.39604  0.91614  0.42680  1.0000
  H   H411      1.0  0.39071  0.93252  0.00476  1.0000
  H   H412      1.0  0.46094  0.90528  0.09972  1.0000
  C   C532      1.0  0.44715  0.94204  0.39791  1.0000
  P   P15       1.0  0.42237  0.94249  0.37497  1.0000
  H   H413      1.0  0.44175  0.80268  0.09425  1.0000
  C   C533      1.0  0.33810  0.72487  0.41131  1.0000
  H   H414      1.0  0.32473  0.87889  0.35468  1.0000
  C   C534      1.0  0.36687  0.76038  0.30815  1.0000
  C   C535      1.0  0.39849  0.74678  0.29059  1.0000
  H   H415      1.0  0.44990  0.66257  0.27182  1.0000
  C   C536      1.0  0.35338  0.74160  0.38939  1.0000
  H   H416      1.0  0.41356  0.74891  0.27551  1.0000
  S   S68       1.0  0.44897  0.81457  0.15146  1.0000
  H   H417      1.0  0.31920  0.68897  0.32663  1.0000
  H   H418      1.0  0.31620  0.71153  0.40975  1.0000
  H   H419      1.0  0.17289  0.72012  0.99050  1.0000
  S   S69       1.0  0.47073  0.75763  0.25531  1.0000
  C   C537      1.0  0.42185  0.97406  0.37791  1.0000
  S   S70       1.0  0.46375  0.86112  0.22171  1.0000
  C   C538      1.0  0.27638  0.66382  0.33503  1.0000
  H   H420      1.0  0.45049  0.73541  0.20038  1.0000
  H   H421      1.0  0.47236  0.90370  0.35861  1.0000
  H   H422      1.0  0.36880  0.71532  0.22185  1.0000
  H   H423      1.0  0.46143  0.82849  0.36767  1.0000
  H   H424      1.0  0.23840  0.68129  0.37529  1.0000
  P   P16       1.0  0.20467  0.65827  0.02479  1.0000
  C   C539      1.0  0.29728  0.65601  0.18593  1.0000
  H   H425      1.0  0.29547  0.72350  0.98570  1.0000
  H   H426      1.0  0.23481  0.65477  0.07161  1.0000
  H   H427      1.0  0.38893  0.74500  0.45847  1.0000
  S   S71       1.0  0.38811  0.79948  0.47221  1.0000
  H   H428      1.0  0.25105  0.68081  0.98587  1.0000
  C   C540      1.0  0.45512  0.91880  0.08987  1.0000
  C   C541      1.0  0.16788  0.69910  0.99316  1.0000
  C   C542      1.0  0.47001  0.96657  0.40651  1.0000
  H   H429      1.0  0.37130  0.68730  0.40226  1.0000
  C   C543      1.0  0.25353  0.66156  0.34864  1.0000
  S   S72       1.0  0.36189  0.79306  0.98601  1.0000
  H   H430      1.0  0.41516  0.66692  0.34423  1.0000
  C   C544      1.0  0.47497  0.66701  0.35212  1.0000
  H   H431      1.0  0.40922  0.98028  0.02100  1.0000
  Fe  Fe35      1.0  0.38424  0.86497  0.47982  1.0000
  H   H432      1.0  0.32474  0.66918  0.38296  1.0000
  H   H433      1.0  0.39631  0.66223  0.39555  1.0000
  C   C545      1.0  0.36210  0.66860  0.39038  1.0000
  C   C546      1.0  0.14316  0.67791  0.98307  1.0000
  H   H434      1.0  0.47457  0.88353  0.98130  1.0000
  H   H435      1.0  0.47470  0.97183  0.28838  1.0000
  H   H436      1.0  0.47614  0.88578  0.31362  1.0000
  C   C547      1.0  0.13689  0.65083  0.98610  1.0000
  H   H437      1.0  0.45609  0.81431  0.58462  1.0000
  Fe  Fe36      1.0  0.39237  0.82373  0.95585  1.0000
  S   S73       1.0  0.36193  0.83322  0.93690  1.0000
  S   S74       1.0  0.42198  0.81714  0.92935  1.0000
  Fe  Fe37      1.0  0.40048  0.82728  0.50857  1.0000
  S   S75       1.0  0.36095  0.82811  0.50785  1.0000
  S   S76       1.0  0.42357  0.81920  0.54252  1.0000
  C   C548      1.0  0.22238  0.70219  0.83071  1.0000
  H   H438      1.0  0.30312  0.82535  0.92945  1.0000
  H   H439      1.0  0.29764  0.78453  0.90576  1.0000
  H   H440      1.0  0.31057  0.86456  0.85221  1.0000
  C   C549      1.0  0.44145  0.91916  0.86870  1.0000
  H   H441      1.0  0.30436  0.82358  0.82811  1.0000
  S   S77       1.0  0.46053  0.85635  0.73532  1.0000
  S   S78       1.0  0.42592  0.79024  0.74049  1.0000
  Fe  Fe38      1.0  0.44467  0.82080  0.70650  1.0000
  S   S79       1.0  0.41643  0.82025  0.67275  1.0000
  Fe  Fe39      1.0  0.44508  0.82571  0.76930  1.0000
  S   S80       1.0  0.42007  0.83272  0.80100  1.0000
  C   C550      1.0  0.43777  0.70569  0.85477  1.0000
  H   H442      1.0  0.37184  0.77798  0.90497  1.0000
  C   C551      1.0  0.30073  0.78470  0.76542  1.0000
  H   H443      1.0  0.42783  0.72407  0.80514  1.0000
  H   H444      1.0  0.19578  0.69186  0.94170  1.0000
  H   H445      1.0  0.43785  0.87878  0.68910  1.0000
  H   H446      1.0  0.44061  0.87563  0.55764  1.0000
  C   C552      1.0  0.38819  0.65355  0.65173  1.0000
  C   C553      1.0  0.39863  0.75216  0.84495  1.0000
  C   C554      1.0  0.42396  0.82435  0.89385  1.0000
  C   C555      1.0  0.44112  0.81942  0.87681  1.0000
  C   C556      1.0  0.44059  0.82223  0.84821  1.0000
  C   C557      1.0  0.42304  0.83023  0.83660  1.0000
  C   C558      1.0  0.40691  0.83634  0.85368  1.0000
  C   C559      1.0  0.40756  0.83363  0.88210  1.0000
  H   H447      1.0  0.45334  0.71215  0.68684  1.0000
  H   H448      1.0  0.45340  0.81785  0.83518  1.0000
  H   H449      1.0  0.39375  0.84314  0.84492  1.0000
  H   H450      1.0  0.39512  0.83856  0.89479  1.0000
  C   C560      1.0  0.42173  0.82052  0.57869  1.0000
  C   C561      1.0  0.40203  0.82453  0.59187  1.0000
  C   C562      1.0  0.40100  0.82475  0.62066  1.0000
  C   C563      1.0  0.41980  0.82131  0.63661  1.0000
  C   C564      1.0  0.43991  0.81791  0.62345  1.0000
  C   C565      1.0  0.44071  0.81733  0.59465  1.0000
  H   H451      1.0  0.38733  0.82703  0.57989  1.0000
  H   H452      1.0  0.38535  0.82738  0.63065  1.0000
  H   H453      1.0  0.45453  0.81530  0.63544  1.0000
  C   C566      1.0  0.27681  0.66243  0.51605  1.0000
  C   C567      1.0  0.22791  0.68906  0.92099  1.0000
  C   C568      1.0  0.25650  0.70228  0.91699  1.0000
  C   C569      1.0  0.27448  0.72759  0.92964  1.0000
  C   C570      1.0  0.26417  0.74038  0.94649  1.0000
  C   C571      1.0  0.23559  0.72704  0.95072  1.0000
  C   C572      1.0  0.21763  0.70156  0.93829  1.0000
  H   H454      1.0  0.26476  0.69277  0.90393  1.0000
  H   H455      1.0  0.29631  0.73730  0.92622  1.0000
  C   C573      1.0  0.25627  0.69100  0.52051  1.0000
  C   C574      1.0  0.24962  0.72336  0.82922  1.0000
  S   S81       1.0  0.28579  0.77290  0.96255  1.0000
  C   C575      1.0  0.30594  0.72914  0.86510  1.0000
  H   H456      1.0  0.39858  0.92724  0.54471  1.0000
  H   H457      1.0  0.22723  0.73656  0.96369  1.0000
  H   H458      1.0  0.47286  0.76029  0.90898  1.0000
  C   C576      1.0  0.40146  0.70101  0.90802  1.0000
  H   H459      1.0  0.34705  0.79668  0.87993  1.0000
  H   H460      1.0  0.41416  0.91880  0.74923  1.0000
  H   H461      1.0  0.46800  0.94507  0.93657  1.0000
  H   H462      1.0  0.40276  0.66089  0.78316  1.0000
  H   H463      1.0  0.42869  0.76999  0.90481  1.0000
  H   H464      1.0  0.45342  0.97110  0.87818  1.0000
  C   C577      1.0  0.40421  0.74456  0.93766  1.0000
  H   H465      1.0  0.41184  0.98259  0.84610  1.0000
  H   H466      1.0  0.41221  0.76555  0.65642  1.0000
  C   C578      1.0  0.45385  0.89715  0.67947  1.0000
  H   H467      1.0  0.45468  0.81317  0.88563  1.0000
  C   C579      1.0  0.46199  0.67676  0.76347  1.0000
  H   H468      1.0  0.44087  0.92348  0.69759  1.0000
  C   C580      1.0  0.35363  0.76441  0.89354  1.0000
  H   H469      1.0  0.28718  0.71493  0.85486  1.0000
  C   C581      1.0  0.46334  0.70734  0.85749  1.0000
  C   C582      1.0  0.35846  0.65525  0.73277  1.0000
  S   S82       1.0  0.38400  0.90521  0.48611  1.0000
  C   C583      1.0  0.37542  0.66549  0.75585  1.0000
  C   C584      1.0  0.28179  0.71413  0.51563  1.0000
  H   H470      1.0  0.21451  0.68562  0.81607  1.0000
  H   H471      1.0  0.40539  0.76154  0.94911  1.0000
  C   C585      1.0  0.33646  0.79009  0.80765  1.0000
  H   H472      1.0  0.26264  0.72281  0.81329  1.0000
  H   H473      1.0  0.44898  0.66683  0.67992  1.0000
  H   H474      1.0  0.43812  0.68795  0.73760  1.0000
  H   H475      1.0  0.30856  0.67205  0.81433  1.0000
  C   C586      1.0  0.40989  0.94429  0.96527  1.0000
  C   C587      1.0  0.41530  0.73280  0.81102  1.0000
  C   C588      1.0  0.46631  0.76492  0.86614  1.0000
  C   C589      1.0  0.30429  0.82371  0.85020  1.0000
  H   H476      1.0  0.43690  0.97125  0.81248  1.0000
  C   C590      1.0  0.43583  0.92168  0.84126  1.0000
  H   H477      1.0  0.33136  0.69953  0.67361  1.0000
  H   H478      1.0  0.20248  0.72215  0.88757  1.0000
  C   C591      1.0  0.20537  0.70189  0.85162  1.0000
  C   C592      1.0  0.30478  0.71148  0.51095  1.0000
  C   C593      1.0  0.41619  0.91725  0.57875  1.0000
  C   C594      1.0  0.30781  0.84703  0.86378  1.0000
  H   H479      1.0  0.33628  0.80087  0.73922  1.0000
  C   C595      1.0  0.38822  0.69631  0.93331  1.0000
  C   C596      1.0  0.30361  0.82501  0.90729  1.0000
  C   C597      1.0  0.25360  0.66497  0.52077  1.0000
  C   C598      1.0  0.24276  0.74396  0.86963  1.0000
  H   H480      1.0  0.39798  0.75856  0.86558  1.0000
  H   H481      1.0  0.37768  0.75766  0.78140  1.0000
  H   H482      1.0  0.40411  0.73484  0.76941  1.0000
  H   H483      1.0  0.32013  0.68366  0.50722  1.0000
  C   C599      1.0  0.37070  0.73290  0.66226  1.0000
  C   C600      1.0  0.39877  0.74706  0.66769  1.0000
  C   C601      1.0  0.40940  0.73788  0.68820  1.0000
  C   C602      1.0  0.39198  0.71464  0.70346  1.0000
  C   C603      1.0  0.36369  0.70017  0.69811  1.0000
  C   C604      1.0  0.35317  0.70961  0.67745  1.0000
  C   C605      1.0  0.46096  0.89250  0.56189  1.0000
  H   H484      1.0  0.18834  0.65190  0.56117  1.0000
  C   C606      1.0  0.33044  0.68595  0.74811  1.0000
  C   C607      1.0  0.45876  0.95436  0.59635  1.0000
  C   C608      1.0  0.46631  0.68493  0.85081  1.0000
  C   C609      1.0  0.31424  0.70712  0.79161  1.0000
  C   C610      1.0  0.32170  0.72078  0.76658  1.0000
  C   C611      1.0  0.32990  0.71036  0.74493  1.0000
  Fe  Fe40      1.0  0.46582  0.78999  0.74302  1.0000
  H   H485      1.0  0.47518  0.96152  0.61096  1.0000
  C   C612      1.0  0.15420  0.65664  0.50637  1.0000
  Fe  Fe41      1.0  0.33207  0.80443  0.96827  1.0000
  H   H486      1.0  0.43746  0.96776  0.76153  1.0000
  C   C613      1.0  0.32244  0.67207  0.77324  1.0000
  H   H487      1.0  0.46420  0.88534  0.84933  1.0000
  H   H488      1.0  0.32437  0.72953  0.50659  1.0000
  H   H489      1.0  0.12895  0.68245  0.97264  1.0000
  H   H490      1.0  0.37460  0.76905  0.82966  1.0000
  H   H491      1.0  0.46738  0.77540  0.82328  1.0000
  H   H492      1.0  0.25016  0.75929  0.88547  1.0000
  C   C614      1.0  0.18200  0.65041  0.54010  1.0000
  H   H493      1.0  0.43112  0.74928  0.69283  1.0000
  H   H494      1.0  0.40076  0.70855  0.71974  1.0000
  H   H495      1.0  0.43781  0.89218  0.75582  1.0000
  C   C615      1.0  0.46892  0.68430  0.68388  1.0000
  C   C616      1.0  0.40308  0.94184  0.48470  1.0000
  H   H496      1.0  0.30818  0.71542  0.80838  1.0000
  H   H497      1.0  0.32131  0.73959  0.76397  1.0000
  H   H498      1.0  0.33574  0.72148  0.72583  1.0000
  C   C617      1.0  0.38870  0.95543  0.49068  1.0000
  P   P17       1.0  0.34070  0.67221  0.72003  1.0000
  H   H499      1.0  0.40015  0.89599  0.57927  1.0000
  C   C618      1.0  0.45827  0.97206  0.57656  1.0000
  H   H500      1.0  0.37827  0.68368  0.76608  1.0000
  H   H501      1.0  0.45106  0.65555  0.75752  1.0000
  C   C619      1.0  0.21552  0.72283  0.87094  1.0000
  H   H502      1.0  0.31308  0.69706  0.87887  1.0000
  C   C620      1.0  0.31456  0.68275  0.79494  1.0000
  C   C621      1.0  0.41527  0.68127  0.84539  1.0000
  C   C622      1.0  0.41532  0.93485  0.55925  1.0000
  C   C623      1.0  0.34631  0.79755  0.78096  1.0000
  C   C624      1.0  0.41743  0.74930  0.91241  1.0000
  H   H503      1.0  0.37936  0.71447  0.96772  1.0000
  H   H504      1.0  0.31029  0.86575  0.90292  1.0000
  C   C625      1.0  0.30754  0.84771  0.89232  1.0000
  C   C626      1.0  0.47446  0.98261  0.88496  1.0000
  H   H505      1.0  0.18451  0.68503  0.85334  1.0000
  C   C627      1.0  0.38703  0.75180  0.79733  1.0000
  C   C628      1.0  0.16197  0.65715  0.53355  1.0000
  H   H506      1.0  0.35533  0.72841  0.90430  1.0000
  C   C629      1.0  0.44793  0.91361  0.76136  1.0000
  C   C630      1.0  0.31498  0.75724  0.86561  1.0000
  H   H507      1.0  0.13900  0.66227  0.50119  1.0000
  H   H508      1.0  0.23872  0.69358  0.52378  1.0000
  C   C631      1.0  0.43461  0.92858  0.75779  1.0000
  H   H509      1.0  0.39534  0.67953  0.84331  1.0000
  S   S83       1.0  0.20635  0.65762  0.90313  1.0000
  C   C632      1.0  0.30852  0.77937  0.81334  1.0000
  C   C633      1.0  0.36794  0.66946  0.61817  1.0000
  C   C634      1.0  0.41959  0.90436  0.88680  1.0000
  C   C635      1.0  0.39255  0.89236  0.87763  1.0000
  C   C636      1.0  0.38712  0.89476  0.85025  1.0000
  C   C637      1.0  0.40876  0.90938  0.83205  1.0000
  H   H510      1.0  0.43493  0.97564  0.54322  1.0000
  H   H511      1.0  0.40257  0.65779  0.66822  1.0000
  H   H512      1.0  0.35084  0.79333  0.82384  1.0000
  C   C638      1.0  0.43774  0.92708  0.59750  1.0000
  C   C639      1.0  0.41370  0.73932  0.83843  1.0000
  H   H513      1.0  0.26940  0.77018  0.79615  1.0000
  C   C640      1.0  0.30230  0.68564  0.51113  1.0000
  S   S84       1.0  0.39331  0.91073  0.95073  1.0000
  C   C641      1.0  0.32057  0.71882  0.87880  1.0000
  C   C642      1.0  0.38528  0.75824  0.82450  1.0000
  C   C643      1.0  0.29080  0.77721  0.79209  1.0000
  H   H514      1.0  0.28369  0.73417  0.51468  1.0000
  P   P18       1.0  0.43329  0.73405  0.86444  1.0000
  H   H515      1.0  0.43828  0.91345  0.61274  1.0000
  C   C644      1.0  0.38956  0.71807  0.94810  1.0000
  H   H516      1.0  0.36678  0.68612  0.60854  1.0000
  C   C645      1.0  0.43605  0.96224  0.55838  1.0000
  H   H517      1.0  0.42317  0.90183  0.90803  1.0000
  H   H518      1.0  0.37588  0.88119  0.89194  1.0000
  H   H519      1.0  0.36615  0.88518  0.84317  1.0000
  H   H520      1.0  0.40457  0.91099  0.81077  1.0000
  C   C646      1.0  0.41613  0.72759  0.89725  1.0000
  H   H521      1.0  0.45240  0.93284  0.82695  1.0000
  C   C647      1.0  0.45459  0.69528  0.75227  1.0000
  H   H522      1.0  0.40031  0.68382  0.89722  1.0000
  C   C648      1.0  0.42727  0.96676  0.94865  1.0000
  H   H523      1.0  0.36254  0.74057  0.64676  1.0000
  H   H524      1.0  0.37706  0.67578  0.94154  1.0000
  C   C649      1.0  0.30045  0.80184  0.89380  1.0000
  H   H525      1.0  0.28698  0.78302  0.74911  1.0000
  H   H526      1.0  0.36791  0.80590  0.77667  1.0000
  C   C650      1.0  0.38631  0.67489  0.63959  1.0000
  C   C651      1.0  0.40192  0.73896  0.79061  1.0000
  P   P19       1.0  0.29598  0.77056  0.84797  1.0000
  C   C652      1.0  0.34429  0.73643  0.89321  1.0000
  C   C653      1.0  0.26009  0.74448  0.84868  1.0000
  H   H527      1.0  0.43150  0.96313  0.92802  1.0000
  C   C654      1.0  0.32847  0.79480  0.75984  1.0000
  Fe  Fe42      1.0  0.37736  0.86741  0.96798  1.0000
  C   C655      1.0  0.33931  0.77488  0.87950  1.0000
  S   S85       1.0  0.45800  0.74545  0.74411  1.0000
  H   H528      1.0  0.39930  0.69569  0.64657  1.0000
  C   C656      1.0  0.30065  0.80091  0.86517  1.0000
  C   C657      1.0  0.47168  0.91600  0.96152  1.0000
  H   H529      1.0  0.15275  0.66317  0.54950  1.0000
  C   C658      1.0  0.44776  0.95620  0.76499  1.0000
  C   C659      1.0  0.44384  0.66071  0.84160  1.0000
  H   H530      1.0  0.33270  0.65208  0.66374  1.0000
  C   C660      1.0  0.45546  0.92228  0.68413  1.0000
  C   C661      1.0  0.47404  0.91348  0.54279  1.0000
  C   C662      1.0  0.47581  0.94579  0.67128  1.0000
  C   C663      1.0  0.46844  0.72316  0.75952  1.0000
  C   C664      1.0  0.47454  0.92637  0.77175  1.0000
  C   C665      1.0  0.41830  0.65883  0.83897  1.0000
  H   H531      1.0  0.36715  0.94368  0.49578  1.0000
  H   H532      1.0  0.26258  0.65077  0.57145  1.0000
  C   C666      1.0  0.47267  0.89551  0.66212  1.0000
  C   C667      1.0  0.47231  0.92844  0.93665  1.0000
  C   C668      1.0  0.47133  0.70994  0.68753  1.0000
  S   S86       1.0  0.42380  0.86492  0.48258  1.0000
  H   H533      1.0  0.46321  0.87708  0.60128  1.0000
  C   C669      1.0  0.47406  0.96887  0.77662  1.0000
  C   C670      1.0  0.47582  0.89365  0.96211  1.0000
  C   C671      1.0  0.38927  0.65254  0.76570  1.0000
  H   H534      1.0  0.46376  0.91277  0.52384  1.0000
  H   H535      1.0  0.47066  0.87569  0.65845  1.0000
  H   H536      1.0  0.32219  0.65296  0.77606  1.0000
  C   C672      1.0  0.47392  0.89333  0.58652  1.0000
  H   H537      1.0  0.46708  0.92316  0.98024  1.0000
  H   H538      1.0  0.51757  0.25179  0.08619  1.0000
  S   S87       1.0  0.77526  0.27529  0.15162  1.0000
  Fe  Fe43      1.0  0.60106  0.07500  0.22282  1.0000
  S   S88       1.0  0.56123  0.07467  0.22234  1.0000
  S   S89       1.0  0.60371  0.03591  0.22768  1.0000
  Fe  Fe44      1.0  0.63544  0.13867  0.21792  1.0000
  S   S90       1.0  0.59692  0.14139  0.21749  1.0000
  S   S91       1.0  0.67697  0.17928  0.22162  1.0000
  Fe  Fe45      1.0  0.58113  0.11021  0.25136  1.0000
  S   S92       1.0  0.55457  0.11355  0.28492  1.0000
  Fe  Fe46      1.0  0.58029  0.10572  0.18864  1.0000
  S   S93       1.0  0.55151  0.10276  0.15468  1.0000
  S   S94       1.0  0.62041  0.10924  0.25392  1.0000
  S   S95       1.0  0.61944  0.10424  0.18696  1.0000
  H   H539      1.0  0.49073  0.19518  0.34841  1.0000
  C   C673      1.0  0.58654  0.23515  0.28614  1.0000
  Fe  Fe47      1.0  0.53671  0.10863  0.44789  1.0000
  S   S96       1.0  0.56300  0.10493  0.41432  1.0000
  Fe  Fe48      1.0  0.53885  0.10728  0.99767  1.0000
  S   S97       1.0  0.57170  0.10918  0.02625  1.0000
  C   C674      1.0  0.48843  0.99183  0.01580  1.0000
  C   C675      1.0  0.51925  0.25238  0.02175  1.0000
  C   C676      1.0  0.81019  0.30121  0.24984  1.0000
  H   H540      1.0  0.90098  0.29591  0.16635  1.0000
  C   C677      1.0  0.55720  0.10188  0.11922  1.0000
  C   C678      1.0  0.58224  0.10666  0.10849  1.0000
  C   C679      1.0  0.58609  0.10758  0.07991  1.0000
  C   C680      1.0  0.56516  0.10425  0.06194  1.0000
  C   C681      1.0  0.53982  0.09813  0.07286  1.0000
  C   C682      1.0  0.53587  0.09689  0.10125  1.0000
  H   H541      1.0  0.59875  0.11019  0.12215  1.0000
  H   H542      1.0  0.60568  0.11189  0.07173  1.0000
  H   H543      1.0  0.52320  0.09450  0.05957  1.0000
  H   H544      1.0  0.51617  0.09220  0.10936  1.0000
  C   C683      1.0  0.55673  0.10993  0.32077  1.0000
  C   C684      1.0  0.57775  0.10712  0.33256  1.0000
  C   C685      1.0  0.57921  0.10537  0.36120  1.0000
  C   C686      1.0  0.55969  0.10638  0.37837  1.0000
  C   C687      1.0  0.53841  0.10871  0.36656  1.0000
  C   C688      1.0  0.53696  0.11047  0.33794  1.0000
  H   H545      1.0  0.59309  0.10666  0.31963  1.0000
  H   H546      1.0  0.59575  0.10354  0.37014  1.0000
  H   H547      1.0  0.52321  0.10930  0.37954  1.0000
  H   H548      1.0  0.52043  0.11232  0.32904  1.0000
  C   C689      1.0  0.74782  0.24911  0.17150  1.0000
  C   C690      1.0  0.74623  0.25065  0.19993  1.0000
  C   C691      1.0  0.72436  0.22932  0.21468  1.0000
  C   C692      1.0  0.70353  0.20601  0.20139  1.0000
  C   C693      1.0  0.70497  0.20457  0.17289  1.0000
  C   C694      1.0  0.72694  0.22588  0.15815  1.0000
  H   H549      1.0  0.76188  0.26824  0.21059  1.0000
  H   H550      1.0  0.72369  0.23074  0.23667  1.0000
  H   H551      1.0  0.68936  0.18684  0.16224  1.0000
  H   H552      1.0  0.72787  0.22423  0.13621  1.0000
  C   C695      1.0  0.50375  0.00800  0.03804  1.0000
  C   C696      1.0  0.58427  0.99938  0.23077  1.0000
  H   H553      1.0  0.60070  0.16903  0.00831  1.0000
  H   H554      1.0  0.60355  0.17856  0.43680  1.0000
  H   H555      1.0  0.62110  0.99785  0.23765  1.0000
  C   C697      1.0  0.58290  0.19285  0.02197  1.0000
  H   H556      1.0  0.72288  0.17551  0.24640  1.0000
  C   C698      1.0  0.49109  0.14536  0.06170  1.0000
  H   H557      1.0  0.50998  0.01730  0.36611  1.0000
  H   H558      1.0  0.59954  0.22046  0.25178  1.0000
  C   C699      1.0  0.56014  0.01283  0.10976  1.0000
  C   C700      1.0  0.66990  0.29829  0.01250  1.0000
  Fe  Fe49      1.0  0.50872  0.13865  0.98458  1.0000
  C   C701      1.0  0.65995  0.29038  0.27751  1.0000
  H   H559      1.0  0.57869  0.03447  0.14713  1.0000
  Fe  Fe50      1.0  0.47877  0.07404  0.98284  1.0000
  C   C702      1.0  0.49850  0.14310  0.37341  1.0000
  C   C703      1.0  0.61653  0.05061  0.29940  1.0000
  C   C704      1.0  0.56184  0.02808  0.13288  1.0000
  C   C705      1.0  0.83741  0.25476  0.19357  1.0000
  C   C706      1.0  0.52789  0.02381  0.29876  1.0000
  H   H560      1.0  0.50892  0.29239  0.99216  1.0000
  C   C707      1.0  0.58842  0.21521  0.27097  1.0000
  P   P20       1.0  0.48993  0.00066  0.07233  1.0000
  C   C708      1.0  0.61311  0.00630  0.30171  1.0000
  C   C709      1.0  0.59142  0.04018  0.31293  1.0000
  C   C710      1.0  0.75592  0.17096  0.19031  1.0000
  C   C711      1.0  0.76566  0.20243  0.23744  1.0000
  H   H561      1.0  0.88694  0.20274  0.27973  1.0000
  H   H562      1.0  0.64613  0.04153  0.28205  1.0000
  H   H563      1.0  0.82216  0.26857  0.13022  1.0000
  C   C712      1.0  0.59905  0.98599  0.23580  1.0000
  H   H564      1.0  0.51398  0.27222  0.38596  1.0000
  H   H565      1.0  0.51270  0.13492  0.13380  1.0000
  C   C713      1.0  0.50158  0.04593  0.30871  1.0000
  C   C714      1.0  0.53839  0.00467  0.09143  1.0000
  H   H566      1.0  0.73918  0.28793  0.23940  1.0000
  C   C715      1.0  0.66214  0.30987  0.32213  1.0000
  H   H567      1.0  0.60288  0.31367  0.42083  1.0000
  C   C716      1.0  0.52659  0.01647  0.32637  1.0000
  H   H568      1.0  0.55973  0.05559  0.00304  1.0000
  C   C717      1.0  0.83449  0.26858  0.14721  1.0000
  P   P21       1.0  0.82083  0.23805  0.22521  1.0000
  H   H569      1.0  0.50468  0.16315  0.30679  1.0000
  C   C718      1.0  0.78712  0.20915  0.21887  1.0000
  H   H570      1.0  0.57960  0.02146  0.44837  1.0000
  C   C719      1.0  0.66430  0.31012  0.03500  1.0000
  H   H571      1.0  0.69413  0.23154  0.09910  1.0000
  C   C720      1.0  0.81413  0.27951  0.29080  1.0000
  C   C721      1.0  0.54565  0.26155  0.38374  1.0000
  H   H572      1.0  0.66073  0.30074  0.05503  1.0000
  H   H573      1.0  0.57170  0.19551  0.44831  1.0000
  H   H574      1.0  0.49305  0.05839  0.30204  1.0000
  S   S98       1.0  0.49642  0.10777  0.44613  1.0000
  H   H575      1.0  0.81430  0.27831  0.31289  1.0000
  H   H576      1.0  0.59616  0.25596  0.27867  1.0000
  C   C722      1.0  0.53270  0.21774  0.36277  1.0000
  C   C723      1.0  0.73460  0.16472  0.20868  1.0000
  H   H577      1.0  0.75197  0.15894  0.17189  1.0000
  H   H578      1.0  0.60448  0.28540  0.07906  1.0000
  H   H579      1.0  0.89832  0.25106  0.28311  1.0000
  H   H580      1.0  0.80874  0.31464  0.29069  1.0000
  C   C724      1.0  0.58013  0.17951  0.37302  1.0000
  C   C725      1.0  0.82173  0.25453  0.17121  1.0000
  C   C726      1.0  0.62721  0.03362  0.29351  1.0000
  C   C727      1.0  0.56126  0.03091  0.38490  1.0000
  C   C728      1.0  0.58457  0.26870  0.08489  1.0000
  H   H581      1.0  0.50814  0.14957  0.39324  1.0000
  C   C729      1.0  0.50679  0.13839  0.11385  1.0000
  C   C730      1.0  0.52498  0.02089  0.98476  1.0000
  C   C731      1.0  0.55908  0.19462  0.40671  1.0000
  H   H582      1.0  0.66120  0.30777  0.34418  1.0000
  P   P22       1.0  0.67071  0.26692  0.01682  1.0000
  H   H583      1.0  0.53905  0.01873  0.28404  1.0000
  C   C732      1.0  0.59243  0.18206  0.42076  1.0000
  C   C733      1.0  0.56136  0.27129  0.08159  1.0000
  C   C734      1.0  0.52684  0.23364  0.01151  1.0000
  C   C735      1.0  0.54794  0.16853  0.19626  1.0000
  H   H584      1.0  0.74810  0.30715  0.19249  1.0000
  H   H585      1.0  0.48908  0.04413  0.35061  1.0000
  H   H586      1.0  0.54430  0.20063  0.41254  1.0000
  H   H587      1.0  0.55209  0.16053  0.31231  1.0000
  C   C736      1.0  0.55242  0.24202  0.37538  1.0000
  H   H588      1.0  0.53506  0.21968  0.15523  1.0000
  H   H589      1.0  0.87297  0.29483  0.12711  1.0000
  C   C737      1.0  0.69036  0.26988  0.04714  1.0000
  C   C738      1.0  0.61440  0.24116  0.02853  1.0000
  C   C739      1.0  0.56209  0.18907  0.37932  1.0000
  C   C740      1.0  0.57224  0.22827  0.31097  1.0000
  H   H590      1.0  0.56123  0.04695  0.37281  1.0000
  C   C741      1.0  0.53302  0.22576  0.09982  1.0000
  C   C742      1.0  0.53886  0.20540  0.16633  1.0000
  C   C743      1.0  0.88067  0.23662  0.27137  1.0000
  H   H591      1.0  0.54776  0.24111  0.00516  1.0000
  C   C744      1.0  0.57596  0.18838  0.28057  1.0000
  S   S99       1.0  0.50173  0.10605  0.01526  1.0000
  Fe  Fe51      1.0  0.49935  0.31229  0.05134  1.0000
  P   P23       1.0  0.54421  0.99900  0.33774  1.0000
  H   H592      1.0  0.65727  0.27339  0.26499  1.0000
  C   C745      1.0  0.52020  0.02735  0.11924  1.0000
  H   H593      1.0  0.57751  0.17283  0.26900  1.0000
  C   C746      1.0  0.86613  0.26966  0.19161  1.0000
  C   C747      1.0  0.57667  0.01249  0.32038  1.0000
  C   C748      1.0  0.52251  0.16331  0.10010  1.0000
  C   C749      1.0  0.57448  0.19149  0.42723  1.0000
  P   P24       1.0  0.55234  0.19115  0.11607  1.0000
  C   C750      1.0  0.54743  0.18909  0.15274  1.0000
  C   C751      1.0  0.58252  0.18888  0.10878  1.0000
  C   C752      1.0  0.58333  0.17409  0.08618  1.0000
  C   C753      1.0  0.60690  0.17265  0.08068  1.0000
  C   C754      1.0  0.62938  0.18500  0.09823  1.0000
  C   C755      1.0  0.62873  0.19971  0.12085  1.0000
  C   C756      1.0  0.60549  0.20188  0.12598  1.0000
  H   H594      1.0  0.73470  0.27602  0.11071  1.0000
  H   H595      1.0  0.58349  0.05371  0.31724  1.0000
  C   C757      1.0  0.55208  0.17074  0.16800  1.0000
  C   C758      1.0  0.55621  0.22290  0.10316  1.0000
  H   H596      1.0  0.48514  0.14796  0.04137  1.0000
  C   C759      1.0  0.51001  0.15953  0.35016  1.0000
  C   C760      1.0  0.68346  0.24696  0.06360  1.0000
  S   S100      1.0  0.51852  0.18269  0.99606  1.0000
  C   C761      1.0  0.53494  0.20327  0.19468  1.0000
  H   H597      1.0  0.56572  0.16328  0.07297  1.0000
  H   H598      1.0  0.60736  0.16117  0.06318  1.0000
  H   H599      1.0  0.64709  0.18277  0.09449  1.0000
  H   H600      1.0  0.64603  0.20900  0.13469  1.0000
  H   H601      1.0  0.60525  0.21326  0.14366  1.0000
  H   H602      1.0  0.87887  0.27083  0.20858  1.0000
  H   H603      1.0  0.84681  0.16978  0.25254  1.0000
  H   H604      1.0  0.61743  0.26095  0.03407  1.0000
  H   H605      1.0  0.60023  0.24292  0.09776  1.0000
  H   H606      1.0  0.54376  0.99327  0.22430  1.0000
  H   H607      1.0  0.58207  0.17384  0.35241  1.0000
  C   C762      1.0  0.57015  0.03652  0.41200  1.0000
  C   C763      1.0  0.49953  0.03805  0.33607  1.0000
  C   C764      1.0  0.84143  0.22664  0.24289  1.0000
  C   C765      1.0  0.86438  0.24525  0.25809  1.0000
  H   H608      1.0  0.48384  0.04251  0.04199  1.0000
  H   H609      1.0  0.47922  0.22988  0.36303  1.0000
  C   C766      1.0  0.59518  0.17601  0.39369  1.0000
  C   C767      1.0  0.51801  0.01154  0.09621  1.0000
  C   C768      1.0  0.56154  0.18144  0.30526  1.0000
  C   C769      1.0  0.71570  0.27179  0.98753  1.0000
  C   C770      1.0  0.71332  0.29510  0.05405  1.0000
  H   H610      1.0  0.51281  0.20927  0.10524  1.0000
  H   H611      1.0  0.64781  0.20834  0.00662  1.0000
  C   C771      1.0  0.81699  0.26221  0.24615  1.0000
  C   C772      1.0  0.72220  0.27437  0.09313  1.0000
  H   H612      1.0  0.53114  0.23927  0.46664  1.0000
  C   C773      1.0  0.85168  0.19085  0.25413  1.0000
  C   C774      1.0  0.49908  0.99825  0.98930  1.0000
  H   H613      1.0  0.66604  0.22725  0.05872  1.0000
  C   C775      1.0  0.81700  0.26058  0.27481  1.0000
  H   H614      1.0  0.71407  0.14813  0.20446  1.0000
  H   H615      1.0  0.60823  0.16759  0.38886  1.0000
  C   C776      1.0  0.58805  0.99579  0.31535  1.0000
  H   H616      1.0  0.86975  0.26647  0.25960  1.0000
  C   C777      1.0  0.48314  0.11737  0.10178  1.0000
  H   H617      1.0  0.57113  0.24406  0.32234  1.0000
  C   C778      1.0  0.58206  0.24460  0.09562  1.0000
  H   H618      1.0  0.56069  0.27994  0.39401  1.0000
  C   C779      1.0  0.51930  0.25719  0.37925  1.0000
  C   C780      1.0  0.50633  0.21363  0.35812  1.0000
  C   C781      1.0  0.51491  0.16629  0.07353  1.0000
  H   H619      1.0  0.81213  0.28355  0.21183  1.0000
  H   H620      1.0  0.81901  0.24462  0.28484  1.0000
  H   H621      1.0  0.54107  0.04482  0.04967  1.0000
  H   H622      1.0  0.65438  0.26891  0.31546  1.0000
  C   C782      1.0  0.54006  0.03743  0.00664  1.0000
  C   C783      1.0  0.52940  0.03121  0.03313  1.0000
  C   C784      1.0  0.51557  0.03864  0.29006  1.0000
  C   C785      1.0  0.55945  0.20125  0.32068  1.0000
  C   C786      1.0  0.81316  0.28242  0.23383  1.0000
  P   P25       1.0  0.54127  0.19207  0.35300  1.0000
  C   C787      1.0  0.49658  0.15064  0.32492  1.0000
  C   C788      1.0  0.78216  0.19292  0.19548  1.0000
  H   H623      1.0  0.51765  0.04534  0.26899  1.0000
  C   C789      1.0  0.69932  0.24927  0.08653  1.0000
  C   C790      1.0  0.54192  0.03536  0.13755  1.0000
  H   H624      1.0  0.56222  0.17550  0.02250  1.0000
  C   C791      1.0  0.87883  0.28390  0.16764  1.0000
  C   C792      1.0  0.53562  0.24984  0.08906  1.0000
  H   H625      1.0  0.57290  0.24564  0.37910  1.0000
  H   H626      1.0  0.52707  0.18483  0.06191  1.0000
  H   H627      1.0  0.76873  0.21442  0.25566  1.0000
  H   H628      1.0  0.81804  0.18469  0.22895  1.0000
  C   C793      1.0  0.81088  0.29993  0.27831  1.0000
  C   C794      1.0  0.87430  0.20942  0.26944  1.0000
  C   C795      1.0  0.60462  0.18928  0.01380  1.0000
  C   C796      1.0  0.65834  0.28786  0.30595  1.0000
  H   H629      1.0  0.53433  0.27381  0.02334  1.0000
  H   H630      1.0  0.55854  0.15779  0.15800  1.0000
  C   C797      1.0  0.53941  0.18481  0.20963  1.0000
  C   C798      1.0  0.83536  0.19941  0.24080  1.0000
  C   C799      1.0  0.68743  0.26234  0.98734  1.0000
  H   H631      1.0  0.53742  0.99297  0.07353  1.0000
  H   H632      1.0  0.62743  0.07173  0.29284  1.0000
  C   C800      1.0  0.73959  0.18023  0.23238  1.0000
  C   C801      1.0  0.51178  0.02316  0.34485  1.0000
  H   H633      1.0  0.55107  0.15389  0.20770  1.0000
  H   H634      1.0  0.79959  0.24406  0.17243  1.0000
  C   C802      1.0  0.63635  0.23789  0.01979  1.0000
  C   C803      1.0  0.49219  0.24333  0.02996  1.0000
  C   C804      1.0  0.67464  0.31104  0.98680  1.0000
  C   C805      1.0  0.49971  0.23331  0.36635  1.0000
  H   H635      1.0  0.79846  0.19740  0.18106  1.0000
  H   H636      1.0  0.52817  0.21580  0.20500  1.0000
  H   H637      1.0  0.53608  0.18291  0.23152  1.0000
  C   C806      1.0  0.66515  0.31483  0.26524  1.0000
  H   H638      1.0  0.57616  0.05645  0.42059  1.0000
  Fe  Fe52      1.0  0.51347  0.14062  0.47914  1.0000
  C   C807      1.0  0.63126  0.21163  0.01288  1.0000
  C   C808      1.0  0.50765  0.20547  0.00929  1.0000
  H   H639      1.0  0.57076  0.22129  0.03569  1.0000
  H   H640      1.0  0.50556  0.03397  0.12309  1.0000
  H   H641      1.0  0.54353  0.04761  0.15524  1.0000
  C   C809      1.0  0.86303  0.28334  0.14545  1.0000
  C   C810      1.0  0.58780  0.21871  0.02953  1.0000
  H   H642      1.0  0.72801  0.28142  0.00544  1.0000
  H   H643      1.0  0.56315  0.28986  0.07315  1.0000
  H   H644      1.0  0.54922  0.02941  0.47833  1.0000
  C   C811      1.0  0.72918  0.29728  0.07691  1.0000
  H   H645      1.0  0.57576  0.00741  0.10604  1.0000
  S   S101      1.0  0.48099  0.26594  0.04297  1.0000
  C   C812      1.0  0.48069  0.19643  0.01770  1.0000
  H   H646      1.0  0.71934  0.31303  0.04154  1.0000
  H   H647      1.0  0.57359  0.31183  0.34929  1.0000
  C   C813      1.0  0.74388  0.30879  0.23611  1.0000
  C   C814      1.0  0.57195  0.01681  0.42764  1.0000
  H   H648      1.0  0.62129  0.99308  0.29686  1.0000
  C   C815      1.0  0.55309  0.00515  0.37350  1.0000
  S   S102      1.0  0.51653  0.18297  0.47439  1.0000
  C   C816      1.0  0.55560  0.98571  0.38915  1.0000
  H   H649      1.0  0.74714  0.31668  0.08194  1.0000
  C   C817      1.0  0.56471  0.99143  0.41621  1.0000
  S   S103      1.0  0.52300  0.07652  0.48053  1.0000
  H   H650      1.0  0.50723  0.98512  0.43000  1.0000
  Fe  Fe53      1.0  0.48377  0.07701  0.48069  1.0000
  S   S104      1.0  0.55451  0.14280  0.47860  1.0000
  H   H651      1.0  0.80729  0.31671  0.24003  1.0000
  H   H652      1.0  0.74119  0.31648  0.27876  1.0000
  H   H653      1.0  0.61669  0.31624  0.33212  1.0000
  H   H654      1.0  0.66642  0.31673  0.24320  1.0000
  C   C818      1.0  0.55475  0.27038  0.60146  1.0000
  S   S105      1.0  0.78109  0.27566  0.67550  1.0000
  Fe  Fe54      1.0  0.59357  0.06111  0.71556  1.0000
  S   S106      1.0  0.56814  0.07744  0.73405  1.0000
  S   S107      1.0  0.56583  0.01472  0.70741  1.0000
  Fe  Fe55      1.0  0.64321  0.12175  0.70681  1.0000
  S   S108      1.0  0.61935  0.13988  0.72526  1.0000
  S   S109      1.0  0.68549  0.14857  0.68573  1.0000
  Fe  Fe56      1.0  0.60577  0.10663  0.75729  1.0000
  S   S110      1.0  0.60874  0.11186  0.80382  1.0000
  Fe  Fe57      1.0  0.58406  0.10844  0.70009  1.0000
  S   S111      1.0  0.55445  0.11521  0.67405  1.0000
  S   S112      1.0  0.63132  0.08952  0.74006  1.0000
  S   S113      1.0  0.60800  0.09129  0.68052  1.0000
  H   H655      1.0  0.47854  0.06520  0.84956  1.0000
  P   P26       1.0  0.49094  0.00479  0.78505  1.0000
  Fe  Fe58      1.0  0.51998  0.10716  0.93841  1.0000
  S   S114      1.0  0.52130  0.10481  0.89164  1.0000
  Fe  Fe59      1.0  0.53736  0.11056  0.51109  1.0000
  S   S115      1.0  0.56661  0.11395  0.54471  1.0000
  S   S116      1.0  0.49721  0.10976  0.51358  1.0000
  H   H656      1.0  0.52380  0.98927  0.58485  1.0000
  C   C819      1.0  0.53699  0.02482  0.49668  1.0000
  H   H657      1.0  0.65325  0.25183  0.63056  1.0000
  C   C820      1.0  0.55741  0.11443  0.63803  1.0000
  C   C821      1.0  0.53577  0.11106  0.62112  1.0000
  C   C822      1.0  0.53784  0.11031  0.59242  1.0000
  C   C823      1.0  0.56174  0.11322  0.58051  1.0000
  C   C824      1.0  0.58311  0.11626  0.59747  1.0000
  C   C825      1.0  0.58106  0.11703  0.62600  1.0000
  H   H658      1.0  0.51732  0.10891  0.63025  1.0000
  H   H659      1.0  0.52105  0.10758  0.57958  1.0000
  H   H660      1.0  0.60152  0.11823  0.58847  1.0000
  H   H661      1.0  0.59807  0.12018  0.63862  1.0000
  C   C826      1.0  0.58364  0.10872  0.82787  1.0000
  C   C827      1.0  0.58908  0.10897  0.85599  1.0000
  C   C828      1.0  0.57025  0.10761  0.87586  1.0000
  C   C829      1.0  0.54583  0.10626  0.86777  1.0000
  C   C830      1.0  0.54039  0.10595  0.83965  1.0000
  C   C831      1.0  0.55903  0.10692  0.81981  1.0000
  H   H662      1.0  0.60810  0.11042  0.86244  1.0000
  H   H663      1.0  0.57476  0.10790  0.89736  1.0000
  H   H664      1.0  0.52177  0.10530  0.83313  1.0000
  H   H665      1.0  0.55464  0.10688  0.79829  1.0000
  C   C832      1.0  0.75447  0.24018  0.67789  1.0000
  C   C833      1.0  0.73312  0.23220  0.69718  1.0000
  C   C834      1.0  0.71197  0.20455  0.69991  1.0000
  C   C835      1.0  0.71153  0.18417  0.68321  1.0000
  C   C836      1.0  0.73271  0.19219  0.66379  1.0000
  C   C837      1.0  0.75394  0.21979  0.66118  1.0000
  H   H666      1.0  0.73310  0.24743  0.71042  1.0000
  H   H667      1.0  0.69618  0.19893  0.71519  1.0000
  H   H668      1.0  0.73285  0.17685  0.65072  1.0000
  H   H669      1.0  0.77002  0.22524  0.64627  1.0000
  C   C838      1.0  0.51405  0.28061  0.62141  1.0000
  H   H670      1.0  0.49539  0.07893  0.72660  1.0000
  C   C839      1.0  0.49226  0.04631  0.75204  1.0000
  C   C840      1.0  0.53061  0.30848  0.91613  1.0000
  H   H671      1.0  0.56166  0.00305  0.61780  1.0000
  H   H672      1.0  0.72410  0.28709  0.71614  1.0000
  H   H673      1.0  0.56446  0.06343  0.51580  1.0000
  C   C841      1.0  0.64610  0.28008  0.65351  1.0000
  S   S117      1.0  0.48171  0.10646  0.95355  1.0000
  C   C842      1.0  0.54556  0.04403  0.51772  1.0000
  H   H674      1.0  0.54005  0.21101  0.94425  1.0000
  C   C843      1.0  0.63637  0.26801  0.89529  1.0000
  C   C844      1.0  0.55771  0.25396  0.93575  1.0000
  H   H675      1.0  0.62744  0.00106  0.63392  1.0000
  C   C845      1.0  0.51749  0.25219  0.50201  1.0000
  C   C846      1.0  0.58087  0.23436  0.96044  1.0000
  H   H676      1.0  0.60581  0.18213  0.61130  1.0000
  C   C847      1.0  0.50094  0.04988  0.70326  1.0000
  H   H677      1.0  0.65323  0.09293  0.58524  1.0000
  H   H678      1.0  0.91866  0.31090  0.57282  1.0000
  C   C848      1.0  0.55845  0.03353  0.83471  1.0000
  C   C849      1.0  0.50409  0.24463  0.52735  1.0000
  C   C850      1.0  0.53141  0.02217  0.82561  1.0000
  S   S118      1.0  0.51583  0.07394  0.96675  1.0000
  C   C851      1.0  0.62245  0.25810  0.61168  1.0000
  C   C852      1.0  0.55171  0.18193  0.58952  1.0000
  C   C853      1.0  0.54839  0.30649  0.93488  1.0000
  H   H679      1.0  0.50450  0.06103  0.68426  1.0000
  H   H680      1.0  0.51565  0.01847  0.84035  1.0000
  C   C854      1.0  0.49882  0.19891  0.52123  1.0000
  H   H681      1.0  0.65057  0.24285  0.96265  1.0000
  H   H682      1.0  0.59459  0.17693  0.52813  1.0000
  C   C855      1.0  0.52727  0.00429  0.60028  1.0000
  C   C856      1.0  0.56665  0.22911  0.57750  1.0000
  H   H683      1.0  0.74341  0.28355  0.63260  1.0000
  H   H684      1.0  0.54220  0.01675  0.75799  1.0000
  H   H685      1.0  0.53954  0.25112  0.92527  1.0000
  C   C857      1.0  0.51197  0.02525  0.90199  1.0000
  H   H686      1.0  0.58059  0.21654  0.96903  1.0000
  C   C858      1.0  0.58025  0.28518  0.84443  1.0000
  H   H687      1.0  0.58051  0.17698  0.65381  1.0000
  H   H688      1.0  0.63771  0.29546  0.56672  1.0000
  C   C859      1.0  0.56233  0.22168  0.54982  1.0000
  H   H689      1.0  0.62131  0.30327  0.95610  1.0000
  H   H690      1.0  0.57783  0.26732  0.83376  1.0000
  H   H691      1.0  0.66107  0.28332  0.66909  1.0000
  C   C860      1.0  0.58343  0.30770  0.82957  1.0000
  C   C861      1.0  0.52916  0.03891  0.54084  1.0000
  C   C862      1.0  0.53818  0.04476  0.63884  1.0000
  C   C863      1.0  0.50432  0.01423  0.54344  1.0000
  H   H692      1.0  0.50544  0.98536  0.48269  1.0000
  C   C864      1.0  0.55795  0.23118  0.94637  1.0000
  H   H693      1.0  0.76179  0.23270  0.58243  1.0000
  H   H694      1.0  0.54090  0.15393  0.55577  1.0000
  H   H695      1.0  0.55814  0.28343  0.54545  1.0000
  H   H696      1.0  0.76990  0.29326  0.72627  1.0000
  C   C865      1.0  0.49388  0.02233  0.75310  1.0000
  H   H697      1.0  0.59469  0.99367  0.67126  1.0000
  H   H698      1.0  0.56337  0.03919  0.85595  1.0000
  H   H699      1.0  0.75037  0.27611  0.96468  1.0000
  C   C866      1.0  0.51083  0.01641  0.60103  1.0000
  C   C867      1.0  0.62461  0.29950  0.55378  1.0000
  H   H700      1.0  0.53613  0.31320  0.89486  1.0000
  C   C868      1.0  0.55398  0.03210  0.63829  1.0000
  C   C869      1.0  0.65906  0.29415  0.89175  1.0000
  H   H701      1.0  0.56591  0.23657  0.53410  1.0000
  C   C870      1.0  0.67234  0.25016  0.96348  1.0000
  H   H702      1.0  0.69401  0.25043  0.62863  1.0000
  C   C871      1.0  0.75556  0.26048  0.60724  1.0000
  H   H703      1.0  0.47790  0.29592  0.95900  1.0000
  Fe  Fe60      1.0  0.82105  0.31351  0.65883  1.0000
  H   H704      1.0  0.53594  0.05429  0.55675  1.0000
  C   C872      1.0  0.51740  0.98557  0.89749  1.0000
  C   C873      1.0  0.50812  0.25378  0.61706  1.0000
  C   C874      1.0  0.52528  0.01682  0.79768  1.0000
  H   H705      1.0  0.67773  0.24965  0.57388  1.0000
  H   H706      1.0  0.52302  0.22772  0.60328  1.0000
  H   H707      1.0  0.61448  0.22528  0.51360  1.0000
  C   C875      1.0  0.50241  0.02598  0.70407  1.0000
  H   H708      1.0  0.65618  0.26151  0.53656  1.0000
  H   H709      1.0  0.52013  0.04653  0.90759  1.0000
  C   C876      1.0  0.49604  0.99480  0.52241  1.0000
  H   H710      1.0  0.54289  0.06080  0.65359  1.0000
  H   H711      1.0  0.57059  0.03812  0.65272  1.0000
  C   C877      1.0  0.48356  0.03868  0.82140  1.0000
  C   C878      1.0  0.60358  0.28329  0.95311  1.0000
  C   C879      1.0  0.51687  0.03726  0.62009  1.0000
  H   H712      1.0  0.62118  0.26287  0.97509  1.0000
  C   C880      1.0  0.55310  0.19463  0.54213  1.0000
  C   C881      1.0  0.52812  0.01306  0.90448  1.0000
  C   C882      1.0  0.54876  0.01213  0.61877  1.0000
  H   H713      1.0  0.60405  0.18651  0.69844  1.0000
  S   S119      1.0  0.49775  0.26737  0.54783  1.0000
  H   H714      1.0  0.60047  0.04847  0.82303  1.0000
  H   H715      1.0  0.58942  0.03615  0.77423  1.0000
  C   C883      1.0  0.56038  0.29732  0.60550  1.0000
  H   H716      1.0  0.50393  0.05443  0.81539  1.0000
  H   H717      1.0  0.54984  0.18896  0.52076  1.0000
  H   H718      1.0  0.71263  0.19903  0.57849  1.0000
  C   C884      1.0  0.65802  0.24897  0.86735  1.0000
  C   C885      1.0  0.68067  0.27509  0.86356  1.0000
  C   C886      1.0  0.57321  0.03205  0.78867  1.0000
  C   C887      1.0  0.51501  0.29684  0.97093  1.0000
  C   C888      1.0  0.73638  0.26534  0.62023  1.0000
  C   C889      1.0  0.49746  0.29879  0.95218  1.0000
  C   C890      1.0  0.54021  0.30237  0.61574  1.0000
  C   C891      1.0  0.59638  0.28703  0.55899  1.0000
  H   H719      1.0  0.65767  0.23138  0.85806  1.0000
  H   H720      1.0  0.69773  0.27697  0.85178  1.0000
  C   C892      1.0  0.58068  0.28013  0.93869  1.0000
  C   C893      1.0  0.51178  0.20629  0.49568  1.0000
  C   C894      1.0  0.54631  0.02115  0.77947  1.0000
  P   P27       1.0  0.58107  0.26437  0.58779  1.0000
  C   C895      1.0  0.57997  0.29275  0.54179  1.0000
  H   H721      1.0  0.56382  0.21413  0.61884  1.0000
  C   C896      1.0  0.61134  0.28894  0.63532  1.0000
  C   C897      1.0  0.56091  0.20893  0.59733  1.0000
  C   C898      1.0  0.57938  0.03871  0.81620  1.0000
  H   H722      1.0  0.57650  0.26752  0.88394  1.0000
  H   H723      1.0  0.61905  0.26513  0.90736  1.0000
  C   C899      1.0  0.57942  0.28537  0.87301  1.0000
  C   C900      1.0  0.64181  0.26243  0.63175  1.0000
  C   C901      1.0  0.48507  0.00991  0.89265  1.0000
  H   H724      1.0  0.67907  0.30257  0.96903  1.0000
  H   H725      1.0  0.61949  0.24435  0.59496  1.0000
  H   H726      1.0  0.65358  0.20145  0.70044  1.0000
  H   H727      1.0  0.50728  0.01855  0.68576  1.0000
  C   C902      1.0  0.68526  0.24719  0.94040  1.0000
  C   C903      1.0  0.71334  0.25651  0.94083  1.0000
  H   H728      1.0  0.59975  0.29933  0.63734  1.0000
  H   H729      1.0  0.49819  0.28458  0.62854  1.0000
  C   C904      1.0  0.72855  0.26887  0.96435  1.0000
  C   C905      1.0  0.60362  0.26041  0.96391  1.0000
  C   C906      1.0  0.63578  0.24546  0.88301  1.0000
  C   C907      1.0  0.58195  0.30825  0.88693  1.0000
  H   H730      1.0  0.61527  0.16491  0.56572  1.0000
  C   C908      1.0  0.49582  0.05999  0.72721  1.0000
  C   C909      1.0  0.54789  0.17481  0.56191  1.0000
  C   C910      1.0  0.60668  0.27096  0.61354  1.0000
  H   H731      1.0  0.52458  0.27255  0.49425  1.0000
  H   H732      1.0  0.49141  0.17845  0.52889  1.0000
  H   H733      1.0  0.50095  0.99427  0.72900  1.0000
  C   C911      1.0  0.73994  0.30630  0.72447  1.0000
  H   H734      1.0  0.54887  0.02488  0.91214  1.0000
  H   H735      1.0  0.54757  0.16650  0.60485  1.0000
  C   C912      1.0  0.52836  0.24862  0.60714  1.0000
  Fe  Fe61      1.0  0.51108  0.31343  0.54842  1.0000
  C   C913      1.0  0.49500  0.21787  0.53682  1.0000
  H   H736      1.0  0.67343  0.23740  0.92223  1.0000
  H   H737      1.0  0.72332  0.25405  0.92299  1.0000
  H   H738      1.0  0.65932  0.31138  0.90170  1.0000
  H   H739      1.0  0.59956  0.99388  0.73240  1.0000
  H   H740      1.0  0.61812  0.22520  0.88569  1.0000
  P   P28       1.0  0.58021  0.30905  0.92380  1.0000
  C   C914      1.0  0.49885  0.01225  0.72879  1.0000
  H   H741      1.0  0.50595  0.04842  0.62015  1.0000
  S   S120      1.0  0.54705  0.14075  0.96760  1.0000
  C   C915      1.0  0.65699  0.12866  0.56533  1.0000
  C   C916      1.0  0.65501  0.11274  0.58801  1.0000
  C   C917      1.0  0.65561  0.12253  0.61434  1.0000
  C   C918      1.0  0.65779  0.14802  0.61803  1.0000
  C   C919      1.0  0.65928  0.16396  0.59540  1.0000
  C   C920      1.0  0.65944  0.15433  0.56898  1.0000
  P   P29       1.0  0.66325  0.19739  0.60048  1.0000
  C   C921      1.0  0.64831  0.20630  0.57248  1.0000
  C   C922      1.0  0.64492  0.19592  0.63133  1.0000
  C   C923      1.0  0.65804  0.20113  0.65678  1.0000
  C   C924      1.0  0.64349  0.19826  0.68085  1.0000
  C   C925      1.0  0.61563  0.18988  0.67974  1.0000
  C   C926      1.0  0.60237  0.18460  0.65453  1.0000
  C   C927      1.0  0.61688  0.18751  0.63040  1.0000
  C   C928      1.0  0.65959  0.23360  0.56411  1.0000
  C   C929      1.0  0.64740  0.24044  0.54296  1.0000
  C   C930      1.0  0.62398  0.22007  0.52997  1.0000
  C   C931      1.0  0.61273  0.19288  0.53813  1.0000
  C   C932      1.0  0.62467  0.18605  0.55941  1.0000
  C   C933      1.0  0.69941  0.22214  0.60319  1.0000
  C   C934      1.0  0.70842  0.24635  0.61815  1.0000
  C   C935      1.0  0.50517  0.30441  0.92476  1.0000
  H   H742      1.0  0.48756  0.23700  0.62059  1.0000
  C   C936      1.0  0.74681  0.23660  0.59212  1.0000
  C   C937      1.0  0.71886  0.21749  0.59007  1.0000
  H   H743      1.0  0.65665  0.12115  0.54490  1.0000
  C   C938      1.0  0.68108  0.29805  0.87512  1.0000
  H   H744      1.0  0.65460  0.11055  0.63208  1.0000
  H   H745      1.0  0.65838  0.15515  0.63864  1.0000
  H   H746      1.0  0.66141  0.16656  0.55119  1.0000
  H   H747      1.0  0.67928  0.20637  0.65813  1.0000
  C   C939      1.0  0.63098  0.29345  0.65520  1.0000
  H   H748      1.0  0.49163  0.30607  0.91021  1.0000
  H   H749      1.0  0.58332  0.30732  0.80743  1.0000
  C   C940      1.0  0.59162  0.31092  0.51994  1.0000
  H   H750      1.0  0.74790  0.31218  0.78781  1.0000
  H   H751      1.0  0.71903  0.30886  0.91922  1.0000
  H   H752      1.0  0.63426  0.30717  0.67207  1.0000
  H   H753      1.0  0.77726  0.27492  0.60954  1.0000
  H   H754      1.0  0.71114  0.31256  0.81507  1.0000
  C   C941      1.0  0.54021  0.30035  0.96232  1.0000
  H   H755      1.0  0.48877  0.05495  0.77017  1.0000
  C   C942      1.0  0.51228  0.00018  0.49906  1.0000
  C   C943      1.0  0.52116  0.23316  0.48633  1.0000
  H   H756      1.0  0.48464  0.21164  0.55633  1.0000
  H   H757      1.0  0.53301  0.02618  0.96420  1.0000
  H   H758      1.0  0.48692  0.98602  0.97223  1.0000
  H   H759      1.0  0.55321  0.29809  0.97710  1.0000
  C   C944      1.0  0.76577  0.30974  0.73003  1.0000
  H   H760      1.0  0.58029  0.31452  0.60050  1.0000
  P   P30       1.0  0.48512  0.00739  0.57482  1.0000
  C   C945      1.0  0.60615  0.98523  0.63199  1.0000
  H   H761      1.0  0.57877  0.31546  0.50704  1.0000
  C   C946      1.0  0.70596  0.37248  0.21538  1.0000
  C   C947      1.0  0.97498  0.45245  0.19799  1.0000
  S   S121      1.0  0.51040  0.54245  0.28574  1.0000
  P   P31       1.0  0.93587  0.46435  0.06205  1.0000
  C   C948      1.0  0.74493  0.32485  0.25826  1.0000
  Fe  Fe62      1.0  0.61460  0.43624  0.27688  1.0000
  S   S122      1.0  0.64820  0.47805  0.28980  1.0000
  S   S123      1.0  0.61941  0.42159  0.23467  1.0000
  Fe  Fe63      1.0  0.58852  0.42479  0.33414  1.0000
  S   S124      1.0  0.62008  0.46568  0.35009  1.0000
  S   S125      1.0  0.55486  0.39286  0.36108  1.0000
  Fe  Fe64      1.0  0.61374  0.48159  0.30996  1.0000
  S   S126      1.0  0.61003  0.52033  0.30872  1.0000
  Fe  Fe65      1.0  0.65130  0.45810  0.32871  1.0000
  S   S127      1.0  0.68504  0.45478  0.35255  1.0000
  S   S128      1.0  0.58035  0.44083  0.29505  1.0000
  S   S129      1.0  0.61928  0.41623  0.31453  1.0000
  Fe  Fe66      1.0  0.88824  0.46655  0.39110  1.0000
  S   S130      1.0  0.86413  0.42256  0.40510  1.0000
  S   S131      1.0  0.93393  0.47896  0.38726  1.0000
  Fe  Fe67      1.0  0.83374  0.46802  0.38207  1.0000
  S   S132      1.0  0.80806  0.42495  0.39616  1.0000
  S   S133      1.0  0.81243  0.49000  0.36344  1.0000
  Fe  Fe68      1.0  0.83911  0.43556  0.42985  1.0000
  H   H762      1.0  0.72252  0.35779  0.32791  1.0000
  Fe  Fe69      1.0  0.83580  0.41652  0.37006  1.0000
  S   S134      1.0  0.81670  0.38096  0.34016  1.0000
  S   S135      1.0  0.86392  0.47991  0.41737  1.0000
  S   S136      1.0  0.86077  0.45933  0.35471  1.0000
  Fe  Fe70      1.0  0.87852  0.35358  0.14684  1.0000
  S   S137      1.0  0.87704  0.39227  0.14788  1.0000
  S   S138      1.0  0.91948  0.35414  0.14341  1.0000
  S   S139      1.0  0.81064  0.35494  0.15657  1.0000
  Fe  Fe71      1.0  0.83998  0.37095  0.12096  1.0000
  S   S140      1.0  0.83245  0.39546  0.08848  1.0000
  Fe  Fe72      1.0  0.84813  0.37323  0.18324  1.0000
  S   S141      1.0  0.86001  0.40424  0.21748  1.0000
  H   H763      1.0  0.51629  0.40409  0.98598  1.0000
  S   S142      1.0  0.85123  0.33509  0.18384  1.0000
  S   S143      1.0  0.54261  0.33807  0.06638  1.0000
  S   S144      1.0  0.53187  0.38973  0.06712  1.0000
  Fe  Fe73      1.0  0.54422  0.36893  0.03581  1.0000
  C   C949      1.0  0.75649  0.36303  0.22765  1.0000
  Fe  Fe74      1.0  0.52561  0.35650  0.09625  1.0000
  S   S145      1.0  0.52759  0.36330  0.14267  1.0000
  C   C950      1.0  0.82845  0.38775  0.30592  1.0000
  C   C951      1.0  0.85268  0.41153  0.29894  1.0000
  C   C952      1.0  0.86186  0.41631  0.27174  1.0000
  C   C953      1.0  0.84723  0.39715  0.25126  1.0000
  C   C954      1.0  0.82288  0.37340  0.25808  1.0000
  C   C955      1.0  0.81361  0.36867  0.28538  1.0000
  H   H764      1.0  0.86470  0.42604  0.31455  1.0000
  H   H765      1.0  0.88053  0.43492  0.26661  1.0000
  H   H766      1.0  0.81098  0.35907  0.24225  1.0000
  H   H767      1.0  0.79479  0.35033  0.29064  1.0000
  C   C956      1.0  0.84618  0.39676  0.99535  1.0000
  C   C957      1.0  0.83604  0.41249  0.00708  1.0000
  C   C958      1.0  0.83217  0.41200  0.03562  1.0000
  C   C959      1.0  0.83830  0.39578  0.05274  1.0000
  C   C960      1.0  0.84863  0.38023  0.04104  1.0000
  C   C961      1.0  0.85248  0.38070  0.01252  1.0000
  C   C962      1.0  0.60879  0.35208  0.43554  1.0000
  H   H768      1.0  0.82422  0.42416  0.04447  1.0000
  H   H769      1.0  0.85350  0.36771  0.05392  1.0000
  H   H770      1.0  0.86040  0.36851  0.00369  1.0000
  C   C963      1.0  0.72067  0.46523  0.35508  1.0000
  C   C964      1.0  0.74137  0.48884  0.34252  1.0000
  C   C965      1.0  0.76918  0.49599  0.34526  1.0000
  C   C966      1.0  0.77680  0.47947  0.36010  1.0000
  C   C967      1.0  0.75602  0.45552  0.37211  1.0000
  C   C968      1.0  0.72833  0.44887  0.37016  1.0000
  H   H771      1.0  0.73599  0.50176  0.33095  1.0000
  H   H772      1.0  0.78495  0.51457  0.33585  1.0000
  H   H773      1.0  0.76133  0.44236  0.38334  1.0000
  H   H774      1.0  0.71264  0.43071  0.38010  1.0000
  C   C969      1.0  0.56068  0.39336  0.39664  1.0000
  C   C970      1.0  0.58456  0.41412  0.40855  1.0000
  C   C971      1.0  0.58891  0.41387  0.43676  1.0000
  C   C972      1.0  0.56962  0.39280  0.45337  1.0000
  C   C973      1.0  0.54548  0.37218  0.44165  1.0000
  C   C974      1.0  0.54111  0.37243  0.41331  1.0000
  H   H775      1.0  0.59981  0.43031  0.39608  1.0000
  H   H776      1.0  0.85590  0.46931  0.09666  1.0000
  H   H777      1.0  0.53048  0.35579  0.45427  1.0000
  H   H778      1.0  0.52262  0.35625  0.40423  1.0000
  C   C975      1.0  0.59368  0.40611  0.20914  1.0000
  C   C976      1.0  0.56617  0.39749  0.21446  1.0000
  C   C977      1.0  0.54635  0.38455  0.19382  1.0000
  C   C978      1.0  0.55379  0.38059  0.16745  1.0000
  C   C979      1.0  0.58140  0.38979  0.16194  1.0000
  C   C980      1.0  0.60116  0.40221  0.18277  1.0000
  H   H779      1.0  0.56010  0.40037  0.23459  1.0000
  H   H780      1.0  0.52505  0.37744  0.19837  1.0000
  H   H781      1.0  0.58743  0.38686  0.14182  1.0000
  H   H782      1.0  0.62239  0.40887  0.17842  1.0000
  C   C981      1.0  0.66330  0.48028  0.46323  1.0000
  C   C982      1.0  0.95377  0.38236  0.14099  1.0000
  H   H783      1.0  0.93789  0.46332  0.12180  1.0000
  C   C983      1.0  0.93080  0.47806  0.03053  1.0000
  C   C984      1.0  0.89048  0.46700  0.08159  1.0000
  C   C985      1.0  0.53788  0.53636  0.29384  1.0000
  C   C986      1.0  0.53504  0.51070  0.28763  1.0000
  C   C987      1.0  0.55653  0.50519  0.29253  1.0000
  C   C988      1.0  0.58146  0.52543  0.30344  1.0000
  C   C989      1.0  0.58428  0.55106  0.30964  1.0000
  C   C990      1.0  0.56264  0.55644  0.30512  1.0000
  H   H784      1.0  0.51601  0.49490  0.27904  1.0000
  H   H785      1.0  0.55391  0.48539  0.28759  1.0000
  H   H786      1.0  0.60341  0.56692  0.31804  1.0000
  H   H787      1.0  0.56531  0.57626  0.31002  1.0000
  H   H788      1.0  0.75150  0.42253  0.17423  1.0000
  C   C991      1.0  0.82792  0.45179  0.26903  1.0000
  C   C992      1.0  0.91849  0.40781  0.32337  1.0000
  H   H789      1.0  0.60719  0.50762  0.46406  1.0000
  H   H790      1.0  0.95486  0.53743  0.39860  1.0000
  H   H791      1.0  0.81346  0.43177  0.11758  1.0000
  C   C993      1.0  0.51091  0.51419  0.22288  1.0000
  C   C994      1.0  0.53108  0.53984  0.21387  1.0000
  C   C995      1.0  0.55342  0.54253  0.19897  1.0000
  C   C996      1.0  0.55557  0.51945  0.19328  1.0000
  C   C997      1.0  0.53534  0.49356  0.20252  1.0000
  C   C998      1.0  0.51290  0.49106  0.21728  1.0000
  P   P32       1.0  0.53843  0.46402  0.19506  1.0000
  C   C999      1.0  0.52897  0.45371  0.15993  1.0000
  C   C1000     1.0  0.57341  0.47317  0.20221  1.0000
  C   C1001     1.0  0.58715  0.46339  0.18594  1.0000
  C   C1002     1.0  0.61399  0.47015  0.19231  1.0000
  C   C1003     1.0  0.62709  0.48626  0.21514  1.0000
  C   C1004     1.0  0.61359  0.49615  0.23137  1.0000
  C   C1005     1.0  0.58694  0.48978  0.22487  1.0000
  C   C1006     1.0  0.52577  0.47077  0.14122  1.0000
  C   C1007     1.0  0.51696  0.46186  0.11452  1.0000
  C   C1008     1.0  0.51146  0.43598  0.10627  1.0000
  C   C1009     1.0  0.51461  0.41895  0.12474  1.0000
  C   C1010     1.0  0.52327  0.42770  0.15143  1.0000
  C   C1011     1.0  0.51587  0.43591  0.21700  1.0000
  C   C1012     1.0  0.52534  0.43113  0.24176  1.0000
  C   C1013     1.0  0.50776  0.40924  0.25848  1.0000
  C   C1014     1.0  0.59072  0.48808  0.47105  1.0000
  H   H792      1.0  0.96647  0.43097  0.19362  1.0000
  C   C1015     1.0  0.48844  0.41859  0.20941  1.0000
  H   H793      1.0  0.49425  0.51250  0.23520  1.0000
  H   H794      1.0  0.52954  0.55756  0.21919  1.0000
  H   H795      1.0  0.56937  0.56253  0.19240  1.0000
  H   H796      1.0  0.57317  0.52178  0.18202  1.0000
  H   H797      1.0  0.49725  0.47151  0.22505  1.0000
  H   H798      1.0  0.57714  0.45005  0.16876  1.0000
  H   H799      1.0  0.62428  0.46196  0.18017  1.0000
  H   H800      1.0  0.64745  0.49049  0.22063  1.0000
  H   H801      1.0  0.62355  0.50832  0.24936  1.0000
  H   H802      1.0  0.57670  0.49731  0.23803  1.0000
  H   H803      1.0  0.52981  0.49080  0.14713  1.0000
  H   H804      1.0  0.51419  0.47488  0.10021  1.0000
  H   H805      1.0  0.51000  0.39871  0.11850  1.0000
  H   H806      1.0  0.52528  0.41401  0.16547  1.0000
  H   H807      1.0  0.54630  0.44402  0.24824  1.0000
  H   H808      1.0  0.51535  0.40557  0.27744  1.0000
  C   C1016     1.0  0.73037  0.39668  0.22152  1.0000
  C   C1017     1.0  0.65370  0.38332  0.45438  1.0000
  C   C1018     1.0  0.94962  0.50461  0.02162  1.0000
  C   C1019     1.0  0.50981  0.48659  0.00973  1.0000
  C   C1020     1.0  0.59281  0.35219  0.36648  1.0000
  C   C1021     1.0  0.81523  0.41634  0.15721  1.0000
  C   C1022     1.0  0.87328  0.36929  0.33315  1.0000
  H   H809      1.0  0.91388  0.41612  0.09803  1.0000
  C   C1023     1.0  0.50688  0.46957  0.37809  1.0000
  H   H810      1.0  0.65885  0.34318  0.04924  1.0000
  H   H811      1.0  0.49243  0.55852  0.14413  1.0000
  H   H812      1.0  0.66713  0.42800  0.41481  1.0000
  H   H813      1.0  0.68180  0.36774  0.45498  1.0000
  H   H814      1.0  0.91411  0.49653  0.32085  1.0000
  C   C1024     1.0  0.71829  0.37922  0.40214  1.0000
  C   C1025     1.0  0.61739  0.33305  0.34326  1.0000
  C   C1026     1.0  0.64350  0.33894  0.43702  1.0000
  S   S146      1.0  0.48335  0.59214  0.26032  1.0000
  H   H815      1.0  0.52778  0.57480  0.10752  1.0000
  C   C1027     1.0  0.89380  0.38539  0.31437  1.0000
  C   C1028     1.0  0.54335  0.45132  0.46772  1.0000
  C   C1029     1.0  0.72828  0.44556  0.44596  1.0000
  H   H816      1.0  0.82742  0.46488  0.31032  1.0000
  C   C1030     1.0  0.92564  0.39425  0.02662  1.0000
  C   C1031     1.0  0.91571  0.37552  0.04817  1.0000
  C   C1032     1.0  0.91170  0.38366  0.07387  1.0000
  C   C1033     1.0  0.91728  0.41040  0.07799  1.0000
  C   C1034     1.0  0.92702  0.42930  0.05641  1.0000
  C   C1035     1.0  0.93160  0.42113  0.03076  1.0000
  H   H817      1.0  0.94607  0.49901  0.44651  1.0000
  C   C1036     1.0  0.91388  0.46549  0.08835  1.0000
  H   H818      1.0  0.49295  0.63709  0.14813  1.0000
  C   C1037     1.0  0.47824  0.38786  0.47941  1.0000
  H   H819      1.0  0.74842  0.44000  0.22937  1.0000
  C   C1038     1.0  0.55130  0.61534  0.12428  1.0000
  C   C1039     1.0  0.72976  0.42100  0.22505  1.0000
  C   C1040     1.0  0.92096  0.49900  0.98249  1.0000
  C   C1041     1.0  0.92023  0.46498  0.11605  1.0000
  C   C1042     1.0  0.90348  0.46605  0.13656  1.0000
  C   C1043     1.0  0.88048  0.46792  0.12960  1.0000
  C   C1044     1.0  0.87401  0.46839  0.10215  1.0000
  H   H820      1.0  0.85382  0.35277  0.32602  1.0000
  H   H821      1.0  0.85686  0.39739  0.47280  1.0000
  C   C1045     1.0  0.90738  0.46195  0.01472  1.0000
  H   H822      1.0  0.90590  0.41014  0.25365  1.0000
  C   C1046     1.0  0.97066  0.48398  0.07433  1.0000
  C   C1047     1.0  0.77973  0.41000  0.18952  1.0000
  C   C1048     1.0  0.66743  0.33454  0.30996  1.0000
  S   S147      1.0  0.82476  0.42528  0.47437  1.0000
  H   H823      1.0  0.91105  0.35468  0.04500  1.0000
  C   C1049     1.0  0.77123  0.41919  0.27471  1.0000
  H   H824      1.0  0.84997  0.46407  0.26705  1.0000
  S   S148      1.0  0.49226  0.59805  0.32702  1.0000
  C   C1050     1.0  0.76933  0.42073  0.17001  1.0000
  P   P33       1.0  0.76274  0.39733  0.22212  1.0000
  C   C1051     1.0  0.50978  0.57915  0.14461  1.0000
  H   H825      1.0  0.56659  0.62251  0.10821  1.0000
  H   H826      1.0  0.75525  0.37783  0.40900  1.0000
  C   C1052     1.0  0.68127  0.37261  0.21315  1.0000
  H   H827      1.0  0.90802  0.46502  0.15787  1.0000
  H   H828      1.0  0.86746  0.46861  0.14549  1.0000
  P   P34       1.0  0.50985  0.43736  0.45234  1.0000
  H   H829      1.0  0.51590  0.51659  0.04019  1.0000
  H   H830      1.0  0.89278  0.44132  0.02100  1.0000
  H   H831      1.0  0.81073  0.39906  0.19721  1.0000
  H   H832      1.0  0.72013  0.45615  0.43433  1.0000
  C   C1053     1.0  0.90176  0.39742  0.37017  1.0000
  H   H833      1.0  0.97184  0.40442  0.32602  1.0000
  C   C1054     1.0  0.72073  0.36320  0.34873  1.0000
  P   P35       1.0  0.67371  0.36314  0.33134  1.0000
  C   C1055     1.0  0.95532  0.50164  0.46652  1.0000
  C   C1056     1.0  0.91941  0.38975  0.22634  1.0000
  C   C1057     1.0  0.68674  0.39406  0.31141  1.0000
  C   C1058     1.0  0.71452  0.41418  0.31236  1.0000
  C   C1059     1.0  0.72399  0.43871  0.29809  1.0000
  C   C1060     1.0  0.70570  0.44362  0.28342  1.0000
  C   C1061     1.0  0.67813  0.42348  0.28187  1.0000
  C   C1062     1.0  0.66867  0.39871  0.29566  1.0000
  H   H834      1.0  0.75802  0.36448  0.36139  1.0000
  C   C1063     1.0  0.95962  0.40941  0.13835  1.0000
  H   H835      1.0  0.66057  0.39878  0.36277  1.0000
  H   H836      1.0  0.82275  0.43531  0.22890  1.0000
  H   H837      1.0  0.72880  0.41157  0.32488  1.0000
  H   H838      1.0  0.74529  0.45457  0.29965  1.0000
  H   H839      1.0  0.71279  0.46320  0.27360  1.0000
  H   H840      1.0  0.66392  0.42732  0.27049  1.0000
  H   H841      1.0  0.64709  0.38359  0.29470  1.0000
  H   H842      1.0  0.65490  0.49616  0.42670  1.0000
  H   H843      1.0  0.78828  0.44541  0.45314  1.0000
  H   H844      1.0  0.53104  0.47471  0.34205  1.0000
  C   C1064     1.0  0.51523  0.44793  0.41692  1.0000
  H   H845      1.0  0.57373  0.35055  0.37330  1.0000
  H   H846      1.0  0.90250  0.38396  0.21232  1.0000
  H   H847      1.0  0.92499  0.51771  0.27476  1.0000
  C   C1065     1.0  0.53303  0.62409  0.16557  1.0000
  C   C1066     1.0  0.61704  0.33303  0.43015  1.0000
  H   H848      1.0  0.70480  0.44002  0.22441  1.0000
  H   H849      1.0  0.94459  0.50094  0.23940  1.0000
  H   H850      1.0  0.83108  0.42493  0.99416  1.0000
  C   C1067     1.0  0.55398  0.61200  0.25311  1.0000
  C   C1068     1.0  0.78364  0.41894  0.24988  1.0000
  C   C1069     1.0  0.78160  0.42877  0.14425  1.0000
  C   C1070     1.0  0.81223  0.43528  0.24733  1.0000
  C   C1071     1.0  0.50233  0.50292  0.02464  1.0000
  C   C1072     1.0  0.53485  0.44544  0.40137  1.0000
  H   H851      1.0  0.66244  0.35397  0.20838  1.0000
  S   S149      1.0  0.48185  0.32902  0.08292  1.0000
  C   C1073     1.0  0.81531  0.45206  0.29349  1.0000
  H   H852      1.0  0.93950  0.43541  0.01387  1.0000
  C   C1074     1.0  0.92867  0.50108  0.27933  1.0000
  C   C1075     1.0  0.49143  0.40048  0.45484  1.0000
  H   H853      1.0  0.66175  0.39712  0.21481  1.0000
  C   C1076     1.0  0.74886  0.31962  0.20970  1.0000
  P   P36       1.0  0.94447  0.43043  0.29941  1.0000
  H   H854      1.0  0.94345  0.45518  0.17616  1.0000
  C   C1077     1.0  0.94455  0.47022  0.26548  1.0000
  C   C1078     1.0  0.87717  0.37538  0.36100  1.0000
  H   H855      1.0  0.96435  0.50519  0.18375  1.0000
  H   H856      1.0  0.51006  0.52246  0.13926  1.0000
  H   H857      1.0  0.75214  0.36391  0.27161  1.0000
  C   C1079     1.0  0.80441  0.42636  0.13779  1.0000
  Fe  Fe75      1.0  0.49084  0.56921  0.29396  1.0000
  H   H858      1.0  0.56146  0.48831  0.44332  1.0000
  C   C1080     1.0  0.94304  0.41216  0.26838  1.0000
  C   C1081     1.0  0.93761  0.45760  0.29125  1.0000
  H   H859      1.0  0.65729  0.46264  0.39622  1.0000
  C   C1082     1.0  0.66599  0.44235  0.42865  1.0000
  H   H860      1.0  0.54603  0.43631  0.41015  1.0000
  C   C1083     1.0  0.68086  0.39692  0.21660  1.0000
  H   H861      1.0  0.94303  0.41375  0.13783  1.0000
  H   H862      1.0  0.95348  0.46343  0.24998  1.0000
  H   H863      1.0  0.49633  0.58931  0.18150  1.0000
  C   C1084     1.0  0.52953  0.58840  0.12394  1.0000
  C   C1085     1.0  0.96751  0.50799  0.39067  1.0000
  H   H864      1.0  0.47877  0.63335  0.36743  1.0000
  H   H865      1.0  0.61733  0.39371  0.38026  1.0000
  C   C1086     1.0  0.47734  0.50159  0.01944  1.0000
  C   C1087     1.0  0.54030  0.45482  0.37441  1.0000
  C   C1088     1.0  0.78703  0.43564  0.29641  1.0000
  C   C1089     1.0  0.55759  0.62898  0.27529  1.0000
  H   H866      1.0  0.90419  0.36919  0.09065  1.0000
  H   H867      1.0  0.60751  0.42992  0.44578  1.0000
  C   C1090     1.0  0.69878  0.36687  0.35658  1.0000
  H   H868      1.0  0.52908  0.48745  0.01384  1.0000
  C   C1091     1.0  0.50120  0.45999  0.40505  1.0000
  C   C1092     1.0  0.64220  0.35764  0.34692  1.0000
  C   C1093     1.0  0.64191  0.37933  0.36055  1.0000
  H   H869      1.0  0.54591  0.43065  0.02430  1.0000
  H   H870      1.0  0.50456  0.42897  0.08563  1.0000
  H   H871      1.0  0.49922  0.39297  0.41316  1.0000
  C   C1094     1.0  0.92141  0.40464  0.24987  1.0000
  H   H872      1.0  0.55542  0.45274  0.36255  1.0000
  C   C1095     1.0  0.66171  0.36389  0.44931  1.0000
  H   H873      1.0  0.74934  0.40649  0.27734  1.0000
  C   C1096     1.0  0.51177  0.59679  0.16556  1.0000
  C   C1097     1.0  0.74093  0.36700  0.36761  1.0000
  H   H874      1.0  0.68172  0.37882  0.39001  1.0000
  H   H875      1.0  0.77322  0.43655  0.12914  1.0000
  C   C1098     1.0  0.56475  0.47695  0.45922  1.0000
  H   H876      1.0  0.83292  0.41444  0.15208  1.0000
  C   C1099     1.0  0.49033  0.45017  0.46996  1.0000
  H   H877      1.0  0.55602  0.59408  0.25608  1.0000
  C   C1100     1.0  0.52646  0.46704  0.36282  1.0000
  C   C1101     1.0  0.55303  0.63323  0.14496  1.0000
  C   C1102     1.0  0.93975  0.49165  0.25946  1.0000
  H   H878      1.0  0.58821  0.34761  0.43056  1.0000
  C   C1103     1.0  0.73954  0.37476  0.39437  1.0000
  C   C1104     1.0  0.69782  0.37507  0.38344  1.0000
  H   H879      1.0  0.62028  0.39154  0.45164  1.0000
  C   C1105     1.0  0.70515  0.42113  0.22219  1.0000
  C   C1106     1.0  0.66326  0.33416  0.03183  1.0000
  H   H880      1.0  0.58130  0.47917  0.01781  1.0000
  C   C1107     1.0  0.96341  0.40558  0.26217  1.0000
  H   H881      1.0  0.88971  0.38065  0.29295  1.0000
  H   H882      1.0  0.86079  0.36353  0.37536  1.0000
  H   H883      1.0  0.77762  0.43580  0.31568  1.0000
  C   C1108     1.0  0.48060  0.39196  0.25066  1.0000
  H   H884      1.0  0.71814  0.38649  0.42253  1.0000
  S   S150      1.0  0.58008  0.39433  0.00714  1.0000
  C   C1109     1.0  0.92228  0.41363  0.35149  1.0000
  S   S151      1.0  0.50157  0.34282  0.01993  1.0000
  H   H885      1.0  0.95932  0.53537  0.99059  1.0000
  C   C1110     1.0  0.80275  0.40784  0.18280  1.0000
  C   C1111     1.0  0.48923  0.50789  0.13341  1.0000
  H   H886      1.0  0.54418  0.60411  0.21072  1.0000
  H   H887      1.0  0.76833  0.46913  0.42770  1.0000
  C   C1112     1.0  0.61740  0.37656  0.37043  1.0000
  C   C1113     1.0  0.54783  0.44053  0.00481  1.0000
  H   H888      1.0  0.92177  0.45859  0.33140  1.0000
  C   C1114     1.0  0.92240  0.48910  0.30522  1.0000
  C   C1115     1.0  0.71204  0.42510  0.46494  1.0000
  C   C1116     1.0  0.66054  0.46206  0.41795  1.0000
  C   C1117     1.0  0.75571  0.45296  0.44197  1.0000
  C   C1118     1.0  0.54697  0.61763  0.22747  1.0000
  C   C1119     1.0  0.93924  0.38252  0.22079  1.0000
  H   H889      1.0  0.88455  0.46681  0.06059  1.0000
  C   C1120     1.0  0.65919  0.48100  0.43518  1.0000
  C   C1121     1.0  0.56773  0.46789  0.00112  1.0000
  C   C1122     1.0  0.96142  0.39076  0.23851  1.0000
  C   C1123     1.0  0.92683  0.46746  0.31118  1.0000
  S   S152      1.0  0.84285  0.33285  0.11737  1.0000
  C   C1124     1.0  0.66999  0.44136  0.45687  1.0000
  H   H890      1.0  0.92851  0.38785  0.00665  1.0000
  H   H891      1.0  0.66742  0.36545  0.00388  1.0000
  H   H892      1.0  0.64986  0.32409  0.43301  1.0000
  H   H893      1.0  0.91140  0.40678  0.47153  1.0000
  C   C1125     1.0  0.62708  0.37712  0.44743  1.0000
  H   H894      1.0  0.96800  0.51747  0.03298  1.0000
  H   H895      1.0  0.67317  0.35571  0.27145  1.0000
  C   C1126     1.0  0.96221  0.46628  0.18779  1.0000
  H   H896      1.0  0.70597  0.35361  0.21190  1.0000
  H   H897      1.0  0.94063  0.43135  0.35904  1.0000
  C   C1127     1.0  0.94473  0.51496  0.99762  1.0000
  C   C1128     1.0  0.48534  0.64001  0.21690  1.0000
  H   H898      1.0  0.97168  0.35655  0.14370  1.0000
  C   C1129     1.0  0.66807  0.34672  0.00624  1.0000
  C   C1130     1.0  0.66891  0.33688  0.28136  1.0000
  Fe  Fe76      1.0  0.48113  0.61907  0.29356  1.0000
  Fe  Fe77      1.0  0.48866  0.36221  0.05297  1.0000
  C   C1131     1.0  0.66865  0.46054  0.47409  1.0000
  H   H899      1.0  0.48062  0.42188  0.19047  1.0000
  C   C1132     1.0  0.75477  0.34650  0.20541  1.0000
  H   H900      1.0  0.75799  0.35423  0.18470  1.0000
  H   H901      1.0  0.90458  0.40260  0.39169  1.0000
  C   C1133     1.0  0.48365  0.63678  0.16760  1.0000
  H   H902      1.0  0.66229  0.49500  0.47658  1.0000
  P   P37       1.0  0.67660  0.41554  0.47069  1.0000
  C   C1134     1.0  0.90241  0.47241  0.99092  1.0000
  C   C1135     1.0  0.76701  0.43966  0.45635  1.0000
  H   H903      1.0  0.49583  0.64318  0.23610  1.0000
  C   C1136     1.0  0.49228  0.46887  0.98968  1.0000
  C   C1137     1.0  0.75120  0.35184  0.25409  1.0000
  H   H904      1.0  0.93771  0.37110  0.20241  1.0000
  P   P38       1.0  0.53305  0.64711  0.19108  1.0000
  H   H905      1.0  0.49375  0.52301  0.09216  1.0000
  C   C1138     1.0  0.59281  0.33041  0.35300  1.0000
  H   H906      1.0  0.96732  0.51949  0.08424  1.0000
  C   C1139     1.0  0.97211  0.53422  0.39625  1.0000
  C   C1140     1.0  0.75100  0.41913  0.47505  1.0000
  H   H907      1.0  0.95058  0.44240  0.44494  1.0000
  H   H908      1.0  0.47896  0.48844  0.17263  1.0000
  C   C1141     1.0  0.72366  0.41191  0.47944  1.0000
  C   C1142     1.0  0.49838  0.64132  0.19207  1.0000
  C   C1143     1.0  0.95328  0.43881  0.46620  1.0000
  C   C1144     1.0  0.48932  0.38407  0.43237  1.0000
  H   H909      1.0  0.48614  0.46238  0.41658  1.0000
  C   C1145     1.0  0.48013  0.50817  0.10694  1.0000
  H   H910      1.0  0.56228  0.62413  0.29529  1.0000
  C   C1146     1.0  0.97584  0.37733  0.14172  1.0000
  H   H911      1.0  0.49629  0.47921  0.36908  1.0000
  C   C1147     1.0  0.54323  0.64021  0.22389  1.0000
  C   C1148     1.0  0.67391  0.33525  0.98378  1.0000
  H   H912      1.0  0.62942  0.38853  0.98555  1.0000
  Fe  Fe78      1.0  0.81503  0.31757  0.15470  1.0000
  C   C1149     1.0  0.53099  0.42555  0.98311  1.0000
  C   C1150     1.0  0.97396  0.49434  0.19215  1.0000
  C   C1151     1.0  0.78668  0.33480  0.73958  1.0000
  H   H913      1.0  0.65890  0.32289  0.78378  1.0000
  S   S153      1.0  0.54240  0.57214  0.78138  1.0000
  H   H914      1.0  0.93383  0.47075  0.94458  1.0000
  Fe  Fe79      1.0  0.50628  0.57735  0.79532  1.0000
  Fe  Fe80      1.0  0.59754  0.41824  0.78292  1.0000
  S   S154      1.0  0.62833  0.46324  0.78616  1.0000
  S   S155      1.0  0.57234  0.39064  0.74727  1.0000
  Fe  Fe81      1.0  0.59268  0.41260  0.84613  1.0000
  S   S156      1.0  0.62313  0.45669  0.85301  1.0000
  S   S157      1.0  0.56500  0.38239  0.87822  1.0000
  Fe  Fe82      1.0  0.60116  0.46549  0.81913  1.0000
  S   S158      1.0  0.57771  0.48837  0.82872  1.0000
  Fe  Fe83      1.0  0.64766  0.45046  0.82002  1.0000
  S   S159      1.0  0.69415  0.46522  0.82072  1.0000
  S   S160      1.0  0.57006  0.42130  0.81402  1.0000
  S   S161      1.0  0.61778  0.40548  0.81490  1.0000
  Fe  Fe84      1.0  0.88690  0.47831  0.89713  1.0000
  S   S162      1.0  0.88646  0.43865  0.89640  1.0000
  S   S163      1.0  0.92733  0.51805  0.90606  1.0000
  Fe  Fe85      1.0  0.82313  0.44955  0.89086  1.0000
  S   S164      1.0  0.82015  0.40824  0.89082  1.0000
  S   S165      1.0  0.77982  0.44527  0.89078  1.0000
  Fe  Fe86      1.0  0.85066  0.42342  0.92521  1.0000
  S   S166      1.0  0.85119  0.39616  0.95955  1.0000
  Fe  Fe87      1.0  0.85608  0.42709  0.86218  1.0000
  S   S167      1.0  0.85761  0.40039  0.82827  1.0000
  S   S168      1.0  0.85186  0.46362  0.92753  1.0000
  S   S169      1.0  0.85842  0.46799  0.86055  1.0000
  Fe  Fe88      1.0  0.88566  0.35104  0.65563  1.0000
  S   S170      1.0  0.88311  0.38688  0.64038  1.0000
  S   S171      1.0  0.92774  0.35471  0.66298  1.0000
  S   S172      1.0  0.81603  0.34829  0.64261  1.0000
  Fe  Fe89      1.0  0.84991  0.35701  0.61247  1.0000
  S   S173      1.0  0.85577  0.36452  0.56612  1.0000
  Fe  Fe90      1.0  0.84990  0.37488  0.67196  1.0000
  S   S174      1.0  0.84833  0.40691  0.69909  1.0000
  H   H915      1.0  0.80695  0.33770  0.74293  1.0000
  S   S175      1.0  0.85410  0.34041  0.68903  1.0000
  S   S176      1.0  0.55607  0.34378  0.55012  1.0000
  S   S177      1.0  0.54079  0.39226  0.55424  1.0000
  Fe  Fe91      1.0  0.54661  0.36844  0.52085  1.0000
  C   C1152     1.0  0.58623  0.33059  0.84332  1.0000
  Fe  Fe92      1.0  0.54650  0.36500  0.58364  1.0000
  S   S178      1.0  0.57901  0.38628  0.61690  1.0000
  C   C1153     1.0  0.85694  0.40436  0.79244  1.0000
  C   C1154     1.0  0.85961  0.38579  0.77555  1.0000
  C   C1155     1.0  0.85805  0.38711  0.74700  1.0000
  C   C1156     1.0  0.85343  0.40680  0.73488  1.0000
  C   C1157     1.0  0.85158  0.42598  0.75173  1.0000
  C   C1158     1.0  0.85334  0.42479  0.78042  1.0000
  H   H916      1.0  0.86268  0.37008  0.78463  1.0000
  H   H917      1.0  0.85991  0.37250  0.73446  1.0000
  H   H918      1.0  0.84846  0.44162  0.74263  1.0000
  H   H919      1.0  0.85159  0.43943  0.79320  1.0000
  C   C1159     1.0  0.83467  0.40937  0.49983  1.0000
  C   C1160     1.0  0.85019  0.39704  0.49360  1.0000
  C   C1161     1.0  0.85640  0.38350  0.51419  1.0000
  C   C1162     1.0  0.84757  0.38239  0.54133  1.0000
  C   C1163     1.0  0.83249  0.39517  0.54769  1.0000
  C   C1164     1.0  0.82597  0.40842  0.52701  1.0000
  H   H920      1.0  0.80992  0.45445  0.82875  1.0000
  H   H921      1.0  0.86776  0.37340  0.50896  1.0000
  H   H922      1.0  0.82551  0.39448  0.56842  1.0000
  H   H923      1.0  0.81396  0.41788  0.53208  1.0000
  C   C1165     1.0  0.71753  0.45966  0.84103  1.0000
  C   C1166     1.0  0.74517  0.47185  0.83281  1.0000
  C   C1167     1.0  0.76444  0.46792  0.84773  1.0000
  C   C1168     1.0  0.75646  0.45150  0.87118  1.0000
  C   C1169     1.0  0.72888  0.43959  0.87965  1.0000
  C   C1170     1.0  0.70957  0.44355  0.86475  1.0000
  H   H924      1.0  0.75182  0.48464  0.81479  1.0000
  H   H925      1.0  0.78561  0.47807  0.84133  1.0000
  H   H926      1.0  0.72236  0.42721  0.89793  1.0000
  H   H927      1.0  0.68854  0.43411  0.87159  1.0000
  C   C1171     1.0  0.56923  0.38881  0.91375  1.0000
  C   C1172     1.0  0.54675  0.37365  0.93097  1.0000
  C   C1173     1.0  0.54969  0.37559  0.95951  1.0000
  C   C1174     1.0  0.93636  0.43038  0.82858  1.0000
  C   C1175     1.0  0.59739  0.40958  0.95398  1.0000
  C   C1176     1.0  0.59455  0.40722  0.92531  1.0000
  H   H928      1.0  0.52699  0.35995  0.92215  1.0000
  H   H929      1.0  0.78560  0.42924  0.63715  1.0000
  P   P39       1.0  0.48898  0.64814  0.68143  1.0000
  H   H930      1.0  0.61204  0.41906  0.91222  1.0000
  C   C1177     1.0  0.57438  0.39116  0.71090  1.0000
  C   C1178     1.0  0.59858  0.40827  0.69673  1.0000
  C   C1179     1.0  0.59943  0.40680  0.66797  1.0000
  C   C1180     1.0  0.57609  0.38842  0.65296  1.0000
  C   C1181     1.0  0.55172  0.37174  0.66707  1.0000
  C   C1182     1.0  0.55098  0.37295  0.69586  1.0000
  H   H931      1.0  0.61680  0.42214  0.70795  1.0000
  H   H932      1.0  0.61840  0.41978  0.65729  1.0000
  H   H933      1.0  0.53362  0.35750  0.65588  1.0000
  H   H934      1.0  0.53217  0.35953  0.70658  1.0000
  H   H935      1.0  0.50826  0.40178  0.79682  1.0000
  C   C1183     1.0  0.94677  0.44617  0.73485  1.0000
  C   C1184     1.0  0.63102  0.37804  0.96768  1.0000
  H   H936      1.0  0.80534  0.35379  0.85242  1.0000
  Fe  Fe93      1.0  0.49637  0.35995  0.55298  1.0000
  C   C1185     1.0  0.55094  0.54745  0.79343  1.0000
  C   C1186     1.0  0.57474  0.54806  0.78353  1.0000
  C   C1187     1.0  0.58258  0.52932  0.79297  1.0000
  C   C1188     1.0  0.56689  0.50986  0.81280  1.0000
  C   C1189     1.0  0.54273  0.50881  0.82216  1.0000
  C   C1190     1.0  0.53479  0.52739  0.81259  1.0000
  H   H937      1.0  0.58756  0.56354  0.76887  1.0000
  H   H938      1.0  0.60132  0.53063  0.78569  1.0000
  H   H939      1.0  0.53021  0.49372  0.83725  1.0000
  H   H940      1.0  0.51639  0.52646  0.82038  1.0000
  H   H941      1.0  0.92152  0.42502  0.78749  1.0000
  C   C1191     1.0  0.73492  0.32787  0.72875  1.0000
  H   H942      1.0  0.48943  0.52189  0.89608  1.0000
  C   C1192     1.0  0.52295  0.62723  0.69599  1.0000
  H   H943      1.0  0.65807  0.32763  0.52817  1.0000
  C   C1193     1.0  0.96502  0.36279  0.73413  1.0000
  H   H944      1.0  0.48798  0.40267  0.84318  1.0000
  H   H945      1.0  0.56125  0.63413  0.75240  1.0000
  H   H946      1.0  0.79849  0.37589  0.75039  1.0000
  C   C1194     1.0  0.54334  0.54116  0.94130  1.0000
  H   H947      1.0  0.64064  0.35279  0.76925  1.0000
  H   H948      1.0  0.50051  0.51022  0.66255  1.0000
  C   C1195     1.0  0.93358  0.37596  0.58597  1.0000
  C   C1196     1.0  0.52021  0.41028  0.62528  1.0000
  C   C1197     1.0  0.54811  0.42908  0.62814  1.0000
  C   C1198     1.0  0.55760  0.44633  0.65091  1.0000
  C   C1199     1.0  0.53915  0.44480  0.67110  1.0000
  C   C1200     1.0  0.75224  0.32095  0.80812  1.0000
  P   P40       1.0  0.55095  0.46685  0.70083  1.0000
  C   C1201     1.0  0.58775  0.48290  0.70289  1.0000
  H   H949      1.0  0.48021  0.39368  0.64316  1.0000
  C   C1202     1.0  0.58595  0.33104  0.87185  1.0000
  C   C1203     1.0  0.95622  0.44958  0.60425  1.0000
  C   C1204     1.0  0.65545  0.38926  0.95282  1.0000
  C   C1205     1.0  0.54534  0.53534  0.71543  1.0000
  C   C1206     1.0  0.55319  0.51549  0.71654  1.0000
  C   C1207     1.0  0.60448  0.50829  0.69031  1.0000
  C   C1208     1.0  0.63300  0.52035  0.69118  1.0000
  C   C1209     1.0  0.64499  0.50697  0.70424  1.0000
  C   C1210     1.0  0.62846  0.48150  0.71637  1.0000
  C   C1211     1.0  0.59994  0.46950  0.71581  1.0000
  C   C1212     1.0  0.53664  0.44624  0.73124  1.0000
  C   C1213     1.0  0.52833  0.41832  0.73074  1.0000
  C   C1214     1.0  0.53495  0.45798  0.75595  1.0000
  H   H950      1.0  0.61711  0.42353  0.96282  1.0000
  C   C1215     1.0  0.95357  0.37358  0.54292  1.0000
  P   P41       1.0  0.96358  0.42526  0.55767  1.0000
  H   H951      1.0  0.74026  0.32885  0.96374  1.0000
  S   S179      1.0  0.57802  0.39184  0.48795  1.0000
  H   H952      1.0  0.56249  0.42986  0.61294  1.0000
  H   H953      1.0  0.57936  0.46039  0.65278  1.0000
  H   H954      1.0  0.92972  0.32370  0.72499  1.0000
  H   H955      1.0  0.94614  0.33366  0.53138  1.0000
  S   S180      1.0  0.50750  0.60597  0.82800  1.0000
  H   H956      1.0  0.51990  0.54853  0.69559  1.0000
  H   H957      1.0  0.76882  0.35295  0.88057  1.0000
  C   C1216     1.0  0.91827  0.35363  0.73520  1.0000
  H   H958      1.0  0.59555  0.51873  0.67966  1.0000
  H   H959      1.0  0.64583  0.54002  0.68163  1.0000
  H   H960      1.0  0.66708  0.51625  0.70492  1.0000
  H   H961      1.0  0.63774  0.47098  0.72622  1.0000
  H   H962      1.0  0.58754  0.44969  0.72529  1.0000
  H   H963      1.0  0.53089  0.40894  0.71256  1.0000
  H   H964      1.0  0.51233  0.38104  0.75381  1.0000
  H   H965      1.0  0.92985  0.38726  0.60157  1.0000
  C   C1217     1.0  0.92269  0.34788  0.58950  1.0000
  H   H966      1.0  0.58810  0.34788  0.83193  1.0000
  C   C1218     1.0  0.92759  0.38093  0.74181  1.0000
  H   H967      1.0  0.91701  0.42638  0.83735  1.0000
  C   C1219     1.0  0.74429  0.38512  0.93424  1.0000
  C   C1220     1.0  0.51770  0.40231  0.75419  1.0000
  H   H968      1.0  0.48180  0.59409  0.59915  1.0000
  C   C1221     1.0  0.76367  0.34368  0.86052  1.0000
  H   H969      1.0  0.62871  0.33784  0.49834  1.0000
  H   H970      1.0  0.64561  0.36114  0.83425  1.0000
  C   C1222     1.0  0.73754  0.34126  0.94861  1.0000
  H   H971      1.0  0.52101  0.42558  0.94095  1.0000
  C   C1223     1.0  0.64225  0.39674  0.51641  1.0000
  H   H972      1.0  0.53222  0.41763  0.49577  1.0000
  C   C1224     1.0  0.69027  0.42773  0.52584  1.0000
  C   C1225     1.0  0.54453  0.55341  0.91614  1.0000
  H   H973      1.0  0.91279  0.38757  0.74476  1.0000
  C   C1226     1.0  0.94563  0.41804  0.95383  1.0000
  C   C1227     1.0  0.97127  0.47467  0.96050  1.0000
  H   H974      1.0  0.93572  0.39616  0.95079  1.0000
  C   C1228     1.0  0.52623  0.53332  0.69613  1.0000
  H   H975      1.0  0.93857  0.42016  0.69938  1.0000
  C   C1229     1.0  0.96409  0.53540  0.90771  1.0000
  S   S181      1.0  0.85322  0.32070  0.62685  1.0000
  C   C1230     1.0  0.93901  0.48744  0.48892  1.0000
  H   H976      1.0  0.55395  0.55227  0.72969  1.0000
  C   C1231     1.0  0.68432  0.42647  0.55376  1.0000
  C   C1232     1.0  0.95842  0.43594  0.84559  1.0000
  H   H977      1.0  0.91081  0.33791  0.60761  1.0000
  H   H978      1.0  0.71114  0.44095  0.51905  1.0000
  C   C1233     1.0  0.96419  0.43548  0.78860  1.0000
  C   C1234     1.0  0.51555  0.41404  0.77846  1.0000
  H   H979      1.0  0.76970  0.43956  0.75116  1.0000
  H   H980      1.0  0.71787  0.40821  0.73231  1.0000
  C   C1235     1.0  0.77882  0.33266  0.81853  1.0000
  C   C1236     1.0  0.73147  0.32110  0.82366  1.0000
  H   H981      1.0  0.93832  0.47888  0.53182  1.0000
  H   H982      1.0  0.95008  0.46694  0.64091  1.0000
  C   C1237     1.0  0.55375  0.46546  0.95372  1.0000
  C   C1238     1.0  0.48558  0.61780  0.63497  1.0000
  P   P42       1.0  0.56060  0.48094  0.92018  1.0000
  C   C1239     1.0  0.59561  0.49021  0.91210  1.0000
  C   C1240     1.0  0.53772  0.45632  0.89551  1.0000
  C   C1241     1.0  0.54296  0.43622  0.88525  1.0000
  C   C1242     1.0  0.52482  0.41676  0.86673  1.0000
  C   C1243     1.0  0.61181  0.51201  0.89441  1.0000
  C   C1244     1.0  0.63910  0.51949  0.88934  1.0000
  C   C1245     1.0  0.65054  0.50537  0.90190  1.0000
  C   C1246     1.0  0.63454  0.48342  0.91921  1.0000
  C   C1247     1.0  0.60719  0.47572  0.92410  1.0000
  H   H983      1.0  0.81937  0.43934  0.67423  1.0000
  H   H984      1.0  0.79992  0.40659  0.83043  1.0000
  H   H985      1.0  0.90442  0.45903  0.62674  1.0000
  H   H986      1.0  0.96163  0.41270  0.64346  1.0000
  H   H987      1.0  0.51692  0.61596  0.67703  1.0000
  H   H988      1.0  0.56099  0.43547  0.89149  1.0000
  H   H989      1.0  0.52893  0.40122  0.85903  1.0000
  H   H990      1.0  0.60359  0.52314  0.88406  1.0000
  H   H991      1.0  0.65122  0.53597  0.87522  1.0000
  H   H992      1.0  0.67156  0.51092  0.89758  1.0000
  H   H993      1.0  0.64316  0.47198  0.92841  1.0000
  H   H994      1.0  0.59511  0.45830  0.93719  1.0000
  C   C1248     1.0  0.78173  0.35636  0.74392  1.0000
  H   H995      1.0  0.80387  0.41950  0.71992  1.0000
  H   H996      1.0  0.56838  0.51770  0.73142  1.0000
  C   C1249     1.0  0.54150  0.49306  0.69865  1.0000
  C   C1250     1.0  0.95096  0.49034  0.51461  1.0000
  C   C1251     1.0  0.92578  0.47461  0.73381  1.0000
  H   H997      1.0  0.73604  0.39839  0.64606  1.0000
  H   H998      1.0  0.79503  0.47093  0.78906  1.0000
  H   H999      1.0  0.67291  0.40844  0.95918  1.0000
  H   H1000     1.0  0.71516  0.32521  0.72326  1.0000
  H   H1001     1.0  0.54711  0.51014  0.96242  1.0000
  C   C1252     1.0  0.95985  0.43075  0.52179  1.0000
  H   H1002     1.0  0.71163  0.39616  0.49424  1.0000
  C   C1253     1.0  0.49269  0.47790  0.60451  1.0000
  H   H1003     1.0  0.70053  0.43829  0.56822  1.0000
  H   H1004     1.0  0.61551  0.48235  0.50085  1.0000
  C   C1254     1.0  0.55652  0.52257  0.89402  1.0000
  C   C1255     1.0  0.74702  0.36882  0.95400  1.0000
  H   H1005     1.0  0.97055  0.50301  0.89331  1.0000
  C   C1256     1.0  0.78454  0.34417  0.84463  1.0000
  H   H1006     1.0  0.56091  0.51516  0.87541  1.0000
  H   H1007     1.0  0.79518  0.33331  0.80626  1.0000
  Fe  Fe94      1.0  0.48313  0.61790  0.80003  1.0000
  C   C1257     1.0  0.65714  0.37602  0.92943  1.0000
  H   H1008     1.0  0.55166  0.55327  0.87285  1.0000
  C   C1258     1.0  0.72294  0.34637  0.90332  1.0000
  C   C1259     1.0  0.92717  0.33264  0.56986  1.0000
  C   C1260     1.0  0.94262  0.34549  0.54656  1.0000
  C   C1261     1.0  0.60951  0.34050  0.93539  1.0000
  C   C1262     1.0  0.72552  0.33003  0.92338  1.0000
  H   H1009     1.0  0.65256  0.40979  0.58453  1.0000
  C   C1263     1.0  0.50175  0.40856  0.64528  1.0000
  C   C1264     1.0  0.73234  0.37400  0.90899  1.0000
  H   H1010     1.0  0.47955  0.39996  0.49714  1.0000
  C   C1265     1.0  0.48948  0.49958  0.59554  1.0000
  C   C1266     1.0  0.70040  0.35394  0.85126  1.0000
  C   C1267     1.0  0.93909  0.42986  0.80023  1.0000
  C   C1268     1.0  0.66663  0.36561  0.83549  1.0000
  C   C1269     1.0  0.68741  0.38960  0.82374  1.0000
  C   C1270     1.0  0.71458  0.39565  0.82536  1.0000
  C   C1271     1.0  0.72109  0.37809  0.83925  1.0000
  H   H1011     1.0  0.67795  0.34522  0.96402  1.0000
  H   H1012     1.0  0.49667  0.42388  0.68359  1.0000
  C   C1272     1.0  0.49627  0.43739  0.86803  1.0000
  H   H1013     1.0  0.75238  0.40673  0.93803  1.0000
  C   C1273     1.0  0.91930  0.43247  0.57133  1.0000
  H   H1014     1.0  0.73140  0.38739  0.89381  1.0000
  C   C1274     1.0  0.93522  0.43542  0.70923  1.0000
  C   C1275     1.0  0.52434  0.44189  0.77940  1.0000
  C   C1276     1.0  0.63639  0.39566  0.54430  1.0000
  H   H1015     1.0  0.61541  0.38381  0.55140  1.0000
  H   H1016     1.0  0.68256  0.40378  0.81369  1.0000
  H   H1017     1.0  0.73075  0.41452  0.81665  1.0000
  H   H1018     1.0  0.74243  0.38385  0.84131  1.0000
  H   H1019     1.0  0.96565  0.38329  0.52484  1.0000
  H   H1020     1.0  0.62545  0.38566  0.50238  1.0000
  C   C1277     1.0  0.52277  0.49158  0.67889  1.0000
  H   H1021     1.0  0.72026  0.37759  0.69160  1.0000
  S   S182      1.0  0.50161  0.33325  0.58432  1.0000
  H   H1022     1.0  0.53235  0.36299  0.97230  1.0000
  C   C1278     1.0  0.51286  0.64458  0.70335  1.0000
  C   C1279     1.0  0.48827  0.48452  0.49813  1.0000
  H   H1023     1.0  0.77365  0.37476  0.79345  1.0000
  H   H1024     1.0  0.50322  0.51368  0.58030  1.0000
  H   H1025     1.0  0.51293  0.39680  0.60771  1.0000
  C   C1280     1.0  0.50611  0.63735  0.59124  1.0000
  C   C1281     1.0  0.94441  0.46004  0.95070  1.0000
  C   C1282     1.0  0.51520  0.51163  0.67764  1.0000
  H   H1026     1.0  0.63601  0.34183  0.90258  1.0000
  S   S183      1.0  0.50189  0.33739  0.51722  1.0000
  C   C1283     1.0  0.94256  0.46638  0.74670  1.0000
  H   H1027     1.0  0.53781  0.54814  0.95954  1.0000
  H   H1028     1.0  0.50978  0.63469  0.57001  1.0000
  H   H1029     1.0  0.91714  0.50706  0.96393  1.0000
  C   C1284     1.0  0.93697  0.34462  0.73111  1.0000
  C   C1285     1.0  0.51115  0.42572  0.66809  1.0000
  C   C1286     1.0  0.49042  0.61449  0.60762  1.0000
  H   H1030     1.0  0.89986  0.46882  0.69916  1.0000
  C   C1287     1.0  0.61975  0.32350  0.51506  1.0000
  H   H1031     1.0  0.52387  0.45125  0.79857  1.0000
  H   H1032     1.0  0.89656  0.33959  0.73251  1.0000
  C   C1288     1.0  0.67813  0.38214  0.74961  1.0000
  C   C1289     1.0  0.66137  0.35801  0.76390  1.0000
  C   C1290     1.0  0.67164  0.34115  0.77198  1.0000
  C   C1291     1.0  0.69854  0.34821  0.76539  1.0000
  C   C1292     1.0  0.71508  0.37175  0.74992  1.0000
  C   C1293     1.0  0.70497  0.38913  0.74286  1.0000
  P   P43       1.0  0.75017  0.38161  0.74236  1.0000
  C   C1294     1.0  0.76080  0.39814  0.70956  1.0000
  C   C1295     1.0  0.77030  0.40488  0.76917  1.0000
  C   C1296     1.0  0.77629  0.43212  0.76826  1.0000
  C   C1297     1.0  0.79062  0.44996  0.78967  1.0000
  C   C1298     1.0  0.79903  0.44070  0.81207  1.0000
  C   C1299     1.0  0.79314  0.41365  0.81314  1.0000
  C   C1300     1.0  0.77850  0.39570  0.79194  1.0000
  C   C1301     1.0  0.74181  0.39181  0.68835  1.0000
  C   C1302     1.0  0.75070  0.40335  0.66241  1.0000
  C   C1303     1.0  0.77861  0.42075  0.65736  1.0000
  C   C1304     1.0  0.79763  0.42666  0.67826  1.0000
  C   C1305     1.0  0.78877  0.41541  0.70424  1.0000
  C   C1306     1.0  0.75564  0.35290  0.73916  1.0000
  H   H1033     1.0  0.88438  0.43607  0.58263  1.0000
  H   H1034     1.0  0.58820  0.34896  0.88223  1.0000
  C   C1307     1.0  0.91601  0.45335  0.61329  1.0000
  C   C1308     1.0  0.55563  0.51022  0.91920  1.0000
  H   H1035     1.0  0.48675  0.49624  0.93791  1.0000
  C   C1309     1.0  0.95579  0.39951  0.74399  1.0000
  C   C1310     1.0  0.54825  0.63750  0.73849  1.0000
  H   H1036     1.0  0.51392  0.47501  0.66446  1.0000
  H   H1037     1.0  0.54786  0.60992  0.70807  1.0000
  H   H1038     1.0  0.91740  0.39847  0.51977  1.0000
  C   C1311     1.0  0.90478  0.44057  0.58841  1.0000
  H   H1039     1.0  0.65643  0.32915  0.85746  1.0000
  C   C1312     1.0  0.50169  0.41753  0.85786  1.0000
  C   C1313     1.0  0.67299  0.34764  0.84892  1.0000
  H   H1040     1.0  0.91033  0.42036  0.94096  1.0000
  S   S184      1.0  0.48587  0.59253  0.76601  1.0000
  C   C1314     1.0  0.73685  0.33187  0.85026  1.0000
  H   H1041     1.0  0.50894  0.47122  0.89516  1.0000
  C   C1315     1.0  0.49604  0.64402  0.64617  1.0000
  H   H1042     1.0  0.92177  0.48947  0.74350  1.0000
  H   H1043     1.0  0.90870  0.43465  0.67721  1.0000
  C   C1316     1.0  0.91365  0.46320  0.70874  1.0000
  H   H1044     1.0  0.70648  0.33543  0.77252  1.0000
  H   H1045     1.0  0.95184  0.47549  0.76611  1.0000
  C   C1317     1.0  0.65737  0.41044  0.56298  1.0000
  P   P44       1.0  0.70983  0.33223  0.86995  1.0000
  C   C1318     1.0  0.94906  0.38900  0.56257  1.0000
  H   H1046     1.0  0.96533  0.57176  0.92254  1.0000
  H   H1047     1.0  0.67042  0.39563  0.74409  1.0000
  C   C1319     1.0  0.53385  0.43788  0.95761  1.0000
  C   C1320     1.0  0.94541  0.43733  0.57883  1.0000
  P   P45       1.0  0.96759  0.43481  0.75193  1.0000
  C   C1321     1.0  0.57078  0.48030  0.97565  1.0000
  H   H1048     1.0  0.57791  0.43767  0.51652  1.0000
  C   C1322     1.0  0.54056  0.62374  0.71351  1.0000
  C   C1323     1.0  0.55109  0.54407  0.89250  1.0000
  C   C1324     1.0  0.93136  0.43169  0.94806  1.0000
  H   H1049     1.0  0.95620  0.43645  0.86755  1.0000
  C   C1325     1.0  0.94169  0.45776  0.62125  1.0000
  H   H1050     1.0  0.90954  0.42177  0.55277  1.0000
  C   C1326     1.0  0.54877  0.51960  0.94285  1.0000
  C   C1327     1.0  0.57512  0.39323  0.97124  1.0000
  H   H1051     1.0  0.53991  0.56983  0.91482  1.0000
  C   C1328     1.0  0.51391  0.45641  0.88716  1.0000
  C   C1329     1.0  0.91860  0.44384  0.69636  1.0000
  C   C1330     1.0  0.57413  0.44876  0.50070  1.0000
  C   C1331     1.0  0.66929  0.41263  0.50694  1.0000
  H   H1052     1.0  0.67598  0.38497  0.91766  1.0000
  H   H1053     1.0  0.54214  0.47954  0.75757  1.0000
  C   C1332     1.0  0.93457  0.41457  0.50872  1.0000
  C   C1333     1.0  0.96372  0.37794  0.65816  1.0000
  C   C1334     1.0  0.63435  0.35165  0.92085  1.0000
  C   C1335     1.0  0.60807  0.35390  0.95893  1.0000
  H   H1054     1.0  0.50894  0.47512  0.59619  1.0000
  H   H1055     1.0  0.58920  0.34631  0.97034  1.0000
  H   H1056     1.0  0.91716  0.47385  0.48625  1.0000
  H   H1057     1.0  0.75712  0.37777  0.97320  1.0000
  H   H1058     1.0  0.58701  0.50123  0.97275  1.0000
  H   H1059     1.0  0.48454  0.45382  0.74565  1.0000
  H   H1060     1.0  0.97335  0.34776  0.67229  1.0000
  C   C1336     1.0  0.97279  0.43268  0.96282  1.0000
  C   C1337     1.0  0.63624  0.31774  0.53190  1.0000
  H   H1061     1.0  0.97560  0.45233  0.61136  1.0000
  H   H1062     1.0  0.67160  0.46034  0.49590  1.0000
  H   H1063     1.0  0.76008  0.40907  0.48625  1.0000
  H   H1064     1.0  0.54474  0.32321  0.61877  1.0000
  H   H1065     1.0  0.49852  0.50372  0.50906  1.0000
  H   H1066     1.0  0.49854  0.45655  0.97828  1.0000
  C   C1338     1.0  0.59541  0.47394  0.49175  1.0000
  H   H1067     1.0  0.47839  0.43809  0.86114  1.0000
  C   C1339     1.0  0.54818  0.43740  0.48875  1.0000
  C   C1340     1.0  0.97443  0.39010  0.74081  1.0000
  C   C1341     1.0  0.97511  0.40493  0.64844  1.0000
  C   C1342     1.0  0.50359  0.47510  0.48411  1.0000
  H   H1068     1.0  0.52568  0.48726  0.48446  1.0000
  H   H1069     1.0  0.88427  0.45977  0.97884  1.0000
  H   H1070     1.0  0.48367  0.49558  0.75935  1.0000
  H   H1071     1.0  0.47794  0.43284  0.55831  1.0000
  H   H1072     1.0  0.47792  0.44327  0.63101  1.0000
  C   C1343     1.0  0.93120  0.41888  0.48119  1.0000
  Fe  Fe95      1.0  0.50284  0.86394  0.23593  1.0000
  S   S185      1.0  0.54314  0.90498  0.23959  1.0000
  H   H1073     1.0  0.52746  0.68725  0.15714  1.0000
  H   H1074     1.0  0.62381  0.73115  0.18879  1.0000
  S   S186      1.0  0.49780  0.82877  0.20957  1.0000
  C   C1344     1.0  0.48881  0.90736  0.31816  1.0000
  C   C1345     1.0  0.54391  0.82680  0.25735  1.0000
  C   C1346     1.0  0.55739  0.94119  0.23581  1.0000
  C   C1347     1.0  0.54215  0.95430  0.23065  1.0000
  C   C1348     1.0  0.58584  0.95747  0.23851  1.0000
  H   H1075     1.0  0.52016  0.94214  0.22843  1.0000
  H   H1076     1.0  0.59797  0.94790  0.24249  1.0000
  C   C1349     1.0  0.52201  0.96320  0.32996  1.0000
  C   C1350     1.0  0.57622  0.86649  0.23156  1.0000
  C   C1351     1.0  0.55469  0.65190  0.27176  1.0000
  S   S187      1.0  0.48436  0.83565  0.27224  1.0000
  C   C1352     1.0  0.55664  0.68212  0.18155  1.0000
  H   H1077     1.0  0.61150  0.82596  0.21004  1.0000
  H   H1078     1.0  0.58348  0.77204  0.21164  1.0000
  C   C1353     1.0  0.51250  0.82100  0.13503  1.0000
  C   C1354     1.0  0.64013  0.83178  0.17822  1.0000
  H   H1079     1.0  0.56042  0.73426  0.14313  1.0000
  H   H1080     1.0  0.56509  0.72638  0.23189  1.0000
  C   C1355     1.0  0.50551  0.72053  0.20911  1.0000
  H   H1081     1.0  0.50840  0.83777  0.13351  1.0000
  H   H1082     1.0  0.49374  0.95468  0.09732  1.0000
  C   C1356     1.0  0.48673  0.91752  0.34352  1.0000
  C   C1357     1.0  0.60271  0.72150  0.18198  1.0000
  H   H1083     1.0  0.58764  0.85884  0.19215  1.0000
  C   C1358     1.0  0.59481  0.80742  0.14339  1.0000
  P   P46       1.0  0.55710  0.79933  0.18461  1.0000
  H   H1084     1.0  0.50107  0.95291  0.36896  1.0000
  C   C1359     1.0  0.57565  0.84961  0.21040  1.0000
  C   C1360     1.0  0.54835  0.69646  0.16426  1.0000
  H   H1085     1.0  0.65772  0.84134  0.19170  1.0000
  C   C1361     1.0  0.50691  0.92509  0.29844  1.0000
  C   C1362     1.0  0.52339  0.71320  0.22096  1.0000
  C   C1363     1.0  0.54780  0.65766  0.24614  1.0000
  C   C1364     1.0  0.51567  0.74664  0.19811  1.0000
  C   C1365     1.0  0.55142  0.73189  0.22188  1.0000
  C   C1366     1.0  0.56174  0.75780  0.21036  1.0000
  S   S188      1.0  0.50209  0.66631  0.28967  1.0000
  C   C1367     1.0  0.49174  0.69103  0.28227  1.0000
  H   H1086     1.0  0.48442  0.79794  0.10292  1.0000
  H   H1087     1.0  0.51538  0.69348  0.23059  1.0000
  C   C1368     1.0  0.62108  0.81608  0.13318  1.0000
  C   C1369     1.0  0.53498  0.79941  0.15788  1.0000
  H   H1088     1.0  0.52525  0.75998  0.14146  1.0000
  C   C1370     1.0  0.56039  0.85510  0.25503  1.0000
  H   H1089     1.0  0.50207  0.94067  0.44482  1.0000
  C   C1371     1.0  0.54398  0.76526  0.19801  1.0000
  C   C1372     1.0  0.64373  0.82827  0.15057  1.0000
  C   C1373     1.0  0.56705  0.72320  0.15617  1.0000
  H   H1090     1.0  0.50839  0.91719  0.27870  1.0000
  C   C1374     1.0  0.49889  0.79846  0.11781  1.0000
  H   H1091     1.0  0.57760  0.79817  0.12953  1.0000
  H   H1092     1.0  0.52938  0.78813  0.23802  1.0000
  H   H1093     1.0  0.53110  0.81795  0.27525  1.0000
  H   H1094     1.0  0.66411  0.83518  0.14258  1.0000
  H   H1095     1.0  0.58822  0.88853  0.22951  1.0000
  C   C1375     1.0  0.52182  0.77712  0.13992  1.0000
  C   C1376     1.0  0.61390  0.82316  0.18851  1.0000
  H   H1096     1.0  0.53163  0.72502  0.29173  1.0000
  C   C1377     1.0  0.50309  0.94538  0.34934  1.0000
  C   C1378     1.0  0.48685  0.94114  0.43173  1.0000
  H   H1097     1.0  0.53695  0.96635  0.28847  1.0000
  H   H1098     1.0  0.56029  0.86832  0.27102  1.0000
  H   H1099     1.0  0.62392  0.81357  0.11168  1.0000
  H   H1100     1.0  0.50134  0.75254  0.19054  1.0000
  H   H1101     1.0  0.54523  0.67527  0.24401  1.0000
  C   C1379     1.0  0.59103  0.81097  0.17114  1.0000
  C   C1380     1.0  0.48969  0.96609  0.42347  1.0000
  C   C1381     1.0  0.55906  0.82112  0.21254  1.0000
  C   C1382     1.0  0.54306  0.80988  0.23612  1.0000
  C   C1383     1.0  0.47903  0.73240  0.26695  1.0000
  C   C1384     1.0  0.51126  0.71903  0.28454  1.0000
  C   C1385     1.0  0.52320  0.95295  0.30415  1.0000
  H   H1102     1.0  0.54064  0.83926  0.16799  1.0000
  H   H1103     1.0  0.49324  0.75921  0.10658  1.0000
  H   H1104     1.0  0.55111  0.96635  0.38032  1.0000
  C   C1386     1.0  0.50374  0.77662  0.12006  1.0000
  C   C1387     1.0  0.53063  0.82161  0.15482  1.0000
  H   H1105     1.0  0.52049  0.76076  0.27885  1.0000
  C   C1388     1.0  0.50500  0.73948  0.27705  1.0000
  H   H1106     1.0  0.55702  0.66484  0.28909  1.0000
  H   H1107     1.0  0.59119  0.68388  0.20280  1.0000
  C   C1389     1.0  0.58410  0.69472  0.19001  1.0000
  H   H1108     1.0  0.56973  0.65414  0.14457  1.0000
  H   H1109     1.0  0.60861  0.75654  0.15897  1.0000
  C   C1390     1.0  0.59419  0.73576  0.16511  1.0000
  H   H1110     1.0  0.57748  0.97458  0.32156  1.0000
  H   H1111     1.0  0.56673  0.97638  0.42811  1.0000
  H   H1112     1.0  0.48363  0.70637  0.20963  1.0000
  H   H1113     1.0  0.49668  0.67972  0.34797  1.0000
  C   C1391     1.0  0.55554  0.98335  0.22832  1.0000
  C   C1392     1.0  0.59725  0.96849  0.60889  1.0000
  S   S189      1.0  0.53957  0.89378  0.73826  1.0000
  C   C1393     1.0  0.49681  0.73267  0.69339  1.0000
  C   C1394     1.0  0.51477  0.84377  0.61846  1.0000
  C   C1395     1.0  0.49784  0.89609  0.82201  1.0000
  H   H1114     1.0  0.56340  0.93450  0.58905  1.0000
  C   C1396     1.0  0.48126  0.89612  0.91289  1.0000
  C   C1397     1.0  0.54579  0.92778  0.73292  1.0000
  C   C1398     1.0  0.52519  0.93305  0.72443  1.0000
  C   C1399     1.0  0.57247  0.95014  0.73643  1.0000
  H   H1115     1.0  0.50459  0.91627  0.72146  1.0000
  H   H1116     1.0  0.58865  0.94645  0.74297  1.0000
  C   C1400     1.0  0.51744  0.81306  0.86898  1.0000
  S   S190      1.0  0.49453  0.66352  0.79669  1.0000
  C   C1401     1.0  0.49068  0.97027  0.88708  1.0000
  H   H1117     1.0  0.53974  0.74753  0.69978  1.0000
  C   C1402     1.0  0.50326  0.80513  0.84424  1.0000
  H   H1118     1.0  0.53710  0.83172  0.87007  1.0000
  C   C1403     1.0  0.52878  0.88473  0.65749  1.0000
  C   C1404     1.0  0.53245  0.86259  0.66318  1.0000
  C   C1405     1.0  0.51202  0.66691  0.62962  1.0000
  C   C1406     1.0  0.49469  0.94421  0.65394  1.0000
  S   S191      1.0  0.48396  0.82439  0.77407  1.0000
  C   C1407     1.0  0.51150  0.86616  0.61251  1.0000
  C   C1408     1.0  0.47785  0.78112  0.84274  1.0000
  C   C1409     1.0  0.53144  0.96006  0.71870  1.0000
  H   H1119     1.0  0.48110  0.72586  0.86454  1.0000
  Fe  Fe96      1.0  0.49844  0.85348  0.73784  1.0000
  C   C1410     1.0  0.50036  0.91503  0.59207  1.0000
  H   H1120     1.0  0.52784  0.82468  0.64838  1.0000
  C   C1411     1.0  0.51831  0.88668  0.63211  1.0000
  H   H1121     1.0  0.52928  0.68126  0.58957  1.0000
  C   C1412     1.0  0.52527  0.84199  0.64377  1.0000
  H   H1122     1.0  0.51746  0.80289  0.91137  1.0000
  C   C1413     1.0  0.51331  0.93615  0.57279  1.0000
  H   H1123     1.0  0.51439  0.72116  0.80362  1.0000
  C   C1414     1.0  0.52040  0.65801  0.72872  1.0000
  S   S192      1.0  0.48365  0.81898  0.70681  1.0000
  H   H1124     1.0  0.51025  0.96258  0.64409  1.0000
  H   H1125     1.0  0.52912  0.96962  0.85056  1.0000
  C   C1415     1.0  0.48760  0.95388  0.77942  1.0000
  H   H1126     1.0  0.51197  0.81762  0.82615  1.0000
  H   H1127     1.0  0.53435  0.90044  0.67289  1.0000
  H   H1128     1.0  0.53332  0.95349  0.57667  1.0000
  C   C1416     1.0  0.50022  0.93530  0.54824  1.0000
  H   H1129     1.0  0.48888  0.87570  0.81350  1.0000
  H   H1130     1.0  0.54069  0.86141  0.68284  1.0000
  C   C1417     1.0  0.49339  0.91910  0.64936  1.0000
  C   C1418     1.0  0.52025  0.94890  0.84328  1.0000
  H   H1131     1.0  0.48618  0.68637  0.85230  1.0000
  C   C1419     1.0  0.48049  0.88367  0.93781  1.0000
  C   C1420     1.0  0.53415  0.94330  0.82286  1.0000
  H   H1132     1.0  0.50096  0.75346  0.78426  1.0000
  H   H1133     1.0  0.53372  0.91264  0.79631  1.0000
  H   H1134     1.0  0.51550  0.96362  0.71130  1.0000
  C   C1421     1.0  0.52003  0.72992  0.69501  1.0000
  C   C1422     1.0  0.51777  0.70440  0.69100  1.0000
  H   H1135     1.0  0.48263  0.86567  0.93820  1.0000
  C   C1423     1.0  0.48388  0.90165  0.84233  1.0000
  C   C1424     1.0  0.49512  0.92798  0.85350  1.0000
  C   C1425     1.0  0.55087  0.94446  0.62713  1.0000
  H   H1136     1.0  0.54337  0.66462  0.76585  1.0000
  C   C1426     1.0  0.55831  0.98231  0.72113  1.0000
  C   C1427     1.0  0.50636  0.79682  0.89223  1.0000
  H   H1137     1.0  0.50379  0.86731  0.59262  1.0000
  H   H1138     1.0  0.51033  0.95161  0.53345  1.0000
  C   C1428     1.0  0.48995  0.73219  0.77833  1.0000
  H   H1139     1.0  0.52065  0.68737  0.63769  1.0000
  C   C1429     1.0  0.49756  0.71373  0.78930  1.0000
  C   C1430     1.0  0.53820  0.65466  0.74605  1.0000
  C   C1431     1.0  0.49210  0.68129  0.68586  1.0000
  C   C1432     1.0  0.56981  0.94792  0.60664  1.0000
  C   C1433     1.0  0.52305  0.91689  0.81233  1.0000
  H   H1140     1.0  0.53601  0.70266  0.69226  1.0000
  H   H1141     1.0  0.50919  0.82781  0.60339  1.0000
  P   P47       1.0  0.51594  0.91661  0.62480  1.0000
  H   H1142     1.0  0.49843  0.75230  0.69723  1.0000
  C   C1434     1.0  0.56030  0.96060  0.65075  1.0000
  H   H1143     1.0  0.61173  0.97118  0.59294  1.0000
  C   C1435     1.0  0.48098  0.77274  0.89081  1.0000
  C   C1436     1.0  0.57870  0.97720  0.73068  1.0000
  H   H1144     1.0  0.55344  0.95952  0.81489  1.0000
  H   H1145     1.0  0.48514  0.91493  0.77351  1.0000
  H   H1146     1.0  0.52986  0.97616  0.90042  1.0000
  H   H1147     1.0  0.51201  0.67052  0.73561  1.0000
  C   C1437     1.0  0.48369  0.68582  0.78206  1.0000
  H   H1148     1.0  0.54670  0.95721  0.66765  1.0000
  H   H1149     1.0  0.50834  0.96338  0.78707  1.0000
  C   C1438     1.0  0.51700  0.66354  0.60227  1.0000
  H   H1150     1.0  0.48435  0.88756  0.89444  1.0000
  C   C1439     1.0  0.58771  0.98112  0.65301  1.0000
  H   H1151     1.0  0.47713  0.97551  0.52373  1.0000
  P   P48       1.0  0.47651  0.93425  0.88008  1.0000
  C   C1440     1.0  0.47729  0.91872  0.91211  1.0000
  H   H1152     1.0  0.47713  0.96530  0.67491  1.0000
