data_image0
_chemical_formula_structural       FeS2FeS2Fe2S3FeHSH3C2SHC5H2C2HC2HC6H5C5H3C2H3PH2CH2C2HPCHC2H3C2H2C3HC4HCH2CHCHC4H3C4H4C3HCHC2FeC5H3C3HC2HC2HSH2C3H2C2H3CPHC2HC2HCH5CHCHCHC2H3FeS2FeS2Fe2HS2FeHSCHCHCSH2C3HCH5C8H4C4HCPC12H2CHCHC2H2CH3C2H5PCH3C2H3CH2C2H4CSC2HCHCH2CH3C2SCH2CHC4HSHPC5H2CH3C7HC3HCH3CH2C2HC2HC3H4SC2H2CFeCSC3H2CFeS2FeS2FeSFeS3CH6C2HC6H6C7H3C2HC3H2C2HCHCH3C2HCH2SCHCHCH3C2H4C3HCSC4PC9HC2H2CH4CHC3H2C2H4PHC3HC2HCHCH2CHC4HCHC2SC3HCHC2H9CHC2HC2H3CH2C2FeHSH2C2HSFeS2FeSCFeSFeS3HC2H2CH2CHC6H5C7H4C6H10PC5HC5HC6HCHCHCH2SC3HC4H3C3PHCFe2CS2CSHSCHCHCHCHC2HC2H2C2HC2HCHC3H8CH2C2H2C3HC3HC2H3CSFeCFeS2FeS2FeS2FeSFeS3FeS2FeS2FeCFeS3C6H4C6H4C6H3C4H2C2HC2HC2HCHC3HC3PH3C4H3C2HCHCH3CH3CH3C3H3C6H5PHC4PC3H3C5H2CH3CHCH8CHC9PC10H2CH6CHCH4CSH2CHCHC11SH2CHCH3C2H6C2H3C2HCH2CSC4HCHSHC2HC2HCPC2HCHC2H2FeCSH2C2HCHCSH4C6H2C3HC2HC2HCHCHC2H3C3HCHC2HSH2CHC4SC6HC2HCH2CHCHFeHCH2C2H2C3HC3HCH2CSFeCHS2FeSCFeS2FeSFeS3FeS2FeS2FeSFeS3C6H4C6H4C6H4CHCHCHCHPC2SCH6C3PH3CHC4H2C2HC4HC2H2CH3CHC4HC2HCHC3HCH3C2H2CH2C2H2FeCPCHC3SHC2H2CHCH3CH5CHC2SCH3CH2CHC4H3PHC2H2C2HC2FeH2CHC5H2CH4CHC3HC2HCHC3H4PC15HC2HCH2CHC3H4CH4CH2FeCPHC6HC8HCHCH6CHC6PC18H6CH3SH2CFeCHCH2C2H3CHC10HCHCSC2H2C2FeSCHSCFeCFeSHSFeS2FeS2FeSFeHS3FeSFeSHC5HC3HCSC6H4C3HCHC5H2CHC4H4FeC5H6C2HC4HCHCPH4C6H2CH2CHC10PC12H11FeH2CHC2HSCH3SPCH2C2HCHCHCHSC2SC2H2C2HC3HCH3CH2CHC2H4C2SH3C2SHCHCH3C14HFeCHC2HC2HCHCH3SC2HCFeC4H4C2HCH2CH2CH2C4HCH5C3HC2H2FeSCH3C3PC2HCH3PCSCH2PH4CSC4SCPS2C2FeSHSFeS2FeS2FeSFeCS3FeSFeSC3SH2C3HC2HC6H4C2SCHCSCHC2FeHCHC5H3C4H2CSCH3CHCH4C2H5C2H2CH2C2H2C2HCHCH3C5HC2HC4HCH2C2H5CHCHC2H2CPCFeHC4H3CHFeCHCHCPH2C3SH2C3H2C2H2CHCHCHC3HC5HC4HC3HC2HC2H3C2H3CH3CH5SHC3HCH2C7H4C6PC8H2C3H5CH4CH3C2H4C8H3C2HCHCHC2HC3H2C2H2C4H2CH3SPC2HC2HC2H4CSHSH2CHFeSH2SCFeSHFeSFeHSC3HSC2HCH2CHC2HCH2C2SHCH2C3H3C2H2C2HC9H2C4H2C5H2CH3SCHC4HC2H2CFeH2FeHC3HCP2HC2HC11HC2H5CPHC3PC4HC9H2CHCH4SH4CH3C3HCSHCHC2HC2SCHCH2C4H2CH2CH2SHSH2FeSC2SH2SHFeSFeHSHC3HC2H2CHC3HCH3CHSC2HC4H2C3PH4FeC2SCPH2C2HC2HCHCHCFeHC2HC2HC8HCH2CHSHC2H2CHCH6SC8HC3H4CH6C2H2CHCHFeC8PC7HCHC2H2C3H5CHSH3CHSFeS2CS2Fe2SCS2HSCFeSC2HC6H4CHCH2FeCH3CHC5H2SCHC2H2CH2CSPCHCHCH2C3HCHCH2CHC2H7CHC5H2CH3CH2CHCH3C3HC2HC2HFeHC3HCHCPH2CHCH2CHCH3C6PC4H6FeHC2HC4H2CHCFeS2CS2Fe2CHSH2SCFeSH3C6H4CH5CH4CH3C4HCH3C4HC4HC2SH4C2HCPHC2H3C2H2C3HC7HC3H2C3H3C2HCHCHC5H2C2PC3PCH2C2HCSC2HC4H3CHC2HCH2C2HCS2C3HC2HC5HC3PHPHC2H3CHCHFe
_chemical_formula_sum              "Fe96 S192 H1152 C1440 P48"
_cell_length_a       51.3134
_cell_length_b       51.1434
_cell_length_c       41.3188
_cell_angle_alpha    89.8885
_cell_angle_beta     90.0345
_cell_angle_gamma    120.067

_space_group_name_H-M_alt    "P 1"
_space_group_IT_number       1

loop_
  _space_group_symop_operation_xyz
  'x, y, z'

loop_
  _atom_site_type_symbol
  _atom_site_label
  _atom_site_symmetry_multiplicity
  _atom_site_fract_x
  _atom_site_fract_y
  _atom_site_fract_z
  _atom_site_occupancy
  Fe  Fe1       1.0  0.12727  0.41983  0.31257  1.0000
  S   S1        1.0  0.12025  0.45262  0.34198  1.0000
  S   S2        1.0  0.15961  0.40218  0.32593  1.0000
  Fe  Fe2       1.0  0.08189  0.41578  0.25935  1.0000
  S   S3        1.0  0.07245  0.44859  0.28554  1.0000
  S   S4        1.0  0.06463  0.39918  0.20764  1.0000
  Fe  Fe3       1.0  0.12192  0.47549  0.29498  1.0000
  Fe  Fe4       1.0  0.07114  0.42332  0.33066  1.0000
  S   S5        1.0  0.03735  0.42104  0.36726  1.0000
  S   S6        1.0  0.13246  0.44492  0.26572  1.0000
  S   S7        1.0  0.07714  0.38819  0.30413  1.0000
  Fe  Fe5       1.0  0.30448  0.42020  0.43280  1.0000
  H   H1        1.0  0.00775  0.42768  0.12243  1.0000
  S   S8        1.0  0.26797  0.43382  0.42632  1.0000
  H   H2        1.0  0.01463  0.42776  0.24850  1.0000
  H   H3        1.0  0.25767  0.41748  0.01603  1.0000
  H   H4        1.0  0.04807  0.36942  0.47288  1.0000
  C   C1        1.0  0.18231  0.28255  0.00632  1.0000
  C   C2        1.0  0.31716  0.24644  0.24238  1.0000
  S   S9        1.0  0.29553  0.37400  0.44760  1.0000
  H   H5        1.0  0.28305  0.37471  0.34377  1.0000
  C   C3        1.0  0.01000  0.34425  0.41980  1.0000
  C   C4        1.0  0.14260  0.45202  0.43204  1.0000
  C   C5        1.0  0.25455  0.45527  0.28991  1.0000
  C   C6        1.0  0.02887  0.38378  0.18790  1.0000
  C   C7        1.0  0.07838  0.48918  0.17171  1.0000
  H   H6        1.0  0.31125  0.13818  0.23659  1.0000
  H   H7        1.0  0.01660  0.40594  0.07262  1.0000
  C   C8        1.0  0.09562  0.36597  0.42912  1.0000
  C   C9        1.0  0.02118  0.39255  0.39687  1.0000
  H   H8        1.0  0.04711  0.49386  0.01299  1.0000
  C   C10       1.0  0.00176  0.46771  0.19107  1.0000
  C   C11       1.0  0.00973  0.44762  0.20460  1.0000
  H   H9        1.0  0.03835  0.36493  0.37788  1.0000
  C   C12       1.0  0.23842  0.42513  0.39754  1.0000
  C   C13       1.0  0.22287  0.44138  0.39854  1.0000
  C   C14       1.0  0.19894  0.43492  0.37690  1.0000
  C   C15       1.0  0.18998  0.41190  0.35388  1.0000
  C   C16       1.0  0.20561  0.39576  0.35281  1.0000
  C   C17       1.0  0.22959  0.40229  0.37435  1.0000
  H   H10       1.0  0.22926  0.45902  0.41636  1.0000
  H   H11       1.0  0.18740  0.44770  0.37804  1.0000
  H   H12       1.0  0.19901  0.37790  0.33521  1.0000
  H   H13       1.0  0.24091  0.38928  0.37331  1.0000
  H   H14       1.0  0.09217  0.47880  0.02285  1.0000
  C   C18       1.0  0.29634  0.41943  0.32629  1.0000
  C   C19       1.0  0.16966  0.42558  0.48808  1.0000
  C   C20       1.0  0.02474  0.36716  0.39646  1.0000
  C   C21       1.0  0.29205  0.37882  0.29253  1.0000
  C   C22       1.0  0.07502  0.33575  0.43709  1.0000
  H   H15       1.0  0.29635  0.40557  0.03569  1.0000
  H   H16       1.0  0.06794  0.41457  0.45122  1.0000
  H   H17       1.0  0.19939  0.30073  0.02070  1.0000
  C   C23       1.0  0.33195  0.49806  0.40152  1.0000
  C   C24       1.0  0.02741  0.38003  0.15401  1.0000
  H   H18       1.0  0.14624  0.36434  0.43868  1.0000
  H   H19       1.0  0.32914  0.34110  0.02216  1.0000
  H   H20       1.0  0.16234  0.44958  0.43102  1.0000
  P   P1        1.0  0.11256  0.39440  0.46022  1.0000
  H   H21       1.0  0.07144  0.46000  0.42781  1.0000
  H   H22       1.0  0.20757  0.43759  0.27897  1.0000
  C   C25       1.0  0.28049  0.47871  0.30448  1.0000
  H   H23       1.0  0.25470  0.43611  0.27908  1.0000
  H   H24       1.0  0.25735  0.23510  0.36228  1.0000
  C   C26       1.0  0.25601  0.39612  0.00983  1.0000
  C   C27       1.0  0.07577  0.43438  0.00373  1.0000
  H   H25       1.0  0.00260  0.37707  0.23084  1.0000
  P   P2        1.0  0.05147  0.47214  0.07704  1.0000
  C   C28       1.0  0.05353  0.44538  0.05004  1.0000
  H   H26       1.0  0.29370  0.35789  0.01968  1.0000
  C   C29       1.0  0.08311  0.45604  0.12048  1.0000
  C   C30       1.0  0.09522  0.45600  0.15080  1.0000
  H   H27       1.0  0.31817  0.12832  0.29385  1.0000
  H   H28       1.0  0.28590  0.21588  0.33207  1.0000
  H   H29       1.0  0.01232  0.32438  0.41919  1.0000
  C   C31       1.0  0.14052  0.23113  0.00370  1.0000
  C   C32       1.0  0.27784  0.38951  0.02076  1.0000
  H   H30       1.0  0.31880  0.49515  0.42313  1.0000
  H   H31       1.0  0.12023  0.50111  0.40679  1.0000
  C   C33       1.0  0.07540  0.45518  0.02543  1.0000
  C   C34       1.0  0.01210  0.45935  0.08479  1.0000
  C   C35       1.0  0.09281  0.47248  0.17640  1.0000
  H   H32       1.0  0.01759  0.43580  0.18925  1.0000
  C   C36       1.0  0.30742  0.42794  0.26902  1.0000
  C   C37       1.0  0.03314  0.41434  0.05344  1.0000
  C   C38       1.0  0.15016  0.40126  0.46824  1.0000
  C   C39       1.0  0.27642  0.36259  0.01154  1.0000
  H   H33       1.0  0.16549  0.49558  0.40868  1.0000
  C   C40       1.0  0.06595  0.48903  0.14154  1.0000
  H   H34       1.0  0.08487  0.44266  0.10127  1.0000
  H   H35       1.0  0.10569  0.44238  0.15491  1.0000
  C   C41       1.0  0.33421  0.49128  0.34352  1.0000
  H   H36       1.0  0.04643  0.29065  0.41903  1.0000
  C   C42       1.0  0.11525  0.42894  0.44486  1.0000
  H   H37       1.0  0.32284  0.26424  0.29032  1.0000
  C   C43       1.0  0.31537  0.15446  0.37706  1.0000
  C   C44       1.0  0.00549  0.47381  0.48945  1.0000
  C   C45       1.0  0.32569  0.24878  0.27487  1.0000
  C   C46       1.0  0.29640  0.27001  0.38649  1.0000
  H   H38       1.0  0.06837  0.32896  0.46191  1.0000
  H   H39       1.0  0.19783  0.37510  0.44957  1.0000
  H   H40       1.0  0.16622  0.25181  0.04684  1.0000
  C   C47       1.0  0.09229  0.35155  0.37264  1.0000
  C   C48       1.0  0.10434  0.37368  0.39670  1.0000
  C   C49       1.0  0.14451  0.47823  0.41913  1.0000
  C   C50       1.0  0.31948  0.18184  0.36488  1.0000
  H   H41       1.0  0.06181  0.30476  0.36177  1.0000
  H   H42       1.0  0.09945  0.35753  0.34774  1.0000
  H   H43       1.0  0.12079  0.39663  0.38994  1.0000
  H   H44       1.0  0.32140  0.31152  0.31667  1.0000
  C   C51       1.0  0.30018  0.01064  0.18813  1.0000
  C   C52       1.0  0.00207  0.37496  0.20478  1.0000
  C   C53       1.0  0.30034  0.39785  0.26551  1.0000
  H   H45       1.0  0.20524  0.48001  0.30451  1.0000
  C   C54       1.0  0.06272  0.31380  0.41284  1.0000
  H   H46       1.0  0.04785  0.38637  0.14065  1.0000
  C   C55       1.0  0.05479  0.40362  0.00682  1.0000
  C   C56       1.0  0.30617  0.43912  0.29968  1.0000
  Fe  Fe6       1.0  0.32978  0.38085  0.40946  1.0000
  C   C57       1.0  0.11901  0.48138  0.41808  1.0000
  C   C58       1.0  0.07129  0.32172  0.38061  1.0000
  C   C59       1.0  0.22771  0.45605  0.28962  1.0000
  C   C60       1.0  0.06836  0.47260  0.11562  1.0000
  C   C61       1.0  0.32910  0.24852  0.35227  1.0000
  H   H47       1.0  0.12575  0.20973  0.01545  1.0000
  H   H48       1.0  0.28405  0.27904  0.39902  1.0000
  H   H49       1.0  0.30395  0.18913  0.37229  1.0000
  C   C62       1.0  0.00358  0.39529  0.42107  1.0000
  C   C63       1.0  0.08971  0.43229  0.44336  1.0000
  C   C64       1.0  0.29772  0.23469  0.34854  1.0000
  H   H50       1.0  0.30996  0.05231  0.21038  1.0000
  C   C65       1.0  0.28979  0.38955  0.32284  1.0000
  C   C66       1.0  0.09161  0.45835  0.43006  1.0000
  H   H51       1.0  0.30147  0.38927  0.24191  1.0000
  C   C67       1.0  0.18963  0.38874  0.46085  1.0000
  C   C68       1.0  0.16042  0.38291  0.45456  1.0000
  H   H52       1.0  0.31640  0.22696  0.19595  1.0000
  S   S10       1.0  0.31926  0.34502  0.37153  1.0000
  H   H53       1.0  0.01778  0.36967  0.03458  1.0000
  H   H54       1.0  0.28716  0.35569  0.29011  1.0000
  C   C69       1.0  0.03379  0.39361  0.03193  1.0000
  C   C70       1.0  0.31889  0.04118  0.19559  1.0000
  C   C71       1.0  0.28146  0.24543  0.36560  1.0000
  H   H55       1.0  0.03668  0.48509  0.44995  1.0000
  H   H56       1.0  0.30763  0.25971  0.23323  1.0000
  C   C72       1.0  0.22638  0.48000  0.30409  1.0000
  C   C73       1.0  0.04985  0.49652  0.35888  1.0000
  H   H57       1.0  0.23155  0.41749  0.48514  1.0000
  H   H58       1.0  0.29682  0.14103  0.39334  1.0000
  H   H59       1.0  0.00746  0.48745  0.04845  1.0000
  C   C74       1.0  0.31749  0.48807  0.37165  1.0000
  P   P3        1.0  0.31533  0.47786  0.30494  1.0000
  H   H60       1.0  0.29368  0.42712  0.34981  1.0000
  C   C75       1.0  0.32754  0.28375  0.39049  1.0000
  C   C76       1.0  0.32469  0.12787  0.24237  1.0000
  H   H61       1.0  0.06471  0.48947  0.36944  1.0000
  C   C77       1.0  0.16336  0.25483  0.02136  1.0000
  C   C78       1.0  0.32856  0.12232  0.27464  1.0000
  H   H62       1.0  0.05446  0.50172  0.13845  1.0000
  C   C79       1.0  0.01909  0.48063  0.36605  1.0000
  H   H63       1.0  0.33254  0.12362  0.37847  1.0000
  H   H64       1.0  0.29318  0.47729  0.37080  1.0000
  H   H65       1.0  0.01085  0.46190  0.38290  1.0000
  H   H66       1.0  0.00329  0.47101  0.16518  1.0000
  H   H67       1.0  0.07631  0.50169  0.19173  1.0000
  C   C80       1.0  0.00798  0.44299  0.23802  1.0000
  H   H68       1.0  0.31359  0.44228  0.24783  1.0000
  C   C81       1.0  0.32204  0.22794  0.22138  1.0000
  H   H69       1.0  0.10160  0.47170  0.20008  1.0000
  C   C82       1.0  0.20876  0.41281  0.48080  1.0000
  H   H70       1.0  0.32367  0.32376  0.16372  1.0000
  C   C83       1.0  0.03417  0.48567  0.47596  1.0000
  C   C84       1.0  0.25324  0.34227  0.99133  1.0000
  H   H71       1.0  0.33335  0.30622  0.06049  1.0000
  H   H72       1.0  0.33403  0.12373  0.19268  1.0000
  H   H73       1.0  0.33416  0.04304  0.02638  1.0000
  Fe  Fe7       1.0  0.11826  0.41103  0.80385  1.0000
  S   S11       1.0  0.10610  0.43938  0.83518  1.0000
  S   S12       1.0  0.15476  0.39808  0.81311  1.0000
  Fe  Fe8       1.0  0.07394  0.40592  0.74923  1.0000
  S   S13       1.0  0.05951  0.43411  0.77678  1.0000
  S   S14       1.0  0.05839  0.38926  0.69732  1.0000
  Fe  Fe9       1.0  0.10803  0.46422  0.78934  1.0000
  Fe  Fe10      1.0  0.05825  0.40711  0.82043  1.0000
  H   H74       1.0  0.27994  0.39115  0.78802  1.0000
  S   S15       1.0  0.12336  0.43821  0.75874  1.0000
  S   S16       1.0  0.06962  0.37651  0.79206  1.0000
  Fe  Fe11      1.0  0.29721  0.42706  0.92925  1.0000
  H   H75       1.0  0.09234  0.44203  0.98448  1.0000
  S   S17       1.0  0.25001  0.42189  0.92622  1.0000
  C   C85       1.0  0.32770  0.33369  0.91848  1.0000
  H   H76       1.0  0.02920  0.49818  0.90375  1.0000
  C   C86       1.0  0.02198  0.49203  0.81171  1.0000
  H   H77       1.0  0.02803  0.33603  0.93841  1.0000
  C   C87       1.0  0.05419  0.35923  0.55290  1.0000
  S   S18       1.0  0.31193  0.39190  0.93036  1.0000
  H   H78       1.0  0.27681  0.00242  0.70341  1.0000
  H   H79       1.0  0.03219  0.43593  0.55920  1.0000
  C   C88       1.0  0.05620  0.47066  0.63247  1.0000
  C   C89       1.0  0.02713  0.46948  0.82435  1.0000
  C   C90       1.0  0.02346  0.37730  0.67717  1.0000
  H   H80       1.0  0.31369  0.40409  0.72037  1.0000
  C   C91       1.0  0.02070  0.36852  0.64450  1.0000
  H   H81       1.0  0.32479  0.31431  0.70202  1.0000
  H   H82       1.0  0.03968  0.36917  0.63241  1.0000
  H   H83       1.0  0.12630  0.35327  0.97356  1.0000
  H   H84       1.0  0.12656  0.38781  0.52874  1.0000
  H   H85       1.0  0.21678  0.38204  0.98074  1.0000
  C   C92       1.0  0.28246  0.41319  0.79234  1.0000
  C   C93       1.0  0.31074  0.08974  0.70282  1.0000
  C   C94       1.0  0.22512  0.41709  0.89356  1.0000
  C   C95       1.0  0.20191  0.42374  0.89866  1.0000
  C   C96       1.0  0.18069  0.41890  0.87417  1.0000
  C   C97       1.0  0.18191  0.40654  0.84440  1.0000
  C   C98       1.0  0.20511  0.39985  0.83933  1.0000
  C   C99       1.0  0.22689  0.40558  0.86343  1.0000
  H   H86       1.0  0.20018  0.43252  0.92186  1.0000
  H   H87       1.0  0.16297  0.42404  0.87864  1.0000
  H   H88       1.0  0.20614  0.39006  0.81655  1.0000
  H   H89       1.0  0.24457  0.40040  0.85895  1.0000
  C   C100      1.0  0.23132  0.48333  0.81975  1.0000
  C   C101      1.0  0.07173  0.45621  0.64291  1.0000
  C   C102      1.0  0.30965  0.46274  0.81688  1.0000
  C   C103      1.0  0.07369  0.43532  0.62293  1.0000
  H   H90       1.0  0.30243  0.00424  0.56587  1.0000
  C   C104      1.0  0.17871  0.28661  0.97332  1.0000
  P   P4        1.0  0.20198  0.32241  0.95346  1.0000
  C   C105      1.0  0.22195  0.31853  0.91954  1.0000
  C   C106      1.0  0.17635  0.33513  0.94104  1.0000
  C   C107      1.0  0.17094  0.33760  0.90812  1.0000
  C   C108      1.0  0.14980  0.34586  0.89901  1.0000
  C   C109      1.0  0.13395  0.35180  0.92255  1.0000
  C   C110      1.0  0.13877  0.34887  0.95532  1.0000
  C   C111      1.0  0.15964  0.34025  0.96454  1.0000
  C   C112      1.0  0.23936  0.34365  0.89973  1.0000
  C   C113      1.0  0.25545  0.34148  0.87362  1.0000
  C   C114      1.0  0.25473  0.31428  0.86745  1.0000
  C   C115      1.0  0.23797  0.28928  0.88749  1.0000
  C   C116      1.0  0.22171  0.29138  0.91356  1.0000
  H   H91       1.0  0.33300  0.18243  0.74160  1.0000
  H   H92       1.0  0.29874  0.20320  0.66202  1.0000
  C   C117      1.0  0.08503  0.36956  0.55456  1.0000
  H   H93       1.0  0.01112  0.44578  0.82034  1.0000
  C   C118      1.0  0.28603  0.02672  0.70313  1.0000
  H   H94       1.0  0.30352  0.32111  0.91514  1.0000
  C   C119      1.0  0.05354  0.47733  0.84149  1.0000
  C   C120      1.0  0.05605  0.49759  0.52969  1.0000
  H   H95       1.0  0.31663  0.36753  0.83934  1.0000
  H   H96       1.0  0.25280  0.32175  0.98392  1.0000
  C   C121      1.0  0.32669  0.42011  0.60269  1.0000
  H   H97       1.0  0.18277  0.33313  0.88930  1.0000
  H   H98       1.0  0.14597  0.34810  0.87358  1.0000
  H   H99       1.0  0.11798  0.35871  0.91531  1.0000
  C   C122      1.0  0.00198  0.47380  0.52303  1.0000
  C   C123      1.0  0.04129  0.36014  0.52349  1.0000
  H   H100      1.0  0.24050  0.36499  0.90460  1.0000
  H   H101      1.0  0.26865  0.36106  0.85844  1.0000
  H   H102      1.0  0.26733  0.31262  0.84732  1.0000
  H   H103      1.0  0.23769  0.26829  0.88285  1.0000
  H   H104      1.0  0.20931  0.27190  0.92905  1.0000
  P   P5        1.0  0.32714  0.13044  0.70422  1.0000
  C   C124      1.0  0.01249  0.46127  0.74109  1.0000
  H   H105      1.0  0.32251  0.42866  0.82120  1.0000
  H   H106      1.0  0.05557  0.48697  0.64842  1.0000
  H   H107      1.0  0.28289  0.08203  0.74520  1.0000
  C   C125      1.0  0.33436  0.36593  0.82711  1.0000
  C   C126      1.0  0.31947  0.07573  0.67938  1.0000
  H   H108      1.0  0.28030  0.30898  0.73120  1.0000
  H   H109      1.0  0.26051  0.09754  0.69819  1.0000
  H   H110      1.0  0.01662  0.50141  0.65233  1.0000
  C   C127      1.0  0.29412  0.35628  0.72728  1.0000
  H   H111      1.0  0.11854  0.21694  0.95740  1.0000
  H   H112      1.0  0.01741  0.35227  0.52196  1.0000
  C   C128      1.0  0.02464  0.36303  0.90012  1.0000
  C   C129      1.0  0.30645  0.43433  0.81103  1.0000
  H   H113      1.0  0.31395  0.03349  0.66175  1.0000
  H   H114      1.0  0.02881  0.46367  0.75897  1.0000
  H   H115      1.0  0.30461  0.40571  0.59225  1.0000
  H   H116      1.0  0.04254  0.36359  0.88576  1.0000
  C   C130      1.0  0.02109  0.48435  0.92531  1.0000
  S   S19       1.0  0.01701  0.39546  0.85083  1.0000
  C   C131      1.0  0.01641  0.34746  0.92990  1.0000
  C   C132      1.0  0.32227  0.33392  0.70571  1.0000
  H   H117      1.0  0.04028  0.35052  0.57437  1.0000
  C   C133      1.0  0.13650  0.23518  0.97099  1.0000
  H   H118      1.0  0.15179  0.26586  0.93061  1.0000
  C   C134      1.0  0.05950  0.42827  0.59277  1.0000
  H   H119      1.0  0.27450  0.35385  0.73982  1.0000
  H   H120      1.0  0.06066  0.41178  0.57748  1.0000
  C   C135      1.0  0.29050  0.18008  0.66976  1.0000
  H   H121      1.0  0.30468  0.32244  0.80536  1.0000
  H   H122      1.0  0.27978  0.47161  0.87308  1.0000
  H   H123      1.0  0.08223  0.50141  0.74794  1.0000
  C   C136      1.0  0.00911  0.37717  0.88871  1.0000
  C   C137      1.0  0.30043  0.14127  0.69032  1.0000
  S   S20       1.0  0.32569  0.45187  0.97283  1.0000
  C   C138      1.0  0.05899  0.37069  0.49562  1.0000
  H   H124      1.0  0.22508  0.11363  0.68006  1.0000
  H   H125      1.0  0.02923  0.44224  0.70588  1.0000
  C   C139      1.0  0.10293  0.38062  0.52675  1.0000
  H   H126      1.0  0.01805  0.42136  0.95719  1.0000
  C   C140      1.0  0.28833  0.46985  0.80499  1.0000
  C   C141      1.0  0.32767  0.34056  0.80797  1.0000
  C   C142      1.0  0.26173  0.42049  0.77937  1.0000
  C   C143      1.0  0.33286  0.41504  0.63433  1.0000
  H   H127      1.0  0.24302  0.40409  0.76494  1.0000
  S   S21       1.0  0.33273  0.45714  0.89399  1.0000
  H   H128      1.0  0.03723  0.45478  0.90920  1.0000
  P   P6        1.0  0.02302  0.48330  0.58711  1.0000
  C   C144      1.0  0.30703  0.04434  0.67955  1.0000
  C   C145      1.0  0.04204  0.46391  0.60200  1.0000
  C   C146      1.0  0.04344  0.44218  0.58247  1.0000
  C   C147      1.0  0.31083  0.17112  0.67998  1.0000
  C   C148      1.0  0.09007  0.38145  0.49692  1.0000
  H   H129      1.0  0.09505  0.36876  0.57738  1.0000
  H   H130      1.0  0.16228  0.44019  0.49855  1.0000
  C   C149      1.0  0.00585  0.49052  0.94980  1.0000
  H   H131      1.0  0.08558  0.42403  0.63129  1.0000
  H   H132      1.0  0.08222  0.46105  0.66662  1.0000
  H   H133      1.0  0.24389  0.16638  0.66187  1.0000
  C   C150      1.0  0.27740  0.04042  0.72668  1.0000
  C   C151      1.0  0.02729  0.48592  0.54348  1.0000
  C   C152      1.0  0.28965  0.07176  0.72654  1.0000
  C   C153      1.0  0.02559  0.45959  0.92812  1.0000
  C   C154      1.0  0.33131  0.00969  0.60616  1.0000
  C   C155      1.0  0.26464  0.44873  0.78559  1.0000
  C   C156      1.0  0.25962  0.15936  0.66975  1.0000
  H   H134      1.0  0.26141  0.02670  0.74523  1.0000
  C   C157      1.0  0.29717  0.33094  0.72219  1.0000
  C   C158      1.0  0.01455  0.44052  0.95501  1.0000
  C   C159      1.0  0.26932  0.12062  0.69036  1.0000
  H   H135      1.0  0.18341  0.46471  0.82488  1.0000
  C   C160      1.0  0.31645  0.38469  0.71636  1.0000
  H   H136      1.0  0.29555  0.48641  0.92957  1.0000
  H   H137      1.0  0.05786  0.45988  0.85024  1.0000
  H   H138      1.0  0.31512  0.39684  0.64813  1.0000
  C   C161      1.0  0.24905  0.12966  0.68002  1.0000
  H   H139      1.0  0.23109  0.46446  0.83191  1.0000
  H   H140      1.0  0.21392  0.45019  0.50938  1.0000
  C   C162      1.0  0.15541  0.26285  0.95588  1.0000
  C   C163      1.0  0.29398  0.49532  0.87882  1.0000
  H   H141      1.0  0.32602  0.35885  0.59948  1.0000
  C   C164      1.0  0.01290  0.44932  0.71083  1.0000
  C   C165      1.0  0.20435  0.48356  0.81614  1.0000
  H   H142      1.0  0.24825  0.45385  0.77539  1.0000
  C   C166      1.0  0.23102  0.34860  0.98049  1.0000
  C   C167      1.0  0.19882  0.43127  0.49435  1.0000
  C   C168      1.0  0.32361  0.01909  0.57782  1.0000
  H   H143      1.0  0.05476  0.38739  0.98991  1.0000
  H   H144      1.0  0.32864  0.47913  0.83095  1.0000
  H   H145      1.0  0.31716  0.00473  0.74859  1.0000
  H   H146      1.0  0.32503  0.34573  0.96763  1.0000
  S   S22       1.0  0.33371  0.38233  0.53464  1.0000
  C   C169      1.0  0.05946  0.49758  0.49607  1.0000
  C   C170      1.0  0.23266  0.37577  0.98980  1.0000
  H   H147      1.0  0.33369  0.13025  0.63393  1.0000
  H   H148      1.0  0.16286  0.33770  0.99002  1.0000
  C   C171      1.0  0.23071  0.84923  0.30074  1.0000
  Fe  Fe12      1.0  0.29986  0.88001  0.14764  1.0000
  C   C172      1.0  0.03989  0.58789  0.01662  1.0000
  S   S23       1.0  0.24931  0.84911  0.15847  1.0000
  C   C173      1.0  0.11148  0.71875  0.15757  1.0000
  C   C174      1.0  0.19752  0.64211  0.08994  1.0000
  C   C175      1.0  0.06137  0.52106  0.33763  1.0000
  H   H149      1.0  0.03487  0.60453  0.47949  1.0000
  H   H150      1.0  0.08165  0.50626  0.48560  1.0000
  C   C176      1.0  0.01216  0.64758  0.04492  1.0000
  Fe  Fe13      1.0  0.08762  0.64036  0.26692  1.0000
  S   S24       1.0  0.11575  0.66997  0.30773  1.0000
  S   S25       1.0  0.07931  0.59483  0.24944  1.0000
  Fe  Fe14      1.0  0.06392  0.68230  0.24988  1.0000
  S   S26       1.0  0.08978  0.71496  0.28989  1.0000
  S   S27       1.0  0.03360  0.68895  0.21531  1.0000
  Fe  Fe15      1.0  0.12855  0.70923  0.27306  1.0000
  S   S28       1.0  0.17821  0.74712  0.26733  1.0000
  Fe  Fe16      1.0  0.07442  0.67303  0.32082  1.0000
  S   S29       1.0  0.05717  0.66747  0.37344  1.0000
  S   S30       1.0  0.10312  0.67874  0.23152  1.0000
  S   S31       1.0  0.04599  0.64142  0.28167  1.0000
  C   C177      1.0  0.16569  0.65448  0.05781  1.0000
  H   H151      1.0  0.25963  0.93831  0.30129  1.0000
  H   H152      1.0  0.06368  0.69253  0.15018  1.0000
  H   H153      1.0  0.24118  0.93735  0.19997  1.0000
  H   H154      1.0  0.03345  0.66349  0.43766  1.0000
  H   H155      1.0  0.02918  0.65010  0.09309  1.0000
  H   H156      1.0  0.15390  0.63055  0.16886  1.0000
  C   C178      1.0  0.30673  0.96042  0.39498  1.0000
  C   C179      1.0  0.32491  0.88291  0.41717  1.0000
  H   H157      1.0  0.18562  0.74656  0.10972  1.0000
  C   C180      1.0  0.23019  0.82088  0.18912  1.0000
  C   C181      1.0  0.24552  0.81455  0.21318  1.0000
  C   C182      1.0  0.22930  0.79203  0.23679  1.0000
  C   C183      1.0  0.19753  0.77532  0.23674  1.0000
  C   C184      1.0  0.18225  0.78181  0.21285  1.0000
  C   C185      1.0  0.19845  0.80433  0.18925  1.0000
  H   H158      1.0  0.26986  0.82694  0.21355  1.0000
  H   H159      1.0  0.24147  0.78746  0.25523  1.0000
  H   H160      1.0  0.15790  0.76959  0.21268  1.0000
  H   H161      1.0  0.18624  0.80900  0.17096  1.0000
  H   H162      1.0  0.03787  0.83196  0.01982  1.0000
  H   H163      1.0  0.15003  0.68153  0.08117  1.0000
  C   C186      1.0  0.12809  0.54515  0.28281  1.0000
  C   C187      1.0  0.10381  0.53153  0.26133  1.0000
  C   C188      1.0  0.08911  0.54711  0.25132  1.0000
  C   C189      1.0  0.09814  0.57611  0.26325  1.0000
  C   C190      1.0  0.12165  0.58929  0.28562  1.0000
  C   C191      1.0  0.13705  0.57413  0.29480  1.0000
  C   C192      1.0  0.24653  0.81366  0.33825  1.0000
  H   H164      1.0  0.07060  0.53660  0.23437  1.0000
  H   H165      1.0  0.12815  0.61128  0.29555  1.0000
  H   H166      1.0  0.15564  0.58466  0.31165  1.0000
  C   C193      1.0  0.11278  0.66704  0.13832  1.0000
  C   C194      1.0  0.03826  0.55944  0.17584  1.0000
  H   H167      1.0  0.01298  0.54960  0.46978  1.0000
  C   C195      1.0  0.28936  0.92902  0.39775  1.0000
  C   C196      1.0  0.03555  0.54231  0.11133  1.0000
  C   C197      1.0  0.10769  0.56301  0.06040  1.0000
  H   H168      1.0  0.23625  0.72094  0.17280  1.0000
  H   H169      1.0  0.11079  0.73841  0.16617  1.0000
  C   C198      1.0  0.08485  0.69276  0.14872  1.0000
  C   C199      1.0  0.26394  0.91341  0.21385  1.0000
  H   H170      1.0  0.26422  0.90569  0.18951  1.0000
  C   C200      1.0  0.31183  0.95546  0.33742  1.0000
  H   H171      1.0  0.02548  0.58697  0.06595  1.0000
  C   C201      1.0  0.20605  0.75179  0.12255  1.0000
  H   H172      1.0  0.15510  0.65394  0.03492  1.0000
  H   H173      1.0  0.30158  0.86892  0.41005  1.0000
  H   H174      1.0  0.23932  0.95390  0.25602  1.0000
  C   C202      1.0  0.26786  0.84383  0.33184  1.0000
  C   C203      1.0  0.04213  0.52971  0.32342  1.0000
  H   H175      1.0  0.01784  0.72441  0.06447  1.0000
  C   C204      1.0  0.08542  0.66681  0.13936  1.0000
  H   H176      1.0  0.05881  0.61070  0.01830  1.0000
  H   H177      1.0  0.18705  0.80900  0.29691  1.0000
  S   S32       1.0  0.14773  0.52664  0.29483  1.0000
  C   C205      1.0  0.27525  0.91422  0.27112  1.0000
  H   H178      1.0  0.25092  0.52200  0.32979  1.0000
  C   C206      1.0  0.01439  0.65830  0.18880  1.0000
  H   H179      1.0  0.26944  0.88660  0.37316  1.0000
  C   C207      1.0  0.26009  0.86185  0.31305  1.0000
  H   H180      1.0  0.22413  0.86234  0.28579  1.0000
  H   H181      1.0  0.32032  0.96613  0.31420  1.0000
  H   H182      1.0  0.07227  0.81121  0.02451  1.0000
  C   C208      1.0  0.32231  0.90132  0.29190  1.0000
  C   C209      1.0  0.06031  0.56906  0.12238  1.0000
  H   H183      1.0  0.25260  0.79963  0.35234  1.0000
  H   H184      1.0  0.29884  0.52144  0.32974  1.0000
  H   H185      1.0  0.11284  0.64658  0.13188  1.0000
  H   H186      1.0  0.28059  0.77187  0.16658  1.0000
  C   C210      1.0  0.24973  0.94036  0.25132  1.0000
  C   C211      1.0  0.01494  0.64744  0.42287  1.0000
  C   C212      1.0  0.02939  0.80809  0.01585  1.0000
  H   H187      1.0  0.20091  0.77772  0.33025  1.0000
  C   C213      1.0  0.27606  0.90490  0.23935  1.0000
  S   S33       1.0  0.32232  0.87855  0.10071  1.0000
  C   C214      1.0  0.25975  0.76617  0.15431  1.0000
  C   C215      1.0  0.23444  0.73743  0.15799  1.0000
  C   C216      1.0  0.20711  0.73032  0.14291  1.0000
  C   C217      1.0  0.18301  0.64048  0.06074  1.0000
  P   P7        1.0  0.17468  0.69292  0.14695  1.0000
  C   C218      1.0  0.17488  0.67684  0.18576  1.0000
  C   C219      1.0  0.13882  0.71897  0.15671  1.0000
  C   C220      1.0  0.18508  0.69540  0.21322  1.0000
  C   C221      1.0  0.18563  0.68330  0.24337  1.0000
  C   C222      1.0  0.17557  0.65250  0.24642  1.0000
  C   C223      1.0  0.16411  0.63358  0.21948  1.0000
  C   C224      1.0  0.16347  0.64563  0.18926  1.0000
  C   C225      1.0  0.17687  0.67131  0.11369  1.0000
  C   C226      1.0  0.25085  0.93116  0.21979  1.0000
  H   H188      1.0  0.31668  0.52675  0.26538  1.0000
  C   C227      1.0  0.26155  0.93165  0.27697  1.0000
  C   C228      1.0  0.13975  0.69333  0.14643  1.0000
  H   H189      1.0  0.03964  0.56681  0.20045  1.0000
  H   H190      1.0  0.15904  0.73889  0.16481  1.0000
  C   C229      1.0  0.27912  0.50302  0.31850  1.0000
  H   H191      1.0  0.19247  0.71926  0.21146  1.0000
  H   H192      1.0  0.19347  0.69781  0.26447  1.0000
  H   H193      1.0  0.17618  0.64324  0.26980  1.0000
  H   H194      1.0  0.15531  0.60950  0.22225  1.0000
  C   C230      1.0  0.16275  0.67001  0.08412  1.0000
  H   H195      1.0  0.06453  0.64630  0.13388  1.0000
  C   C231      1.0  0.21736  0.80129  0.32592  1.0000
  C   C232      1.0  0.20949  0.81903  0.30717  1.0000
  C   C233      1.0  0.00566  0.61055  0.16731  1.0000
  H   H196      1.0  0.31844  0.86185  0.46399  1.0000
  H   H197      1.0  0.03451  0.53567  0.08631  1.0000
  C   C234      1.0  0.02118  0.57462  0.04339  1.0000
  C   C235      1.0  0.06353  0.51311  0.02670  1.0000
  H   H198      1.0  0.08087  0.59804  0.16380  1.0000
  H   H199      1.0  0.09999  0.53243  0.09934  1.0000
  H   H200      1.0  0.01383  0.57444  0.29042  1.0000
  H   H201      1.0  0.29666  0.97170  0.16401  1.0000
  P   P8        1.0  0.28811  0.90058  0.30437  1.0000
  H   H202      1.0  0.29048  0.85304  0.34125  1.0000
  C   C236      1.0  0.02019  0.64433  0.38996  1.0000
  C   C237      1.0  0.02536  0.68918  0.08165  1.0000
  C   C238      1.0  0.01208  0.52416  0.13255  1.0000
  H   H203      1.0  0.00982  0.59187  0.16817  1.0000
  C   C239      1.0  0.09999  0.56658  0.02893  1.0000
  C   C240      1.0  0.00743  0.74626  0.00567  1.0000
  H   H204      1.0  0.07832  0.58329  0.10594  1.0000
  C   C241      1.0  0.06175  0.57747  0.15474  1.0000
  H   H205      1.0  0.23021  0.79755  0.10441  1.0000
  C   C242      1.0  0.09316  0.53453  0.07518  1.0000
  H   H206      1.0  0.01764  0.54074  0.25096  1.0000
  H   H207      1.0  0.20685  0.65957  0.13840  1.0000
  C   C243      1.0  0.02322  0.66140  0.07482  1.0000
  H   H208      1.0  0.03357  0.63271  0.20870  1.0000
  C   C244      1.0  0.31109  0.99544  0.16945  1.0000
  C   C245      1.0  0.25815  0.78777  0.13502  1.0000
  C   C246      1.0  0.01902  0.63364  0.19033  1.0000
  C   C247      1.0  0.23138  0.78053  0.11902  1.0000
  H   H209      1.0  0.28058  0.91887  0.42120  1.0000
  C   C248      1.0  0.00659  0.69000  0.02788  1.0000
  H   H210      1.0  0.28548  0.89059  0.23412  1.0000
  C   C249      1.0  0.32048  0.87667  0.27486  1.0000
  C   C250      1.0  0.28325  0.91078  0.37035  1.0000
  S   S34       1.0  0.32119  0.93121  0.14565  1.0000
  C   C251      1.0  0.19472  0.65772  0.11625  1.0000
  C   C252      1.0  0.00379  0.66178  0.02157  1.0000
  C   C253      1.0  0.29492  0.92386  0.33996  1.0000
  H   H211      1.0  0.31807  0.96297  0.02939  1.0000
  C   C254      1.0  0.07805  0.54157  0.01204  1.0000
  H   H212      1.0  0.12510  0.58226  0.07338  1.0000
  C   C255      1.0  0.31786  0.97363  0.36480  1.0000
  C   C256      1.0  0.01686  0.70338  0.05836  1.0000
  H   H213      1.0  0.18569  0.62886  0.04021  1.0000
  H   H214      1.0  0.31135  0.97455  0.41618  1.0000
  H   H215      1.0  0.27732  0.99865  0.19723  1.0000
  H   H216      1.0  0.03298  0.69934  0.10529  1.0000
  H   H217      1.0  0.05118  0.54901  0.30728  1.0000
  H   H218      1.0  0.21145  0.63178  0.09205  1.0000
  H   H219      1.0  0.33109  0.99803  0.36249  1.0000
  H   H220      1.0  0.08522  0.53333  0.33220  1.0000
  H   H221      1.0  0.00917  0.62542  0.04017  1.0000
  C   C257      1.0  0.01306  0.53284  0.16499  1.0000
  H   H222      1.0  0.27755  0.81027  0.13272  1.0000
  C   C258      1.0  0.25210  0.50354  0.31844  1.0000
  C   C259      1.0  0.03789  0.76563  0.01325  1.0000
  H   H223      1.0  0.33138  0.96274  0.21603  1.0000
  C   C260      1.0  0.07058  0.50935  0.05859  1.0000
  C   C261      1.0  0.04875  0.79639  0.01856  1.0000
  H   H224      1.0  0.11131  0.58862  0.01744  1.0000
  H   H225      1.0  0.29882  0.85728  0.26892  1.0000
  H   H226      1.0  0.05328  0.75696  0.01486  1.0000
  C   C262      1.0  0.01127  0.51349  0.32998  1.0000
  H   H227      1.0  0.09674  0.50923  0.25200  1.0000
  H   H228      1.0  0.31534  0.99193  0.25078  1.0000
  C   C263      1.0  0.33441  0.87886  0.44752  1.0000
  C   C264      1.0  0.32199  0.53141  0.78500  1.0000
  Fe  Fe17      1.0  0.29794  0.87775  0.64108  1.0000
  H   H229      1.0  0.06407  0.55242  0.93149  1.0000
  S   S35       1.0  0.26168  0.82778  0.65130  1.0000
  H   H230      1.0  0.07244  0.54412  0.98743  1.0000
  H   H231      1.0  0.09604  0.51370  0.85819  1.0000
  C   C265      1.0  0.02613  0.57469  0.86426  1.0000
  C   C266      1.0  0.07493  0.50764  0.84627  1.0000
  H   H232      1.0  0.04707  0.70306  0.97715  1.0000
  S   S36       1.0  0.28821  0.91296  0.62021  1.0000
  Fe  Fe18      1.0  0.08611  0.63780  0.76572  1.0000
  S   S37       1.0  0.12054  0.66712  0.80305  1.0000
  S   S38       1.0  0.07650  0.59435  0.74024  1.0000
  Fe  Fe19      1.0  0.05444  0.67448  0.76883  1.0000
  S   S39       1.0  0.08652  0.70670  0.80559  1.0000
  C   C267      1.0  0.32969  0.55626  0.89525  1.0000
  Fe  Fe20      1.0  0.12322  0.70667  0.77474  1.0000
  S   S40       1.0  0.16616  0.75318  0.76525  1.0000
  Fe  Fe21      1.0  0.08106  0.66501  0.83040  1.0000
  S   S41       1.0  0.07102  0.65483  0.88476  1.0000
  S   S42       1.0  0.09061  0.67705  0.73614  1.0000
  S   S43       1.0  0.04730  0.63318  0.79502  1.0000
  H   H233      1.0  0.29144  0.52050  0.74453  1.0000
  C   C268      1.0  0.03188  0.62921  0.93649  1.0000
  C   C269      1.0  0.03463  0.63711  0.90345  1.0000
  H   H234      1.0  0.06396  0.54618  0.56482  1.0000
  H   H235      1.0  0.05174  0.63335  0.94977  1.0000
  C   C270      1.0  0.32071  0.54805  0.86312  1.0000
  H   H236      1.0  0.17036  0.83795  0.53431  1.0000
  H   H237      1.0  0.17905  0.81184  0.65323  1.0000
  C   C271      1.0  0.16937  0.72566  0.59354  1.0000
  H   H238      1.0  0.07086  0.60180  0.84496  1.0000
  C   C272      1.0  0.23571  0.80758  0.68371  1.0000
  C   C273      1.0  0.21623  0.77607  0.68092  1.0000
  C   C274      1.0  0.19512  0.75918  0.70551  1.0000
  C   C275      1.0  0.19297  0.77336  0.73350  1.0000
  C   C276      1.0  0.21295  0.80473  0.73666  1.0000
  C   C277      1.0  0.23395  0.82172  0.71199  1.0000
  H   H239      1.0  0.21752  0.76454  0.65961  1.0000
  H   H240      1.0  0.18081  0.73506  0.70318  1.0000
  H   H241      1.0  0.21189  0.81610  0.75825  1.0000
  H   H242      1.0  0.24876  0.84579  0.71491  1.0000
  H   H243      1.0  0.13554  0.71400  0.66734  1.0000
  C   C278      1.0  0.00756  0.70926  0.89988  1.0000
  C   C279      1.0  0.11671  0.53703  0.77648  1.0000
  C   C280      1.0  0.09189  0.52461  0.75564  1.0000
  C   C281      1.0  0.07987  0.54244  0.74449  1.0000
  C   C282      1.0  0.09222  0.57262  0.75458  1.0000
  C   C283      1.0  0.11701  0.58499  0.77542  1.0000
  C   C284      1.0  0.12944  0.56738  0.78594  1.0000
  H   H244      1.0  0.23117  0.55182  0.77952  1.0000
  H   H245      1.0  0.06082  0.53269  0.72825  1.0000
  H   H246      1.0  0.12686  0.60825  0.78312  1.0000
  H   H247      1.0  0.14875  0.57717  0.80190  1.0000
  C   C285      1.0  0.00856  0.55548  0.88925  1.0000
  C   C286      1.0  0.06985  0.64949  0.64892  1.0000
  C   C287      1.0  0.17321  0.68721  0.62402  1.0000
  C   C288      1.0  0.11238  0.75013  0.67525  1.0000
  C   C289      1.0  0.13717  0.76883  0.65550  1.0000
  C   C290      1.0  0.04822  0.62726  0.59699  1.0000
  H   H248      1.0  0.08867  0.59469  0.59388  1.0000
  H   H249      1.0  0.03816  0.64064  0.68731  1.0000
  H   H250      1.0  0.09503  0.72823  0.66672  1.0000
  H   H251      1.0  0.13158  0.79368  0.74297  1.0000
  H   H252      1.0  0.09496  0.58773  0.88817  1.0000
  H   H253      1.0  0.17425  0.73904  0.57167  1.0000
  H   H254      1.0  0.03549  0.70065  0.64264  1.0000
  H   H255      1.0  0.32860  0.54024  0.94383  1.0000
  H   H256      1.0  0.08927  0.66225  0.66426  1.0000
  H   H257      1.0  0.22519  0.85940  0.54362  1.0000
  P   P9        1.0  0.14058  0.75633  0.61558  1.0000
  C   C291      1.0  0.08399  0.74865  0.60152  1.0000
  C   C292      1.0  0.07349  0.64471  0.61639  1.0000
  C   C293      1.0  0.01809  0.68630  0.65953  1.0000
  C   C294      1.0  0.17923  0.70471  0.59604  1.0000
  C   C295      1.0  0.00271  0.66938  0.71463  1.0000
  H   H258      1.0  0.19186  0.70231  0.57640  1.0000
  C   C296      1.0  0.00868  0.54285  0.98454  1.0000
  C   C297      1.0  0.04808  0.71085  0.56485  1.0000
  C   C298      1.0  0.17810  0.82738  0.55160  1.0000
  C   C299      1.0  0.21897  0.82593  0.57916  1.0000
  C   C300      1.0  0.15938  0.79703  0.66740  1.0000
  H   H259      1.0  0.09195  0.74431  0.72239  1.0000
  C   C301      1.0  0.04345  0.52249  0.81700  1.0000
  C   C302      1.0  0.11036  0.75918  0.70664  1.0000
  C   C303      1.0  0.14737  0.71151  0.64703  1.0000
  C   C304      1.0  0.20897  0.83943  0.55674  1.0000
  C   C305      1.0  0.13264  0.78715  0.71828  1.0000
  C   C306      1.0  0.02198  0.54717  0.91385  1.0000
  H   H260      1.0  0.24289  0.83548  0.58364  1.0000
  C   C307      1.0  0.10413  0.73804  0.59620  1.0000
  H   H261      1.0  0.11149  0.70595  0.56927  1.0000
  C   C308      1.0  0.15351  0.72939  0.61915  1.0000
  H   H262      1.0  0.04717  0.70399  0.70110  1.0000
  C   C309      1.0  0.07077  0.57833  0.88835  1.0000
  H   H263      1.0  0.00212  0.61025  0.97784  1.0000
  H   H264      1.0  0.07852  0.59665  0.65245  1.0000
  S   S44       1.0  0.33008  0.93958  0.53257  1.0000
  C   C310      1.0  0.06818  0.70052  0.55897  1.0000
  C   C311      1.0  0.06713  0.57543  0.63940  1.0000
  C   C312      1.0  0.19818  0.80042  0.59645  1.0000
  H   H265      1.0  0.20637  0.79059  0.61411  1.0000
  C   C313      1.0  0.09620  0.71416  0.57439  1.0000
  C   C314      1.0  0.16714  0.78830  0.59168  1.0000
  C   C315      1.0  0.15722  0.69056  0.64946  1.0000
  C   C316      1.0  0.02487  0.68808  0.69260  1.0000
  H   H266      1.0  0.02374  0.62243  0.52987  1.0000
  H   H267      1.0  0.17455  0.82759  0.70788  1.0000
  H   H268      1.0  0.31593  0.98768  0.61641  1.0000
  C   C317      1.0  0.20431  0.50808  0.80128  1.0000
  C   C318      1.0  0.03896  0.51985  0.60661  1.0000
  C   C319      1.0  0.15721  0.80194  0.56905  1.0000
  P   P10       1.0  0.29296  0.50667  0.81293  1.0000
  H   H269      1.0  0.04263  0.70655  0.87388  1.0000
  C   C320      1.0  0.02014  0.58834  0.49743  1.0000
  Fe  Fe22      1.0  0.32820  0.92753  0.58678  1.0000
  Fe  Fe23      1.0  0.32253  0.94426  0.65637  1.0000
  C   C321      1.0  0.23132  0.53261  0.79044  1.0000
  S   S45       1.0  0.13235  0.51549  0.79159  1.0000
  S   S46       1.0  0.01058  0.67191  0.75612  1.0000
  C   C322      1.0  0.04769  0.70499  0.92543  1.0000
  S   S47       1.0  0.31470  0.97579  0.68776  1.0000
  H   H270      1.0  0.04805  0.58347  0.96685  1.0000
  S   S48       1.0  0.33022  0.90878  0.67888  1.0000
  C   C323      1.0  0.25835  0.53240  0.79392  1.0000
  H   H271      1.0  0.04060  0.54050  0.80712  1.0000
  C   C324      1.0  0.05889  0.54656  0.59013  1.0000
  H   H272      1.0  0.01032  0.63770  0.86131  1.0000
  C   C325      1.0  0.03563  0.70462  0.95587  1.0000
  H   H273      1.0  0.29180  0.80251  0.69706  1.0000
  C   C326      1.0  0.06978  0.53015  0.83420  1.0000
  H   H274      1.0  0.08977  0.76734  0.61782  1.0000
  C   C327      1.0  0.32102  0.53400  0.91908  1.0000
  C   C328      1.0  0.04104  0.63725  0.66196  1.0000
  H   H275      1.0  0.27911  0.55192  0.78608  1.0000
  C   C329      1.0  0.01343  0.59840  0.52601  1.0000
  C   C330      1.0  0.03352  0.70700  0.89744  1.0000
  H   H276      1.0  0.04229  0.55027  0.68120  1.0000
  H   H277      1.0  0.09594  0.65398  0.60644  1.0000
  C   C331      1.0  0.15691  0.80620  0.69853  1.0000
  C   C332      1.0  0.01580  0.62087  0.64235  1.0000
  H   H278      1.0  0.06779  0.70317  0.92338  1.0000
  C   C333      1.0  0.05602  0.73497  0.58598  1.0000
  C   C334      1.0  0.04668  0.54915  0.65570  1.0000
  H   H279      1.0  0.08694  0.55363  0.83681  1.0000
  C   C335      1.0  0.05719  0.58617  0.86386  1.0000
  H   H280      1.0  0.04013  0.74258  0.59083  1.0000
  C   C336      1.0  0.05322  0.55855  0.91296  1.0000
  C   C337      1.0  0.03225  0.52158  0.63926  1.0000
  C   C338      1.0  0.07292  0.57422  0.60653  1.0000
  H   H281      1.0  0.13344  0.79325  0.56498  1.0000
  H   H282      1.0  0.33093  0.55457  0.70627  1.0000
  H   H283      1.0  0.01589  0.58163  0.84575  1.0000
  H   H284      1.0  0.15291  0.67732  0.67142  1.0000
  H   H285      1.0  0.05198  0.62268  0.57259  1.0000
  H   H286      1.0  0.18124  0.67129  0.62618  1.0000
  H   H287      1.0  0.31422  0.99019  0.98122  1.0000
  H   H288      1.0  0.01320  0.53427  0.74609  1.0000
  C   C339      1.0  0.30268  0.50362  0.91097  1.0000
  H   H289      1.0  0.30469  0.78954  0.75033  1.0000
  H   H290      1.0  0.06193  0.68187  0.54249  1.0000
  C   C340      1.0  0.31456  0.53354  0.75277  1.0000
  C   C341      1.0  0.01899  0.61545  0.60969  1.0000
  H   H291      1.0  0.00255  0.56209  0.63887  1.0000
  H   H292      1.0  0.02613  0.69994  0.55338  1.0000
  C   C342      1.0  0.32131  0.80940  0.73741  1.0000
  C   C343      1.0  0.31404  0.81658  0.70733  1.0000
  C   C344      1.0  0.30396  0.51742  0.85446  1.0000
  H   H293      1.0  0.07579  0.50609  0.54501  1.0000
  C   C345      1.0  0.25836  0.50730  0.80780  1.0000
  C   C346      1.0  0.00378  0.61637  0.95257  1.0000
  C   C347      1.0  0.00919  0.70625  0.95853  1.0000
  H   H294      1.0  0.32721  0.56560  0.84507  1.0000
  C   C348      1.0  0.03368  0.57217  0.98732  1.0000
  C   C349      1.0  0.00869  0.63168  0.88664  1.0000
  H   H295      1.0  0.00750  0.57926  0.74407  1.0000
  H   H296      1.0  0.18336  0.50816  0.79850  1.0000
  H   H297      1.0  0.32976  0.84728  0.66696  1.0000
  C   C350      1.0  0.00770  0.55745  0.49182  1.0000
  S   S49       1.0  0.36878  0.40002  0.44413  1.0000
  Fe  Fe24      1.0  0.37330  0.44486  0.43096  1.0000
  C   C351      1.0  0.49936  0.05658  0.23171  1.0000
  Fe  Fe25      1.0  0.64280  0.10635  0.38248  1.0000
  S   S50       1.0  0.61072  0.12314  0.39511  1.0000
  S   S51       1.0  0.62677  0.06059  0.36162  1.0000
  Fe  Fe26      1.0  0.42148  0.34410  0.22858  1.0000
  S   S52       1.0  0.38468  0.29983  0.20915  1.0000
  S   S53       1.0  0.42353  0.37277  0.27119  1.0000
  Fe  Fe27      1.0  0.46684  0.34878  0.17885  1.0000
  S   S54       1.0  0.43383  0.30450  0.15593  1.0000
  S   S55       1.0  0.51335  0.37804  0.15744  1.0000
  Fe  Fe28      1.0  0.40081  0.32128  0.15960  1.0000
  S   S56       1.0  0.36930  0.31465  0.11684  1.0000
  Fe  Fe29      1.0  0.42065  0.28655  0.20701  1.0000
  S   S57       1.0  0.41187  0.23869  0.21971  1.0000
  S   S58       1.0  0.43465  0.36634  0.17967  1.0000
  S   S59       1.0  0.45637  0.32983  0.22919  1.0000
  Fe  Fe30      1.0  0.40977  0.07910  0.40331  1.0000
  S   S60       1.0  0.40761  0.04696  0.36507  1.0000
  S   S61       1.0  0.40417  0.06686  0.45777  1.0000
  Fe  Fe31      1.0  0.42730  0.13117  0.35261  1.0000
  S   S62       1.0  0.42655  0.10207  0.31184  1.0000
  S   S63       1.0  0.44099  0.18102  0.34349  1.0000
  Fe  Fe32      1.0  0.38445  0.06558  0.33474  1.0000
  C   C352      1.0  0.55615  0.00911  0.16869  1.0000
  Fe  Fe33      1.0  0.45024  0.08611  0.34531  1.0000
  S   S64       1.0  0.48570  0.07729  0.32322  1.0000
  S   S65       1.0  0.38304  0.09529  0.37405  1.0000
  S   S66       1.0  0.45431  0.11774  0.38523  1.0000
  C   C353      1.0  0.43391  0.19702  0.30832  1.0000
  C   C354      1.0  0.41742  0.17927  0.28199  1.0000
  C   C355      1.0  0.41076  0.19240  0.25545  1.0000
  C   C356      1.0  0.42072  0.22356  0.25444  1.0000
  C   C357      1.0  0.43730  0.24139  0.28074  1.0000
  C   C358      1.0  0.44399  0.22824  0.30735  1.0000
  H   H298      1.0  0.40958  0.15533  0.28226  1.0000
  H   H299      1.0  0.39746  0.17819  0.23575  1.0000
  H   H300      1.0  0.44467  0.26523  0.28072  1.0000
  H   H301      1.0  0.45663  0.24226  0.32757  1.0000
  C   C359      1.0  0.57588  0.10942  0.37507  1.0000
  C   C360      1.0  0.55475  0.11647  0.38766  1.0000
  C   C361      1.0  0.52706  0.10670  0.37201  1.0000
  C   C362      1.0  0.52030  0.08985  0.34350  1.0000
  C   C363      1.0  0.54138  0.08267  0.33087  1.0000
  C   C364      1.0  0.56906  0.09232  0.34668  1.0000
  H   H302      1.0  0.55998  0.12983  0.40948  1.0000
  H   H303      1.0  0.51117  0.11259  0.38181  1.0000
  H   H304      1.0  0.53633  0.06966  0.30882  1.0000
  H   H305      1.0  0.58530  0.08695  0.33675  1.0000
  C   C365      1.0  0.58626  0.45167  0.22119  1.0000
  C   C366      1.0  0.55884  0.42985  0.23482  1.0000
  C   C367      1.0  0.53621  0.40741  0.21542  1.0000
  C   C368      1.0  0.54111  0.40629  0.18230  1.0000
  C   C369      1.0  0.56857  0.42807  0.16863  1.0000
  C   C370      1.0  0.59100  0.45089  0.18795  1.0000
  H   H306      1.0  0.55498  0.43065  0.26042  1.0000
  H   H307      1.0  0.51505  0.39087  0.22607  1.0000
  H   H308      1.0  0.57240  0.42745  0.14298  1.0000
  C   C371      1.0  0.34315  0.33182  0.31872  1.0000
  C   C372      1.0  0.34364  0.19952  0.34394  1.0000
  C   C373      1.0  0.40938  0.08567  0.04067  1.0000
  C   C374      1.0  0.38150  0.07581  0.02581  1.0000
  H   H309      1.0  0.46668  0.38398  0.04536  1.0000
  H   H310      1.0  0.39903  0.41664  0.07342  1.0000
  C   C375      1.0  0.35920  0.10113  0.25739  1.0000
  C   C376      1.0  0.56412  0.01567  0.43567  1.0000
  H   H311      1.0  0.56063  0.05967  0.07915  1.0000
  C   C377      1.0  0.39185  0.16767  0.13297  1.0000
  C   C378      1.0  0.64980  0.03041  0.48397  1.0000
  H   H312      1.0  0.54711  0.29399  0.29424  1.0000
  C   C379      1.0  0.52694  0.27177  0.33901  1.0000
  C   C380      1.0  0.45941  0.03740  0.40298  1.0000
  H   H313      1.0  0.35056  0.48662  0.15934  1.0000
  C   C381      1.0  0.42844  0.47975  0.29967  1.0000
  H   H314      1.0  0.60128  0.34069  0.31599  1.0000
  C   C382      1.0  0.38444  0.03095  0.47781  1.0000
  C   C383      1.0  0.37848  0.11915  0.15745  1.0000
  C   C384      1.0  0.52584  0.11572  0.03302  1.0000
  H   H315      1.0  0.38233  0.05291  0.15658  1.0000
  C   C385      1.0  0.36879  0.34123  0.08893  1.0000
  C   C386      1.0  0.38753  0.37256  0.09206  1.0000
  C   C387      1.0  0.38475  0.39252  0.07035  1.0000
  P   P11       1.0  0.40675  0.44180  0.20931  1.0000
  H   H316      1.0  0.40367  0.38142  0.11164  1.0000
  H   H317      1.0  0.39391  0.05593  0.21919  1.0000
  H   H318      1.0  0.33682  0.36821  0.12913  1.0000
  C   C388      1.0  0.36605  0.33757  0.29623  1.0000
  C   C389      1.0  0.39418  0.36383  0.29898  1.0000
  C   C390      1.0  0.39926  0.38416  0.32418  1.0000
  C   C391      1.0  0.37644  0.37845  0.34657  1.0000
  H   H319      1.0  0.36196  0.32186  0.27679  1.0000
  H   H320      1.0  0.42090  0.40462  0.32629  1.0000
  H   H321      1.0  0.38059  0.39439  0.36583  1.0000
  C   C392      1.0  0.44153  0.44331  0.19860  1.0000
  C   C393      1.0  0.45921  0.43969  0.22216  1.0000
  H   H322      1.0  0.50581  0.02203  0.25323  1.0000
  C   C394      1.0  0.49332  0.44161  0.18046  1.0000
  H   H323      1.0  0.36807  0.28467  0.37655  1.0000
  C   C395      1.0  0.43330  0.33953  0.02966  1.0000
  H   H324      1.0  0.47712  0.16132  0.23291  1.0000
  H   H325      1.0  0.55953  0.48274  0.19950  1.0000
  H   H326      1.0  0.51290  0.44026  0.17330  1.0000
  C   C396      1.0  0.37786  0.40478  0.19615  1.0000
  H   H327      1.0  0.38097  0.38193  0.23871  1.0000
  H   H328      1.0  0.43211  0.32911  0.05294  1.0000
  H   H329      1.0  0.36311  0.08214  0.12311  1.0000
  C   C397      1.0  0.34357  0.21369  0.26547  1.0000
  H   H330      1.0  0.34555  0.33085  0.21884  1.0000
  H   H331      1.0  0.51093  0.30355  0.40249  1.0000
  H   H332      1.0  0.38652  0.16774  0.08124  1.0000
  C   C398      1.0  0.46491  0.07333  0.02481  1.0000
  C   C399      1.0  0.40299  0.46078  0.31808  1.0000
  C   C400      1.0  0.46275  0.11419  0.23893  1.0000
  H   H333      1.0  0.53206  0.34702  0.36515  1.0000
  H   H334      1.0  0.44144  0.05685  0.02111  1.0000
  H   H335      1.0  0.34822  0.10377  0.30703  1.0000
  C   C401      1.0  0.51887  0.30161  0.37882  1.0000
  C   C402      1.0  0.33821  0.34632  0.17307  1.0000
  C   C403      1.0  0.50789  0.03455  0.23126  1.0000
  C   C404      1.0  0.51575  0.10001  0.00385  1.0000
  C   C405      1.0  0.35750  0.03641  0.06611  1.0000
  C   C406      1.0  0.54535  0.02583  0.44820  1.0000
  H   H336      1.0  0.51370  0.12295  0.08035  1.0000
  H   H337      1.0  0.35472  0.20165  0.27341  1.0000
  H   H338      1.0  0.50649  0.25490  0.38554  1.0000
  H   H339      1.0  0.62027  0.37185  0.13131  1.0000
  H   H340      1.0  0.34059  0.19858  0.21631  1.0000
  P   P12       1.0  0.37310  0.09647  0.19336  1.0000
  H   H341      1.0  0.49482  0.08971  0.20388  1.0000
  C   C407      1.0  0.56586  0.02962  0.25612  1.0000
  C   C408      1.0  0.35556  0.05131  0.03864  1.0000
  C   C409      1.0  0.47465  0.08953  0.05394  1.0000
  C   C410      1.0  0.50541  0.11043  0.05808  1.0000
  P   P13       1.0  0.44796  0.08229  0.08612  1.0000
  C   C411      1.0  0.46051  0.11641  0.10963  1.0000
  C   C412      1.0  0.41157  0.07074  0.06826  1.0000
  C   C413      1.0  0.38541  0.04586  0.08070  1.0000
  H   H342      1.0  0.44957  0.05014  0.44884  1.0000
  H   H343      1.0  0.40207  0.03538  0.29666  1.0000
  H   H344      1.0  0.46803  0.40843  0.99350  1.0000
  C   C414      1.0  0.48193  0.12378  0.13432  1.0000
  C   C415      1.0  0.49166  0.14998  0.15271  1.0000
  C   C416      1.0  0.48033  0.16926  0.14640  1.0000
  C   C417      1.0  0.45941  0.16240  0.12159  1.0000
  C   C418      1.0  0.44950  0.13611  0.10327  1.0000
  H   H345      1.0  0.59444  0.04401  0.19471  1.0000
  H   H346      1.0  0.63741  0.13104  0.46405  1.0000
  C   C419      1.0  0.43857  0.05110  0.14454  1.0000
  H   H347      1.0  0.61199  0.46772  0.17719  1.0000
  H   H348      1.0  0.46749  0.05950  0.39231  1.0000
  H   H349      1.0  0.37259  0.41937  0.14838  1.0000
  C   C420      1.0  0.40894  0.10312  0.20889  1.0000
  H   H350      1.0  0.39967  0.29817  0.00765  1.0000
  C   C421      1.0  0.56436  0.01044  0.40252  1.0000
  H   H351      1.0  0.35993  0.41128  0.25988  1.0000
  H   H352      1.0  0.38649  0.03292  0.10084  1.0000
  H   H353      1.0  0.65093  0.44557  0.27316  1.0000
  H   H354      1.0  0.49116  0.10929  0.13934  1.0000
  H   H355      1.0  0.50799  0.15537  0.17189  1.0000
  H   H356      1.0  0.48783  0.18957  0.16066  1.0000
  H   H357      1.0  0.45092  0.17756  0.11647  1.0000
  H   H358      1.0  0.43339  0.13144  0.08416  1.0000
  C   C422      1.0  0.53941  0.29647  0.31784  1.0000
  H   H359      1.0  0.55820  0.44117  0.35561  1.0000
  C   C423      1.0  0.58165  0.03115  0.28429  1.0000
  C   C424      1.0  0.34551  0.35023  0.04133  1.0000
  C   C425      1.0  0.44528  0.05217  0.11141  1.0000
  C   C426      1.0  0.54333  0.34150  0.19945  1.0000
  C   C427      1.0  0.51608  0.31436  0.19677  1.0000
  C   C428      1.0  0.50038  0.29914  0.22463  1.0000
  C   C429      1.0  0.51167  0.31133  0.25515  1.0000
  C   C430      1.0  0.53933  0.33840  0.25810  1.0000
  C   C431      1.0  0.55488  0.35359  0.22993  1.0000
  P   P14       1.0  0.55359  0.35431  0.29765  1.0000
  C   C432      1.0  0.53966  0.37918  0.30904  1.0000
  C   C433      1.0  0.54095  0.32375  0.32667  1.0000
  C   C434      1.0  0.55586  0.40293  0.33093  1.0000
  C   C435      1.0  0.54532  0.42251  0.33926  1.0000
  C   C436      1.0  0.51840  0.41831  0.32611  1.0000
  C   C437      1.0  0.50200  0.39452  0.30469  1.0000
  C   C438      1.0  0.51252  0.37497  0.29625  1.0000
  C   C439      1.0  0.59427  0.37593  0.29607  1.0000
  C   C440      1.0  0.60875  0.40563  0.28392  1.0000
  C   C441      1.0  0.64014  0.42263  0.28247  1.0000
  H   H360      1.0  0.37223  0.09051  0.26371  1.0000
  H   H361      1.0  0.57896  0.01226  0.45153  1.0000
  C   C442      1.0  0.61176  0.36349  0.30660  1.0000
  H   H362      1.0  0.55488  0.35385  0.17779  1.0000
  H   H363      1.0  0.50665  0.30567  0.17309  1.0000
  H   H364      1.0  0.47887  0.27842  0.22253  1.0000
  H   H365      1.0  0.49850  0.29978  0.27633  1.0000
  H   H366      1.0  0.57549  0.37515  0.23118  1.0000
  H   H367      1.0  0.36862  0.48183  0.27408  1.0000
  C   C443      1.0  0.63815  0.38669  0.11497  1.0000
  H   H368      1.0  0.57680  0.40657  0.34131  1.0000
  C   C444      1.0  0.54654  0.04148  0.06280  1.0000
  H   H369      1.0  0.51028  0.43358  0.33232  1.0000
  H   H370      1.0  0.48129  0.39146  0.29431  1.0000
  H   H371      1.0  0.49960  0.35683  0.27952  1.0000
  H   H372      1.0  0.59584  0.41578  0.27547  1.0000
  C   C445      1.0  0.33832  0.23184  0.28691  1.0000
  S   S67       1.0  0.41964  0.48203  0.41536  1.0000
  H   H373      1.0  0.48294  0.11842  0.25179  1.0000
  H   H374      1.0  0.45170  0.02795  0.07202  1.0000
  C   C446      1.0  0.42943  0.47393  0.26671  1.0000
  H   H375      1.0  0.43578  0.44712  0.14716  1.0000
  C   C447      1.0  0.59644  0.02486  0.11649  1.0000
  H   H376      1.0  0.43509  0.06830  0.15549  1.0000
  C   C448      1.0  0.38455  0.15427  0.10239  1.0000
  C   C449      1.0  0.35946  0.04133  0.16549  1.0000
  C   C450      1.0  0.38975  0.26345  0.33104  1.0000
  C   C451      1.0  0.40192  0.28898  0.31085  1.0000
  C   C452      1.0  0.43203  0.31163  0.31420  1.0000
  C   C453      1.0  0.45029  0.30884  0.33740  1.0000
  C   C454      1.0  0.43836  0.28351  0.35759  1.0000
  C   C455      1.0  0.40813  0.26103  0.35469  1.0000
  C   C456      1.0  0.51624  0.02187  0.07028  1.0000
  C   C457      1.0  0.65741  0.41014  0.29307  1.0000
  C   C458      1.0  0.35761  0.01561  0.27615  1.0000
  S   S68       1.0  0.33694  0.42574  0.39325  1.0000
  H   H377      1.0  0.43012  0.02621  0.18930  1.0000
  H   H378      1.0  0.59551  0.00724  0.31644  1.0000
  C   C459      1.0  0.59797  0.08887  0.47648  1.0000
  H   H379      1.0  0.35873  0.42142  0.31784  1.0000
  C   C460      1.0  0.50148  0.07271  0.20354  1.0000
  H   H380      1.0  0.39942  0.19154  0.13565  1.0000
  H   H381      1.0  0.33910  0.30340  0.40600  1.0000
  H   H382      1.0  0.45253  0.43629  0.24737  1.0000
  C   C461      1.0  0.34829  0.35232  0.34387  1.0000
  C   C462      1.0  0.64987  0.03448  0.25979  1.0000
  H   H383      1.0  0.38814  0.29179  0.29289  1.0000
  H   H384      1.0  0.44102  0.33156  0.29902  1.0000
  H   H385      1.0  0.47356  0.32645  0.33994  1.0000
  H   H386      1.0  0.45243  0.28130  0.37565  1.0000
  H   H387      1.0  0.39916  0.24196  0.37112  1.0000
  H   H388      1.0  0.62323  0.11343  0.17650  1.0000
  C   C463      1.0  0.54720  0.01696  0.38134  1.0000
  C   C464      1.0  0.38904  0.15027  0.16029  1.0000
  H   H389      1.0  0.46483  0.01801  0.35924  1.0000
  H   H390      1.0  0.52793  0.03994  0.15177  1.0000
  H   H391      1.0  0.57890  0.00255  0.39315  1.0000
  C   C465      1.0  0.45941  0.13831  0.22838  1.0000
  C   C466      1.0  0.37061  0.37935  0.21530  1.0000
  H   H392      1.0  0.62553  0.35290  0.07789  1.0000
  C   C467      1.0  0.64672  0.12315  0.18306  1.0000
  H   H393      1.0  0.44139  0.06594  0.24415  1.0000
  H   H394      1.0  0.39429  0.16110  0.18370  1.0000
  C   C468      1.0  0.51653  0.27427  0.36941  1.0000
  S   S69       1.0  0.63252  0.00955  0.42170  1.0000
  C   C469      1.0  0.64121  0.02987  0.22703  1.0000
  C   C470      1.0  0.37519  0.46764  0.18212  1.0000
  C   C471      1.0  0.34076  0.01077  0.15822  1.0000
  C   C472      1.0  0.51180  0.06658  0.17483  1.0000
  H   H395      1.0  0.56643  0.04993  0.24767  1.0000
  C   C473      1.0  0.66384  0.39534  0.06360  1.0000
  H   H396      1.0  0.61208  0.03032  0.09652  1.0000
  S   S70       1.0  0.34201  0.44338  0.46993  1.0000
  H   H397      1.0  0.58550  0.09014  0.45598  1.0000
  C   C474      1.0  0.37146  0.10596  0.12648  1.0000
  C   C475      1.0  0.35579  0.10700  0.22495  1.0000
  H   H398      1.0  0.51737  0.03473  0.37682  1.0000
  C   C476      1.0  0.55882  0.03728  0.03445  1.0000
  C   C477      1.0  0.48511  0.43899  0.21308  1.0000
  H   H399      1.0  0.54535  0.09039  0.47877  1.0000
  C   C478      1.0  0.64765  0.01025  0.27777  1.0000
  P   P15       1.0  0.35018  0.23560  0.32872  1.0000
  C   C479      1.0  0.34795  0.33034  0.06328  1.0000
  C   C480      1.0  0.52935  0.02818  0.39343  1.0000
  H   H400      1.0  0.38241  0.20259  0.31980  1.0000
  C   C481      1.0  0.38650  0.01962  0.27923  1.0000
  H   H401      1.0  0.43032  0.15192  0.20652  1.0000
  C   C482      1.0  0.58630  0.03212  0.17201  1.0000
  C   C483      1.0  0.60632  0.03994  0.14602  1.0000
  H   H402      1.0  0.42933  0.10433  0.02998  1.0000
  H   H403      1.0  0.65462  0.01359  0.30284  1.0000
  Fe  Fe34      1.0  0.65567  0.05630  0.39950  1.0000
  C   C484      1.0  0.40365  0.47099  0.18807  1.0000
  S   S71       1.0  0.34606  0.03522  0.30193  1.0000
  H   H404      1.0  0.37536  0.15469  0.34187  1.0000
  H   H405      1.0  0.49833  0.43550  0.23122  1.0000
  C   C485      1.0  0.52037  0.04461  0.17433  1.0000
  C   C486      1.0  0.43577  0.02735  0.16384  1.0000
  H   H406      1.0  0.54947  0.13226  0.03597  1.0000
  C   C487      1.0  0.34556  0.10867  0.28210  1.0000
  H   H407      1.0  0.59424  0.05241  0.29706  1.0000
  C   C488      1.0  0.44820  0.02863  0.09777  1.0000
  S   S72       1.0  0.61414  0.47929  0.24641  1.0000
  H   H408      1.0  0.36861  0.11301  0.07545  1.0000
  H   H409      1.0  0.65666  0.37093  0.31337  1.0000
  H   H410      1.0  0.62957  0.05746  0.14892  1.0000
  H   H411      1.0  0.63336  0.49268  0.05130  1.0000
  C   C489      1.0  0.64323  0.38058  0.30511  1.0000
  C   C490      1.0  0.34567  0.37143  0.15354  1.0000
  C   C491      1.0  0.44977  0.44558  0.16586  1.0000
  C   C492      1.0  0.47573  0.44500  0.15689  1.0000
  C   C493      1.0  0.45273  0.37051  0.02539  1.0000
  C   C494      1.0  0.40504  0.44885  0.25198  1.0000
  H   H412      1.0  0.50682  0.02487  0.09243  1.0000
  H   H413      1.0  0.64309  0.04855  0.21291  1.0000
  C   C495      1.0  0.45801  0.01396  0.38445  1.0000
  C   C496      1.0  0.37836  0.43626  0.30344  1.0000
  C   C497      1.0  0.62981  0.00669  0.46416  1.0000
  H   H414      1.0  0.52483  0.25042  0.33169  1.0000
  C   C498      1.0  0.35952  0.16207  0.34802  1.0000
  C   C499      1.0  0.64106  0.37605  0.08484  1.0000
  H   H415      1.0  0.48178  0.44626  0.13159  1.0000
  C   C500      1.0  0.43270  0.13284  0.21335  1.0000
  C   C501      1.0  0.37928  0.43039  0.27052  1.0000
  H   H416      1.0  0.38008  0.08639  0.00360  1.0000
  C   C502      1.0  0.43929  0.08457  0.23463  1.0000
  H   H417      1.0  0.49112  0.06111  0.25400  1.0000
  C   C503      1.0  0.41235  0.07901  0.22014  1.0000
  H   H418      1.0  0.35497  0.44784  0.19072  1.0000
  C   C504      1.0  0.53096  0.32626  0.35754  1.0000
  C   C505      1.0  0.51910  0.02888  0.20271  1.0000
  H   H419      1.0  0.58239  0.05219  0.02861  1.0000
  H   H420      1.0  0.54854  0.01438  0.35548  1.0000
  H   H421      1.0  0.44942  0.48870  0.25284  1.0000
  C   C506      1.0  0.52807  0.03230  0.42673  1.0000
  C   C507      1.0  0.36349  0.18926  0.33557  1.0000
  C   C508      1.0  0.44948  0.03215  0.43498  1.0000
  H   H422      1.0  0.51427  0.04133  0.43528  1.0000
  C   C509      1.0  0.58238  0.00568  0.29525  1.0000
  H   H423      1.0  0.51291  0.07857  0.15283  1.0000
  C   C510      1.0  0.36581  0.40051  0.16475  1.0000
  C   C511      1.0  0.41497  0.32212  0.00415  1.0000
  H   H424      1.0  0.63722  0.10671  0.23230  1.0000
  S   S73       1.0  0.36058  0.40801  0.01868  1.0000
  H   H425      1.0  0.66648  0.05162  0.47335  1.0000
  H   H426      1.0  0.65686  0.46287  0.06722  1.0000
  C   C512      1.0  0.36366  0.38158  0.04482  1.0000
  H   H427      1.0  0.55077  0.01065  0.99168  1.0000
  C   C513      1.0  0.65452  0.11946  0.21442  1.0000
  C   C514      1.0  0.45340  0.38426  0.99584  1.0000
  C   C515      1.0  0.35063  0.35030  0.20398  1.0000
  C   C516      1.0  0.39549  0.00321  0.25973  1.0000
  S   S74       1.0  0.66348  0.07090  0.27698  1.0000
  C   C517      1.0  0.34871  0.05683  0.18424  1.0000
  C   C518      1.0  0.37445  0.12346  0.09916  1.0000
  C   C519      1.0  0.48533  0.07867  0.99984  1.0000
  C   C520      1.0  0.62768  0.11210  0.48076  1.0000
  C   C521      1.0  0.54080  0.01356  0.01355  1.0000
  C   C522      1.0  0.34389  0.27313  0.37348  1.0000
  H   H428      1.0  0.40243  0.46489  0.34380  1.0000
  C   C523      1.0  0.56638  0.00232  0.11280  1.0000
  C   C524      1.0  0.65811  0.41657  0.12399  1.0000
  H   H429      1.0  0.50722  0.10489  0.48908  1.0000
  C   C525      1.0  0.33987  0.50153  0.27284  1.0000
  H   H430      1.0  0.66598  0.38716  0.04014  1.0000
  H   H431      1.0  0.66327  0.14255  0.13597  1.0000
  C   C526      1.0  0.33543  0.14461  0.36870  1.0000
  H   H432      1.0  0.65513  0.42424  0.14730  1.0000
  C   C527      1.0  0.61214  0.00451  0.01477  1.0000
  H   H433      1.0  0.41785  0.00634  0.26247  1.0000
  Fe  Fe35      1.0  0.33557  0.39714  0.48145  1.0000
  H   H434      1.0  0.64820  0.10283  0.99656  1.0000
  C   C528      1.0  0.33791  0.11990  0.21754  1.0000
  H   H435      1.0  0.66447  0.15696  0.00481  1.0000
  H   H436      1.0  0.36580  0.00423  0.43494  1.0000
  C   C529      1.0  0.43958  0.00452  0.15025  1.0000
  C   C530      1.0  0.36694  0.00385  0.46106  1.0000
  H   H437      1.0  0.44756  0.49867  0.31118  1.0000
  H   H438      1.0  0.66530  0.47567  0.16218  1.0000
  C   C531      1.0  0.37262  0.48962  0.16446  1.0000
  C   C532      1.0  0.43866  0.00360  0.44878  1.0000
  C   C533      1.0  0.42956  0.49738  0.17761  1.0000
  H   H439      1.0  0.54508  0.50054  0.24811  1.0000
  C   C534      1.0  0.55028  0.00238  0.23882  1.0000
  C   C535      1.0  0.44550  0.00499  0.11721  1.0000
  C   C536      1.0  0.33542  0.21175  0.23289  1.0000
  H   H440      1.0  0.33758  0.01651  0.07510  1.0000
  C   C537      1.0  0.66608  0.48558  0.07646  1.0000
  H   H441      1.0  0.41307  0.00350  0.01308  1.0000
  H   H442      1.0  0.45181  0.50088  0.18267  1.0000
  C   C538      1.0  0.36476  0.49891  0.26335  1.0000
  S   S75       1.0  0.38107  0.44896  0.93788  1.0000
  Fe  Fe36      1.0  0.36194  0.47957  0.93698  1.0000
  C   C539      1.0  0.37103  0.36379  0.95250  1.0000
  H   H443      1.0  0.38712  0.37665  0.52069  1.0000
  S   S76       1.0  0.62276  0.12945  0.84701  1.0000
  S   S77       1.0  0.62674  0.06001  0.87323  1.0000
  Fe  Fe37      1.0  0.38347  0.31338  0.74161  1.0000
  S   S78       1.0  0.38071  0.28224  0.70164  1.0000
  C   C540      1.0  0.51987  0.04605  0.50089  1.0000
  Fe  Fe38      1.0  0.45059  0.35588  0.73255  1.0000
  S   S79       1.0  0.45297  0.32774  0.69225  1.0000
  S   S80       1.0  0.48673  0.40093  0.75279  1.0000
  Fe  Fe39      1.0  0.41012  0.32512  0.67350  1.0000
  S   S81       1.0  0.40751  0.33521  0.61945  1.0000
  Fe  Fe40      1.0  0.42328  0.28738  0.72419  1.0000
  S   S82       1.0  0.43108  0.24689  0.73003  1.0000
  S   S83       1.0  0.40981  0.35546  0.71229  1.0000
  S   S84       1.0  0.42398  0.31611  0.76567  1.0000
  Fe  Fe41      1.0  0.39407  0.06430  0.90024  1.0000
  S   S85       1.0  0.42569  0.05119  0.87799  1.0000
  S   S86       1.0  0.35786  0.03343  0.93684  1.0000
  Fe  Fe42      1.0  0.42381  0.12594  0.86358  1.0000
  S   S87       1.0  0.45861  0.11732  0.84085  1.0000
  S   S88       1.0  0.42211  0.16985  0.85697  1.0000
  Fe  Fe43      1.0  0.41973  0.07066  0.83166  1.0000
  S   S89       1.0  0.42323  0.05240  0.78312  1.0000
  Fe  Fe44      1.0  0.46169  0.09857  0.88892  1.0000
  S   S90       1.0  0.50183  0.10242  0.91595  1.0000
  S   S91       1.0  0.38448  0.07977  0.85223  1.0000
  S   S92       1.0  0.43041  0.11124  0.91333  1.0000
  C   C541      1.0  0.42636  0.19194  0.82166  1.0000
  C   C542      1.0  0.43274  0.18456  0.79125  1.0000
  C   C543      1.0  0.43457  0.20188  0.76374  1.0000
  C   C544      1.0  0.42961  0.22656  0.76601  1.0000
  C   C545      1.0  0.42382  0.23430  0.79657  1.0000
  C   C546      1.0  0.42244  0.21724  0.82417  1.0000
  H   H444      1.0  0.43599  0.16536  0.78903  1.0000
  H   H445      1.0  0.43981  0.19610  0.74051  1.0000
  H   H446      1.0  0.42015  0.25327  0.79893  1.0000
  H   H447      1.0  0.41759  0.22329  0.84756  1.0000
  C   C547      1.0  0.58755  0.11831  0.86478  1.0000
  C   C548      1.0  0.56609  0.12219  0.84769  1.0000
  C   C549      1.0  0.53885  0.11588  0.86250  1.0000
  C   C550      1.0  0.53337  0.10629  0.89476  1.0000
  C   C551      1.0  0.55433  0.10126  0.91137  1.0000
  C   C552      1.0  0.58121  0.10696  0.89634  1.0000
  H   H448      1.0  0.57092  0.13054  0.82316  1.0000
  H   H449      1.0  0.52270  0.11961  0.84945  1.0000
  H   H450      1.0  0.55010  0.09341  0.93613  1.0000
  H   H451      1.0  0.59755  0.10364  0.90956  1.0000
  C   C553      1.0  0.57861  0.46273  0.70573  1.0000
  C   C554      1.0  0.56550  0.47456  0.72637  1.0000
  C   C555      1.0  0.53679  0.45552  0.73962  1.0000
  C   C556      1.0  0.52090  0.42456  0.73231  1.0000
  C   C557      1.0  0.53336  0.41294  0.71055  1.0000
  C   C558      1.0  0.56224  0.43193  0.69754  1.0000
  H   H452      1.0  0.44929  0.00857  0.88870  1.0000
  H   H453      1.0  0.52716  0.46470  0.75621  1.0000
  H   H454      1.0  0.52135  0.38910  0.70484  1.0000
  H   H455      1.0  0.57223  0.42250  0.68177  1.0000
  C   C559      1.0  0.38614  0.02973  0.51180  1.0000
  H   H456      1.0  0.49830  0.12784  0.54634  1.0000
  C   C560      1.0  0.39246  0.03199  0.75712  1.0000
  H   H457      1.0  0.58259  0.10231  0.75086  1.0000
  C   C561      1.0  0.35558  0.14577  0.64406  1.0000
  H   H458      1.0  0.60300  0.02965  0.80918  1.0000
  C   C562      1.0  0.37548  0.46648  0.77269  1.0000
  H   H459      1.0  0.45025  0.01926  0.53478  1.0000
  P   P16       1.0  0.53769  0.00415  0.80894  1.0000
  C   C563      1.0  0.46248  0.48414  0.58327  1.0000
  C   C564      1.0  0.40793  0.18363  0.63579  1.0000
  S   S93       1.0  0.37391  0.42195  0.85280  1.0000
  C   C565      1.0  0.34595  0.12630  0.76657  1.0000
  H   H460      1.0  0.56538  0.18667  0.84978  1.0000
  H   H461      1.0  0.55160  0.17227  0.90677  1.0000
  H   H462      1.0  0.58515  0.45385  0.63131  1.0000
  H   H463      1.0  0.45151  0.00262  0.72519  1.0000
  H   H464      1.0  0.43304  0.20528  0.67902  1.0000
  H   H465      1.0  0.40723  0.46846  0.63720  1.0000
  C   C566      1.0  0.39589  0.35893  0.56457  1.0000
  C   C567      1.0  0.38681  0.34858  0.59651  1.0000
  C   C568      1.0  0.36141  0.34860  0.60878  1.0000
  P   P17       1.0  0.43079  0.38512  0.93428  1.0000
  H   H466      1.0  0.41515  0.35866  0.55443  1.0000
  H   H467      1.0  0.48855  0.43756  0.91358  1.0000
  H   H468      1.0  0.36757  0.07787  0.73124  1.0000
  C   C569      1.0  0.36420  0.38925  0.83030  1.0000
  H   H469      1.0  0.37463  0.46127  0.79829  1.0000
  C   C570      1.0  0.35083  0.33851  0.79227  1.0000
  C   C571      1.0  0.38053  0.36209  0.79518  1.0000
  C   C572      1.0  0.38714  0.38743  0.81393  1.0000
  C   C573      1.0  0.38001  0.36922  0.54528  1.0000
  H   H470      1.0  0.39855  0.36065  0.78332  1.0000
  H   H471      1.0  0.41024  0.40538  0.81620  1.0000
  C   C574      1.0  0.51867  0.42163  0.57557  1.0000
  C   C575      1.0  0.35365  0.13534  0.79872  1.0000
  H   H472      1.0  0.48052  0.05590  0.83504  1.0000
  C   C576      1.0  0.37935  0.05669  0.60787  1.0000
  C   C577      1.0  0.35474  0.36947  0.55768  1.0000
  C   C578      1.0  0.44220  0.45663  0.56866  1.0000
  C   C579      1.0  0.43300  0.45614  0.53674  1.0000
  H   H473      1.0  0.33747  0.32486  0.87045  1.0000
  C   C580      1.0  0.47913  0.03490  0.82758  1.0000
  C   C581      1.0  0.37801  0.35301  0.89721  1.0000
  H   H474      1.0  0.53137  0.10458  0.98411  1.0000
  H   H475      1.0  0.36399  0.36404  0.68258  1.0000
  C   C582      1.0  0.64742  0.01100  0.78269  1.0000
  H   H476      1.0  0.43341  0.43557  0.58199  1.0000
  H   H477      1.0  0.41699  0.43489  0.52549  1.0000
  H   H478      1.0  0.41993  0.02556  0.72245  1.0000
  C   C583      1.0  0.50532  0.03308  0.82462  1.0000
  H   H479      1.0  0.55357  0.01740  0.92744  1.0000
  C   C584      1.0  0.54835  0.47861  0.61220  1.0000
  C   C585      1.0  0.50555  0.40835  0.54580  1.0000
  C   C586      1.0  0.54974  0.48374  0.82202  1.0000
  C   C587      1.0  0.64894  0.02628  0.51767  1.0000
  H   H480      1.0  0.54001  0.05435  0.77075  1.0000
  C   C588      1.0  0.50338  0.08311  0.49735  1.0000
  C   C589      1.0  0.39056  0.36725  0.92693  1.0000
  H   H481      1.0  0.52757  0.25079  0.82475  1.0000
  C   C590      1.0  0.48450  0.37462  0.60287  1.0000
  H   H482      1.0  0.42060  0.45653  0.80093  1.0000
  C   C591      1.0  0.56275  0.05932  0.77551  1.0000
  C   C592      1.0  0.35906  0.02831  0.62103  1.0000
  C   C593      1.0  0.43884  0.01419  0.62426  1.0000
  H   H483      1.0  0.49959  0.45565  0.61253  1.0000
  C   C594      1.0  0.47805  0.48713  0.95812  1.0000
  H   H484      1.0  0.40934  0.03108  0.96514  1.0000
  H   H485      1.0  0.40050  0.32209  0.95539  1.0000
  H   H486      1.0  0.55475  0.00375  0.74075  1.0000
  C   C595      1.0  0.47682  0.15426  0.55407  1.0000
  C   C596      1.0  0.48159  0.37858  0.54475  1.0000
  H   H487      1.0  0.50442  0.46645  0.54438  1.0000
  H   H488      1.0  0.42658  0.19719  0.61968  1.0000
  C   C597      1.0  0.51839  0.48751  0.65151  1.0000
  H   H489      1.0  0.49081  0.17146  0.53659  1.0000
  H   H490      1.0  0.37676  0.15950  0.59726  1.0000
  C   C598      1.0  0.44448  0.48305  0.51920  1.0000
  C   C599      1.0  0.63295  0.08521  0.52612  1.0000
  H   H491      1.0  0.37769  0.48526  0.68137  1.0000
  H   H492      1.0  0.43076  0.01104  0.82326  1.0000
  Fe  Fe45      1.0  0.64844  0.06788  0.92217  1.0000
  C   C600      1.0  0.47234  0.36913  0.84267  1.0000
  P   P18       1.0  0.54665  0.03387  0.49093  1.0000
  C   C601      1.0  0.37829  0.46035  0.59639  1.0000
  H   H493      1.0  0.44079  0.40986  0.86902  1.0000
  C   C602      1.0  0.37736  0.47981  0.70673  1.0000
  C   C603      1.0  0.47706  0.44550  0.92917  1.0000
  C   C604      1.0  0.52632  0.49783  0.50550  1.0000
  S   S94       1.0  0.61877  0.04197  0.96456  1.0000
  H   H494      1.0  0.51930  0.20846  0.73207  1.0000
  C   C605      1.0  0.41167  0.18806  0.66920  1.0000
  C   C606      1.0  0.38940  0.01625  0.97897  1.0000
  H   H495      1.0  0.48121  0.36490  0.82069  1.0000
  H   H496      1.0  0.35940  0.03475  0.78671  1.0000
  C   C607      1.0  0.41557  0.33577  0.97456  1.0000
  H   H497      1.0  0.48754  0.00372  0.52349  1.0000
  C   C608      1.0  0.64520  0.11029  0.50557  1.0000
  H   H498      1.0  0.66495  0.04444  0.53291  1.0000
  H   H499      1.0  0.35342  0.33978  0.63272  1.0000
  H   H500      1.0  0.39593  0.47732  0.58127  1.0000
  C   C609      1.0  0.61789  0.44147  0.55212  1.0000
  H   H501      1.0  0.41874  0.13604  0.60589  1.0000
  H   H502      1.0  0.41400  0.42173  0.97518  1.0000
  H   H503      1.0  0.39060  0.17575  0.71575  1.0000
  H   H504      1.0  0.45785  0.34684  0.92140  1.0000
  H   H505      1.0  0.44865  0.16080  0.70927  1.0000
  C   C610      1.0  0.65305  0.01143  0.74925  1.0000
  H   H506      1.0  0.33626  0.08872  0.66135  1.0000
  C   C611      1.0  0.58509  0.06390  0.49754  1.0000
  C   C612      1.0  0.34356  0.04729  0.56448  1.0000
  S   S95       1.0  0.34268  0.30632  0.76950  1.0000
  C   C613      1.0  0.34605  0.17774  0.78939  1.0000
  H   H507      1.0  0.49669  0.27825  0.74203  1.0000
  H   H508      1.0  0.34693  0.19816  0.79808  1.0000
  H   H509      1.0  0.54197  0.02448  0.56082  1.0000
  C   C614      1.0  0.57949  0.50101  0.52718  1.0000
  H   H510      1.0  0.64243  0.27647  0.82861  1.0000
  H   H511      1.0  0.52630  0.47067  0.82900  1.0000
  C   C615      1.0  0.46173  0.38949  0.84205  1.0000
  H   H512      1.0  0.41228  0.02697  0.59540  1.0000
  C   C616      1.0  0.58276  0.45314  0.57894  1.0000
  C   C617      1.0  0.34679  0.33612  0.89323  1.0000
  C   C618      1.0  0.35339  0.16085  0.81021  1.0000
  C   C619      1.0  0.44970  0.39462  0.87007  1.0000
  H   H513      1.0  0.36033  0.12291  0.81477  1.0000
  H   H514      1.0  0.47110  0.36848  0.52185  1.0000
  H   H515      1.0  0.51289  0.02406  0.96359  1.0000
  P   P19       1.0  0.55095  0.45910  0.57715  1.0000
  H   H516      1.0  0.47903  0.33796  0.87169  1.0000
  C   C620      1.0  0.55212  0.48152  0.54274  1.0000
  C   C621      1.0  0.35933  0.14970  0.67772  1.0000
  H   H517      1.0  0.49675  0.48270  0.66087  1.0000
  H   H518      1.0  0.64844  0.43582  0.58338  1.0000
  C   C622      1.0  0.52563  0.48058  0.53215  1.0000
  C   C623      1.0  0.44814  0.37935  0.89899  1.0000
  H   H519      1.0  0.50930  0.28268  0.80031  1.0000
  C   C624      1.0  0.61828  0.44528  0.61050  1.0000
  C   C625      1.0  0.47105  0.35398  0.87140  1.0000
  Fe  Fe46      1.0  0.64917  0.11034  0.87113  1.0000
  H   H520      1.0  0.52683  0.05282  0.83033  1.0000
  H   H521      1.0  0.47748  0.06666  0.97708  1.0000
  C   C626      1.0  0.45507  0.47240  0.83725  1.0000
  H   H522      1.0  0.47780  0.05044  0.69194  1.0000
  C   C627      1.0  0.54528  0.01047  0.87613  1.0000
  C   C628      1.0  0.49263  0.02615  0.51654  1.0000
  C   C629      1.0  0.50840  0.40436  0.60405  1.0000
  C   C630      1.0  0.43536  0.43652  0.96379  1.0000
  C   C631      1.0  0.37126  0.06608  0.57944  1.0000
  H   H523      1.0  0.46230  0.40082  0.81960  1.0000
  H   H524      1.0  0.43773  0.48245  0.49420  1.0000
  C   C632      1.0  0.44833  0.42539  0.94186  1.0000
  H   H525      1.0  0.64680  0.08334  0.54477  1.0000
  H   H526      1.0  0.37971  0.37287  0.97622  1.0000
  H   H527      1.0  0.45112  0.17557  0.56650  1.0000
  H   H528      1.0  0.46607  0.00591  0.65765  1.0000
  C   C633      1.0  0.59807  0.04539  0.79694  1.0000
  H   H529      1.0  0.43979  0.45817  0.85610  1.0000
  C   C634      1.0  0.63127  0.02309  0.99018  1.0000
  C   C635      1.0  0.36346  0.02626  0.76445  1.0000
  C   C636      1.0  0.45007  0.46721  0.97171  1.0000
  H   H530      1.0  0.55323  0.44396  0.81401  1.0000
  C   C637      1.0  0.61641  0.09294  0.76872  1.0000
  C   C638      1.0  0.47127  0.03486  0.52295  1.0000
  H   H531      1.0  0.63511  0.11407  0.76017  1.0000
  C   C639      1.0  0.62200  0.07228  0.78493  1.0000
  H   H532      1.0  0.50657  0.17100  0.93011  1.0000
  C   C640      1.0  0.47110  0.36175  0.57326  1.0000
  C   C641      1.0  0.49166  0.47624  0.93704  1.0000
  C   C642      1.0  0.38457  0.45530  0.62798  1.0000
  H   H533      1.0  0.62674  0.43732  0.53012  1.0000
  H   H534      1.0  0.38641  0.08738  0.56798  1.0000
  H   H535      1.0  0.43957  0.47547  0.98842  1.0000
  H   H536      1.0  0.45943  0.06948  0.51690  1.0000
  P   P20       1.0  0.41571  0.08004  0.62681  1.0000
  C   C643      1.0  0.41187  0.09657  0.66396  1.0000
  C   C644      1.0  0.43202  0.05683  0.63648  1.0000
  C   C645      1.0  0.45090  0.06345  0.66353  1.0000
  C   C646      1.0  0.46354  0.04544  0.67085  1.0000
  C   C647      1.0  0.65974  0.02614  0.98639  1.0000
  C   C648      1.0  0.38748  0.17119  0.69008  1.0000
  C   C649      1.0  0.42647  0.03234  0.61659  1.0000
  C   C650      1.0  0.43395  0.12596  0.67303  1.0000
  C   C651      1.0  0.43158  0.13817  0.70241  1.0000
  C   C652      1.0  0.40745  0.12102  0.72322  1.0000
  C   C653      1.0  0.38585  0.09158  0.71476  1.0000
  C   C654      1.0  0.38804  0.07938  0.68536  1.0000
  C   C655      1.0  0.44023  0.10933  0.59882  1.0000
  C   C656      1.0  0.43626  0.13423  0.59326  1.0000
  C   C657      1.0  0.45448  0.15657  0.57096  1.0000
  H   H537      1.0  0.39973  0.05040  0.52509  1.0000
  C   C658      1.0  0.48099  0.12962  0.55950  1.0000
  C   C659      1.0  0.46272  0.10715  0.58169  1.0000
  H   H538      1.0  0.51893  0.41375  0.62717  1.0000
  C   C660      1.0  0.45900  0.35904  0.89953  1.0000
  H   H539      1.0  0.51384  0.42077  0.52336  1.0000
  H   H540      1.0  0.64497  0.07722  0.78850  1.0000
  C   C661      1.0  0.45719  0.02058  0.65146  1.0000
  H   H541      1.0  0.45567  0.08225  0.67922  1.0000
  C   C662      1.0  0.39753  0.02097  0.72825  1.0000
  C   C663      1.0  0.34572  0.35921  0.58965  1.0000
  C   C664      1.0  0.33961  0.00927  0.74287  1.0000
  H   H542      1.0  0.59497  0.04249  0.53764  1.0000
  H   H543      1.0  0.45334  0.13935  0.65783  1.0000
  H   H544      1.0  0.49578  0.04297  0.91844  1.0000
  H   H545      1.0  0.40574  0.13029  0.74615  1.0000
  C   C665      1.0  0.36194  0.43254  0.64715  1.0000
  H   H546      1.0  0.37135  0.05631  0.67994  1.0000
  H   H547      1.0  0.39187  0.35407  0.87705  1.0000
  H   H548      1.0  0.46620  0.08814  0.58517  1.0000
  H   H549      1.0  0.47521  0.18460  0.89613  1.0000
  C   C666      1.0  0.46369  0.49021  0.78186  1.0000
  H   H550      1.0  0.46958  0.48395  0.60783  1.0000
  H   H551      1.0  0.36484  0.02014  0.64248  1.0000
  Fe  Fe47      1.0  0.34322  0.41906  0.97160  1.0000
  C   C667      1.0  0.59449  0.45117  0.60895  1.0000
  P   P21       1.0  0.37120  0.42463  0.68682  1.0000
  H   H552      1.0  0.57783  0.49814  0.73296  1.0000
  C   C668      1.0  0.37449  0.45214  0.71640  1.0000
  C   C669      1.0  0.47651  0.06321  0.51308  1.0000
  C   C670      1.0  0.56503  0.46845  0.81380  1.0000
  C   C671      1.0  0.36158  0.01288  0.96987  1.0000
  C   C672      1.0  0.37989  0.16245  0.62321  1.0000
  C   C673      1.0  0.37337  0.44556  0.74961  1.0000
  H   H553      1.0  0.48791  0.19808  0.83886  1.0000
  C   C674      1.0  0.40659  0.42504  0.68353  1.0000
  C   C675      1.0  0.41336  0.41437  0.65524  1.0000
  C   C676      1.0  0.44002  0.41331  0.65299  1.0000
  C   C677      1.0  0.46029  0.42322  0.67883  1.0000
  C   C678      1.0  0.45408  0.43455  0.70672  1.0000
  C   C679      1.0  0.42716  0.43501  0.70930  1.0000
  C   C680      1.0  0.58679  0.08634  0.76372  1.0000
  C   C681      1.0  0.44419  0.47165  0.80611  1.0000
  H   H554      1.0  0.50168  0.24124  0.70804  1.0000
  C   C682      1.0  0.56829  0.03908  0.79318  1.0000
  H   H555      1.0  0.47613  0.36146  0.62493  1.0000
  C   C683      1.0  0.52015  0.47233  0.62417  1.0000
  H   H556      1.0  0.37082  0.42420  0.75776  1.0000
  H   H557      1.0  0.39757  0.40583  0.63529  1.0000
  H   H558      1.0  0.44430  0.40360  0.63173  1.0000
  H   H559      1.0  0.48046  0.42144  0.67766  1.0000
  H   H560      1.0  0.46956  0.44170  0.72697  1.0000
  H   H561      1.0  0.42218  0.44222  0.73181  1.0000
  C   C684      1.0  0.43445  0.36705  0.97032  1.0000
  H   H562      1.0  0.60660  0.47277  0.79631  1.0000
  C   C685      1.0  0.47849  0.12250  0.75575  1.0000
  C   C686      1.0  0.49445  0.10698  0.75632  1.0000
  C   C687      1.0  0.52384  0.12113  0.76829  1.0000
  C   C688      1.0  0.53729  0.15083  0.77965  1.0000
  C   C689      1.0  0.52150  0.16667  0.77892  1.0000
  C   C690      1.0  0.49180  0.15211  0.76736  1.0000
  P   P22       1.0  0.53744  0.20320  0.79798  1.0000
  C   C691      1.0  0.52870  0.19523  0.84041  1.0000
  C   C692      1.0  0.57760  0.22436  0.79159  1.0000
  C   C693      1.0  0.59664  0.24471  0.81517  1.0000
  C   C694      1.0  0.62779  0.26109  0.81016  1.0000
  C   C695      1.0  0.64005  0.25759  0.78141  1.0000
  C   C696      1.0  0.62116  0.23794  0.75749  1.0000
  C   C697      1.0  0.59000  0.22153  0.76243  1.0000
  C   C698      1.0  0.50290  0.19395  0.85369  1.0000
  C   C699      1.0  0.49540  0.18597  0.88617  1.0000
  C   C700      1.0  0.51310  0.17843  0.90535  1.0000
  C   C701      1.0  0.53854  0.17921  0.89219  1.0000
  C   C702      1.0  0.54624  0.18739  0.85982  1.0000
  C   C703      1.0  0.52357  0.22629  0.78052  1.0000
  C   C704      1.0  0.51693  0.22432  0.74732  1.0000
  C   C705      1.0  0.50734  0.24307  0.73350  1.0000
  C   C706      1.0  0.50466  0.26411  0.75262  1.0000
  C   C707      1.0  0.51171  0.26655  0.78553  1.0000
  C   C708      1.0  0.52156  0.24804  0.79936  1.0000
  H   H563      1.0  0.45522  0.11086  0.74787  1.0000
  H   H564      1.0  0.48350  0.08358  0.74866  1.0000
  H   H565      1.0  0.53585  0.10878  0.76979  1.0000
  H   H566      1.0  0.55971  0.16114  0.78986  1.0000
  H   H567      1.0  0.47853  0.16316  0.76843  1.0000
  H   H568      1.0  0.58748  0.24791  0.83745  1.0000
  C   C709      1.0  0.33983  0.34750  0.94809  1.0000
  H   H569      1.0  0.45234  0.33874  0.57255  1.0000
  H   H570      1.0  0.63068  0.23539  0.73512  1.0000
  H   H571      1.0  0.57565  0.20659  0.74354  1.0000
  S   S96       1.0  0.61566  0.48534  0.69060  1.0000
  H   H572      1.0  0.62744  0.44438  0.63390  1.0000
  H   H573      1.0  0.49350  0.49149  0.86838  1.0000
  C   C710      1.0  0.60313  0.06203  0.52209  1.0000
  Fe  Fe48      1.0  0.34939  0.42436  0.89720  1.0000
  C   C711      1.0  0.48324  0.01926  0.92488  1.0000
  H   H574      1.0  0.53550  0.02489  0.87500  1.0000
  C   C712      1.0  0.59510  0.48465  0.80383  1.0000
  H   H575      1.0  0.51366  0.49165  0.92707  1.0000
  H   H576      1.0  0.45518  0.48964  0.75777  1.0000
  C   C713      1.0  0.63004  0.44048  0.58210  1.0000
  C   C714      1.0  0.48551  0.49160  0.84419  1.0000
  H   H577      1.0  0.35981  0.16802  0.83505  1.0000
  H   H578      1.0  0.50582  0.49688  0.49719  1.0000
  H   H579      1.0  0.58446  0.44740  0.52720  1.0000
  C   C715      1.0  0.59414  0.44749  0.55053  1.0000
  H   H580      1.0  0.34650  0.10658  0.75820  1.0000
  C   C716      1.0  0.34467  0.36227  0.69497  1.0000
  C   C717      1.0  0.33823  0.16873  0.75723  1.0000
  C   C718      1.0  0.49283  0.00833  0.95057  1.0000
  C   C719      1.0  0.34938  0.44265  0.58372  1.0000
  C   C720      1.0  0.37849  0.49399  0.76290  1.0000
  C   C721      1.0  0.34222  0.38794  0.70066  1.0000
  C   C722      1.0  0.55545  0.00625  0.90605  1.0000
  C   C723      1.0  0.53797  0.00363  0.54967  1.0000
  C   C724      1.0  0.45107  0.00963  0.82101  1.0000
  C   C725      1.0  0.50368  0.00613  0.81416  1.0000
  H   H581      1.0  0.66421  0.27017  0.77763  1.0000
  C   C726      1.0  0.37365  0.00321  0.70730  1.0000
  H   H582      1.0  0.34469  0.44561  0.55878  1.0000
  C   C727      1.0  0.33765  0.14262  0.74566  1.0000
  S   S97       1.0  0.66760  0.11820  0.92182  1.0000
  C   C728      1.0  0.52506  0.07471  0.49148  1.0000
  C   C729      1.0  0.57458  0.50114  0.62703  1.0000
  H   H583      1.0  0.33469  0.18765  0.68006  1.0000
  H   H584      1.0  0.33790  0.05423  0.54200  1.0000
  C   C730      1.0  0.37937  0.50064  0.72995  1.0000
  C   C731      1.0  0.42426  0.88468  0.03699  1.0000
  Fe  Fe49      1.0  0.54341  0.64193  0.47137  1.0000
  S   S98       1.0  0.55240  0.67533  0.43169  1.0000
  C   C732      1.0  0.38069  0.54102  0.22641  1.0000
  H   H585      1.0  0.50812  0.56667  0.08490  1.0000
  S   S99       1.0  0.62351  0.70735  0.44944  1.0000
  C   C733      1.0  0.36313  0.51085  0.40374  1.0000
  Fe  Fe50      1.0  0.58365  0.71120  0.46715  1.0000
  C   C734      1.0  0.34663  0.87711  0.26450  1.0000
  Fe  Fe51      1.0  0.59129  0.66841  0.41764  1.0000
  S   S100      1.0  0.59520  0.65597  0.36484  1.0000
  H   H586      1.0  0.42258  0.86377  0.04534  1.0000
  S   S101      1.0  0.57985  0.63279  0.45559  1.0000
  Fe  Fe52      1.0  0.58707  0.87449  0.11127  1.0000
  S   S102      1.0  0.58234  0.90063  0.06997  1.0000
  S   S103      1.0  0.58456  0.82833  0.10845  1.0000
  Fe  Fe53      1.0  0.60253  0.92640  0.16056  1.0000
  S   S104      1.0  0.59957  0.95594  0.12259  1.0000
  S   S105      1.0  0.61311  0.94024  0.21380  1.0000
  Fe  Fe54      1.0  0.55793  0.91407  0.10565  1.0000
  S   S106      1.0  0.52241  0.92542  0.09011  1.0000
  Fe  Fe55      1.0  0.62388  0.94016  0.09026  1.0000
  H   H587      1.0  0.51900  0.94757  0.41542  1.0000
  S   S107      1.0  0.55905  0.88492  0.14589  1.0000
  S   S108      1.0  0.63063  0.91372  0.12949  1.0000
  S   S109      1.0  0.38403  0.93274  0.13126  1.0000
  Fe  Fe56      1.0  0.35939  0.88267  0.13325  1.0000
  S   S110      1.0  0.38392  0.85631  0.12842  1.0000
  Fe  Fe57      1.0  0.64558  0.52564  0.22518  1.0000
  S   S111      1.0  0.63183  0.56082  0.22196  1.0000
  H   H588      1.0  0.35324  0.94628  0.31014  1.0000
  C   C735      1.0  0.55477  0.55616  0.19524  1.0000
  C   C736      1.0  0.62399  0.86978  0.21156  1.0000
  C   C737      1.0  0.37548  0.92343  0.40558  1.0000
  C   C738      1.0  0.44287  0.93019  0.20120  1.0000
  C   C739      1.0  0.59427  0.89129  0.48527  1.0000
  H   H589      1.0  0.33825  0.90830  0.37260  1.0000
  C   C740      1.0  0.62754  0.97694  0.23056  1.0000
  C   C741      1.0  0.63664  0.98170  0.26317  1.0000
  C   C742      1.0  0.47752  0.94547  0.42933  1.0000
  H   H590      1.0  0.44755  0.96781  0.38377  1.0000
  C   C743      1.0  0.50012  0.93857  0.18859  1.0000
  S   S112      1.0  0.52034  0.59076  0.99824  1.0000
  C   C744      1.0  0.42286  0.87593  0.11922  1.0000
  C   C745      1.0  0.43789  0.90658  0.11094  1.0000
  C   C746      1.0  0.46850  0.92144  0.10261  1.0000
  C   C747      1.0  0.48463  0.90600  0.10303  1.0000
  C   C748      1.0  0.46995  0.87549  0.11187  1.0000
  C   C749      1.0  0.43906  0.86046  0.11976  1.0000
  H   H591      1.0  0.42576  0.91863  0.10965  1.0000
  H   H592      1.0  0.47959  0.94487  0.09529  1.0000
  H   H593      1.0  0.48217  0.86333  0.11190  1.0000
  H   H594      1.0  0.42764  0.83672  0.12606  1.0000
  C   C750      1.0  0.61916  0.64464  0.34525  1.0000
  C   C751      1.0  0.60970  0.62856  0.31587  1.0000
  C   C752      1.0  0.62851  0.62073  0.29835  1.0000
  H   H595      1.0  0.42057  0.92706  0.20512  1.0000
  C   C753      1.0  0.46828  0.95892  0.20419  1.0000
  H   H596      1.0  0.58773  0.62240  0.30641  1.0000
  C   C754      1.0  0.44555  0.55272  0.47713  1.0000
  C   C755      1.0  0.62401  0.96332  0.35146  1.0000
  C   C756      1.0  0.62253  0.62876  0.06572  1.0000
  C   C757      1.0  0.61605  0.60493  0.08720  1.0000
  C   C758      1.0  0.63903  0.60469  0.10538  1.0000
  H   H597      1.0  0.60468  0.62873  0.05176  1.0000
  H   H598      1.0  0.59314  0.58648  0.08947  1.0000
  C   C759      1.0  0.62155  0.58751  0.00089  1.0000
  H   H599      1.0  0.62342  0.92836  0.41413  1.0000
  C   C760      1.0  0.57804  0.81271  0.04267  1.0000
  C   C761      1.0  0.58292  0.80606  0.07423  1.0000
  C   C762      1.0  0.58690  0.78095  0.07894  1.0000
  C   C763      1.0  0.58637  0.76299  0.05262  1.0000
  H   H600      1.0  0.61716  0.91108  0.99037  1.0000
  H   H601      1.0  0.57497  0.83187  0.03846  1.0000
  H   H602      1.0  0.59064  0.77545  0.10315  1.0000
  H   H603      1.0  0.58966  0.74395  0.05678  1.0000
  Fe  Fe58      1.0  0.34622  0.92978  0.10118  1.0000
  C   C764      1.0  0.46999  0.53696  0.42562  1.0000
  C   C765      1.0  0.48743  0.56479  0.44137  1.0000
  C   C766      1.0  0.47527  0.57273  0.46723  1.0000
  C   C767      1.0  0.49490  0.93316  0.41849  1.0000
  C   C768      1.0  0.42815  0.52482  0.46146  1.0000
  H   H604      1.0  0.47955  0.53094  0.40563  1.0000
  H   H605      1.0  0.51027  0.58008  0.43354  1.0000
  H   H606      1.0  0.55394  0.52994  0.46900  1.0000
  H   H607      1.0  0.53330  0.88975  0.45080  1.0000
  H   H608      1.0  0.40408  0.52319  0.37801  1.0000
  H   H609      1.0  0.46961  0.90294  0.02068  1.0000
  C   C769      1.0  0.49852  0.58559  0.20596  1.0000
  C   C770      1.0  0.36593  0.98167  0.02502  1.0000
  H   H610      1.0  0.58685  0.64687  0.15366  1.0000
  C   C771      1.0  0.37482  0.90221  0.27084  1.0000
  C   C772      1.0  0.49814  0.99810  0.04936  1.0000
  C   C773      1.0  0.55345  0.51641  0.48950  1.0000
  C   C774      1.0  0.54392  0.61279  0.08757  1.0000
  H   H611      1.0  0.53283  0.97100  0.47626  1.0000
  C   C775      1.0  0.44812  0.98561  0.39843  1.0000
  H   H612      1.0  0.57332  0.79997  0.99230  1.0000
  C   C776      1.0  0.59464  0.64441  0.22756  1.0000
  P   P23       1.0  0.42415  0.94297  0.44815  1.0000
  H   H613      1.0  0.40539  0.50944  0.46941  1.0000
  H   H614      1.0  0.52198  0.94142  0.18266  1.0000
  H   H615      1.0  0.40471  0.51699  0.23395  1.0000
  H   H616      1.0  0.35222  0.56079  0.22438  1.0000
  C   C777      1.0  0.48122  0.90229  0.41179  1.0000
  C   C778      1.0  0.51031  0.99377  0.02080  1.0000
  C   C779      1.0  0.56934  0.62908  0.13925  1.0000
  C   C780      1.0  0.64212  0.82967  0.44994  1.0000
  C   C781      1.0  0.49718  0.96339  0.19787  1.0000
  C   C782      1.0  0.54809  0.53951  0.22419  1.0000
  H   H617      1.0  0.59246  0.96118  0.46307  1.0000
  H   H618      1.0  0.44686  0.98637  0.10650  1.0000
  C   C783      1.0  0.54949  0.51293  0.22557  1.0000
  H   H619      1.0  0.62084  0.60858  0.27575  1.0000
  H   H620      1.0  0.46122  0.58297  0.27521  1.0000
  C   C784      1.0  0.56438  0.51915  0.16933  1.0000
  H   H621      1.0  0.38394  0.92087  0.03595  1.0000
  C   C785      1.0  0.42928  0.93950  0.01794  1.0000
  C   C786      1.0  0.43272  0.89598  0.42684  1.0000
  C   C787      1.0  0.55773  0.50285  0.19818  1.0000
  C   C788      1.0  0.60254  0.52900  0.02295  1.0000
  C   C789      1.0  0.52305  0.88651  0.27179  1.0000
  C   C790      1.0  0.49832  0.86843  0.29152  1.0000
  C   C791      1.0  0.50167  0.85332  0.31804  1.0000
  C   C792      1.0  0.52973  0.85617  0.32481  1.0000
  C   C793      1.0  0.55462  0.87417  0.30494  1.0000
  C   C794      1.0  0.55110  0.88947  0.27852  1.0000
  P   P24       1.0  0.59122  0.87856  0.31293  1.0000
  C   C795      1.0  0.61540  0.91496  0.33133  1.0000
  C   C796      1.0  0.58828  0.85021  0.34140  1.0000
  C   C797      1.0  0.58484  0.85387  0.37452  1.0000
  C   C798      1.0  0.58223  0.83223  0.39704  1.0000
  C   C799      1.0  0.58302  0.80666  0.38666  1.0000
  C   C800      1.0  0.58677  0.80294  0.35380  1.0000
  C   C801      1.0  0.58945  0.82462  0.33120  1.0000
  C   C802      1.0  0.60524  0.93554  0.33656  1.0000
  C   C803      1.0  0.60515  0.87454  0.27408  1.0000
  C   C804      1.0  0.63365  0.89643  0.26261  1.0000
  C   C805      1.0  0.59557  0.84802  0.22268  1.0000
  C   C806      1.0  0.58614  0.85039  0.25375  1.0000
  H   H622      1.0  0.52049  0.89795  0.25095  1.0000
  H   H623      1.0  0.47651  0.86588  0.28602  1.0000
  H   H624      1.0  0.48240  0.83902  0.33310  1.0000
  H   H625      1.0  0.53169  0.84398  0.34520  1.0000
  H   H626      1.0  0.57003  0.90348  0.26287  1.0000
  H   H627      1.0  0.58392  0.87338  0.38288  1.0000
  H   H628      1.0  0.57971  0.83523  0.42261  1.0000
  H   H629      1.0  0.58097  0.78984  0.40419  1.0000
  H   H630      1.0  0.58756  0.78314  0.34586  1.0000
  H   H631      1.0  0.59244  0.82120  0.30597  1.0000
  H   H632      1.0  0.58301  0.93046  0.32911  1.0000
  Fe  Fe59      1.0  0.35786  0.93091  0.17491  1.0000
  H   H633      1.0  0.58065  0.82971  0.20679  1.0000
  H   H634      1.0  0.56373  0.83369  0.26163  1.0000
  C   C807      1.0  0.58150  0.76965  0.02106  1.0000
  H   H635      1.0  0.60613  0.97415  0.05392  1.0000
  C   C808      1.0  0.57751  0.90999  0.42926  1.0000
  C   C809      1.0  0.59353  0.57074  0.01598  1.0000
  H   H636      1.0  0.33695  0.95556  0.46485  1.0000
  S   S113      1.0  0.38807  0.96242  0.21362  1.0000
  C   C810      1.0  0.44609  0.90558  0.19260  1.0000
  H   H637      1.0  0.43070  0.96056  0.01071  1.0000
  H   H638      1.0  0.47711  0.89076  0.17900  1.0000
  H   H639      1.0  0.42632  0.88339  0.18975  1.0000
  S   S114      1.0  0.63011  0.57258  0.12908  1.0000
  P   P25       1.0  0.55508  0.59169  0.19376  1.0000
  C   C811      1.0  0.60830  0.97932  0.47824  1.0000
  H   H640      1.0  0.43958  0.85971  0.41115  1.0000
  H   H641      1.0  0.57124  0.91764  0.40772  1.0000
  C   C812      1.0  0.60722  0.91635  0.43309  1.0000
  C   C813      1.0  0.47471  0.90976  0.18646  1.0000
  H   H642      1.0  0.47482  0.98305  0.05572  1.0000
  C   C814      1.0  0.61593  0.90753  0.46138  1.0000
  H   H643      1.0  0.39640  0.53211  0.13908  1.0000
  C   C815      1.0  0.64962  0.99163  0.03145  1.0000
  H   H644      1.0  0.62507  0.68373  0.25526  1.0000
  C   C816      1.0  0.52827  0.57768  0.13254  1.0000
  H   H645      1.0  0.58094  0.65749  0.09688  1.0000
  S   S115      1.0  0.66119  0.97194  0.05699  1.0000
  C   C817      1.0  0.36449  0.89688  0.45685  1.0000
  C   C818      1.0  0.65544  0.60921  0.42813  1.0000
  S   S116      1.0  0.66097  0.68112  0.03317  1.0000
  C   C819      1.0  0.55623  0.89441  0.45349  1.0000
  C   C820      1.0  0.65762  0.62972  0.30942  1.0000
  H   H646      1.0  0.62244  0.99769  0.18761  1.0000
  H   H647      1.0  0.64094  0.60829  0.40849  1.0000
  C   C821      1.0  0.34679  0.97870  0.23351  1.0000
  C   C822      1.0  0.58405  0.54155  0.02710  1.0000
  H   H648      1.0  0.53054  0.95108  0.02655  1.0000
  C   C823      1.0  0.55169  0.97707  0.24971  1.0000
  C   C824      1.0  0.62294  0.66598  0.23930  1.0000
  C   C825      1.0  0.47895  0.58454  0.25965  1.0000
  H   H649      1.0  0.56264  0.52897  0.03950  1.0000
  C   C826      1.0  0.54422  0.92880  0.99243  1.0000
  H   H650      1.0  0.56938  0.95941  0.28546  1.0000
  H   H651      1.0  0.65238  0.90662  0.33853  1.0000
  H   H652      1.0  0.39502  0.90295  0.26190  1.0000
  C   C827      1.0  0.37568  0.98270  0.23692  1.0000
  H   H653      1.0  0.50866  0.59007  0.29930  1.0000
  H   H654      1.0  0.39870  0.94675  0.29152  1.0000
  C   C828      1.0  0.34549  0.90509  0.39616  1.0000
  H   H655      1.0  0.39642  0.55631  0.20855  1.0000
  C   C829      1.0  0.52534  0.58935  0.21940  1.0000
  C   C830      1.0  0.63987  0.57481  0.99573  1.0000
  H   H656      1.0  0.61596  0.60208  0.18320  1.0000
  H   H657      1.0  0.54261  0.54724  0.24603  1.0000
  H   H658      1.0  0.57949  0.58078  0.01987  1.0000
  H   H659      1.0  0.55874  0.99048  0.08993  1.0000
  C   C831      1.0  0.63042  0.54558  0.00740  1.0000
  C   C832      1.0  0.35576  0.54352  0.23529  1.0000
  S   S117      1.0  0.58138  0.67361  0.02064  1.0000
  H   H660      1.0  0.64827  0.91611  0.27681  1.0000
  H   H661      1.0  0.48846  0.96933  0.43486  1.0000
  H   H662      1.0  0.54124  0.95620  0.23626  1.0000
  C   C833      1.0  0.66310  0.95030  0.35659  1.0000
  C   C834      1.0  0.61750  0.61959  0.19910  1.0000
  S   S118      1.0  0.37087  0.96493  0.06079  1.0000
  H   H663      1.0  0.37423  0.51799  0.42699  1.0000
  C   C835      1.0  0.47542  0.58313  0.22603  1.0000
  H   H664      1.0  0.49543  0.58489  0.18004  1.0000
  C   C836      1.0  0.56299  0.54572  0.16785  1.0000
  H   H665      1.0  0.45496  0.58057  0.21548  1.0000
  H   H666      1.0  0.40876  0.88117  0.43032  1.0000
  H   H667      1.0  0.49469  0.89275  0.40342  1.0000
  C   C837      1.0  0.37994  0.51382  0.37604  1.0000
  C   C838      1.0  0.56460  0.88497  0.48141  1.0000
  C   C839      1.0  0.64577  0.64131  0.21071  1.0000
  C   C840      1.0  0.45105  0.90717  0.02311  1.0000
  C   C841      1.0  0.65213  0.65224  0.06181  1.0000
  C   C842      1.0  0.56603  0.63529  0.10701  1.0000
  C   C843      1.0  0.33798  0.97762  0.01544  1.0000
  C   C844      1.0  0.59159  0.62050  0.20813  1.0000
  C   C845      1.0  0.64846  0.66427  0.23110  1.0000
  C   C846      1.0  0.64216  0.85443  0.46432  1.0000
  C   C847      1.0  0.62124  0.98876  0.03532  1.0000
  C   C848      1.0  0.38527  0.51882  0.24058  1.0000
  C   C849      1.0  0.64783  0.65263  0.35696  1.0000
  C   C850      1.0  0.65419  0.62118  0.45807  1.0000
  H   H668      1.0  0.57529  0.64643  0.23393  1.0000
  Fe  Fe60      1.0  0.62333  0.67648  0.00060  1.0000
  C   C851      1.0  0.65297  0.97079  0.36122  1.0000
  H   H669      1.0  0.46499  0.97742  0.21117  1.0000
  C   C852      1.0  0.42691  0.51934  0.16003  1.0000
  C   C853      1.0  0.57721  0.79457  0.01642  1.0000
  H   H670      1.0  0.63532  0.96320  0.27715  1.0000
  C   C854      1.0  0.65256  0.85364  0.04681  1.0000
  C   C855      1.0  0.45017  0.88371  0.41604  1.0000
  H   H671      1.0  0.62913  0.61060  0.99404  1.0000
  C   C856      1.0  0.40013  0.88965  0.04165  1.0000
  H   H672      1.0  0.43685  0.98585  0.16514  1.0000
  C   C857      1.0  0.40264  0.91703  0.03212  1.0000
  H   H673      1.0  0.54153  0.61762  0.06252  1.0000
  H   H674      1.0  0.46774  0.53287  0.00669  1.0000
  H   H675      1.0  0.37977  0.87254  0.05346  1.0000
  S   S119      1.0  0.57822  0.75340  0.47318  1.0000
  C   C858      1.0  0.56760  0.97873  0.27783  1.0000
  C   C859      1.0  0.45372  0.93473  0.01326  1.0000
  H   H676      1.0  0.44691  0.53927  0.15124  1.0000
  C   C860      1.0  0.65311  0.88167  0.44716  1.0000
  Fe  Fe61      1.0  0.60959  0.67152  0.48815  1.0000
  C   C861      1.0  0.52504  0.58401  0.10030  1.0000
  C   C862      1.0  0.36562  0.50407  0.34609  1.0000
  C   C863      1.0  0.44038  0.51685  0.43566  1.0000
  C   C864      1.0  0.66117  0.85795  0.40020  1.0000
  H   H677      1.0  0.66458  0.91135  0.22238  1.0000
  H   H678      1.0  0.51369  0.55518  0.14200  1.0000
  H   H679      1.0  0.63091  0.86829  0.18715  1.0000
  H   H680      1.0  0.61629  0.97929  0.35541  1.0000
  C   C865      1.0  0.43857  0.98024  0.43088  1.0000
  C   C866      1.0  0.50563  0.58850  0.27323  1.0000
  H   H681      1.0  0.64464  0.53570  0.00445  1.0000
  C   C867      1.0  0.52870  0.59087  0.25324  1.0000
  H   H682      1.0  0.65244  0.54435  0.07362  1.0000
  H   H683      1.0  0.54929  0.59411  0.26426  1.0000
  C   C868      1.0  0.38524  0.91957  0.43608  1.0000
  H   H684      1.0  0.39081  0.94057  0.38895  1.0000
  H   H685      1.0  0.64666  0.83180  0.05700  1.0000
  C   C869      1.0  0.44628  0.92701  0.43335  1.0000
  H   H686      1.0  0.37136  0.89313  0.48039  1.0000
  H   H687      1.0  0.56955  0.55864  0.14558  1.0000
  C   C870      1.0  0.35057  0.97625  0.47815  1.0000
  C   C871      1.0  0.64431  0.92237  0.34192  1.0000
  C   C872      1.0  0.66696  0.64549  0.33901  1.0000
  C   C873      1.0  0.66168  0.88292  0.41464  1.0000
  H   H688      1.0  0.65570  0.66523  0.37927  1.0000
  C   C874      1.0  0.55059  0.60014  0.15224  1.0000
  H   H689      1.0  0.52302  0.97705  0.13507  1.0000
  H   H690      1.0  0.59530  0.50654  0.03211  1.0000
  H   H691      1.0  0.43017  0.00003  0.47322  1.0000
  H   H692      1.0  0.63867  0.62948  0.46169  1.0000
  H   H693      1.0  0.63437  0.80891  0.46346  1.0000
  C   C875      1.0  0.37690  0.92681  0.28772  1.0000
  C   C876      1.0  0.39845  0.51533  0.15319  1.0000
  C   C877      1.0  0.33554  0.52403  0.25858  1.0000
  H   H694      1.0  0.57179  0.51188  0.14838  1.0000
  C   C878      1.0  0.64303  0.89390  0.23153  1.0000
  C   C879      1.0  0.66214  0.87860  0.06707  1.0000
  H   H695      1.0  0.65611  0.97183  0.45571  1.0000
  H   H696      1.0  0.34497  0.85830  0.25076  1.0000
  Fe  Fe62      1.0  0.65565  0.57249  0.17377  1.0000
  S   S120      1.0  0.49675  0.60688  0.48844  1.0000
  C   C880      1.0  0.52843  0.94321  0.00184  1.0000
  H   H697      1.0  0.55176  0.79028  0.48833  1.0000
  H   H698      1.0  0.64139  0.83650  0.99872  1.0000
  H   H699      1.0  0.55835  0.92584  0.00988  1.0000
  C   C881      1.0  0.35081  0.92648  0.29812  1.0000
  C   C882      1.0  0.65173  0.83144  0.41800  1.0000
  C   C883      1.0  0.62976  0.00118  0.21257  1.0000
  P   P26       1.0  0.65366  0.91393  0.46559  1.0000
  C   C884      1.0  0.66344  0.53155  0.07958  1.0000
  C   C885      1.0  0.65602  0.88440  0.00026  1.0000
  H   H700      1.0  0.65125  0.81199  0.40693  1.0000
  C   C886      1.0  0.33777  0.99522  0.25313  1.0000
  H   H701      1.0  0.60118  0.53305  0.48838  1.0000
  H   H702      1.0  0.34936  0.99886  0.14413  1.0000
  H   H703      1.0  0.66343  0.87603  0.09297  1.0000
  P   P27       1.0  0.53021  0.00047  0.20200  1.0000
  C   C887      1.0  0.54622  0.99454  0.13867  1.0000
  S   S121      1.0  0.66543  0.53439  0.17562  1.0000
  C   C888      1.0  0.64941  0.85644  0.01359  1.0000
  H   H704      1.0  0.37927  0.50628  0.32535  1.0000
  H   H705      1.0  0.59007  0.00191  0.01776  1.0000
  P   P28       1.0  0.48752  0.96326  0.99333  1.0000
  H   H706      1.0  0.63366  0.85220  0.48879  1.0000
  H   H707      1.0  0.66788  0.85900  0.37516  1.0000
  H   H708      1.0  0.66559  0.64008  0.20430  1.0000
  H   H709      1.0  0.66743  0.99247  0.37258  1.0000
  C   C889      1.0  0.66679  0.90969  0.02065  1.0000
  S   S122      1.0  0.33548  0.88053  0.17961  1.0000
  C   C890      1.0  0.39147  0.00069  0.00629  1.0000
  C   C891      1.0  0.65264  0.50246  0.06728  1.0000
  C   C892      1.0  0.60179  0.80083  0.92527  1.0000
  C   C893      1.0  0.44906  0.94191  0.54253  1.0000
  S   S123      1.0  0.55983  0.66956  0.94459  1.0000
  C   C894      1.0  0.56878  0.79513  0.50648  1.0000
  P   P29       1.0  0.54463  0.53542  0.82917  1.0000
  S   S124      1.0  0.63095  0.71169  0.96313  1.0000
  S   S125      1.0  0.64447  0.66829  0.51872  1.0000
  C   C895      1.0  0.52819  0.94967  0.52194  1.0000
  C   C896      1.0  0.58676  0.75911  0.65084  1.0000
  Fe  Fe63      1.0  0.60359  0.67239  0.92952  1.0000
  S   S126      1.0  0.61614  0.67279  0.87574  1.0000
  H   H710      1.0  0.65781  0.50461  0.57896  1.0000
  S   S127      1.0  0.59949  0.63798  0.96584  1.0000
  Fe  Fe64      1.0  0.58833  0.88314  0.60348  1.0000
  S   S128      1.0  0.56946  0.90439  0.57022  1.0000
  S   S129      1.0  0.60460  0.85060  0.58622  1.0000
  Fe  Fe65      1.0  0.58537  0.91948  0.66375  1.0000
  S   S130      1.0  0.56598  0.94226  0.63372  1.0000
  S   S131      1.0  0.58855  0.92664  0.71904  1.0000
  Fe  Fe66      1.0  0.53706  0.89701  0.61077  1.0000
  S   S132      1.0  0.48731  0.87660  0.59968  1.0000
  Fe  Fe67      1.0  0.60001  0.94768  0.59625  1.0000
  C   C897      1.0  0.34987  0.82788  0.75080  1.0000
  S   S133      1.0  0.55388  0.87304  0.64288  1.0000
  S   S134      1.0  0.62143  0.92749  0.62751  1.0000
  S   S135      1.0  0.36121  0.96094  0.62180  1.0000
  Fe  Fe68      1.0  0.36630  0.92268  0.64095  1.0000
  S   S136      1.0  0.41449  0.93714  0.65424  1.0000
  Fe  Fe69      1.0  0.64189  0.53615  0.69814  1.0000
  S   S137      1.0  0.62299  0.56241  0.72157  1.0000
  C   C898      1.0  0.65753  0.93658  0.92032  1.0000
  C   C899      1.0  0.66633  0.94450  0.55859  1.0000
  C   C900      1.0  0.60724  0.64480  0.57205  1.0000
  S   S138      1.0  0.39028  0.53049  0.93478  1.0000
  H   H711      1.0  0.63330  0.52888  0.79469  1.0000
  H   H712      1.0  0.53038  0.71133  0.51699  1.0000
  C   C901      1.0  0.45044  0.95808  0.94148  1.0000
  C   C902      1.0  0.61072  0.96012  0.74251  1.0000
  C   C903      1.0  0.60483  0.95981  0.77591  1.0000
  H   H713      1.0  0.58652  0.93964  0.78657  1.0000
  C   C904      1.0  0.52828  0.55264  0.88609  1.0000
  C   C905      1.0  0.59490  0.53150  0.81116  1.0000
  H   H714      1.0  0.59103  0.95389  0.52246  1.0000
  C   C906      1.0  0.43412  0.91984  0.63881  1.0000
  C   C907      1.0  0.41984  0.89367  0.61999  1.0000
  C   C908      1.0  0.43646  0.88074  0.60790  1.0000
  C   C909      1.0  0.46734  0.89386  0.61458  1.0000
  C   C910      1.0  0.48155  0.92009  0.63334  1.0000
  C   C911      1.0  0.46500  0.93305  0.64534  1.0000
  H   H715      1.0  0.39604  0.88337  0.61480  1.0000
  H   H716      1.0  0.42531  0.86039  0.59349  1.0000
  H   H717      1.0  0.50519  0.93025  0.63889  1.0000
  H   H718      1.0  0.47616  0.95331  0.65987  1.0000
  C   C912      1.0  0.62950  0.65139  0.85439  1.0000
  C   C913      1.0  0.64124  0.66032  0.82290  1.0000
  S   S139      1.0  0.65779  0.56496  0.65324  1.0000
  C   C914      1.0  0.44913  0.98247  0.81179  1.0000
  H   H719      1.0  0.59194  0.64190  0.75139  1.0000
  C   C915      1.0  0.62697  0.92453  0.96874  1.0000
  S   S140      1.0  0.33521  0.88941  0.60410  1.0000
  C   C916      1.0  0.63453  0.65168  0.55747  1.0000
  H   H720      1.0  0.47312  0.95953  0.80070  1.0000
  C   C917      1.0  0.59274  0.75737  0.68371  1.0000
  C   C918      1.0  0.36391  0.86066  0.70383  1.0000
  Fe  Fe70      1.0  0.58704  0.70649  0.98122  1.0000
  H   H721      1.0  0.42731  0.96292  0.80682  1.0000
  C   C919      1.0  0.33692  0.55264  0.73096  1.0000
  H   H722      1.0  0.60506  0.78167  0.92155  1.0000
  C   C920      1.0  0.57418  0.81680  0.53083  1.0000
  C   C921      1.0  0.59640  0.82373  0.55434  1.0000
  C   C922      1.0  0.61305  0.80870  0.55282  1.0000
  C   C923      1.0  0.60721  0.78655  0.52903  1.0000
  C   C924      1.0  0.36691  0.56935  0.74105  1.0000
  H   H723      1.0  0.56115  0.82810  0.53140  1.0000
  H   H724      1.0  0.63083  0.81453  0.57018  1.0000
  H   H725      1.0  0.62044  0.77546  0.52840  1.0000
  C   C925      1.0  0.42643  0.54713  0.95239  1.0000
  C   C926      1.0  0.45711  0.99980  0.90787  1.0000
  C   C927      1.0  0.61821  0.74544  0.59966  1.0000
  C   C928      1.0  0.62146  0.85299  0.94191  1.0000
  H   H726      1.0  0.54817  0.87281  0.50025  1.0000
  H   H727      1.0  0.66230  0.62556  0.61662  1.0000
  C   C929      1.0  0.54467  0.50899  0.66691  1.0000
  S   S141      1.0  0.57224  0.67766  0.50755  1.0000
  C   C930      1.0  0.58203  0.62139  0.76574  1.0000
  H   H728      1.0  0.62538  0.71616  0.65396  1.0000
  H   H729      1.0  0.35524  0.82183  0.77397  1.0000
  H   H730      1.0  0.58806  0.59522  0.72895  1.0000
  C   C931      1.0  0.45275  0.59079  0.56225  1.0000
  H   H731      1.0  0.58485  0.82484  0.65277  1.0000
  C   C932      1.0  0.59277  0.80403  0.69419  1.0000
  H   H732      1.0  0.42978  0.94851  0.58580  1.0000
  H   H733      1.0  0.64765  0.83043  0.93895  1.0000
  H   H734      1.0  0.64245  0.54308  0.58551  1.0000
  H   H735      1.0  0.54799  0.53754  0.60686  1.0000
  C   C933      1.0  0.50674  0.93567  0.94819  1.0000
  C   C934      1.0  0.55505  0.55027  0.58467  1.0000
  H   H736      1.0  0.50899  0.52342  0.76961  1.0000
  H   H737      1.0  0.61856  0.67036  0.68161  1.0000
  H   H738      1.0  0.37996  0.51001  0.78095  1.0000
  H   H739      1.0  0.49367  0.61355  0.95165  1.0000
  H   H740      1.0  0.56756  0.97052  0.82906  1.0000
  C   C935      1.0  0.35234  0.54726  0.79457  1.0000
  C   C936      1.0  0.33588  0.99317  0.98810  1.0000
  H   H741      1.0  0.43363  0.99465  0.60958  1.0000
  H   H742      1.0  0.61807  0.61770  0.89109  1.0000
  C   C937      1.0  0.47622  0.97769  0.95941  1.0000
  H   H743      1.0  0.39151  0.95535  0.55658  1.0000
  H   H744      1.0  0.58177  0.59585  0.50485  1.0000
  C   C938      1.0  0.57800  0.69733  0.64286  1.0000
  C   C939      1.0  0.65189  0.64398  0.80505  1.0000
  H   H745      1.0  0.56795  0.62565  0.68698  1.0000
  H   H746      1.0  0.59294  0.53327  0.66560  1.0000
  C   C940      1.0  0.47521  0.62123  0.56336  1.0000
  C   C941      1.0  0.62242  0.72619  0.57885  1.0000
  H   H747      1.0  0.47352  0.53127  0.51973  1.0000
  C   C942      1.0  0.66339  0.91908  0.50796  1.0000
  H   H748      1.0  0.66186  0.97421  0.89221  1.0000
  C   C943      1.0  0.64920  0.73701  0.56140  1.0000
  H   H749      1.0  0.66454  0.67515  0.91907  1.0000
  H   H750      1.0  0.55505  0.59704  0.84128  1.0000
  H   H751      1.0  0.52059  0.91293  0.91432  1.0000
  C   C944      1.0  0.57283  0.54778  0.88975  1.0000
  C   C945      1.0  0.53583  0.55795  0.56842  1.0000
  C   C946      1.0  0.57983  0.59503  0.75316  1.0000
  C   C947      1.0  0.56848  0.82142  0.92829  1.0000
  C   C948      1.0  0.40756  0.95166  0.54321  1.0000
  H   H752      1.0  0.60492  0.70284  0.57595  1.0000
  C   C949      1.0  0.54528  0.57373  0.53894  1.0000
  C   C950      1.0  0.49693  0.54513  0.62844  1.0000
  H   H753      1.0  0.56675  0.54870  0.76209  1.0000
  C   C951      1.0  0.63472  0.98638  0.72925  1.0000
  C   C952      1.0  0.49230  0.54286  0.69627  1.0000
  C   C953      1.0  0.52033  0.56013  0.68143  1.0000
  C   C954      1.0  0.52264  0.56165  0.64767  1.0000
  H   H754      1.0  0.49233  0.93806  0.93078  1.0000
  C   C955      1.0  0.46241  0.54513  0.98905  1.0000
  H   H755      1.0  0.59466  0.55821  0.93641  1.0000
  H   H756      1.0  0.35889  0.54482  0.81883  1.0000
  C   C956      1.0  0.64525  0.91867  0.94817  1.0000
  C   C957      1.0  0.35162  0.97515  0.51222  1.0000
  H   H757      1.0  0.53068  0.57942  0.52539  1.0000
  H   H758      1.0  0.40553  0.89361  0.88836  1.0000
  H   H759      1.0  0.49063  0.54198  0.72243  1.0000
  H   H760      1.0  0.54043  0.57235  0.69601  1.0000
  H   H761      1.0  0.54451  0.57589  0.63682  1.0000
  C   C958      1.0  0.47704  0.59065  0.95817  1.0000
  H   H762      1.0  0.34362  0.57982  0.90173  1.0000
  C   C959      1.0  0.33545  0.84197  0.69041  1.0000
  H   H763      1.0  0.52319  0.72036  0.63576  1.0000
  C   C960      1.0  0.58681  0.80587  0.66154  1.0000
  C   C961      1.0  0.57052  0.64562  0.67500  1.0000
  H   H764      1.0  0.38910  0.95279  0.49707  1.0000
  H   H765      1.0  0.57878  0.62577  0.61385  1.0000
  C   C962      1.0  0.53887  0.95755  0.72873  1.0000
  P   P30       1.0  0.58351  0.73094  0.62228  1.0000
  C   C963      1.0  0.62297  0.98503  0.79582  1.0000
  Fe  Fe71      1.0  0.64199  0.59323  0.67866  1.0000
  H   H766      1.0  0.52234  0.65266  0.57089  1.0000
  C   C964      1.0  0.51205  0.60660  0.57680  1.0000
  C   C965      1.0  0.57412  0.58294  0.52701  1.0000
  C   C966      1.0  0.46464  0.51062  0.53376  1.0000
  C   C967      1.0  0.45994  0.56819  0.56821  1.0000
  H   H767      1.0  0.55436  0.77538  0.91514  1.0000
  H   H768      1.0  0.44460  0.51437  0.68880  1.0000
  H   H769      1.0  0.46374  0.93619  0.49604  1.0000
  C   C968      1.0  0.37464  0.56645  0.77276  1.0000
  H   H770      1.0  0.63977  0.98709  0.70374  1.0000
  Fe  Fe72      1.0  0.55767  0.63733  0.98309  1.0000
  C   C969      1.0  0.42663  0.94508  0.49185  1.0000
  H   H771      1.0  0.64216  0.68010  0.81226  1.0000
  C   C970      1.0  0.48422  0.57478  0.98068  1.0000
  H   H772      1.0  0.63231  0.53705  0.94380  1.0000
  C   C971      1.0  0.34461  0.99732  0.71449  1.0000
  P   P31       1.0  0.49915  0.54727  0.58476  1.0000
  H   H773      1.0  0.60027  0.88355  0.50700  1.0000
  H   H774      1.0  0.51583  0.56674  0.92964  1.0000
  C   C972      1.0  0.52845  0.95250  0.55554  1.0000
  C   C973      1.0  0.43369  0.53124  0.97476  1.0000
  C   C974      1.0  0.54243  0.98070  0.74945  1.0000
  S   S142      1.0  0.62854  0.99386  0.57381  1.0000
  H   H775      1.0  0.54352  0.52030  0.68852  1.0000
  H   H776      1.0  0.52972  0.67112  0.63521  1.0000
  C   C975      1.0  0.44812  0.57692  0.94428  1.0000
  C   C976      1.0  0.40626  0.95022  0.50947  1.0000
  C   C977      1.0  0.65434  0.64484  0.57383  1.0000
  H   H777      1.0  0.62901  0.51792  0.88849  1.0000
  H   H778      1.0  0.59932  0.55542  0.58660  1.0000
  C   C978      1.0  0.60742  0.97519  0.51189  1.0000
  C   C979      1.0  0.56443  0.51542  0.82002  1.0000
  H   H779      1.0  0.44257  0.58939  0.92713  1.0000
  H   H780      1.0  0.52349  0.62583  0.66331  1.0000
  C   C980      1.0  0.64688  0.63087  0.60435  1.0000
  H   H781      1.0  0.54607  0.81834  0.92632  1.0000
  C   C981      1.0  0.42902  0.94764  0.55969  1.0000
  H   H782      1.0  0.53513  0.61315  0.58229  1.0000
  C   C982      1.0  0.55886  0.56901  0.80419  1.0000
  H   H783      1.0  0.60043  0.77846  0.73061  1.0000
  C   C983      1.0  0.54927  0.67156  0.64555  1.0000
  C   C984      1.0  0.62801  0.99857  0.53167  1.0000
  C   C985      1.0  0.60293  0.69676  0.65612  1.0000
  H   H784      1.0  0.54867  0.96285  0.70468  1.0000
  C   C986      1.0  0.52408  0.92764  0.73947  1.0000
  C   C987      1.0  0.51259  0.92074  0.77091  1.0000
  C   C988      1.0  0.51596  0.94381  0.79170  1.0000
  C   C989      1.0  0.58377  0.78351  0.63994  1.0000
  C   C990      1.0  0.53114  0.97405  0.78123  1.0000
  H   H785      1.0  0.45213  0.90116  0.86165  1.0000
  C   C991      1.0  0.57342  0.97580  0.88039  1.0000
  C   C992      1.0  0.52493  0.71818  0.60989  1.0000
  C   C993      1.0  0.55516  0.56265  0.93679  1.0000
  C   C994      1.0  0.59362  0.57644  0.54419  1.0000
  H   H786      1.0  0.46986  0.63867  0.55754  1.0000
  C   C995      1.0  0.50015  0.71141  0.59020  1.0000
  C   C996      1.0  0.62585  0.82852  0.93535  1.0000
  C   C997      1.0  0.65167  0.61881  0.81875  1.0000
  H   H787      1.0  0.52463  0.92875  0.51142  1.0000
  C   C998      1.0  0.56115  0.59567  0.81656  1.0000
  C   C999      1.0  0.48981  0.57596  0.57481  1.0000
  H   H788      1.0  0.48305  0.70388  0.54133  1.0000
  C   C1000     1.0  0.53149  0.56104  0.91860  1.0000
  C   C1001     1.0  0.57245  0.62160  0.79732  1.0000
  H   H789      1.0  0.52243  0.90998  0.72364  1.0000
  H   H790      1.0  0.50180  0.89757  0.77927  1.0000
  H   H791      1.0  0.50746  0.93822  0.81621  1.0000
  C   C1002     1.0  0.62816  0.62553  0.86755  1.0000
  C   C1003     1.0  0.57265  0.51616  0.65425  1.0000
  H   H792      1.0  0.60818  0.95311  0.97820  1.0000
  H   H793      1.0  0.35980  0.87941  0.85563  1.0000
  H   H794      1.0  0.48666  0.98254  0.72350  1.0000
  C   C1004     1.0  0.55189  0.72248  0.59625  1.0000
  H   H795      1.0  0.46515  0.93801  0.55560  1.0000
  H   H796      1.0  0.55757  0.56947  0.96192  1.0000
  H   H797      1.0  0.61899  0.98393  0.82157  1.0000
  C   C1005     1.0  0.59250  0.84916  0.93852  1.0000
  H   H798      1.0  0.52520  0.93392  0.57088  1.0000
  H   H799      1.0  0.60676  0.55589  0.81000  1.0000
  H   H800      1.0  0.39713  0.96794  0.73559  1.0000
  H   H801      1.0  0.57507  0.64231  0.80756  1.0000
  H   H802      1.0  0.43739  0.93433  0.94767  1.0000
  S   S143      1.0  0.60937  0.60580  0.65683  1.0000
  H   H803      1.0  0.42994  0.58473  0.55583  1.0000
  C   C1006     1.0  0.59569  0.77977  0.70529  1.0000
  C   C1007     1.0  0.56805  0.56885  0.77217  1.0000
  C   C1008     1.0  0.47530  0.98070  0.80830  1.0000
  H   H804      1.0  0.59529  0.82155  0.71079  1.0000
  C   C1009     1.0  0.58402  0.55994  0.57294  1.0000
  H   H805      1.0  0.61630  0.58462  0.53538  1.0000
  H   H806      1.0  0.58821  0.86726  0.94428  1.0000
  C   C1010     1.0  0.53305  0.97935  0.56941  1.0000
  C   C1011     1.0  0.50524  0.51067  0.82011  1.0000
  C   C1012     1.0  0.52268  0.92133  0.93878  1.0000
  C   C1013     1.0  0.49417  0.50954  0.78875  1.0000
  C   C1014     1.0  0.47329  0.51146  0.56615  1.0000
  C   C1015     1.0  0.63967  0.60974  0.85014  1.0000
  C   C1016     1.0  0.63414  0.96608  0.93432  1.0000
  H   H807      1.0  0.59528  0.73893  0.69280  1.0000
  H   H808      1.0  0.63954  0.79063  0.62002  1.0000
  H   H809      1.0  0.48928  0.51095  0.96419  1.0000
  H   H810      1.0  0.47959  0.70858  0.60081  1.0000
  C   C1017     1.0  0.45634  0.83504  0.74775  1.0000
  C   C1018     1.0  0.46926  0.84279  0.71692  1.0000
  C   C1019     1.0  0.46288  0.86072  0.69660  1.0000
  C   C1020     1.0  0.44414  0.87148  0.70731  1.0000
  C   C1021     1.0  0.43214  0.86492  0.73873  1.0000
  C   C1022     1.0  0.43748  0.84571  0.75849  1.0000
  P   P32       1.0  0.40761  0.87859  0.75201  1.0000
  C   C1023     1.0  0.40616  0.88095  0.79552  1.0000
  C   C1024     1.0  0.42141  0.91719  0.74004  1.0000
  C   C1025     1.0  0.45218  0.93682  0.73402  1.0000
  C   C1026     1.0  0.46297  0.96753  0.72831  1.0000
  C   C1027     1.0  0.44320  0.97884  0.72912  1.0000
  C   C1028     1.0  0.41260  0.95941  0.73515  1.0000
  C   C1029     1.0  0.40173  0.92873  0.74060  1.0000
  C   C1030     1.0  0.38021  0.87774  0.81069  1.0000
  H   H811      1.0  0.55355  0.90657  0.95372  1.0000
  H   H812      1.0  0.65210  0.72218  0.54500  1.0000
  C   C1031     1.0  0.43197  0.89434  0.84745  1.0000
  C   C1032     1.0  0.43223  0.88995  0.81407  1.0000
  C   C1033     1.0  0.37108  0.85410  0.73447  1.0000
  H   H813      1.0  0.44228  0.54477  0.56709  1.0000
  H   H814      1.0  0.63045  0.98483  0.92945  1.0000
  H   H815      1.0  0.45287  0.89401  0.80262  1.0000
  H   H816      1.0  0.46073  0.82052  0.76316  1.0000
  H   H817      1.0  0.48389  0.83459  0.70850  1.0000
  C   C1034     1.0  0.56335  0.98001  0.85044  1.0000
  H   H818      1.0  0.43894  0.88485  0.69104  1.0000
  H   H819      1.0  0.42701  0.83880  0.78206  1.0000
  H   H820      1.0  0.46792  0.92865  0.73405  1.0000
  H   H821      1.0  0.59167  0.64968  0.55953  1.0000
  C   C1035     1.0  0.57312  0.79725  0.92180  1.0000
  H   H822      1.0  0.47235  0.86608  0.67240  1.0000
  H   H823      1.0  0.63906  0.59027  0.86104  1.0000
  H   H824      1.0  0.44842  0.51763  0.62908  1.0000
  C   C1036     1.0  0.65834  0.93939  0.52596  1.0000
  C   C1037     1.0  0.59989  0.63110  0.60277  1.0000
  H   H825      1.0  0.57417  0.72400  0.55112  1.0000
  H   H826      1.0  0.39793  0.57911  0.78056  1.0000
  H   H827      1.0  0.38417  0.58442  0.72425  1.0000
  H   H828      1.0  0.58941  0.54340  0.87883  1.0000
  C   C1038     1.0  0.59916  0.67098  0.67209  1.0000
  C   C1039     1.0  0.37997  0.88207  0.84409  1.0000
  C   C1040     1.0  0.52873  0.71299  0.54301  1.0000
  C   C1041     1.0  0.54885  0.54581  0.87142  1.0000
  C   C1042     1.0  0.61959  0.62395  0.61889  1.0000
  C   C1043     1.0  0.40579  0.89023  0.86249  1.0000
  C   C1044     1.0  0.54138  0.91786  0.96090  1.0000
  C   C1045     1.0  0.53871  0.00140  0.51580  1.0000
  H   H829      1.0  0.50996  0.55194  0.87232  1.0000
  H   H830      1.0  0.57947  0.78554  0.61462  1.0000
  H   H831      1.0  0.36030  0.87248  0.79670  1.0000
  C   C1046     1.0  0.46642  0.52731  0.67732  1.0000
  C   C1047     1.0  0.55361  0.71999  0.56260  1.0000
  H   H832      1.0  0.37796  0.91411  0.74550  1.0000
  C   C1048     1.0  0.50206  0.70879  0.55674  1.0000
  H   H833      1.0  0.37782  0.99414  0.68557  1.0000
  C   C1049     1.0  0.50481  0.62912  0.57081  1.0000
  H   H834      1.0  0.42046  0.95424  0.90278  1.0000
  C   C1050     1.0  0.54560  0.64578  0.66158  1.0000
  C   C1051     1.0  0.50948  0.94665  0.97986  1.0000
  H   H835      1.0  0.38132  0.52184  0.72241  1.0000
  C   C1052     1.0  0.57591  0.55616  0.92238  1.0000
  C   C1053     1.0  0.61007  0.51619  0.80274  1.0000
  C   C1054     1.0  0.46869  0.52883  0.64354  1.0000
  H   H836      1.0  0.43603  0.55879  0.49708  1.0000
  H   H837      1.0  0.66113  0.65144  0.78108  1.0000
  C   C1055     1.0  0.44084  0.96918  0.91595  1.0000
  C   C1056     1.0  0.44802  0.94076  0.50868  1.0000
  H   H838      1.0  0.58506  0.96306  0.88190  1.0000
  H   H839      1.0  0.38018  0.88027  0.69033  1.0000
  C   C1057     1.0  0.64177  0.77531  0.60376  1.0000
  C   C1058     1.0  0.53314  0.97392  0.50209  1.0000
  C   C1059     1.0  0.58491  0.77945  0.50560  1.0000
  C   C1060     1.0  0.64750  0.53995  0.89510  1.0000
  H   H840      1.0  0.53331  0.98142  0.59553  1.0000
  H   H841      1.0  0.59662  0.50698  0.61793  1.0000
  C   C1061     1.0  0.62156  0.94817  0.96181  1.0000
  H   H842      1.0  0.41693  0.50846  0.98148  1.0000
  H   H843      1.0  0.66245  0.96036  0.57218  1.0000
  H   H844      1.0  0.65260  0.62272  0.92939  1.0000
  S   S144      1.0  0.58066  0.74791  0.98663  1.0000
  P   P33       1.0  0.65225  0.88803  0.95717  1.0000
  C   C1062     1.0  0.66042  0.54712  0.56896  1.0000
  C   C1063     1.0  0.56943  0.98889  0.90818  1.0000
  H   H845      1.0  0.57780  0.98618  0.93132  1.0000
  C   C1064     1.0  0.54882  0.99705  0.84807  1.0000
  C   C1065     1.0  0.64953  0.55096  0.92655  1.0000
  H   H846      1.0  0.64831  0.95145  0.51483  1.0000
  C   C1066     1.0  0.65201  0.96021  0.91350  1.0000
  C   C1067     1.0  0.58004  0.51806  0.50039  1.0000
  H   H847      1.0  0.66698  0.54959  0.84721  1.0000
  H   H848      1.0  0.60047  0.50335  0.53579  1.0000
  H   H849      1.0  0.66555  0.87736  0.89105  1.0000
  H   H850      1.0  0.37123  0.00172  0.55496  1.0000
  C   C1068     1.0  0.36998  0.00210  0.52887  1.0000
  S   S145      1.0  0.90363  0.32906  0.47621  1.0000
  H   H851      1.0  0.89984  0.46409  0.24160  1.0000
  S   S146      1.0  0.69679  0.07507  0.36769  1.0000
  H   H852      1.0  0.93229  0.42202  0.30727  1.0000
  H   H853      1.0  0.75242  0.06161  0.05237  1.0000
  C   C1069     1.0  0.80627  0.23198  0.47707  1.0000
  H   H854      1.0  0.90300  0.49211  0.00736  1.0000
  Fe  Fe73      1.0  0.70818  0.12078  0.38851  1.0000
  S   S147      1.0  0.75761  0.15622  0.39998  1.0000
  H   H855      1.0  0.78196  0.16181  0.02082  1.0000
  H   H856      1.0  0.76529  0.21486  0.00985  1.0000
  S   S148      1.0  0.91639  0.29282  0.05136  1.0000
  C   C1070     1.0  0.95017  0.48840  0.38852  1.0000
  Fe  Fe74      1.0  0.91379  0.36341  0.02131  1.0000
  S   S149      1.0  0.88406  0.33348  0.06107  1.0000
  H   H857      1.0  0.75810  0.49432  0.21917  1.0000
  Fe  Fe75      1.0  0.92587  0.33429  0.08011  1.0000
  S   S150      1.0  0.93715  0.34298  0.13433  1.0000
  Fe  Fe76      1.0  0.87688  0.29441  0.02896  1.0000
  H   H858      1.0  0.72027  0.12228  0.11655  1.0000
  S   S151      1.0  0.95567  0.36696  0.04228  1.0000
  C   C1071     1.0  0.91493  0.48859  0.12719  1.0000
  C   C1072     1.0  0.77549  0.18531  0.43002  1.0000
  C   C1073     1.0  0.75948  0.18955  0.45495  1.0000
  H   H859      1.0  0.74324  0.02680  0.41346  1.0000
  S   S152      1.0  0.92011  0.40705  0.00034  1.0000
  C   C1074     1.0  0.82226  0.22782  0.45204  1.0000
  C   C1075     1.0  0.80699  0.20468  0.42883  1.0000
  H   H860      1.0  0.73532  0.17499  0.45640  1.0000
  C   C1076     1.0  0.69914  0.05291  0.08540  1.0000
  H   H861      1.0  0.84642  0.24235  0.45063  1.0000
  H   H862      1.0  0.81975  0.20175  0.40979  1.0000
  C   C1077     1.0  0.87382  0.45675  0.04009  1.0000
  H   H863      1.0  0.67236  0.01080  0.11075  1.0000
  C   C1078     1.0  0.87907  0.41186  0.03980  1.0000
  C   C1079     1.0  0.90169  0.42525  0.01638  1.0000
  H   H864      1.0  0.88888  0.48541  0.42475  1.0000
  C   C1080     1.0  0.89651  0.46999  0.01683  1.0000
  H   H865      1.0  0.69984  0.04167  0.06361  1.0000
  H   H866      1.0  0.90729  0.42119  0.25642  1.0000
  C   C1081     1.0  0.70918  0.47973  0.15671  1.0000
  C   C1082     1.0  0.71284  0.12412  0.03889  1.0000
  S   S153      1.0  0.82815  0.25470  0.02286  1.0000
  H   H867      1.0  0.71121  0.18993  0.03564  1.0000
  C   C1083     1.0  0.75715  0.05362  0.00235  1.0000
  H   H868      1.0  0.98031  0.48813  0.26016  1.0000
  H   H869      1.0  0.77741  0.15910  0.32446  1.0000
  C   C1084     1.0  0.71032  0.09802  0.11525  1.0000
  C   C1085     1.0  0.97290  0.35890  0.15416  1.0000
  C   C1086     1.0  0.77477  0.21260  0.47826  1.0000
  H   H870      1.0  0.95356  0.40742  0.13071  1.0000
  H   H871      1.0  0.73461  0.21128  0.30628  1.0000
  H   H872      1.0  0.76262  0.16507  0.14190  1.0000
  C   C1087     1.0  0.91510  0.44043  0.27246  1.0000
  C   C1088     1.0  0.94936  0.43004  0.37336  1.0000
  H   H873      1.0  0.97500  0.37469  0.46244  1.0000
  H   H874      1.0  0.84697  0.41693  0.06901  1.0000
  C   C1089     1.0  0.90168  0.44300  0.15740  1.0000
  C   C1090     1.0  0.89509  0.45800  0.13324  1.0000
  H   H875      1.0  0.97527  0.42326  0.33616  1.0000
  C   C1091     1.0  0.68103  0.04887  0.14032  1.0000
  C   C1092     1.0  0.95013  0.43616  0.09480  1.0000
  C   C1093     1.0  0.92814  0.45860  0.17559  1.0000
  C   C1094     1.0  0.68593  0.10547  0.02227  1.0000
  C   C1095     1.0  0.76742  0.16775  0.30746  1.0000
  C   C1096     1.0  0.99642  0.43693  0.10831  1.0000
  C   C1097     1.0  0.93356  0.37128  0.39326  1.0000
  C   C1098     1.0  0.75507  0.46814  0.09783  1.0000
  C   C1099     1.0  0.75668  0.18634  0.31873  1.0000
  H   H876      1.0  0.75852  0.19203  0.34425  1.0000
  H   H877      1.0  0.79748  0.20812  0.10750  1.0000
  C   C1100     1.0  0.93118  0.41703  0.40080  1.0000
  C   C1101     1.0  0.73358  0.07419  0.21141  1.0000
  C   C1102     1.0  0.92307  0.38767  0.41037  1.0000
  C   C1103     1.0  0.69413  0.08024  0.14175  1.0000
  H   H878      1.0  0.74200  0.16936  0.05734  1.0000
  H   H879      1.0  0.97980  0.47274  0.99391  1.0000
  C   C1104     1.0  0.97438  0.36282  0.18800  1.0000
  C   C1105     1.0  0.86486  0.42749  0.05134  1.0000
  C   C1106     1.0  0.96561  0.42539  0.11321  1.0000
  C   C1107     1.0  0.96554  0.45879  0.07179  1.0000
  C   C1108     1.0  0.75044  0.06744  0.02764  1.0000
  H   H880      1.0  0.88638  0.41917  0.16180  1.0000
  H   H881      1.0  0.87465  0.44597  0.11906  1.0000
  C   C1109     1.0  0.91015  0.45416  0.00488  1.0000
  H   H882      1.0  0.87225  0.38940  0.04861  1.0000
  H   H883      1.0  0.93290  0.44654  0.19409  1.0000
  H   H884      1.0  0.96143  0.37202  0.35397  1.0000
  S   S154      1.0  0.68263  0.12909  0.34899  1.0000
  C   C1110     1.0  0.70399  0.16625  0.03224  1.0000
  H   H885      1.0  0.74296  0.44654  0.11009  1.0000
  C   C1111     1.0  0.94828  0.48933  0.16952  1.0000
  C   C1112     1.0  0.75974  0.07784  0.19682  1.0000
  C   C1113     1.0  0.74322  0.19717  0.29728  1.0000
  C   C1114     1.0  0.72605  0.00511  0.42280  1.0000
  H   H886      1.0  0.92350  0.42931  0.41545  1.0000
  C   C1115     1.0  0.99636  0.47032  0.06671  1.0000
  C   C1116     1.0  0.91214  0.49420  0.41764  1.0000
  H   H887      1.0  0.90906  0.37784  0.43157  1.0000
  H   H888      1.0  0.92795  0.34887  0.40138  1.0000
  C   C1117     1.0  0.66929  0.13951  0.16027  1.0000
  Fe  Fe77      1.0  0.66833  0.08199  0.33110  1.0000
  H   H889      1.0  0.70095  0.44007  0.05546  1.0000
  H   H890      1.0  0.66892  0.03504  0.16096  1.0000
  Fe  Fe78      1.0  0.94397  0.32618  0.01218  1.0000
  H   H891      1.0  0.79279  0.46220  0.08574  1.0000
  C   C1118     1.0  0.74277  0.48724  0.09582  1.0000
  C   C1119     1.0  0.96018  0.41347  0.35658  1.0000
  C   C1120     1.0  0.71366  0.08454  0.08717  1.0000
  H   H892      1.0  0.95331  0.46683  0.05741  1.0000
  C   C1121     1.0  0.74137  0.08864  0.02096  1.0000
  P   P34       1.0  0.95947  0.46770  0.35963  1.0000
  P   P35       1.0  0.73509  0.10829  0.05358  1.0000
  H   H893      1.0  0.92606  0.42658  0.09792  1.0000
  C   C1122     1.0  0.73529  0.48487  0.17319  1.0000
  C   C1123     1.0  0.73755  0.48932  0.20673  1.0000
  H   H894      1.0  0.70956  0.09576  0.22775  1.0000
  C   C1124     1.0  0.77230  0.13704  0.06597  1.0000
  C   C1125     1.0  0.79040  0.16047  0.04446  1.0000
  C   C1126     1.0  0.81973  0.18223  0.05312  1.0000
  C   C1127     1.0  0.83142  0.18052  0.08306  1.0000
  C   C1128     1.0  0.81383  0.15684  0.10433  1.0000
  C   C1129     1.0  0.78442  0.13503  0.09578  1.0000
  C   C1130     1.0  0.68318  0.03522  0.11205  1.0000
  C   C1131     1.0  0.69047  0.49774  0.09812  1.0000
  C   C1132     1.0  0.80928  0.22782  0.99114  1.0000
  C   C1133     1.0  0.95225  0.38425  0.36645  1.0000
  C   C1134     1.0  0.66851  0.11726  0.01018  1.0000
  H   H895      1.0  0.83349  0.20042  0.03646  1.0000
  C   C1135     1.0  0.77756  0.21057  0.99136  1.0000
  C   C1136     1.0  0.92083  0.48920  0.28495  1.0000
  H   H896      1.0  0.93538  0.47231  0.47674  1.0000
  H   H897      1.0  0.85420  0.19749  0.08960  1.0000
  H   H898      1.0  0.82318  0.15532  0.12728  1.0000
  H   H899      1.0  0.77152  0.11643  0.11220  1.0000
  H   H900      1.0  0.71621  0.05203  0.21956  1.0000
  C   C1137     1.0  0.93522  0.48992  0.31396  1.0000
  P   P36       1.0  0.70611  0.47530  0.11319  1.0000
  H   H901      1.0  0.80297  0.10947  0.17662  1.0000
  C   C1138     1.0  0.69964  0.15186  0.16872  1.0000
  C   C1139     1.0  0.70769  0.14790  0.20013  1.0000
  C   C1140     1.0  0.68479  0.13193  0.22295  1.0000
  P   P37       1.0  0.74640  0.15999  0.21072  1.0000
  C   C1141     1.0  0.77256  0.19154  0.18572  1.0000
  C   C1142     1.0  0.75125  0.17078  0.25293  1.0000
  C   C1143     1.0  0.76483  0.16003  0.27466  1.0000
  C   C1144     1.0  0.93980  0.46588  0.32249  1.0000
  H   H902      1.0  0.95386  0.35597  0.20144  1.0000
  C   C1145     1.0  0.74047  0.18943  0.26450  1.0000
  C   C1146     1.0  0.79065  0.22041  0.19911  1.0000
  C   C1147     1.0  0.81093  0.24448  0.17961  1.0000
  C   C1148     1.0  0.81328  0.24003  0.14663  1.0000
  C   C1149     1.0  0.79553  0.21142  0.13312  1.0000
  C   C1150     1.0  0.77558  0.18720  0.15263  1.0000
  C   C1151     1.0  0.75195  0.12800  0.20539  1.0000
  C   C1152     1.0  0.77862  0.13163  0.19167  1.0000
  C   C1153     1.0  0.78236  0.10658  0.18719  1.0000
  H   H903      1.0  0.76267  0.05844  0.19349  1.0000
  H   H904      1.0  0.79676  0.15377  0.18484  1.0000
  C   C1154     1.0  0.72980  0.09916  0.21591  1.0000
  H   H905      1.0  0.90236  0.45590  0.38810  1.0000
  C   C1155     1.0  0.92941  0.44102  0.30152  1.0000
  H   H906      1.0  0.68177  0.42340  0.29200  1.0000
  H   H907      1.0  0.71649  0.16432  0.15059  1.0000
  H   H908      1.0  0.69027  0.12859  0.24739  1.0000
  H   H909      1.0  0.77316  0.14544  0.26659  1.0000
  S   S155      1.0  0.85650  0.47653  0.05501  1.0000
  H   H910      1.0  0.72971  0.19778  0.24825  1.0000
  H   H911      1.0  0.78954  0.22454  0.22460  1.0000
  H   H912      1.0  0.82504  0.26665  0.19011  1.0000
  H   H913      1.0  0.82902  0.25873  0.13154  1.0000
  C   C1156     1.0  0.72153  0.15451  0.04432  1.0000
  H   H914      1.0  0.98832  0.42987  0.99869  1.0000
  H   H915      1.0  0.67867  0.08188  0.01815  1.0000
  H   H916      1.0  0.76346  0.03678  0.00763  1.0000
  C   C1157     1.0  0.99190  0.48332  0.21085  1.0000
  C   C1158     1.0  0.68544  0.47902  0.17437  1.0000
  C   C1159     1.0  0.67764  0.14770  0.01492  1.0000
  H   H917      1.0  0.69166  0.09064  0.16342  1.0000
  C   C1160     1.0  0.78321  0.47687  0.08416  1.0000
  S   S156      1.0  0.97395  0.31842  0.47319  1.0000
  H   H918      1.0  0.69078  0.01250  0.00383  1.0000
  C   C1161     1.0  0.91995  0.47740  0.39724  1.0000
  H   H919      1.0  0.66957  0.48345  0.22115  1.0000
  C   C1162     1.0  0.68131  0.43605  0.10293  1.0000
  C   C1163     1.0  0.98890  0.37247  0.44426  1.0000
  H   H920      1.0  0.69495  0.02066  0.43356  1.0000
  C   C1164     1.0  0.98904  0.47757  0.24433  1.0000
  C   C1165     1.0  0.71383  0.48866  0.22403  1.0000
  S   S157      1.0  0.66894  0.10075  0.42313  1.0000
  C   C1166     1.0  0.91090  0.46455  0.26412  1.0000
  H   H921      1.0  0.75431  0.48641  0.16030  1.0000
  C   C1167     1.0  0.68375  0.42528  0.07247  1.0000
  H   H922      1.0  0.98577  0.46383  0.47394  1.0000
  H   H923      1.0  0.71597  0.49314  0.24979  1.0000
  C   C1168     1.0  0.68772  0.48332  0.20787  1.0000
  C   C1169     1.0  0.99192  0.34680  0.44363  1.0000
  C   C1170     1.0  0.99942  0.48860  0.35112  1.0000
  C   C1171     1.0  0.99758  0.45790  0.25788  1.0000
  H   H924      1.0  0.99632  0.45427  0.28382  1.0000
  H   H925      1.0  0.90982  0.50015  0.10831  1.0000
  C   C1172     1.0  0.99968  0.36762  0.13727  1.0000
  H   H926      1.0  0.00068  0.41483  0.42150  1.0000
  H   H927      1.0  0.99896  0.36432  0.11139  1.0000
  C   C1173     1.0  0.66889  0.01039  0.00701  1.0000
  H   H928      1.0  0.95730  0.21859  0.54248  1.0000
  H   H929      1.0  0.88833  0.24920  0.69748  1.0000
  S   S158      1.0  0.69022  0.06930  0.90294  1.0000
  H   H930      1.0  0.82136  0.26022  0.57934  1.0000
  S   S159      1.0  0.69176  0.11632  0.84896  1.0000
  H   H931      1.0  0.78655  0.18327  0.83496  1.0000
  H   H932      1.0  0.83043  0.22017  0.55876  1.0000
  Fe  Fe79      1.0  0.70869  0.11987  0.90025  1.0000
  S   S160      1.0  0.75829  0.15319  0.91380  1.0000
  C   C1174     1.0  0.92345  0.27515  0.93239  1.0000
  C   C1175     1.0  0.92086  0.42886  0.60525  1.0000
  S   S161      1.0  0.90956  0.29243  0.53932  1.0000
  H   H933      1.0  0.94597  0.37066  0.74661  1.0000
  H   H934      1.0  0.92226  0.47130  0.59986  1.0000
  S   S162      1.0  0.88338  0.33834  0.54871  1.0000
  H   H935      1.0  0.92105  0.34554  0.90773  1.0000
  Fe  Fe80      1.0  0.92232  0.33438  0.56882  1.0000
  S   S163      1.0  0.93295  0.34193  0.62329  1.0000
  Fe  Fe81      1.0  0.87340  0.29881  0.51574  1.0000
  H   H936      1.0  0.92579  0.38966  0.60609  1.0000
  S   S164      1.0  0.95532  0.36623  0.53242  1.0000
  H   H937      1.0  0.76144  0.05126  0.95065  1.0000
  C   C1176     1.0  0.77708  0.18181  0.94399  1.0000
  C   C1177     1.0  0.76155  0.18784  0.96797  1.0000
  C   C1178     1.0  0.89943  0.34409  0.90485  1.0000
  H   H938      1.0  0.83062  0.20441  0.79789  1.0000
  C   C1179     1.0  0.82480  0.22202  0.96694  1.0000
  C   C1180     1.0  0.80882  0.19911  0.94374  1.0000
  H   H939      1.0  0.73721  0.17491  0.96856  1.0000
  H   H940      1.0  0.76205  0.21547  0.49739  1.0000
  C   C1181     1.0  0.99365  0.35888  0.62728  1.0000
  H   H941      1.0  0.82120  0.19472  0.92542  1.0000
  C   C1182     1.0  0.88852  0.46895  0.53701  1.0000
  C   C1183     1.0  0.87874  0.43942  0.54776  1.0000
  C   C1184     1.0  0.88980  0.42198  0.53347  1.0000
  H   H942      1.0  0.89847  0.44727  0.90630  1.0000
  C   C1185     1.0  0.91057  0.43395  0.50817  1.0000
  H   H943      1.0  0.94280  0.21008  0.65712  1.0000
  H   H944      1.0  0.86950  0.12221  0.68202  1.0000
  H   H945      1.0  0.91250  0.28055  0.74588  1.0000
  C   C1186     1.0  0.90463  0.33405  0.76597  1.0000
  H   H946      1.0  0.85157  0.29244  0.62521  1.0000
  S   S165      1.0  0.90415  0.32486  0.98799  1.0000
  C   C1187     1.0  0.90577  0.32218  0.82283  1.0000
  C   C1188     1.0  0.98352  0.46199  0.59692  1.0000
  H   H947      1.0  0.86672  0.29922  0.79164  1.0000
  C   C1189     1.0  0.95355  0.28119  0.59143  1.0000
  C   C1190     1.0  0.97109  0.36525  0.67568  1.0000
  C   C1191     1.0  0.96848  0.35669  0.64294  1.0000
  C   C1192     1.0  0.95667  0.23612  0.55654  1.0000
  H   H948      1.0  0.95171  0.36348  0.68801  1.0000
  H   H949      1.0  0.83421  0.30782  0.86162  1.0000
  C   C1193     1.0  0.85059  0.32278  0.87914  1.0000
  C   C1194     1.0  0.98592  0.37629  0.90746  1.0000
  C   C1195     1.0  0.97793  0.36102  0.93727  1.0000
  P   P38       1.0  0.98814  0.48155  0.78873  1.0000
  H   H950      1.0  0.96017  0.36067  0.95162  1.0000
  H   H951      1.0  0.94300  0.29867  0.84245  1.0000
  H   H952      1.0  0.88236  0.39934  0.54210  1.0000
  H   H953      1.0  0.86276  0.43008  0.56746  1.0000
  Fe  Fe82      1.0  0.94019  0.32515  0.50148  1.0000
  C   C1196     1.0  0.92613  0.28160  0.72539  1.0000
  C   C1197     1.0  0.94271  0.48019  0.92316  1.0000
  S   S166      1.0  0.67345  0.04194  0.80738  1.0000
  C   C1198     1.0  0.94918  0.27715  0.91846  1.0000
  P   P39       1.0  0.88745  0.30013  0.85860  1.0000
  H   H954      1.0  0.97416  0.38758  0.89895  1.0000
  H   H955      1.0  0.82222  0.33996  0.89595  1.0000
  C   C1199     1.0  0.80554  0.22247  0.86560  1.0000
  C   C1200     1.0  0.90473  0.28195  0.91405  1.0000
  H   H956      1.0  0.87450  0.25509  0.80808  1.0000
  C   C1201     1.0  0.99105  0.46975  0.74819  1.0000
  C   C1202     1.0  0.83039  0.21774  0.81812  1.0000
  H   H957      1.0  0.89268  0.32946  0.74315  1.0000
  C   C1203     1.0  0.83030  0.25104  0.87165  1.0000
  H   H958      1.0  0.92597  0.20513  0.59166  1.0000
  C   C1204     1.0  0.75602  0.06175  0.97028  1.0000
  H   H959      1.0  0.83032  0.26274  0.89348  1.0000
  C   C1205     1.0  0.74849  0.08391  0.96352  1.0000
  Fe  Fe83      1.0  0.66985  0.06563  0.85323  1.0000
  H   H960      1.0  0.91720  0.48999  0.67117  1.0000
  C   C1206     1.0  0.99188  0.44581  0.68727  1.0000
  C   C1207     1.0  0.95698  0.45023  0.80941  1.0000
  H   H961      1.0  0.97575  0.28549  0.65271  1.0000
  C   C1208     1.0  0.97088  0.46753  0.72382  1.0000
  C   C1209     1.0  0.97114  0.45532  0.69355  1.0000
  H   H962      1.0  0.87548  0.47840  0.92078  1.0000
  C   C1210     1.0  0.91970  0.46318  0.49673  1.0000
  C   C1211     1.0  0.96149  0.28426  0.67259  1.0000
  C   C1212     1.0  0.95736  0.44784  0.84332  1.0000
  C   C1213     1.0  0.93422  0.42283  0.85928  1.0000
  C   C1214     1.0  0.91018  0.40047  0.84167  1.0000
  C   C1215     1.0  0.90933  0.40284  0.80809  1.0000
  C   C1216     1.0  0.93265  0.42752  0.79196  1.0000
  C   C1217     1.0  0.99813  0.44555  0.97859  1.0000
  H   H963      1.0  0.99211  0.35255  0.60210  1.0000
  C   C1218     1.0  0.85488  0.26374  0.85021  1.0000
  H   H964      1.0  0.96416  0.27283  0.93312  1.0000
  H   H965      1.0  0.93507  0.42052  0.88528  1.0000
  C   C1219     1.0  0.93543  0.46014  0.60132  1.0000
  H   H966      1.0  0.95501  0.45275  0.67507  1.0000
  S   S167      1.0  0.82428  0.26050  0.50764  1.0000
  H   H967      1.0  0.89027  0.28447  0.65069  1.0000
  C   C1220     1.0  0.96865  0.43041  0.60008  1.0000
  C   C1221     1.0  0.86493  0.36107  0.92064  1.0000
  H   H968      1.0  0.95436  0.47430  0.72860  1.0000
  H   H969      1.0  0.96800  0.31433  0.74761  1.0000
  C   C1222     1.0  0.96664  0.47670  0.59736  1.0000
  H   H970      1.0  0.00007  0.38206  0.71787  1.0000
  C   C1223     1.0  0.89921  0.48688  0.92515  1.0000
  H   H971      1.0  0.98213  0.31152  0.55431  1.0000
  H   H972      1.0  0.84914  0.23475  0.96645  1.0000
  H   H973      1.0  0.89229  0.38118  0.85398  1.0000
  H   H974      1.0  0.89082  0.38523  0.79448  1.0000
  H   H975      1.0  0.93158  0.42841  0.76594  1.0000
  H   H976      1.0  0.90930  0.37819  0.94070  1.0000
  S   S168      1.0  0.87579  0.49070  0.55738  1.0000
  C   C1224     1.0  0.85507  0.24653  0.82384  1.0000
  C   C1225     1.0  0.80557  0.20578  0.83893  1.0000
  C   C1226     1.0  0.97101  0.28858  0.56336  1.0000
  C   C1227     1.0  0.89012  0.31672  0.79342  1.0000
  C   C1228     1.0  0.95737  0.30050  0.72647  1.0000
  C   C1229     1.0  0.93462  0.35730  0.76785  1.0000
  C   C1230     1.0  0.94998  0.36353  0.79728  1.0000
  C   C1231     1.0  0.93557  0.34627  0.82473  1.0000
  H   H977      1.0  0.88494  0.28040  0.92533  1.0000
  C   C1232     1.0  0.91253  0.26401  0.69791  1.0000
  C   C1233     1.0  0.93760  0.25124  0.60242  1.0000
  C   C1234     1.0  0.99283  0.34619  0.94839  1.0000
  H   H978      1.0  0.97318  0.38173  0.79889  1.0000
  H   H979      1.0  0.94787  0.35164  0.84737  1.0000
  H   H980      1.0  0.89163  0.50204  0.62741  1.0000
  H   H981      1.0  0.89656  0.41590  0.60746  1.0000
  C   C1235     1.0  0.97503  0.30156  0.70023  1.0000
  H   H982      1.0  0.91849  0.26907  0.95771  1.0000
  H   H983      1.0  0.97579  0.46499  0.85742  1.0000
  H   H984      1.0  0.85969  0.37505  0.93594  1.0000
  H   H985      1.0  0.85086  0.19022  0.64738  1.0000
  H   H986      1.0  0.67470  0.04054  0.96759  1.0000
  H   H987      1.0  0.74868  0.09109  0.93876  1.0000
  C   C1236     1.0  0.93733  0.29238  0.86755  1.0000
  C   C1237     1.0  0.91182  0.29115  0.88165  1.0000
  H   H988      1.0  0.95138  0.29861  0.60386  1.0000
  H   H989      1.0  0.83298  0.13854  0.66711  1.0000
  C   C1238     1.0  0.95609  0.28571  0.88606  1.0000
  H   H990      1.0  0.95206  0.50044  0.82734  1.0000
  C   C1239     1.0  0.93909  0.22863  0.58464  1.0000
  H   H991      1.0  0.97633  0.28769  0.87549  1.0000
  Fe  Fe84      1.0  0.91607  0.36781  0.51042  1.0000
  C   C1240     1.0  0.91219  0.46940  0.91694  1.0000
  C   C1241     1.0  0.90885  0.48075  0.51123  1.0000
  C   C1242     1.0  0.90843  0.16516  0.67033  1.0000
  C   C1243     1.0  0.87752  0.14495  0.67312  1.0000
  C   C1244     1.0  0.85695  0.15414  0.66468  1.0000
  C   C1245     1.0  0.86722  0.18348  0.65325  1.0000
  C   C1246     1.0  0.89823  0.20370  0.64975  1.0000
  C   C1247     1.0  0.91877  0.19450  0.65887  1.0000
  P   P40       1.0  0.91216  0.24198  0.63620  1.0000
  C   C1248     1.0  0.93743  0.41404  0.60448  1.0000
  C   C1249     1.0  0.88193  0.24660  0.62018  1.0000
  C   C1250     1.0  0.86500  0.22875  0.59390  1.0000
  C   C1251     1.0  0.84291  0.23337  0.57963  1.0000
  C   C1252     1.0  0.83781  0.25606  0.59120  1.0000
  C   C1253     1.0  0.85473  0.27409  0.61710  1.0000
  C   C1254     1.0  0.87669  0.26939  0.63159  1.0000
  H   H992      1.0  0.92439  0.15813  0.67716  1.0000
  C   C1255     1.0  0.87809  0.32342  0.88312  1.0000
  H   H993      1.0  0.86938  0.21177  0.58387  1.0000
  C   C1256     1.0  0.93004  0.26568  0.67101  1.0000
  C   C1257     1.0  0.99847  0.37576  0.69267  1.0000
  H   H994      1.0  0.78654  0.21283  0.88209  1.0000
  H   H995      1.0  0.95233  0.46624  0.91714  1.0000
  C   C1258     1.0  0.89285  0.36278  0.92352  1.0000
  C   C1259     1.0  0.84385  0.34122  0.89827  1.0000
  C   C1260     1.0  0.97251  0.26608  0.54581  1.0000
  H   H996      1.0  0.99173  0.43564  0.66421  1.0000
  H   H997      1.0  0.98080  0.41819  0.59847  1.0000
  H   H998      1.0  0.73620  0.11501  0.98271  1.0000
  H   H999      1.0  0.97932  0.46356  0.53265  1.0000
  H   H1000     1.0  0.97746  0.50082  0.59354  1.0000
  C   C1261     1.0  0.99355  0.47021  0.97587  1.0000
  H   H1001     1.0  0.98516  0.27181  0.52335  1.0000
  S   S169      1.0  0.98178  0.32536  0.98484  1.0000
  H   H1002     1.0  0.99930  0.31613  0.70116  1.0000
  H   H1003     1.0  0.67209  0.03115  0.73877  1.0000
  H   H1004     1.0  0.92731  0.46430  0.98658  1.0000
  C   C1262     1.0  0.74125  0.09737  0.98869  1.0000
  H   H1005     1.0  0.66849  0.12795  0.50828  1.0000
  S   S170      1.0  0.92606  0.41339  0.49063  1.0000
  Fe  Fe85      1.0  0.88285  0.58505  0.06170  1.0000
  S   S171      1.0  0.88976  0.55350  0.09338  1.0000
  S   S172      1.0  0.85216  0.60407  0.07569  1.0000
  C   C1263     1.0  0.99921  0.78908  0.00752  1.0000
  S   S173      1.0  0.93323  0.55135  0.03570  1.0000
  S   S174      1.0  0.92356  0.59057  0.43271  1.0000
  Fe  Fe86      1.0  0.88424  0.52708  0.04826  1.0000
  Fe  Fe87      1.0  0.93820  0.58018  0.07861  1.0000
  S   S175      1.0  0.97463  0.58449  0.11220  1.0000
  C   C1264     1.0  0.81398  0.64127  0.47424  1.0000
  S   S176      1.0  0.93260  0.61454  0.05005  1.0000
  S   S177      1.0  0.69002  0.55670  0.24865  1.0000
  H   H1006     1.0  0.73006  0.70635  0.99535  1.0000
  S   S178      1.0  0.70076  0.60731  0.19385  1.0000
  C   C1265     1.0  0.79921  0.50462  0.06830  1.0000
  Fe  Fe88      1.0  0.70956  0.56824  0.19805  1.0000
  S   S179      1.0  0.75143  0.56395  0.18674  1.0000
  C   C1266     1.0  0.93760  0.68745  0.02483  1.0000
  C   C1267     1.0  0.84643  0.62613  0.20144  1.0000
  H   H1007     1.0  0.84478  0.65933  0.28527  1.0000
  C   C1268     1.0  0.82350  0.59160  0.10607  1.0000
  C   C1269     1.0  0.80475  0.60440  0.10709  1.0000
  C   C1270     1.0  0.78182  0.59540  0.13066  1.0000
  C   C1271     1.0  0.77778  0.57395  0.15419  1.0000
  C   C1272     1.0  0.79650  0.56112  0.15314  1.0000
  C   C1273     1.0  0.81904  0.56968  0.12918  1.0000
  H   H1008     1.0  0.80820  0.62167  0.08969  1.0000
  H   H1009     1.0  0.76794  0.60580  0.13127  1.0000
  H   H1010     1.0  0.79376  0.54469  0.17126  1.0000
  H   H1011     1.0  0.83318  0.55957  0.12884  1.0000
  C   C1274     1.0  0.96137  0.61047  0.41755  1.0000
  H   H1012     1.0  0.86074  0.50707  0.16726  1.0000
  C   C1275     1.0  0.96680  0.60665  0.38493  1.0000
  H   H1013     1.0  0.98432  0.79827  0.00490  1.0000
  H   H1014     1.0  0.94822  0.59092  0.37000  1.0000
  Fe  Fe89      1.0  0.90632  0.58355  0.48526  1.0000
  C   C1276     1.0  0.98192  0.63593  0.14189  1.0000
  H   H1015     1.0  0.99318  0.50346  0.12362  1.0000
  H   H1016     1.0  0.96804  0.63712  0.12289  1.0000
  H   H1017     1.0  0.88631  0.59951  0.27771  1.0000
  C   C1277     1.0  0.90763  0.58120  0.18504  1.0000
  H   H1018     1.0  0.67285  0.93175  0.01108  1.0000
  C   C1278     1.0  0.98827  0.75830  0.00218  1.0000
  C   C1279     1.0  0.78712  0.52370  0.06606  1.0000
  C   C1280     1.0  0.98754  0.61187  0.14280  1.0000
  C   C1281     1.0  0.92353  0.63062  0.24744  1.0000
  C   C1282     1.0  0.67330  0.62300  0.48321  1.0000
  H   H1019     1.0  0.76426  0.59121  0.05341  1.0000
  H   H1020     1.0  0.69805  0.67066  0.07765  1.0000
  S   S180      1.0  0.87422  0.55684  0.01671  1.0000
  C   C1283     1.0  0.97262  0.65359  0.27328  1.0000
  H   H1021     1.0  0.80371  0.64672  0.24574  1.0000
  C   C1284     1.0  0.99599  0.62319  0.37133  1.0000
  C   C1285     1.0  0.92817  0.61924  0.30366  1.0000
  H   H1022     1.0  0.82106  0.51135  0.05787  1.0000
  H   H1023     1.0  0.92802  0.53587  0.44381  1.0000
  C   C1286     1.0  0.67669  0.97384  0.44638  1.0000
  H   H1024     1.0  0.96923  0.50847  0.00970  1.0000
  H   H1025     1.0  0.71891  0.65449  0.00559  1.0000
  C   C1287     1.0  0.74461  0.58360  0.00582  1.0000
  S   S181      1.0  0.68374  0.62340  0.28665  1.0000
  P   P41       1.0  0.98264  0.50988  0.19265  1.0000
  C   C1288     1.0  0.70922  0.95301  0.43702  1.0000
  H   H1026     1.0  0.66856  0.90306  0.40033  1.0000
  C   C1289     1.0  0.69457  0.60026  0.44867  1.0000
  H   H1027     1.0  0.75272  0.98374  0.41648  1.0000
  C   C1290     1.0  0.84747  0.53582  0.19174  1.0000
  H   H1028     1.0  0.69108  0.60863  0.04296  1.0000
  H   H1029     1.0  0.75344  0.64720  0.45204  1.0000
  C   C1291     1.0  0.82300  0.63148  0.20933  1.0000
  C   C1292     1.0  0.89821  0.55212  0.17361  1.0000
  C   C1293     1.0  0.70152  0.52717  0.10979  1.0000
  H   H1030     1.0  0.91790  0.60774  0.32618  1.0000
  C   C1294     1.0  0.70342  0.59378  0.99943  1.0000
  H   H1031     1.0  0.96596  0.66060  0.22368  1.0000
  C   C1295     1.0  0.68141  0.94912  0.44737  1.0000
  H   H1032     1.0  0.98109  0.53588  0.06135  1.0000
  H   H1033     1.0  0.98218  0.63379  0.46172  1.0000
  C   C1296     1.0  0.99763  0.56515  0.27084  1.0000
  H   H1034     1.0  0.83628  0.64719  0.46584  1.0000
  C   C1297     1.0  0.97926  0.53405  0.22244  1.0000
  C   C1298     1.0  0.95353  0.68440  0.99885  1.0000
  H   H1035     1.0  0.80532  0.62661  0.19198  1.0000
  H   H1036     1.0  0.89599  0.61840  0.14219  1.0000
  H   H1037     1.0  0.99689  0.52066  0.31876  1.0000
  H   H1038     1.0  0.79979  0.54538  0.05403  1.0000
  H   H1039     1.0  0.93901  0.56930  0.23832  1.0000
  H   H1040     1.0  0.71407  0.93477  0.43923  1.0000
  H   H1041     1.0  0.67632  0.58918  0.40025  1.0000
  C   C1299     1.0  0.66857  0.62872  0.10237  1.0000
  H   H1042     1.0  0.91416  0.54750  0.16138  1.0000
  C   C1300     1.0  0.76685  0.64059  0.46640  1.0000
  C   C1301     1.0  0.96420  0.53411  0.41936  1.0000
  C   C1302     1.0  0.79568  0.64839  0.45554  1.0000
  C   C1303     1.0  0.95921  0.63906  0.30228  1.0000
  C   C1304     1.0  0.72822  0.60125  0.05151  1.0000
  H   H1043     1.0  0.67719  0.92607  0.06967  1.0000
  H   H1044     1.0  0.82410  0.51831  0.19404  1.0000
  C   C1305     1.0  0.70598  0.60165  0.03231  1.0000
  H   H1045     1.0  0.84683  0.61742  0.17769  1.0000
  H   H1046     1.0  0.99431  0.65045  0.99885  1.0000
  H   H1047     1.0  0.94156  0.53436  0.19924  1.0000
  C   C1306     1.0  0.95722  0.54252  0.21915  1.0000
  H   H1048     1.0  0.86721  0.62977  0.00756  1.0000
  H   H1049     1.0  0.80392  0.66016  0.43271  1.0000
  C   C1307     1.0  0.68805  0.54394  0.10055  1.0000
  H   H1050     1.0  0.84047  0.56948  0.21452  1.0000
  C   C1308     1.0  0.95493  0.64924  0.24584  1.0000
  H   H1051     1.0  0.73063  0.60818  0.07662  1.0000
  H   H1052     1.0  0.75056  0.53066  0.07838  1.0000
  H   H1053     1.0  0.69581  0.56610  0.11090  1.0000
  C   C1309     1.0  0.98583  0.63058  0.43663  1.0000
  C   C1310     1.0  0.99964  0.54584  0.24839  1.0000
  C   C1311     1.0  0.82216  0.64298  0.23967  1.0000
  H   H1054     1.0  0.91738  0.50783  0.27868  1.0000
  C   C1312     1.0  0.86811  0.52945  0.17679  1.0000
  C   C1313     1.0  0.84519  0.64989  0.26194  1.0000
  H   H1055     1.0  0.71989  0.53676  0.12697  1.0000
  C   C1314     1.0  0.75910  0.51521  0.07994  1.0000
  C   C1315     1.0  0.95560  0.56230  0.24136  1.0000
  H   H1056     1.0  0.96674  0.72661  0.16540  1.0000
  Fe  Fe90      1.0  0.92460  0.58366  0.00747  1.0000
  H   H1057     1.0  0.70974  0.59161  0.44477  1.0000
  C   C1316     1.0  0.90648  0.66814  0.02757  1.0000
  C   C1317     1.0  0.73129  0.98081  0.42441  1.0000
  C   C1318     1.0  0.67511  0.65237  0.08045  1.0000
  H   H1058     1.0  0.95602  0.70827  0.10865  1.0000
  C   C1319     1.0  0.74730  0.59190  0.03839  1.0000
  H   H1059     1.0  0.68937  0.65266  0.34791  1.0000
  C   C1320     1.0  0.86882  0.64484  0.25408  1.0000
  P   P42       1.0  0.99408  0.70687  0.99782  1.0000
  H   H1060     1.0  0.97481  0.58920  0.28422  1.0000
  H   H1061     1.0  0.95651  0.52793  0.14043  1.0000
  C   C1321     1.0  0.97573  0.57351  0.26728  1.0000
  H   H1062     1.0  0.94230  0.69109  0.21071  1.0000
  C   C1322     1.0  0.91040  0.61476  0.27624  1.0000
  H   H1063     1.0  0.68643  0.62868  0.11625  1.0000
  H   H1064     1.0  0.98101  0.55663  0.42698  1.0000
  C   C1323     1.0  0.67547  0.59853  0.42351  1.0000
  H   H1065     1.0  0.88681  0.65128  0.27139  1.0000
  C   C1324     1.0  0.69428  0.61341  0.47840  1.0000
  H   H1066     1.0  0.92005  0.65407  0.09750  1.0000
  H   H1067     1.0  0.93101  0.59861  0.18221  1.0000
  H   H1068     1.0  0.97293  0.64335  0.32368  1.0000
  C   C1325     1.0  0.95157  0.70289  0.16045  1.0000
  C   C1326     1.0  0.94554  0.69258  0.12851  1.0000
  C   C1327     1.0  0.92552  0.66208  0.12221  1.0000
  C   C1328     1.0  0.91205  0.64175  0.14781  1.0000
  C   C1329     1.0  0.91886  0.65173  0.18004  1.0000
  C   C1330     1.0  0.93794  0.68263  0.18612  1.0000
  P   P43       1.0  0.89976  0.62593  0.21308  1.0000
  C   C1331     1.0  0.86919  0.63212  0.22404  1.0000
  C   C1332     1.0  0.88691  0.58795  0.19941  1.0000
  C   C1333     1.0  0.85682  0.56497  0.20315  1.0000
  C   C1334     1.0  0.89117  0.64526  0.00483  1.0000
  H   H1069     1.0  0.96503  0.74414  0.99493  1.0000
  H   H1070     1.0  0.94931  0.70432  0.04331  1.0000
  H   H1071     1.0  0.89421  0.67015  0.04788  1.0000
  H   H1072     1.0  0.75959  0.57656  0.99567  1.0000
  H   H1073     1.0  0.67029  0.68048  0.24088  1.0000
  H   H1074     1.0  0.99566  0.52655  0.39295  1.0000
  Fe  Fe91      1.0  0.67721  0.59278  0.24283  1.0000
  H   H1075     1.0  0.68555  0.95617  0.36439  1.0000
  C   C1335     1.0  0.66959  0.90667  0.05394  1.0000
  C   C1336     1.0  0.99557  0.65927  0.16476  1.0000
  H   H1076     1.0  0.99216  0.67845  0.16339  1.0000
  C   C1337     1.0  0.93422  0.52259  0.42857  1.0000
  C   C1338     1.0  0.97228  0.51699  0.39978  1.0000
  C   C1339     1.0  0.98969  0.53007  0.01149  1.0000
  C   C1340     1.0  0.99615  0.54571  0.04082  1.0000
  H   H1077     1.0  0.99681  0.66854  0.27218  1.0000
  H   H1078     1.0  0.94293  0.50941  0.32961  1.0000
  C   C1341     1.0  0.94135  0.50422  0.14532  1.0000
  H   H1079     1.0  0.99973  0.61990  0.34629  1.0000
  C   C1342     1.0  0.69884  0.00166  0.43404  1.0000
  Fe  Fe92      1.0  0.85699  0.57549  0.53576  1.0000
  S   S182      1.0  0.88132  0.56616  0.57469  1.0000
  S   S183      1.0  0.80973  0.56788  0.54902  1.0000
  C   C1343     1.0  0.94723  0.52599  0.94576  1.0000
  S   S184      1.0  0.93200  0.57397  0.52243  1.0000
  S   S185      1.0  0.94207  0.59732  0.95522  1.0000
  Fe  Fe93      1.0  0.88711  0.53686  0.53879  1.0000
  Fe  Fe94      1.0  0.92710  0.60714  0.55764  1.0000
  C   C1344     1.0  0.88593  0.66631  0.66820  1.0000
  H   H1080     1.0  0.72142  0.57848  0.96108  1.0000
  S   S186      1.0  0.89961  0.61552  0.51688  1.0000
  H   H1081     1.0  0.97423  0.58519  0.78320  1.0000
  H   H1082     1.0  0.85983  0.67949  0.73672  1.0000
  S   S187      1.0  0.68666  0.62383  0.70223  1.0000
  C   C1345     1.0  0.84644  0.59080  0.65672  1.0000
  Fe  Fe95      1.0  0.70146  0.59266  0.67975  1.0000
  S   S188      1.0  0.74812  0.61259  0.65502  1.0000
  H   H1083     1.0  0.89429  0.55526  0.68360  1.0000
  H   H1084     1.0  0.90684  0.52894  0.94565  1.0000
  H   H1085     1.0  0.95656  0.63454  0.72073  1.0000
  C   C1346     1.0  0.79350  0.58033  0.57960  1.0000
  C   C1347     1.0  0.76291  0.56169  0.58794  1.0000
  C   C1348     1.0  0.74864  0.57094  0.61089  1.0000
  C   C1349     1.0  0.76465  0.59932  0.62569  1.0000
  C   C1350     1.0  0.79504  0.61822  0.61680  1.0000
  C   C1351     1.0  0.80941  0.60884  0.59413  1.0000
  H   H1086     1.0  0.75015  0.53978  0.57663  1.0000
  H   H1087     1.0  0.72521  0.55615  0.61701  1.0000
  H   H1088     1.0  0.80754  0.64040  0.62750  1.0000
  H   H1089     1.0  0.83271  0.62384  0.58765  1.0000
  C   C1352     1.0  0.97802  0.61187  0.93599  1.0000
  H   H1090     1.0  0.67150  0.93261  0.90382  1.0000
  H   H1091     1.0  0.72742  0.67690  0.50270  1.0000
  H   H1092     1.0  0.73776  0.71738  0.54175  1.0000
  H   H1093     1.0  0.96103  0.61588  0.88964  1.0000
  H   H1094     1.0  0.80848  0.58780  0.70159  1.0000
  C   C1353     1.0  0.67223  0.76692  0.56499  1.0000
  H   H1095     1.0  0.81280  0.67565  0.75735  1.0000
  H   H1096     1.0  0.92729  0.66557  0.66154  1.0000
  H   H1097     1.0  0.76384  0.62864  0.74905  1.0000
  H   H1098     1.0  0.70301  0.71698  0.95228  1.0000
  C   C1354     1.0  0.93391  0.64785  0.57324  1.0000
  H   H1099     1.0  0.73078  0.62221  0.58073  1.0000
  H   H1100     1.0  0.98471  0.54772  0.88938  1.0000
  H   H1101     1.0  0.86938  0.60936  0.76166  1.0000
  C   C1355     1.0  0.90645  0.70738  0.61626  1.0000
  C   C1356     1.0  0.91171  0.63668  0.78567  1.0000
  C   C1357     1.0  0.78456  0.63004  0.74077  1.0000
  C   C1358     1.0  0.92660  0.67617  0.73305  1.0000
  H   H1102     1.0  0.83340  0.60081  0.64854  1.0000
  C   C1359     1.0  0.85906  0.55128  0.65208  1.0000
  H   H1103     1.0  0.92124  0.54413  0.58996  1.0000
  H   H1104     1.0  0.71287  0.61982  0.91712  1.0000
  H   H1105     1.0  0.94667  0.54573  0.82489  1.0000
  C   C1360     1.0  0.89860  0.64929  0.73363  1.0000
  C   C1361     1.0  0.69472  0.59730  0.91144  1.0000
  C   C1362     1.0  0.97834  0.54959  0.63652  1.0000
  C   C1363     1.0  0.99405  0.57763  0.54929  1.0000
  H   H1106     1.0  0.99670  0.71092  0.87811  1.0000
  C   C1364     1.0  0.68637  0.88767  0.90473  1.0000
  C   C1365     1.0  0.98794  0.53662  0.51435  1.0000
  C   C1366     1.0  0.89104  0.62997  0.76052  1.0000
  C   C1367     1.0  0.68668  0.89537  0.93741  1.0000
  H   H1107     1.0  0.76744  0.60822  0.53844  1.0000
  C   C1368     1.0  0.74065  0.91469  0.93900  1.0000
  C   C1369     1.0  0.96160  0.52549  0.65768  1.0000
  S   S189      1.0  0.98316  0.66326  0.60587  1.0000
  H   H1108     1.0  0.92345  0.66162  0.57115  1.0000
  H   H1109     1.0  0.68645  0.80924  0.58915  1.0000
  H   H1110     1.0  0.90845  0.62294  0.61802  1.0000
  H   H1111     1.0  0.93500  0.59165  0.62451  1.0000
  C   C1370     1.0  0.97268  0.63248  0.55213  1.0000
  C   C1371     1.0  0.91362  0.67483  0.65330  1.0000
  H   H1112     1.0  0.96425  0.66780  0.52956  1.0000
  C   C1372     1.0  0.96369  0.51704  0.80854  1.0000
  P   P44       1.0  0.87235  0.63851  0.70031  1.0000
  H   H1113     1.0  0.94482  0.63033  0.66253  1.0000
  C   C1373     1.0  0.68488  0.63449  0.96803  1.0000
  C   C1374     1.0  0.99465  0.56153  0.76157  1.0000
  H   H1114     1.0  0.76212  0.58507  0.72111  1.0000
  H   H1115     1.0  0.74447  0.71048  0.60010  1.0000
  H   H1116     1.0  0.72519  0.56138  0.51015  1.0000
  C   C1375     1.0  0.77480  0.61886  0.51494  1.0000
  C   C1376     1.0  0.92521  0.62533  0.60056  1.0000
  H   H1117     1.0  0.94567  0.70211  0.61675  1.0000
  H   H1118     1.0  0.82590  0.55419  0.62254  1.0000
  C   C1377     1.0  0.97376  0.64886  0.70357  1.0000
  C   C1378     1.0  0.86714  0.60408  0.68208  1.0000
  C   C1379     1.0  0.81011  0.60729  0.71356  1.0000
  H   H1119     1.0  0.67541  0.65011  0.56276  1.0000
  C   C1380     1.0  0.91679  0.51525  0.93933  1.0000
  C   C1381     1.0  0.71406  0.90908  0.95440  1.0000
  C   C1382     1.0  0.96387  0.55770  0.61295  1.0000
  C   C1383     1.0  0.93995  0.66287  0.78427  1.0000
  C   C1384     1.0  0.83785  0.63416  0.71716  1.0000
  C   C1385     1.0  0.96059  0.54272  0.80727  1.0000
  C   C1386     1.0  0.66986  0.64084  0.94358  1.0000
  H   H1120     1.0  0.68262  0.88975  0.50947  1.0000
  C   C1387     1.0  0.75576  0.62473  0.49565  1.0000
  C   C1388     1.0  0.84211  0.56432  0.64208  1.0000
  C   C1389     1.0  0.86828  0.67816  0.65638  1.0000
  H   H1121     1.0  0.71259  0.88726  0.86422  1.0000
  H   H1122     1.0  0.90181  0.60165  0.70986  1.0000
  C   C1390     1.0  0.68457  0.90915  0.55587  1.0000
  C   C1391     1.0  0.71384  0.68811  0.98033  1.0000
  C   C1392     1.0  0.96715  0.64649  0.67039  1.0000
  H   H1123     1.0  0.86466  0.70742  0.62131  1.0000
  H   H1124     1.0  0.93298  0.69202  0.71325  1.0000
  H   H1125     1.0  0.70848  0.60033  0.86158  1.0000
  C   C1393     1.0  0.93264  0.53964  0.60927  1.0000
  C   C1394     1.0  0.78361  0.60541  0.72511  1.0000
  H   H1126     1.0  0.69288  0.77522  0.55127  1.0000
  C   C1395     1.0  0.69850  0.69412  0.95614  1.0000
  H   H1127     1.0  0.69435  0.89718  0.56767  1.0000
  C   C1396     1.0  0.99561  0.70926  0.93033  1.0000
  H   H1128     1.0  0.95645  0.66766  0.80313  1.0000
  C   C1397     1.0  0.69958  0.58028  0.53139  1.0000
  C   C1398     1.0  0.93804  0.66100  0.97647  1.0000
  C   C1399     1.0  0.96438  0.60990  0.57985  1.0000
  C   C1400     1.0  0.74013  0.90680  0.90654  1.0000
  C   C1401     1.0  0.94047  0.60645  0.60387  1.0000
  H   H1129     1.0  0.84640  0.67140  0.66666  1.0000
  H   H1130     1.0  0.97761  0.51267  0.50956  1.0000
  C   C1402     1.0  0.98935  0.66527  0.64812  1.0000
  C   C1403     1.0  0.72711  0.64605  0.53894  1.0000
  P   P45       1.0  0.98540  0.59022  0.58684  1.0000
  C   C1404     1.0  0.67901  0.92905  0.57370  1.0000
  C   C1405     1.0  0.83869  0.65861  0.73356  1.0000
  C   C1406     1.0  0.74003  0.69271  0.58299  1.0000
  P   P46       1.0  0.71930  0.61614  0.51072  1.0000
  C   C1407     1.0  0.71300  0.89334  0.88941  1.0000
  H   H1131     1.0  0.94995  0.65692  0.95734  1.0000
  H   H1132     1.0  0.81807  0.62182  0.51883  1.0000
  C   C1408     1.0  0.98070  0.61932  0.90285  1.0000
  C   C1409     1.0  0.80366  0.62684  0.50407  1.0000
  H   H1133     1.0  0.89538  0.62317  0.96240  1.0000
  C   C1410     1.0  0.92404  0.69555  0.62777  1.0000
  S   S190      1.0  0.68655  0.56203  0.72369  1.0000
  C   C1411     1.0  0.98205  0.51332  0.78600  1.0000
  C   C1412     1.0  0.94724  0.68272  0.75817  1.0000
  H   H1134     1.0  0.74119  0.66280  0.61920  1.0000
  C   C1413     1.0  0.88061  0.56496  0.67645  1.0000
  C   C1414     1.0  0.66895  0.55763  0.87185  1.0000
  C   C1415     1.0  0.87853  0.69859  0.63049  1.0000
  C   C1416     1.0  0.73631  0.69660  0.55012  1.0000
  H   H1135     1.0  0.96459  0.52978  0.55902  1.0000
  H   H1136     1.0  0.97298  0.51985  0.67615  1.0000
  H   H1137     1.0  0.99001  0.63626  0.53508  1.0000
  C   C1417     1.0  0.96031  0.50839  0.93802  1.0000
  H   H1138     1.0  0.91436  0.72318  0.59619  1.0000
  C   C1418     1.0  0.69215  0.53053  0.54366  1.0000
  C   C1419     1.0  0.88471  0.59130  0.69141  1.0000
  H   H1139     1.0  0.96047  0.54805  0.95677  1.0000
  C   C1420     1.0  0.98088  0.54656  0.54274  1.0000
  H   H1140     1.0  0.96937  0.70277  0.75696  1.0000
  H   H1141     1.0  0.76074  0.91110  0.89467  1.0000
  C   C1421     1.0  0.95762  0.65132  0.54885  1.0000
  C   C1422     1.0  0.81213  0.65655  0.74526  1.0000
  H   H1142     1.0  0.90607  0.62139  0.80602  1.0000
  C   C1423     1.0  0.70729  0.55782  0.52661  1.0000
  S   S191      1.0  0.66809  0.59946  0.79869  1.0000
  S   S192      1.0  0.86103  0.54413  0.50000  1.0000
  C   C1424     1.0  0.73180  0.64266  0.57184  1.0000
  C   C1425     1.0  0.67563  0.57450  0.55220  1.0000
  C   C1426     1.0  0.73018  0.67348  0.52808  1.0000
  H   H1143     1.0  0.68442  0.93247  0.59925  1.0000
  C   C1427     1.0  0.70709  0.65842  0.98633  1.0000
  C   C1428     1.0  0.97604  0.56494  0.78378  1.0000
  H   H1144     1.0  0.85588  0.53092  0.64036  1.0000
  C   C1429     1.0  0.67730  0.90456  0.52294  1.0000
  C   C1430     1.0  0.90697  0.64163  0.97936  1.0000
  C   C1431     1.0  0.73800  0.66583  0.59378  1.0000
  C   C1432     1.0  0.99776  0.53591  0.76273  1.0000
  C   C1433     1.0  0.69249  0.58629  0.88001  1.0000
  H   H1145     1.0  0.97567  0.71136  0.93185  1.0000
  C   C1434     1.0  0.66858  0.78603  0.58630  1.0000
  C   C1435     1.0  0.91583  0.51568  0.63054  1.0000
  C   C1436     1.0  0.67318  0.57981  0.93499  1.0000
  P   P47       1.0  0.67541  0.59573  0.97475  1.0000
  H   H1146     1.0  0.99363  0.61173  0.65295  1.0000
  P   P48       1.0  0.99957  0.52236  0.94648  1.0000
  H   H1147     1.0  0.76167  0.92512  0.95231  1.0000
  C   C1437     1.0  0.67664  0.67050  0.93763  1.0000
  C   C1438     1.0  0.93027  0.50877  0.65496  1.0000
  H   H1148     1.0  0.67178  0.63213  0.50624  1.0000
  H   H1149     1.0  0.69885  0.51367  0.54068  1.0000
  H   H1150     1.0  0.66912  0.59144  0.55595  1.0000
  C   C1439     1.0  0.66894  0.52533  0.56507  1.0000
  H   H1151     1.0  0.91631  0.50340  0.50261  1.0000
  C   C1440     1.0  0.72289  0.58471  0.98629  1.0000
  H   H1152     1.0  0.71497  0.91542  0.97954  1.0000
  Fe  Fe96      1.0  0.66832  0.59097  0.74403  1.0000
