data_image0
_chemical_formula_structural       HCFeC2HC2H2CH2C2HCHC2HC2H4CHCH3C4HSC2S2HCHC2SCH2CHFePC2HCHC2HC4H3CSCSCHC4H3C3PC2HC8SH4CHFeCHCHCHCH3C2H4CHC2SHC2H3CH2CH2C3HC2HCH2CPH2C2H2CH2C3H2CPCHC2FeS2FeS2FeSFeS3CH3SCH2C3PCHC2SCH2C2H3CHC2H2C6H3SH2CHC2HC2H2SHCH3FeCHC7H2C2HC3HC2HCH3CHC2H5CH3CH4CHCH2C7H2CHC2HC3HCH3CFeCH2C3H2PFeHSHC5PCFeC6H2CH2CH4C4H3C3HCSCHCHC3HC2H6C5HC2HSC3H3C2H4C3SH2C4PC4H2C3H2CHC4S2CHSHCHC2HCH2C2HCSH3SHCHC2H3C2HC4H4C2HCFeHSC2H2C2H2SHC3FeHSCHCH2CHC2SHCHSH2C3HPHFeSC2FeCSC2H3C3SH4FeSCH3C3SHFeCSC2HCH3SH3CSH2SCH3C2HFeC5H2C2HC2H2CHCH4C3HC3HCHC3H2CSHSFeC2HCSFeC2H2CHCHC3HCHSC2HC9FeCHC8H3C3H2PSHCHC3H2C2H3CHC2SC4H2CH3FeC3HCH2CH2C2HC2H4C4H5C2FeSFeSPFeSFeCS2CH2CHSHS3HCSH2FeHC3H2C3HSCHCH3CPC4HC3HCHCSCHC4H6SFeH2SHCPCHSHC4HCH3CPC2H4CH2CHC4HC3FeC3PHC2H3CH2CHCH3C9PC3H3C2HC8H7SCH5C2H2C2HC3HCHCH2CH2C2H2CHCHC2FeCHFeC2HC5HC2HCHCHCHC6PC4H2C10HCH5SFeH7CH2C2HSC4SHC2H2FeSC2HSCSFeC5H2C2HC5HCHFeCHCH2CH3C2H3C3H2C2HCH2C4SC3HCSFeHCHCHCSC2HC2HCSC2H4CHC2FeH2CH3FeS2FeSH3CHCHCHC5SHCSCH2FeSCSCHFeSHC2SCH2CH2C4SC2S2H2C6H2C4HC4H2C2HCHSC3HC2SH3CH3CH4C4HCHC2H2CHCFeCHCHSHCH2C2HCHCSCHPC4HC2SC4H3C3H2CHSCSC2HCHCH3CHCHCHCHCSH2C2HC2HC2FeC2HFeH2PC2H2CHC4H3C8H2CH3CSCH2PCFeHCHC3HC2H2CFe2C2H3SC2H3C7HCHFeS4H2SH4C2HC2H2SH3SC9HC2HCFeC3HCH3CHC2SHC5H2C6H3C7H3CH2SCHC2HSCHC5SCHCHCHC6HCH4CH12C2HCSC4FeCHPHC6PC18H11C2H8C4PH2CHFeHCH2C2H2CHCH2C3H2SHPH3C2H3CH3C2HCFeCSHC3HCHC4H2C6FeCFeCH2CH2SC2H3C4HC4HCSCH2C2HC5H4SHCH2CHFeCPH3C4P2C4HCHFeHC2H8FeS2FeSHFeSFeS4FeSFe2S2C6H4C2HC4H2CHSC2HC2H3SH2SHCHC6PC17H11CH6C6HSC2PC2HSH2C3HCHCH2C2H2CHC5H3C2HC8PC7HC7H7C2H7C3HCHSHSFeC2HSH3SH3C3HCHCH2CHCFeHC2HCH4CH2C3HFeC2H2C4FeCFeC2HC3HC2HC2SHFeC4H5S2HC3HFeHC2HSC3HSC6PHC2H2C2H2CH4C4H2CH3SCHC2SHCHCHC3H2PHC2HC2H2CHC3H2C2PCH2FeC3H5CPC2HCS2CHCSCHFeCH3SCH2C5HSC2H3FeC2HCHCHCFeC2FeC2S3CHC3HCHCHC2SHCFeCH2C3HCH2CH3C2HCH2CH2C2H4SCHCH2C3H4CH2CS2HFeS2FeSFeSHC2FeS2CFeS2CH2CPC2H2FeS2FeS2FeSFeS3C5H2CHC6HFeSC5H4C7H4C6H5C2HCSCHCHC2H3C2HC2H2C2HCH2FeCSHC6PC3HC9H7C2H3C11HCH2CH2C2HCH2C2H4C2HC2H3CHC4PH2CH2C2H3CHCFeCSC4H2C4S2HC2HCH3PH4FeCSPC4FeHC5SHFe2SHC3H3CH7C2HC3HC2HCHC3H2C7HCHC2H2CH2C3SHC2H7C5HCH3CHC6H4CHCHCH2SCPSCPCFeH3C2HSHC2HC7HCH4SCH2CH3SFeCH3SC3HSFeSH2CFeS2FeS2FeSFeS2HFeSCHCH3C5H4SC4FeH3C6H4C6H3SCHC7PCH2CH3C4HC2H2C2H6PHFeH6CHC2SHC5PC10HC7HC2H9CPH4S2CHFeH2C2SC4H3C2HC3H2FeH2PC11HC2HS2C2HC2HCHC2H4CHCH2S2CHCH2CH2CFeC6PC7HC8H8PH6CHC2SHSHCH3CH2FeC6HC2S2HC3HC5H4CHCHCH4C3H2C3HC3H2SCH2C5HCHC2HC3HC3HCHCH2SH2C4HC3HCHC3HCPHCHC2HCHC2HC2H8CHC2HCHC4HC6HC4HC2H5CH3SCHCHC2H2C2SH6C2HCHSCHCH2CH2C2SH2C2HC3HCHC5HC3H2C2HC4HCH5C3HC2HC2H2CHCPCHCH2C3H2CHSFeCH3C6PC4HC3H3C7HCH4C3HCH5CH3C2HC4HCH4C2HCHCHC4H3PC5H2SHCSPH3C7HC4H4CHCFeCH2CSCH2C5HFeCHC2HCH2CHC5H2CHC2HC3H2CHC3H6SCHPC2HC2HC4HCHCH2C2HCH4C2HCH2C2HPC2HC2HCFeH3CH3FeC4SCSHC3H4CHPCH2C4HC3H3CH2CHSHC4HC2H2C2H2FeC3SHCH2CH4CH2
_chemical_formula_sum              "H1344 C1680 Fe112 S224 P56"
_cell_length_a       35.6459
_cell_length_b       35.6999
_cell_length_c       87.2973
_cell_angle_alpha    78.3656
_cell_angle_beta     78.0741
_cell_angle_gamma    100.408

_space_group_name_H-M_alt    "P 1"
_space_group_IT_number       1

loop_
  _space_group_symop_operation_xyz
  'x, y, z'

loop_
  _atom_site_type_symbol
  _atom_site_label
  _atom_site_symmetry_multiplicity
  _atom_site_fract_x
  _atom_site_fract_y
  _atom_site_fract_z
  _atom_site_occupancy
  H   H1        1.0  0.47519  0.06970  0.19636  1.0000
  C   C1        1.0  0.02723  0.28322  0.06708  1.0000
  Fe  Fe1       1.0  0.33481  0.43917  0.26623  1.0000
  C   C2        1.0  0.07221  0.43662  0.25945  1.0000
  C   C3        1.0  0.37701  0.01856  0.32209  1.0000
  H   H2        1.0  0.44506  0.03890  0.15431  1.0000
  C   C4        1.0  0.39478  0.32978  0.30030  1.0000
  C   C5        1.0  0.03475  0.41281  0.19332  1.0000
  H   H3        1.0  0.47274  0.01050  0.23422  1.0000
  H   H4        1.0  0.05068  0.34200  0.25605  1.0000
  C   C6        1.0  0.44022  0.42900  0.19644  1.0000
  H   H5        1.0  0.42054  0.14089  0.29616  1.0000
  H   H6        1.0  0.34696  0.37025  0.32081  1.0000
  C   C7        1.0  0.02278  0.49479  0.30991  1.0000
  C   C8        1.0  0.00443  0.24768  0.06640  1.0000
  H   H7        1.0  0.17221  0.39718  0.22430  1.0000
  C   C9        1.0  0.12859  0.43571  0.29591  1.0000
  H   H8        1.0  0.41643  0.40968  0.26045  1.0000
  C   C10       1.0  0.37860  0.29730  0.23655  1.0000
  C   C11       1.0  0.44841  0.19861  0.28057  1.0000
  H   H9        1.0  0.20885  0.41070  0.26467  1.0000
  C   C12       1.0  0.05019  0.46411  0.28913  1.0000
  C   C13       1.0  0.39032  0.34913  0.27271  1.0000
  H   H10       1.0  0.36675  0.29064  0.28803  1.0000
  H   H11       1.0  0.01621  0.38477  0.05160  1.0000
  H   H12       1.0  0.03309  0.37507  0.23154  1.0000
  H   H13       1.0  0.40148  0.16549  0.32056  1.0000
  C   C14       1.0  0.05473  0.49227  0.29815  1.0000
  H   H14       1.0  0.10677  0.44290  0.30475  1.0000
  C   C15       1.0  0.42547  0.02864  0.26920  1.0000
  H   H15       1.0  0.07564  0.38084  0.27375  1.0000
  H   H16       1.0  0.44127  0.49878  0.16155  1.0000
  H   H17       1.0  0.03785  0.43221  0.06698  1.0000
  C   C16       1.0  0.45846  0.23915  0.27950  1.0000
  C   C17       1.0  0.15686  0.45336  0.22250  1.0000
  C   C18       1.0  0.37093  0.26738  0.25061  1.0000
  C   C19       1.0  0.18187  0.42758  0.22445  1.0000
  H   H18       1.0  0.37756  0.08013  0.31569  1.0000
  S   S1        1.0  0.29685  0.47195  0.25423  1.0000
  C   C20       1.0  0.18628  0.41732  0.27347  1.0000
  C   C21       1.0  0.47208  0.35465  0.31664  1.0000
  S   S2        1.0  0.24986  0.40805  0.22941  1.0000
  S   S3        1.0  0.44653  0.42185  0.22777  1.0000
  H   H19       1.0  0.34106  0.25025  0.25617  1.0000
  C   C22       1.0  0.45108  0.06012  0.16127  1.0000
  H   H20       1.0  0.04039  0.44733  0.22491  1.0000
  C   C23       1.0  0.41696  0.31963  0.22947  1.0000
  C   C24       1.0  0.44818  0.25279  0.29344  1.0000
  S   S4        1.0  0.33619  0.39754  0.25020  1.0000
  C   C25       1.0  0.04342  0.39205  0.23945  1.0000
  H   H21       1.0  0.43012  0.04319  0.27863  1.0000
  H   H22       1.0  0.36290  0.00890  0.27987  1.0000
  C   C26       1.0  0.46809  0.07746  0.18482  1.0000
  H   H23       1.0  0.39068  0.44080  0.30824  1.0000
  Fe  Fe2       1.0  0.30340  0.43469  0.23665  1.0000
  P   P1        1.0  0.43213  0.37921  0.31610  1.0000
  C   C27       1.0  0.41689  0.45376  0.31146  1.0000
  C   C28       1.0  0.42268  0.49273  0.31269  1.0000
  H   H24       1.0  0.50120  0.01782  0.28772  1.0000
  C   C29       1.0  0.46125  0.04919  0.17597  1.0000
  H   H25       1.0  0.20989  0.39718  0.29361  1.0000
  C   C30       1.0  0.04717  0.43268  0.23579  1.0000
  C   C31       1.0  0.48308  0.48767  0.32055  1.0000
  H   H26       1.0  0.43901  0.42670  0.28341  1.0000
  C   C32       1.0  0.23160  0.48044  0.22687  1.0000
  C   C33       1.0  0.39082  0.05825  0.32156  1.0000
  C   C34       1.0  0.44767  0.31252  0.23650  1.0000
  C   C35       1.0  0.31491  0.49394  0.32297  1.0000
  H   H27       1.0  0.38844  0.30715  0.31142  1.0000
  H   H28       1.0  0.23299  0.48300  0.28385  1.0000
  H   H29       1.0  0.43722  0.43441  0.17169  1.0000
  C   C36       1.0  0.46612  0.11624  0.17877  1.0000
  S   S5        1.0  0.33941  0.00576  0.31256  1.0000
  C   C37       1.0  0.45488  0.42911  0.18020  1.0000
  S   S6        1.0  0.32236  0.42034  0.29328  1.0000
  C   C38       1.0  0.40160  0.25989  0.25762  1.0000
  H   H30       1.0  0.45562  0.28389  0.29293  1.0000
  C   C39       1.0  0.15707  0.43420  0.26840  1.0000
  C   C40       1.0  0.41483  0.36832  0.29920  1.0000
  C   C41       1.0  0.47711  0.44856  0.31952  1.0000
  C   C42       1.0  0.31475  0.45982  0.31726  1.0000
  H   H31       1.0  0.41975  0.23658  0.31900  1.0000
  H   H32       1.0  0.00493  0.49993  0.23461  1.0000
  H   H33       1.0  0.44093  0.10710  0.14397  1.0000
  C   C43       1.0  0.41043  0.38740  0.27156  1.0000
  C   C44       1.0  0.41725  0.18601  0.30909  1.0000
  C   C45       1.0  0.05344  0.37348  0.25322  1.0000
  P   P2        1.0  0.09032  0.46475  0.27260  1.0000
  C   C46       1.0  0.42758  0.22622  0.30818  1.0000
  C   C47       1.0  0.46284  0.42118  0.20751  1.0000
  H   H34       1.0  0.15733  0.44040  0.25573  1.0000
  C   C48       1.0  0.44868  0.09883  0.15535  1.0000
  C   C49       1.0  0.06108  0.45480  0.24583  1.0000
  C   C50       1.0  0.12800  0.44351  0.27955  1.0000
  C   C51       1.0  0.44400  0.43127  0.31491  1.0000
  C   C52       1.0  0.49925  0.41217  0.20247  1.0000
  C   C53       1.0  0.38253  0.32026  0.28709  1.0000
  C   C54       1.0  0.06770  0.39563  0.26320  1.0000
  C   C55       1.0  0.15800  0.41896  0.30096  1.0000
  S   S7        1.0  0.35760  0.47580  0.21937  1.0000
  H   H35       1.0  0.45554  0.18748  0.26994  1.0000
  H   H36       1.0  0.35478  0.30358  0.23123  1.0000
  H   H37       1.0  0.39450  0.23673  0.26858  1.0000
  H   H38       1.0  0.38095  0.34196  0.26241  1.0000
  C   C56       1.0  0.42810  0.17216  0.29534  1.0000
  H   H39       1.0  0.41162  0.43504  0.20036  1.0000
  Fe  Fe3       1.0  0.39030  0.44200  0.23457  1.0000
  C   C57       1.0  0.21926  0.44103  0.22669  1.0000
  H   H40       1.0  0.47226  0.13803  0.18550  1.0000
  C   C58       1.0  0.45679  0.02914  0.25633  1.0000
  H   H41       1.0  0.00898  0.41649  0.28530  1.0000
  C   C59       1.0  0.18671  0.40958  0.28976  1.0000
  H   H42       1.0  0.33666  0.50191  0.27697  1.0000
  C   C60       1.0  0.49246  0.42253  0.17499  1.0000
  H   H43       1.0  0.05731  0.29386  0.05978  1.0000
  H   H44       1.0  0.02840  0.33327  0.07739  1.0000
  H   H45       1.0  0.12815  0.44285  0.22067  1.0000
  C   C61       1.0  0.42309  0.39698  0.28466  1.0000
  C   C62       1.0  0.32232  0.46255  0.30064  1.0000
  H   H46       1.0  0.05508  0.44065  0.18688  1.0000
  H   H47       1.0  0.15886  0.41368  0.31353  1.0000
  H   H48       1.0  0.45479  0.15693  0.15936  1.0000
  H   H49       1.0  0.46659  0.11564  0.24320  1.0000
  C   C63       1.0  0.45644  0.12693  0.16403  1.0000
  H   H50       1.0  0.06441  0.48621  0.24256  1.0000
  C   C64       1.0  0.49363  0.29363  0.32235  1.0000
  C   C65       1.0  0.01335  0.43820  0.29216  1.0000
  S   S8        1.0  0.39104  0.48149  0.25158  1.0000
  H   H51       1.0  0.49752  0.43161  0.32307  1.0000
  C   C66       1.0  0.44039  0.28248  0.25066  1.0000
  C   C67       1.0  0.04615  0.37773  0.19245  1.0000
  H   H52       1.0  0.47689  0.33101  0.23097  1.0000
  H   H53       1.0  0.42273  0.34308  0.21864  1.0000
  H   H54       1.0  0.44954  0.47644  0.13643  1.0000
  C   C68       1.0  0.50071  0.14739  0.21933  1.0000
  H   H55       1.0  0.29842  0.49351  0.18010  1.0000
  H   H56       1.0  0.39996  0.01898  0.20473  1.0000
  C   C69       1.0  0.46367  0.31411  0.32370  1.0000
  H   H57       1.0  0.48191  0.28231  0.15715  1.0000
  H   H58       1.0  0.48103  0.16689  0.21773  1.0000
  C   C70       1.0  0.49280  0.11852  0.23375  1.0000
  C   C71       1.0  0.16932  0.49283  0.22252  1.0000
  C   C72       1.0  0.01101  0.30538  0.07702  1.0000
  H   H59       1.0  0.07527  0.37859  0.18538  1.0000
  C   C73       1.0  0.49495  0.35318  0.26042  1.0000
  C   C74       1.0  0.38711  0.00927  0.26998  1.0000
  H   H60       1.0  0.49876  0.27266  0.22523  1.0000
  C   C75       1.0  0.02006  0.34174  0.20070  1.0000
  H   H61       1.0  0.49494  0.21660  0.16647  1.0000
  H   H62       1.0  0.46795  0.35446  0.25681  1.0000
  C   C76       1.0  0.33079  0.49935  0.28980  1.0000
  P   P3        1.0  0.48005  0.27340  0.26002  1.0000
  H   H63       1.0  0.30897  0.43148  0.32570  1.0000
  H   H64       1.0  0.01690  0.23059  0.05861  1.0000
  C   C77       1.0  0.50277  0.27153  0.14925  1.0000
  C   C78       1.0  0.00688  0.41851  0.06932  1.0000
  H   H65       1.0  0.02908  0.31458  0.20008  1.0000
  H   H66       1.0  0.26067  0.49129  0.22827  1.0000
  C   C79       1.0  0.44906  0.01024  0.24429  1.0000
  H   H67       1.0  0.49595  0.04131  0.60950  1.0000
  H   H68       1.0  0.32156  0.43947  0.41361  1.0000
  C   C80       1.0  0.31864  0.45932  0.61000  1.0000
  C   C81       1.0  0.49164  0.37922  0.42534  1.0000
  C   C82       1.0  0.39270  0.41818  0.37875  1.0000
  H   H69       1.0  0.15232  0.43944  0.38832  1.0000
  H   H70       1.0  0.21794  0.48476  0.45095  1.0000
  C   C83       1.0  0.28830  0.45013  0.63839  1.0000
  P   P4        1.0  0.18058  0.49336  0.50776  1.0000
  C   C84       1.0  0.47785  0.34481  0.45351  1.0000
  H   H71       1.0  0.05599  0.40147  0.56179  1.0000
  C   C85       1.0  0.28401  0.38123  0.42367  1.0000
  C   C86       1.0  0.45566  0.39030  0.42842  1.0000
  Fe  Fe4       1.0  0.16260  0.31248  0.53577  1.0000
  S   S9        1.0  0.14924  0.36205  0.54637  1.0000
  S   S10       1.0  0.15557  0.30548  0.51153  1.0000
  Fe  Fe5       1.0  0.19108  0.27551  0.56393  1.0000
  S   S11       1.0  0.17978  0.32142  0.57727  1.0000
  S   S12       1.0  0.22038  0.22841  0.57293  1.0000
  Fe  Fe6       1.0  0.12351  0.31499  0.56954  1.0000
  S   S13       1.0  0.06671  0.31825  0.58548  1.0000
  Fe  Fe7       1.0  0.20652  0.36376  0.55324  1.0000
  S   S14       1.0  0.25328  0.41729  0.55089  1.0000
  S   S15       1.0  0.13205  0.26497  0.55830  1.0000
  S   S16       1.0  0.22251  0.31842  0.54043  1.0000
  C   C87       1.0  0.06012  0.41185  0.36584  1.0000
  H   H72       1.0  0.19693  0.42119  0.62680  1.0000
  H   H73       1.0  0.25132  0.33764  0.46411  1.0000
  H   H74       1.0  0.08390  0.19193  0.63461  1.0000
  S   S17       1.0  0.08246  0.48785  0.58996  1.0000
  C   C88       1.0  0.32764  0.09098  0.61166  1.0000
  H   H75       1.0  0.24827  0.12318  0.60314  1.0000
  H   H76       1.0  0.38448  0.23292  0.65181  1.0000
  C   C89       1.0  0.47510  0.13479  0.62912  1.0000
  C   C90       1.0  0.29605  0.26344  0.40526  1.0000
  C   C91       1.0  0.20796  0.46848  0.46351  1.0000
  P   P5        1.0  0.23558  0.35473  0.62481  1.0000
  C   C92       1.0  0.01970  0.31709  0.55586  1.0000
  H   H77       1.0  0.30646  0.14306  0.61364  1.0000
  C   C93       1.0  0.02157  0.18822  0.55275  1.0000
  C   C94       1.0  0.10327  0.46524  0.45471  1.0000
  S   S18       1.0  0.44841  0.35248  0.39630  1.0000
  C   C95       1.0  0.40646  0.05192  0.60378  1.0000
  H   H78       1.0  0.19620  0.23991  0.41235  1.0000
  H   H79       1.0  0.07636  0.25923  0.61230  1.0000
  C   C96       1.0  0.46967  0.28587  0.36445  1.0000
  C   C97       1.0  0.08763  0.17078  0.59538  1.0000
  H   H80       1.0  0.06198  0.35592  0.40204  1.0000
  H   H81       1.0  0.29139  0.34461  0.34490  1.0000
  H   H82       1.0  0.13464  0.43330  0.62119  1.0000
  C   C98       1.0  0.17511  0.42577  0.39175  1.0000
  H   H83       1.0  0.00864  0.13313  0.57093  1.0000
  C   C99       1.0  0.18946  0.36399  0.62132  1.0000
  C   C100      1.0  0.07715  0.41852  0.53577  1.0000
  H   H84       1.0  0.37181  0.32352  0.37441  1.0000
  H   H85       1.0  0.07991  0.43131  0.35483  1.0000
  C   C101      1.0  0.12707  0.12435  0.61317  1.0000
  C   C102      1.0  0.44456  0.31476  0.38623  1.0000
  C   C103      1.0  0.41259  0.28224  0.39237  1.0000
  C   C104      1.0  0.40812  0.25251  0.38413  1.0000
  C   C105      1.0  0.43675  0.25412  0.37022  1.0000
  C   C106      1.0  0.42159  0.06971  0.32863  1.0000
  H   H86       1.0  0.07322  0.41239  0.49401  1.0000
  H   H87       1.0  0.39091  0.28048  0.40333  1.0000
  H   H88       1.0  0.38276  0.22792  0.38864  1.0000
  S   S19       1.0  0.42915  0.21746  0.35973  1.0000
  H   H89       1.0  0.29039  0.41699  0.37016  1.0000
  H   H90       1.0  0.33943  0.47682  0.59886  1.0000
  C   C107      1.0  0.25817  0.34953  0.59289  1.0000
  H   H91       1.0  0.10780  0.22370  0.52342  1.0000
  C   C108      1.0  0.38958  0.43489  0.36329  1.0000
  C   C109      1.0  0.36638  0.33290  0.36267  1.0000
  H   H92       1.0  0.39677  0.10510  0.58964  1.0000
  C   C110      1.0  0.31852  0.41636  0.37282  1.0000
  C   C111      1.0  0.45658  0.11255  0.59130  1.0000
  H   H93       1.0  0.37582  0.10454  0.64588  1.0000
  H   H94       1.0  0.40263  0.38675  0.44624  1.0000
  S   S20       1.0  0.49216  0.43032  0.35637  1.0000
  H   H95       1.0  0.49226  0.28709  0.35391  1.0000
  C   C112      1.0  0.18802  0.39798  0.38406  1.0000
  H   H96       1.0  0.12628  0.37761  0.45204  1.0000
  H   H97       1.0  0.41584  0.44949  0.35369  1.0000
  H   H98       1.0  0.30327  0.32029  0.37173  1.0000
  Fe  Fe8       1.0  0.49561  0.40526  0.38143  1.0000
  C   C113      1.0  0.29014  0.39503  0.45373  1.0000
  H   H99       1.0  0.07916  0.47888  0.47735  1.0000
  C   C114      1.0  0.47412  0.05531  0.60537  1.0000
  C   C115      1.0  0.19278  0.20231  0.62773  1.0000
  C   C116      1.0  0.06724  0.14583  0.55593  1.0000
  C   C117      1.0  0.26771  0.40046  0.62449  1.0000
  C   C118      1.0  0.00922  0.36155  0.39424  1.0000
  C   C119      1.0  0.14438  0.49916  0.32835  1.0000
  C   C120      1.0  0.41780  0.09095  0.59438  1.0000
  H   H100      1.0  0.02074  0.45892  0.53851  1.0000
  H   H101      1.0  0.20603  0.31078  0.41092  1.0000
  C   C121      1.0  0.19260  0.43708  0.40349  1.0000
  C   C122      1.0  0.14175  0.46330  0.52498  1.0000
  H   H102      1.0  0.07311  0.18988  0.58859  1.0000
  C   C123      1.0  0.10807  0.30636  0.50927  1.0000
  C   C124      1.0  0.08531  0.32833  0.51713  1.0000
  C   C125      1.0  0.04748  0.32891  0.51488  1.0000
  H   H103      1.0  0.46468  0.14326  0.58483  1.0000
  C   C126      1.0  0.05474  0.28420  0.49755  1.0000
  C   C127      1.0  0.09292  0.28471  0.49933  1.0000
  H   H104      1.0  0.09702  0.34523  0.52475  1.0000
  C   C128      1.0  0.21832  0.38134  0.38821  1.0000
  H   H105      1.0  0.24112  0.03991  0.64806  1.0000
  H   H106      1.0  0.11044  0.26770  0.49325  1.0000
  H   H107      1.0  0.02990  0.34607  0.52079  1.0000
  C   C129      1.0  0.39146  0.35967  0.33374  1.0000
  H   H108      1.0  0.28562  0.46051  0.64931  1.0000
  C   C130      1.0  0.23689  0.44787  0.56286  1.0000
  C   C131      1.0  0.19738  0.44020  0.57137  1.0000
  H   H109      1.0  0.43391  0.29803  0.33012  1.0000
  H   H110      1.0  0.02795  0.05442  0.62497  1.0000
  H   H111      1.0  0.05039  0.45112  0.43500  1.0000
  H   H112      1.0  0.17681  0.41406  0.57121  1.0000
  H   H113      1.0  0.33458  0.49993  0.62406  1.0000
  C   C132      1.0  0.30991  0.42364  0.43947  1.0000
  H   H114      1.0  0.25361  0.20934  0.40867  1.0000
  H   H115      1.0  0.32753  0.45132  0.43994  1.0000
  H   H116      1.0  0.04287  0.26692  0.49005  1.0000
  C   C133      1.0  0.26368  0.35286  0.43807  1.0000
  H   H117      1.0  0.15055  0.47029  0.32962  1.0000
  H   H118      1.0  0.29249  0.40036  0.46533  1.0000
  H   H119      1.0  0.23771  0.06091  0.59457  1.0000
  H   H120      1.0  0.10696  0.40077  0.37676  1.0000
  C   C134      1.0  0.32136  0.39872  0.38836  1.0000
  H   H121      1.0  0.36225  0.38698  0.40302  1.0000
  C   C135      1.0  0.32786  0.33139  0.36118  1.0000
  H   H122      1.0  0.30423  0.26009  0.60322  1.0000
  H   H123      1.0  0.48581  0.32738  0.46344  1.0000
  C   C136      1.0  0.07368  0.02720  0.65133  1.0000
  C   C137      1.0  0.21056  0.21981  0.59394  1.0000
  C   C138      1.0  0.17865  0.23104  0.60257  1.0000
  C   C139      1.0  0.17016  0.22282  0.61944  1.0000
  C   C140      1.0  0.29191  0.28548  0.60031  1.0000
  C   C141      1.0  0.10783  0.44091  0.52259  1.0000
  C   C142      1.0  0.23424  0.20085  0.60216  1.0000
  H   H124      1.0  0.15956  0.24468  0.59633  1.0000
  H   H125      1.0  0.14596  0.23213  0.62601  1.0000
  C   C143      1.0  0.17832  0.39900  0.62317  1.0000
  H   H126      1.0  0.40727  0.01914  0.57814  1.0000
  C   C144      1.0  0.03485  0.27533  0.59881  1.0000
  C   C145      1.0  0.30192  0.30371  0.40436  1.0000
  H   H127      1.0  0.11106  0.32290  0.60875  1.0000
  C   C146      1.0  0.09534  0.17129  0.54257  1.0000
  C   C147      1.0  0.07920  0.18074  0.64746  1.0000
  C   C148      1.0  0.11360  0.44044  0.55404  1.0000
  H   H128      1.0  0.11593  0.43962  0.56627  1.0000
  C   C149      1.0  0.05002  0.36942  0.39245  1.0000
  H   H129      1.0  0.27464  0.28790  0.62492  1.0000
  H   H130      1.0  0.12996  0.44285  0.43486  1.0000
  H   H131      1.0  0.22877  0.36066  0.38184  1.0000
  C   C150      1.0  0.26419  0.41442  0.63855  1.0000
  Fe  Fe9       1.0  0.30919  0.15572  0.65062  1.0000
  C   C151      1.0  0.09101  0.06715  0.64916  1.0000
  H   H132      1.0  0.44684  0.40739  0.41861  1.0000
  H   H133      1.0  0.42246  0.34669  0.46861  1.0000
  C   C152      1.0  0.43068  0.37849  0.44398  1.0000
  C   C153      1.0  0.25803  0.24055  0.40798  1.0000
  C   C154      1.0  0.07058  0.15265  0.61175  1.0000
  H   H134      1.0  0.14341  0.10739  0.61983  1.0000
  H   H135      1.0  0.05106  0.40150  0.53374  1.0000
  P   P6        1.0  0.06734  0.10556  0.64188  1.0000
  Fe  Fe10      1.0  0.05057  0.47367  0.61628  1.0000
  H   H136      1.0  0.02582  0.48379  0.46285  1.0000
  S   S21       1.0  0.17879  0.18766  0.64885  1.0000
  H   H137      1.0  0.04248  0.23800  0.53188  1.0000
  C   C155      1.0  0.08907  0.45701  0.47157  1.0000
  C   C156      1.0  0.35252  0.43401  0.36034  1.0000
  C   C157      1.0  0.25514  0.48449  0.51096  1.0000
  C   C158      1.0  0.07978  0.41870  0.55151  1.0000
  C   C159      1.0  0.48465  0.09481  0.59692  1.0000
  P   P7        1.0  0.27755  0.37382  0.40441  1.0000
  C   C160      1.0  0.26695  0.35969  0.45303  1.0000
  Fe  Fe11      1.0  0.48208  0.19424  0.35111  1.0000
  C   C161      1.0  0.26307  0.06950  0.59918  1.0000
  C   C162      1.0  0.27512  0.33336  0.58061  1.0000
  C   C163      1.0  0.08644  0.41969  0.48113  1.0000
  C   C164      1.0  0.43859  0.04145  0.33634  1.0000
  C   C165      1.0  0.14299  0.40611  0.61997  1.0000
  C   C166      1.0  0.32110  0.34492  0.34607  1.0000
  H   H138      1.0  0.02469  0.21027  0.63468  1.0000
  H   H139      1.0  0.29729  0.41429  0.59898  1.0000
  C   C167      1.0  0.40542  0.16164  0.63013  1.0000
  H   H140      1.0  0.46095  0.12115  0.45051  1.0000
  H   H141      1.0  0.13781  0.17993  0.57527  1.0000
  C   C168      1.0  0.28963  0.04528  0.60039  1.0000
  H   H142      1.0  0.18627  0.37500  0.48679  1.0000
  H   H143      1.0  0.24421  0.17823  0.62528  1.0000
  H   H144      1.0  0.04330  0.26642  0.55548  1.0000
  H   H145      1.0  0.09156  0.38420  0.61212  1.0000
  C   C169      1.0  0.11869  0.37854  0.61485  1.0000
  C   C170      1.0  0.09028  0.12947  0.62081  1.0000
  C   C171      1.0  0.12401  0.16516  0.58785  1.0000
  C   C172      1.0  0.18302  0.42633  0.49595  1.0000
  H   H146      1.0  0.24519  0.32552  0.43779  1.0000
  H   H147      1.0  0.17248  0.13878  0.59093  1.0000
  H   H148      1.0  0.44293  0.21515  0.61403  1.0000
  C   C173      1.0  0.22789  0.32023  0.64410  1.0000
  C   C174      1.0  0.22307  0.42080  0.40760  1.0000
  C   C175      1.0  0.39817  0.34714  0.34901  1.0000
  H   H149      1.0  0.15381  0.46090  0.58638  1.0000
  C   C176      1.0  0.12956  0.34375  0.61303  1.0000
  S   S22       1.0  0.48013  0.05519  0.34373  1.0000
  C   C177      1.0  0.19195  0.29247  0.65115  1.0000
  H   H150      1.0  0.23722  0.43134  0.41625  1.0000
  C   C178      1.0  0.19024  0.40665  0.48370  1.0000
  H   H151      1.0  0.17294  0.30950  0.61447  1.0000
  C   C179      1.0  0.08610  0.20421  0.53388  1.0000
  C   C180      1.0  0.22550  0.19233  0.61906  1.0000
  C   C181      1.0  0.14359  0.14183  0.59672  1.0000
  H   H152      1.0  0.17539  0.39023  0.37453  1.0000
  C   C182      1.0  0.03216  0.30659  0.50517  1.0000
  C   C183      1.0  0.04605  0.25320  0.61159  1.0000
  H   H153      1.0  0.04840  0.33609  0.55399  1.0000
  H   H154      1.0  0.17398  0.40945  0.50844  1.0000
  H   H155      1.0  0.32106  0.24995  0.40384  1.0000
  H   H156      1.0  0.24269  0.39770  0.64962  1.0000
  H   H157      1.0  0.35026  0.44775  0.34842  1.0000
  H   H158      1.0  0.48671  0.26230  0.32772  1.0000
  C   C184      1.0  0.07157  0.14026  0.65426  1.0000
  C   C185      1.0  0.50110  0.10120  0.46395  1.0000
  C   C186      1.0  0.26978  0.32163  0.40580  1.0000
  C   C187      1.0  0.32215  0.05568  0.60671  1.0000
  C   C188      1.0  0.09986  0.39122  0.47407  1.0000
  H   H159      1.0  0.32925  0.04280  0.63987  1.0000
  C   C189      1.0  0.16472  0.33641  0.61624  1.0000
  C   C190      1.0  0.25901  0.31932  0.65169  1.0000
  H   H160      1.0  0.42136  0.41966  0.38120  1.0000
  S   S23       1.0  0.49319  0.14008  0.36593  1.0000
  C   C191      1.0  0.07540  0.39456  0.37825  1.0000
  C   C192      1.0  0.49153  0.12224  0.45053  1.0000
  C   C193      1.0  0.29169  0.30117  0.58433  1.0000
  H   H161      1.0  0.03485  0.44084  0.40969  1.0000
  H   H162      1.0  0.25962  0.19328  0.59544  1.0000
  H   H163      1.0  0.27457  0.34525  0.56823  1.0000
  C   C194      1.0  0.35887  0.39997  0.39120  1.0000
  C   C195      1.0  0.11575  0.39979  0.45742  1.0000
  H   H164      1.0  0.43763  0.08027  0.64441  1.0000
  H   H165      1.0  0.07419  0.11989  0.56248  1.0000
  H   H166      1.0  0.35211  0.09975  0.61676  1.0000
  H   H167      1.0  0.50046  0.30364  0.41588  1.0000
  C   C196      1.0  0.44163  0.18582  0.62083  1.0000
  C   C197      1.0  0.29464  0.42357  0.61013  1.0000
  C   C198      1.0  0.43518  0.03395  0.60889  1.0000
  S   S24       1.0  0.25477  0.11840  0.64764  1.0000
  H   H168      1.0  0.33164  0.32063  0.40245  1.0000
  H   H169      1.0  0.04554  0.01816  0.64879  1.0000
  C   C199      1.0  0.22574  0.25784  0.40999  1.0000
  C   C200      1.0  0.35278  0.35926  0.33240  1.0000
  C   C201      1.0  0.26363  0.48100  0.56353  1.0000
  C   C202      1.0  0.18430  0.46684  0.57986  1.0000
  P   P8        1.0  0.35619  0.02391  0.60862  1.0000
  C   C203      1.0  0.03025  0.15387  0.56085  1.0000
  C   C204      1.0  0.20258  0.42766  0.46751  1.0000
  C   C205      1.0  0.47292  0.31683  0.37216  1.0000
  C   C206      1.0  0.27496  0.30149  0.61263  1.0000
  H   H170      1.0  0.03113  0.27342  0.64433  1.0000
  H   H171      1.0  0.31185  0.47669  0.51405  1.0000
  C   C207      1.0  0.26903  0.10462  0.60399  1.0000
  C   C208      1.0  0.40384  0.12352  0.63881  1.0000
  C   C209      1.0  0.01943  0.28687  0.65374  1.0000
  H   H172      1.0  0.10501  0.44088  0.51052  1.0000
  H   H173      1.0  0.18350  0.45954  0.40900  1.0000
  C   C210      1.0  0.44182  0.35584  0.45654  1.0000
  H   H174      1.0  0.30348  0.28778  0.57487  1.0000
  C   C211      1.0  0.25802  0.33381  0.60902  1.0000
  C   C212      1.0  0.43876  0.10984  0.63805  1.0000
  C   C213      1.0  0.04279  0.31991  0.65617  1.0000
  C   C214      1.0  0.23616  0.39271  0.40001  1.0000
  S   S25       1.0  0.25327  0.50296  0.35920  1.0000
  S   S26       1.0  0.36321  0.18044  0.63004  1.0000
  C   C215      1.0  0.01668  0.27719  0.55658  1.0000
  H   H175      1.0  0.25111  0.46040  0.50522  1.0000
  S   S27       1.0  0.14164  0.48924  0.36050  1.0000
  H   H176      1.0  0.28748  0.33941  0.64618  1.0000
  C   C216      1.0  0.23151  0.29816  0.40902  1.0000
  H   H177      1.0  0.42789  0.34865  0.35039  1.0000
  C   C217      1.0  0.30159  0.11560  0.61002  1.0000
  C   C218      1.0  0.04920  0.21239  0.53880  1.0000
  H   H178      1.0  0.12422  0.16547  0.53883  1.0000
  C   C219      1.0  0.31572  0.47243  0.62415  1.0000
  H   H179      1.0  0.20801  0.41226  0.45807  1.0000
  H   H180      1.0  0.09803  0.36250  0.48152  1.0000
  C   C220      1.0  0.30671  0.41682  0.42452  1.0000
  C   C221      1.0  0.47633  0.17267  0.62050  1.0000
  H   H181      1.0  0.24480  0.37406  0.58975  1.0000
  C   C222      1.0  0.01707  0.22522  0.62418  1.0000
  S   S28       1.0  0.02593  0.41073  0.63020  1.0000
  H   H182      1.0  0.16802  0.29123  0.64528  1.0000
  H   H183      1.0  0.28406  0.01824  0.59663  1.0000
  H   H184      1.0  0.37271  0.49827  0.40479  1.0000
  S   S29       1.0  0.48399  0.17074  0.32912  1.0000
  H   H185      1.0  0.04232  0.15727  0.61739  1.0000
  C   C223      1.0  0.12741  0.07743  0.65290  1.0000
  H   H186      1.0  0.17101  0.47781  0.54324  1.0000
  C   C224      1.0  0.18781  0.46735  0.49202  1.0000
  C   C225      1.0  0.14477  0.46218  0.54087  1.0000
  H   H187      1.0  0.07257  0.33188  0.64865  1.0000
  H   H188      1.0  0.47785  0.08379  0.47436  1.0000
  H   H189      1.0  0.29434  0.48643  0.55726  1.0000
  C   C226      1.0  0.01946  0.40430  0.36762  1.0000
  C   C227      1.0  0.11766  0.43673  0.44776  1.0000
  H   H190      1.0  0.31032  0.49190  0.33570  1.0000
  C   C228      1.0  0.20082  0.48831  0.47570  1.0000
  C   C229      1.0  0.21080  0.50091  0.57990  1.0000
  C   C230      1.0  0.06560  0.47255  0.42371  1.0000
  C   C231      1.0  0.05643  0.46675  0.40941  1.0000
  H   H191      1.0  0.14143  0.10800  0.65133  1.0000
  H   H192      1.0  0.02042  0.42078  0.59391  1.0000
  H   H193      1.0  0.02651  0.48521  0.56253  1.0000
  H   H194      1.0  0.48691  0.16881  0.65367  1.0000
  C   C232      1.0  0.02234  0.48966  0.53783  1.0000
  C   C233      1.0  0.28986  0.49380  0.51587  1.0000
  H   H195      1.0  0.08851  0.23864  0.65170  1.0000
  C   C234      1.0  0.50296  0.35622  0.43784  1.0000
  Fe  Fe12      1.0  0.50038  0.11930  0.34316  1.0000
  H   H196      1.0  0.49794  0.34174  0.36744  1.0000
  S   S30       1.0  0.47294  0.00520  0.64609  1.0000
  C   C235      1.0  0.23338  0.00850  0.65263  1.0000
  C   C236      1.0  0.33172  0.01258  0.64212  1.0000
  H   H197      1.0  0.06893  0.48920  0.38362  1.0000
  H   H198      1.0  0.00813  0.41806  0.35789  1.0000
  C   C237      1.0  0.01586  0.08736  0.64296  1.0000
  C   C238      1.0  0.07535  0.49416  0.39475  1.0000
  H   H199      1.0  0.04905  0.50093  0.35303  1.0000
  H   H200      1.0  0.00713  0.47912  0.65354  1.0000
  S   S31       1.0  0.02224  0.49858  0.50543  1.0000
  H   H201      1.0  0.43383  0.19644  0.65774  1.0000
  C   C239      1.0  0.00540  0.06315  0.63295  1.0000
  C   C240      1.0  0.14615  0.04837  0.65866  1.0000
  C   C241      1.0  0.08170  0.20737  0.65717  1.0000
  Fe  Fe13      1.0  0.22381  0.16008  0.65824  1.0000
  H   H202      1.0  0.43226  0.10035  0.32800  1.0000
  S   S32       1.0  0.27858  0.20004  0.65926  1.0000
  C   C242      1.0  0.12900  0.00879  0.66059  1.0000
  H   H203      1.0  0.42763  0.00347  0.61569  1.0000
  C   C243      1.0  0.46387  0.14466  0.74077  1.0000
  H   H204      1.0  0.08336  0.46876  0.82113  1.0000
  H   H205      1.0  0.02490  0.40066  0.70414  1.0000
  C   C244      1.0  0.41324  0.14013  0.81670  1.0000
  H   H206      1.0  0.16642  0.00459  0.72190  1.0000
  C   C245      1.0  0.45660  0.11918  0.71761  1.0000
  C   C246      1.0  0.25875  0.07734  0.73193  1.0000
  S   S33       1.0  0.22291  0.04312  0.83381  1.0000
  H   H207      1.0  0.23061  0.08354  0.87369  1.0000
  C   C247      1.0  0.26957  0.49892  0.79691  1.0000
  H   H208      1.0  0.06311  0.07534  0.83200  1.0000
  S   S34       1.0  0.07457  0.29030  0.86600  1.0000
  H   H209      1.0  0.34156  0.25197  0.67376  1.0000
  H   H210      1.0  0.37391  0.12198  0.68977  1.0000
  C   C248      1.0  0.11044  0.34842  0.83879  1.0000
  C   C249      1.0  0.07481  0.32304  0.84810  1.0000
  C   C250      1.0  0.37244  0.03821  0.81470  1.0000
  H   H211      1.0  0.49833  0.03451  0.69871  1.0000
  P   P9        1.0  0.45430  0.16437  0.68778  1.0000
  H   H212      1.0  0.13707  0.34808  0.84287  1.0000
  Fe  Fe14      1.0  0.02728  0.23489  0.87212  1.0000
  S   S35       1.0  0.25505  0.04079  0.76277  1.0000
  C   C251      1.0  0.35581  0.08813  0.75934  1.0000
  C   C252      1.0  0.09808  0.34154  0.75305  1.0000
  Fe  Fe15      1.0  0.28060  0.04548  0.81728  1.0000
  C   C253      1.0  0.43535  0.03081  0.79113  1.0000
  S   S36       1.0  0.21078  0.12450  0.68371  1.0000
  C   C254      1.0  0.36278  0.04256  0.74234  1.0000
  C   C255      1.0  0.45792  0.15687  0.70858  1.0000
  H   H213      1.0  0.08704  0.17605  0.81835  1.0000
  H   H214      1.0  0.29329  0.00429  0.73512  1.0000
  H   H215      1.0  0.46506  0.21818  0.70896  1.0000
  C   C256      1.0  0.04164  0.34911  0.82814  1.0000
  C   C257      1.0  0.26181  0.10941  0.71928  1.0000
  C   C258      1.0  0.04028  0.32351  0.84286  1.0000
  S   S37       1.0  0.20148  0.14389  0.81914  1.0000
  H   H216      1.0  0.02151  0.17841  0.75221  1.0000
  H   H217      1.0  0.34850  0.23400  0.70175  1.0000
  H   H218      1.0  0.19211  0.10694  0.85465  1.0000
  H   H219      1.0  0.35238  0.09426  0.77109  1.0000
  Fe  Fe16      1.0  0.00695  0.15151  0.86898  1.0000
  S   S38       1.0  0.30477  0.12067  0.67551  1.0000
  C   C259      1.0  0.36105  0.07167  0.72920  1.0000
  H   H220      1.0  0.08085  0.07581  0.88907  1.0000
  H   H221      1.0  0.46563  0.13971  0.75325  1.0000
  H   H222      1.0  0.15833  0.48117  0.85371  1.0000
  C   C260      1.0  0.20427  0.45401  0.82164  1.0000
  C   C261      1.0  0.23617  0.43773  0.81668  1.0000
  C   C262      1.0  0.35352  0.11672  0.74627  1.0000
  S   S39       1.0  0.03944  0.17891  0.88484  1.0000
  H   H223      1.0  0.49173  0.10330  0.67769  1.0000
  Fe  Fe17      1.0  0.02711  0.42369  0.79759  1.0000
  C   C263      1.0  0.03941  0.02041  0.89239  1.0000
  S   S40       1.0  0.47150  0.02338  0.77578  1.0000
  C   C264      1.0  0.06193  0.43098  0.84489  1.0000
  C   C265      1.0  0.02161  0.33706  0.77064  1.0000
  H   H224      1.0  0.36257  0.06559  0.71750  1.0000
  C   C266      1.0  0.01927  0.41749  0.69347  1.0000
  H   H225      1.0  0.45775  0.08363  0.74059  1.0000
  H   H226      1.0  0.13993  0.39118  0.81634  1.0000
  H   H227      1.0  0.49859  0.15266  0.84645  1.0000
  S   S41       1.0  0.02816  0.45844  0.77319  1.0000
  H   H228      1.0  0.07229  0.31275  0.80206  1.0000
  H   H229      1.0  0.02749  0.12479  0.99328  1.0000
  H   H230      1.0  0.40073  0.15501  0.80760  1.0000
  C   C267      1.0  0.26888  0.46020  0.80438  1.0000
  S   S42       1.0  0.27083  0.18674  0.70544  1.0000
  H   H231      1.0  0.17896  0.43560  0.83091  1.0000
  H   H232      1.0  0.23525  0.40745  0.82229  1.0000
  S   S43       1.0  0.33053  0.03942  0.82894  1.0000
  C   C268      1.0  0.37920  0.06844  0.68291  1.0000
  H   H233      1.0  0.10937  0.42799  0.87494  1.0000
  H   H234      1.0  0.39335  0.01747  0.67552  1.0000
  H   H235      1.0  0.46285  0.03899  0.82846  1.0000
  C   C269      1.0  0.17909  0.08063  0.86440  1.0000
  C   C270      1.0  0.12381  0.02526  0.87833  1.0000
  H   H236      1.0  0.42617  0.02496  0.70771  1.0000
  Fe  Fe18      1.0  0.26837  0.16139  0.68399  1.0000
  C   C271      1.0  0.44508  0.05805  0.67623  1.0000
  C   C272      1.0  0.20074  0.06744  0.87514  1.0000
  C   C273      1.0  0.14532  0.01271  0.88938  1.0000
  C   C274      1.0  0.03976  0.30587  0.77450  1.0000
  C   C275      1.0  0.49105  0.03368  0.82967  1.0000
  H   H237      1.0  0.35261  0.12993  0.72121  1.0000
  H   H238      1.0  0.29349  0.44742  0.80053  1.0000
  C   C276      1.0  0.36431  0.23705  0.67631  1.0000
  C   C277      1.0  0.01454  0.32438  0.89848  1.0000
  H   H239      1.0  0.06611  0.14267  0.69352  1.0000
  C   C278      1.0  0.35609  0.10845  0.73118  1.0000
  C   C279      1.0  0.40479  0.10086  0.84375  1.0000
  H   H240      1.0  0.39626  0.19595  0.70815  1.0000
  H   H241      1.0  0.21487  0.24141  0.68401  1.0000
  C   C280      1.0  0.01857  0.21570  0.76881  1.0000
  H   H242      1.0  0.34777  0.05825  0.68447  1.0000
  C   C281      1.0  0.08447  0.09702  0.83461  1.0000
  H   H243      1.0  0.00375  0.00615  0.86785  1.0000
  H   H244      1.0  0.46928  0.20701  0.73739  1.0000
  H   H245      1.0  0.03609  0.18914  0.80435  1.0000
  H   H246      1.0  0.12174  0.29834  0.81707  1.0000
  C   C282      1.0  0.43492  0.11779  0.68389  1.0000
  C   C283      1.0  0.14079  0.05967  0.86602  1.0000
  C   C284      1.0  0.25961  0.11958  0.75037  1.0000
  H   H247      1.0  0.16081  0.17766  0.84282  1.0000
  C   C285      1.0  0.05056  0.25212  0.80203  1.0000
  C   C286      1.0  0.06912  0.15331  0.68070  1.0000
  C   C287      1.0  0.02517  0.34856  0.90838  1.0000
  H   H248      1.0  0.09331  0.28530  0.76870  1.0000
  C   C288      1.0  0.41341  0.05847  0.78723  1.0000
  H   H249      1.0  0.09517  0.39817  0.73962  1.0000
  C   C289      1.0  0.07968  0.37229  0.74922  1.0000
  C   C290      1.0  0.13948  0.15521  0.84049  1.0000
  C   C291      1.0  0.07509  0.28274  0.80566  1.0000
  H   H250      1.0  0.12434  0.07027  0.85767  1.0000
  H   H251      1.0  0.02772  0.29956  0.89747  1.0000
  C   C292      1.0  0.07827  0.30850  0.76565  1.0000
  S   S44       1.0  0.22843  0.02062  0.68319  1.0000
  H   H252      1.0  0.45295  0.09439  0.71236  1.0000
  S   S45       1.0  0.00964  0.46938  0.81000  1.0000
  Fe  Fe19      1.0  0.24554  0.04819  0.78810  1.0000
  C   C293      1.0  0.02463  0.18570  0.98852  1.0000
  C   C294      1.0  0.15165  0.13449  0.82909  1.0000
  H   H253      1.0  0.25867  0.12345  0.76241  1.0000
  C   C295      1.0  0.50271  0.18637  0.67424  1.0000
  S   S46       1.0  0.08128  0.40181  0.79926  1.0000
  Fe  Fe20      1.0  0.24746  0.08641  0.67329  1.0000
  C   C296      1.0  0.04153  0.37001  0.75802  1.0000
  C   C297      1.0  0.36085  0.05122  0.75740  1.0000
  H   H254      1.0  0.16000  0.24220  0.67064  1.0000
  H   H255      1.0  0.36397  0.08243  0.79600  1.0000
  C   C298      1.0  0.39422  0.10459  0.68585  1.0000
  H   H256      1.0  0.27833  0.29011  0.67180  1.0000
  C   C299      1.0  0.26371  0.15219  0.73748  1.0000
  H   H257      1.0  0.47084  0.15346  0.80082  1.0000
  C   C300      1.0  0.25760  0.08213  0.74750  1.0000
  C   C301      1.0  0.18715  0.26463  0.66563  1.0000
  C   C302      1.0  0.36826  0.22689  0.69210  1.0000
  H   H258      1.0  0.07958  0.21436  0.68123  1.0000
  C   C303      1.0  0.12408  0.10554  0.82609  1.0000
  H   H259      1.0  0.26580  0.18124  0.73958  1.0000
  S   S47       1.0  0.27750  0.09513  0.79759  1.0000
  C   C304      1.0  0.38158  0.06175  0.79897  1.0000
  C   C305      1.0  0.05125  0.05821  0.89464  1.0000
  H   H260      1.0  0.42023  0.07637  0.77501  1.0000
  C   C306      1.0  0.08347  0.20577  0.81494  1.0000
  C   C307      1.0  0.42732  0.00867  0.80705  1.0000
  C   C308      1.0  0.21817  0.26398  0.67311  1.0000
  C   C309      1.0  0.25405  0.29140  0.66617  1.0000
  C   C310      1.0  0.10374  0.43757  0.86322  1.0000
  C   C311      1.0  0.10327  0.27475  0.81407  1.0000
  C   C312      1.0  0.13132  0.46761  0.85118  1.0000
  C   C313      1.0  0.42110  0.19545  0.68328  1.0000
  C   C314      1.0  0.20499  0.49312  0.81436  1.0000
  Fe  Fe21      1.0  0.21737  0.08939  0.81340  1.0000
  C   C315      1.0  0.08958  0.46073  0.83278  1.0000
  H   H261      1.0  0.36237  0.02930  0.76768  1.0000
  C   C316      1.0  0.12485  0.47884  0.83574  1.0000
  C   C317      1.0  0.00506  0.18269  0.76338  1.0000
  C   C318      1.0  0.26488  0.14695  0.72190  1.0000
  C   C319      1.0  0.06635  0.12666  0.67100  1.0000
  C   C320      1.0  0.03936  0.45708  0.68757  1.0000
  C   C321      1.0  0.46028  0.09411  0.67913  1.0000
  C   C322      1.0  0.45945  0.11305  0.73363  1.0000
  C   C323      1.0  0.48356  0.02393  0.71144  1.0000
  H   H262      1.0  0.25719  0.04880  0.72951  1.0000
  H   H263      1.0  0.13919  0.46784  0.79836  1.0000
  H   H264      1.0  0.13318  0.08991  0.81714  1.0000
  C   C324      1.0  0.09988  0.14623  0.84919  1.0000
  C   C325      1.0  0.07246  0.11676  0.84637  1.0000
  C   C326      1.0  0.07675  0.19367  0.67379  1.0000
  H   H265      1.0  0.01797  0.39987  0.91678  1.0000
  H   H266      1.0  0.09072  0.16198  0.85810  1.0000
  P   P10       1.0  0.01502  0.26306  0.79085  1.0000
  S   S48       1.0  0.18492  0.04598  0.80241  1.0000
  H   H267      1.0  0.01507  0.34933  0.82403  1.0000
  C   C327      1.0  0.40471  0.04532  0.67797  1.0000
  H   H268      1.0  0.03511  0.41655  0.84244  1.0000
  C   C328      1.0  0.06929  0.41899  0.86000  1.0000
  C   C329      1.0  0.07776  0.37303  0.81847  1.0000
  C   C330      1.0  0.44255  0.01764  0.71651  1.0000
  H   H269      1.0  0.05911  0.47028  0.69393  1.0000
  H   H270      1.0  0.04543  0.23655  0.76169  1.0000
  C   C331      1.0  0.39591  0.20553  0.69566  1.0000
  C   C332      1.0  0.11206  0.37276  0.82383  1.0000
  H   H271      1.0  0.12936  0.23011  0.82521  1.0000
  H   H272      1.0  0.34827  0.14472  0.74797  1.0000
  H   H273      1.0  0.12796  0.34353  0.74645  1.0000
  C   C333      1.0  0.46889  0.11812  0.82447  1.0000
  H   H274      1.0  0.26171  0.10480  0.70748  1.0000
  C   C334      1.0  0.10751  0.23628  0.81869  1.0000
  C   C335      1.0  0.45299  0.13884  0.81289  1.0000
  S   S49       1.0  0.02315  0.10419  0.85733  1.0000
  C   C336      1.0  0.46584  0.18249  0.73183  1.0000
  C   C337      1.0  0.03451  0.47951  0.67333  1.0000
  C   C338      1.0  0.02726  0.33860  0.66778  1.0000
  C   C339      1.0  0.46315  0.18866  0.71577  1.0000
  H   H275      1.0  0.17409  0.05652  0.66164  1.0000
  H   H276      1.0  0.04847  0.39498  0.86912  1.0000
  C   C340      1.0  0.05473  0.21346  0.80683  1.0000
  H   H277      1.0  0.45613  0.08334  0.84911  1.0000
  H   H278      1.0  0.04668  0.34238  0.91508  1.0000
  H   H279      1.0  0.04574  0.36456  0.66925  1.0000
  Fe  Fe22      1.0  0.00411  0.50045  0.78586  1.0000
  C   C341      1.0  0.13791  0.49782  0.79343  1.0000
  C   C342      1.0  0.18380  0.03359  0.88769  1.0000
  C   C343      1.0  0.41673  0.20570  0.66742  1.0000
  H   H280      1.0  0.11586  0.48345  0.77369  1.0000
  C   C344      1.0  0.02448  0.07409  0.90399  1.0000
  H   H281      1.0  0.19606  0.00891  0.74504  1.0000
  H   H282      1.0  0.03368  0.10313  0.90581  1.0000
  C   C345      1.0  0.38917  0.12113  0.83210  1.0000
  H   H283      1.0  0.38573  0.08532  0.85553  1.0000
  H   H284      1.0  0.46444  0.03946  0.67292  1.0000
  C   C346      1.0  0.00846  0.38087  0.90944  1.0000
  C   C347      1.0  0.02923  0.48669  0.72955  1.0000
  H   H285      1.0  0.35805  0.12102  0.83484  1.0000
  C   C348      1.0  0.00986  0.46224  0.66491  1.0000
  C   C349      1.0  0.00850  0.14524  0.99246  1.0000
  H   H286      1.0  0.02749  0.39406  0.75522  1.0000
  H   H287      1.0  0.01263  0.30414  0.85014  1.0000
  H   H288      1.0  0.02901  0.45998  0.73806  1.0000
  H   H289      1.0  0.06066  0.09549  0.67651  1.0000
  C   C350      1.0  0.02378  0.48607  0.87719  1.0000
  C   C351      1.0  0.44454  0.09953  0.84000  1.0000
  C   C352      1.0  0.38846  0.22634  0.66398  1.0000
  C   C353      1.0  0.39604  0.01254  0.81889  1.0000
  H   H290      1.0  0.05616  0.19664  0.98627  1.0000
  H   H291      1.0  0.03977  0.48497  0.88649  1.0000
  H   H292      1.0  0.01322  0.24342  0.98380  1.0000
  H   H293      1.0  0.20052  0.02353  0.89608  1.0000
  H   H294      1.0  0.45969  0.53931  0.31879  1.0000
  C   C354      1.0  0.44835  0.81086  0.29093  1.0000
  C   C355      1.0  0.03679  0.62307  0.15587  1.0000
  Fe  Fe23      1.0  0.16836  0.66543  0.18727  1.0000
  S   S50       1.0  0.21291  0.66887  0.16455  1.0000
  Fe  Fe24      1.0  0.16893  0.58074  0.20167  1.0000
  S   S51       1.0  0.21442  0.57804  0.18032  1.0000
  P   P11       1.0  0.48879  0.64556  0.29143  1.0000
  Fe  Fe25      1.0  0.24351  0.63839  0.18153  1.0000
  S   S52       1.0  0.30863  0.65527  0.17918  1.0000
  Fe  Fe26      1.0  0.17872  0.60842  0.16581  1.0000
  C   C356      1.0  0.46523  0.94542  0.14620  1.0000
  S   S53       1.0  0.20089  0.63843  0.20435  1.0000
  S   S54       1.0  0.13174  0.60813  0.18715  1.0000
  C   C357      1.0  0.28576  0.68931  0.31374  1.0000
  H   H295      1.0  0.18850  0.79798  0.31039  1.0000
  H   H296      1.0  0.17552  0.76593  0.28376  1.0000
  C   C358      1.0  0.46285  0.55053  0.18146  1.0000
  H   H297      1.0  0.40523  0.97358  0.23664  1.0000
  S   S55       1.0  0.28025  0.93144  0.29576  1.0000
  H   H298      1.0  0.24717  0.52628  0.25623  1.0000
  S   S56       1.0  0.13764  0.52466  0.22009  1.0000
  S   S57       1.0  0.05148  0.61136  0.31849  1.0000
  S   S58       1.0  0.35473  0.57566  0.23289  1.0000
  H   H299      1.0  0.21655  0.53693  0.22467  1.0000
  C   C359      1.0  0.24717  0.68065  0.32326  1.0000
  S   S59       1.0  0.48851  0.87211  0.19388  1.0000
  H   H300      1.0  0.36167  0.87638  0.20786  1.0000
  H   H301      1.0  0.24301  0.88164  0.26953  1.0000
  Fe  Fe27      1.0  0.05798  0.67666  0.31230  1.0000
  H   H302      1.0  0.27363  0.95233  0.26190  1.0000
  C   C360      1.0  0.43591  0.60011  0.22459  1.0000
  C   C361      1.0  0.39987  0.61003  0.22410  1.0000
  C   C362      1.0  0.39940  0.64874  0.21708  1.0000
  H   H303      1.0  0.43634  0.57045  0.23031  1.0000
  H   H304      1.0  0.37156  0.65663  0.21682  1.0000
  C   C363      1.0  0.32653  0.83336  0.07504  1.0000
  C   C364      1.0  0.42577  0.64958  0.15912  1.0000
  C   C365      1.0  0.42410  0.85651  0.23669  1.0000
  H   H305      1.0  0.49509  0.96922  0.25772  1.0000
  S   S60       1.0  0.14108  0.71707  0.18801  1.0000
  C   C366      1.0  0.32222  0.53063  0.31208  1.0000
  H   H306      1.0  0.39835  0.63629  0.15678  1.0000
  C   C367      1.0  0.20717  0.77469  0.27901  1.0000
  H   H307      1.0  0.18664  0.65308  0.32583  1.0000
  H   H308      1.0  0.31706  0.90763  0.22436  1.0000
  H   H309      1.0  0.48619  0.78591  0.27508  1.0000
  C   C368      1.0  0.45087  0.57242  0.12098  1.0000
  P   P12       1.0  0.46500  0.99928  0.18352  1.0000
  C   C369      1.0  0.38157  0.66559  0.32603  1.0000
  C   C370      1.0  0.24755  0.53884  0.26652  1.0000
  C   C371      1.0  0.33111  0.53324  0.29553  1.0000
  C   C372      1.0  0.14540  0.52165  0.31304  1.0000
  H   H310      1.0  0.41808  0.70813  0.15166  1.0000
  C   C373      1.0  0.43691  0.69042  0.15618  1.0000
  C   C374      1.0  0.09969  0.57981  0.25046  1.0000
  C   C375      1.0  0.48373  0.64396  0.16904  1.0000
  H   H311      1.0  0.33701  0.56145  0.28714  1.0000
  C   C376      1.0  0.49509  0.87840  0.32065  1.0000
  H   H312      1.0  0.23983  0.77776  0.20765  1.0000
  C   C377      1.0  0.07117  0.63339  0.14336  1.0000
  S   S61       1.0  0.13982  0.58733  0.29209  1.0000
  C   C378      1.0  0.44857  0.50684  0.13601  1.0000
  H   H313      1.0  0.30864  0.78898  0.18598  1.0000
  C   C379      1.0  0.49877  0.54255  0.17440  1.0000
  C   C380      1.0  0.13029  0.75872  0.31927  1.0000
  C   C381      1.0  0.15580  0.81066  0.21543  1.0000
  C   C382      1.0  0.21725  0.79015  0.21379  1.0000
  H   H314      1.0  0.31521  0.84769  0.11286  1.0000
  H   H315      1.0  0.44710  0.51118  0.26743  1.0000
  H   H316      1.0  0.42725  0.59306  0.31889  1.0000
  H   H317      1.0  0.43397  0.70725  0.20542  1.0000
  H   H318      1.0  0.43311  0.70743  0.24082  1.0000
  H   H319      1.0  0.30924  0.86293  0.16087  1.0000
  S   S62       1.0  0.36133  0.90769  0.30212  1.0000
  Fe  Fe28      1.0  0.31870  0.89271  0.28751  1.0000
  H   H320      1.0  0.10841  0.55837  0.12649  1.0000
  H   H321      1.0  0.04046  0.50662  0.18463  1.0000
  S   S63       1.0  0.00844  0.67289  0.30020  1.0000
  H   H322      1.0  0.27670  0.72398  0.18255  1.0000
  C   C383      1.0  0.45468  0.86668  0.24392  1.0000
  P   P13       1.0  0.19477  0.83133  0.25459  1.0000
  C   C384      1.0  0.09346  0.68976  0.23625  1.0000
  H   H323      1.0  0.09601  0.67020  0.24699  1.0000
  S   S64       1.0  0.45410  0.78033  0.21481  1.0000
  H   H324      1.0  0.41479  0.74937  0.18727  1.0000
  C   C385      1.0  0.36397  0.77344  0.18683  1.0000
  C   C386      1.0  0.47071  0.66787  0.21110  1.0000
  C   C387      1.0  0.32787  0.70005  0.18320  1.0000
  C   C388      1.0  0.32072  0.83290  0.10324  1.0000
  H   H325      1.0  0.23424  0.51214  0.30727  1.0000
  C   C389      1.0  0.49363  0.91403  0.32484  1.0000
  H   H326      1.0  0.30979  0.70304  0.31807  1.0000
  H   H327      1.0  0.17152  0.51492  0.26091  1.0000
  H   H328      1.0  0.42205  0.96048  0.16345  1.0000
  C   C390      1.0  0.44416  0.51953  0.15025  1.0000
  P   P14       1.0  0.43475  0.57335  0.16888  1.0000
  C   C391      1.0  0.44278  0.55862  0.15005  1.0000
  C   C392      1.0  0.34463  0.92529  0.21619  1.0000
  H   H329      1.0  0.22801  0.96689  0.21977  1.0000
  H   H330      1.0  0.07990  0.59808  0.24738  1.0000
  H   H331      1.0  0.18237  0.78601  0.19652  1.0000
  H   H332      1.0  0.45494  0.52336  0.11032  1.0000
  C   C393      1.0  0.44952  0.54126  0.19833  1.0000
  H   H333      1.0  0.36983  0.50983  0.16782  1.0000
  H   H334      1.0  0.42834  0.84192  0.22701  1.0000
  C   C394      1.0  0.50077  0.99891  0.19544  1.0000
  H   H335      1.0  0.48881  0.80791  0.13155  1.0000
  C   C395      1.0  0.09402  0.54021  0.16722  1.0000
  C   C396      1.0  0.38286  0.55805  0.17904  1.0000
  C   C397      1.0  0.49082  0.75197  0.31862  1.0000
  C   C398      1.0  0.21626  0.66150  0.31808  1.0000
  H   H336      1.0  0.46021  0.51504  0.22102  1.0000
  C   C399      1.0  0.32581  0.56891  0.19674  1.0000
  C   C400      1.0  0.36638  0.57857  0.18982  1.0000
  C   C401      1.0  0.41081  0.99001  0.24541  1.0000
  Fe  Fe29      1.0  0.32132  0.85637  0.32140  1.0000
  C   C402      1.0  0.35563  0.96545  0.21523  1.0000
  C   C403      1.0  0.45312  0.96191  0.15908  1.0000
  C   C404      1.0  0.37979  0.98994  0.25815  1.0000
  P   P15       1.0  0.48411  0.82481  0.30189  1.0000
  H   H337      1.0  0.19730  0.89616  0.22708  1.0000
  C   C405      1.0  0.49057  0.54424  0.27635  1.0000
  C   C406      1.0  0.43856  0.59358  0.28049  1.0000
  H   H338      1.0  0.42235  0.54780  0.20407  1.0000
  H   H339      1.0  0.48731  0.61528  0.32604  1.0000
  H   H340      1.0  0.35007  0.97445  0.25903  1.0000
  C   C407      1.0  0.08476  0.54011  0.25843  1.0000
  H   H341      1.0  0.26983  0.53252  0.19780  1.0000
  H   H342      1.0  0.40169  0.55576  0.27036  1.0000
  C   C408      1.0  0.35817  0.52681  0.17577  1.0000
  H   H343      1.0  0.47917  0.73961  0.15802  1.0000
  C   C409      1.0  0.15887  0.79327  0.31774  1.0000
  H   H344      1.0  0.31328  0.58530  0.20487  1.0000
  H   H345      1.0  0.38460  0.60247  0.19276  1.0000
  H   H346      1.0  0.44934  0.95418  0.29673  1.0000
  C   C410      1.0  0.07705  0.80675  0.29293  1.0000
  C   C411      1.0  0.39177  0.98807  0.20509  1.0000
  C   C412      1.0  0.14324  0.84600  0.28022  1.0000
  C   C413      1.0  0.24095  0.68972  0.23182  1.0000
  C   C414      1.0  0.20515  0.69949  0.23711  1.0000
  C   C415      1.0  0.18973  0.69547  0.25357  1.0000
  C   C416      1.0  0.20975  0.68101  0.26483  1.0000
  C   C417      1.0  0.24563  0.67064  0.25968  1.0000
  C   C418      1.0  0.26098  0.67522  0.24301  1.0000
  P   P16       1.0  0.27134  0.64917  0.27386  1.0000
  C   C419      1.0  0.26203  0.66234  0.29307  1.0000
  C   C420      1.0  0.25774  0.59643  0.27726  1.0000
  C   C421      1.0  0.24927  0.57175  0.29288  1.0000
  H   H347      1.0  0.03083  0.61243  0.05657  1.0000
  H   H348      1.0  0.47573  0.80722  0.10473  1.0000
  H   H349      1.0  0.39732  0.72496  0.31134  1.0000
  C   C422      1.0  0.25733  0.57958  0.26409  1.0000
  C   C423      1.0  0.29330  0.67981  0.29877  1.0000
  H   H350      1.0  0.23885  0.83003  0.17335  1.0000
  C   C424      1.0  0.45175  0.53325  0.12136  1.0000
  C   C425      1.0  0.22371  0.65201  0.30315  1.0000
  C   C426      1.0  0.32297  0.66728  0.26389  1.0000
  C   C427      1.0  0.33786  0.70770  0.25701  1.0000
  C   C428      1.0  0.37747  0.72218  0.24873  1.0000
  C   C429      1.0  0.40263  0.69649  0.24755  1.0000
  C   C430      1.0  0.38802  0.65627  0.25444  1.0000
  C   C431      1.0  0.34820  0.64159  0.26239  1.0000
  H   H351      1.0  0.25302  0.69272  0.21905  1.0000
  H   H352      1.0  0.18908  0.70973  0.22848  1.0000
  H   H353      1.0  0.16186  0.70294  0.25760  1.0000
  H   H354      1.0  0.19668  0.67766  0.27745  1.0000
  H   H355      1.0  0.28833  0.66709  0.23858  1.0000
  H   H356      1.0  0.25069  0.58359  0.30327  1.0000
  H   H357      1.0  0.13802  0.73651  0.31326  1.0000
  S   S65       1.0  0.05028  0.61662  0.28035  1.0000
  C   C432      1.0  0.47111  0.70806  0.15985  1.0000
  H   H358      1.0  0.26530  0.59766  0.25186  1.0000
  H   H359      1.0  0.32356  0.68584  0.29185  1.0000
  H   H360      1.0  0.10560  0.85417  0.30139  1.0000
  H   H361      1.0  0.19972  0.63551  0.29972  1.0000
  H   H362      1.0  0.31854  0.72782  0.25774  1.0000
  C   C433      1.0  0.42908  0.56145  0.27396  1.0000
  C   C434      1.0  0.08810  0.74148  0.20849  1.0000
  H   H363      1.0  0.40708  0.63614  0.25292  1.0000
  H   H364      1.0  0.33705  0.61021  0.26684  1.0000
  C   C435      1.0  0.38747  0.86472  0.24213  1.0000
  C   C436      1.0  0.44885  0.88613  0.25629  1.0000
  H   H365      1.0  0.21721  0.73524  0.29906  1.0000
  C   C437      1.0  0.27175  0.76821  0.28212  1.0000
  C   C438      1.0  0.48021  0.86994  0.30773  1.0000
  C   C439      1.0  0.21990  0.80034  0.22826  1.0000
  H   H366      1.0  0.24496  0.79591  0.23295  1.0000
  C   C440      1.0  0.22458  0.80455  0.26479  1.0000
  H   H367      1.0  0.07224  0.62057  0.13308  1.0000
  C   C441      1.0  0.19032  0.81565  0.23647  1.0000
  H   H368      1.0  0.13532  0.83296  0.23588  1.0000
  H   H369      1.0  0.08268  0.51320  0.29569  1.0000
  C   C442      1.0  0.44932  0.62605  0.16541  1.0000
  H   H370      1.0  0.33647  0.97877  0.22266  1.0000
  H   H371      1.0  0.45337  0.59292  0.10963  1.0000
  C   C443      1.0  0.16579  0.57238  0.25039  1.0000
  C   C444      1.0  0.08103  0.78439  0.28154  1.0000
  H   H372      1.0  0.44551  0.61545  0.13470  1.0000
  H   H373      1.0  0.40214  0.82996  0.30537  1.0000
  C   C445      1.0  0.45714  0.79094  0.27883  1.0000
  H   H374      1.0  0.32086  0.80620  0.26348  1.0000
  C   C446      1.0  0.06744  0.74286  0.22375  1.0000
  H   H375      1.0  0.08641  0.76185  0.19779  1.0000
  C   C447      1.0  0.03436  0.55563  0.21780  1.0000
  C   C448      1.0  0.48084  0.97921  0.16647  1.0000
  Fe  Fe30      1.0  0.05532  0.68095  0.27771  1.0000
  C   C449      1.0  0.47479  0.60192  0.28453  1.0000
  H   H376      1.0  0.27992  0.83832  0.24824  1.0000
  Fe  Fe31      1.0  0.31989  0.94230  0.31206  1.0000
  C   C450      1.0  0.23140  0.94811  0.23056  1.0000
  C   C451      1.0  0.44639  0.58513  0.13527  1.0000
  H   H377      1.0  0.41787  0.61216  0.28213  1.0000
  C   C452      1.0  0.26574  0.81501  0.25906  1.0000
  C   C453      1.0  0.50073  0.57697  0.28242  1.0000
  C   C454      1.0  0.23961  0.89976  0.25856  1.0000
  C   C455      1.0  0.38078  0.80126  0.28853  1.0000
  C   C456      1.0  0.15830  0.82084  0.22989  1.0000
  H   H378      1.0  0.05505  0.61173  0.20071  1.0000
  C   C457      1.0  0.40629  0.92998  0.19716  1.0000
  C   C458      1.0  0.43679  0.69038  0.30243  1.0000
  H   H379      1.0  0.06971  0.67623  0.18082  1.0000
  C   C459      1.0  0.14744  0.82388  0.26861  1.0000
  H   H380      1.0  0.36360  0.85573  0.23682  1.0000
  C   C460      1.0  0.42195  0.62232  0.31731  1.0000
  H   H381      1.0  0.32546  0.84794  0.06303  1.0000
  C   C461      1.0  0.06939  0.66435  0.17036  1.0000
  H   H382      1.0  0.15194  0.51010  0.30251  1.0000
  C   C462      1.0  0.45136  0.79958  0.11539  1.0000
  C   C463      1.0  0.45880  0.79990  0.13048  1.0000
  C   C464      1.0  0.42744  0.78973  0.14425  1.0000
  C   C465      1.0  0.38874  0.77900  0.14298  1.0000
  C   C466      1.0  0.38082  0.78036  0.12782  1.0000
  C   C467      1.0  0.41251  0.78994  0.11403  1.0000
  P   P17       1.0  0.33033  0.77064  0.12621  1.0000
  C   C468      1.0  0.31043  0.71847  0.12950  1.0000
  C   C469      1.0  0.30102  0.79004  0.14090  1.0000
  C   C470      1.0  0.26102  0.77205  0.14786  1.0000
  C   C471      1.0  0.23871  0.78647  0.15951  1.0000
  H   H383      1.0  0.42582  0.91524  0.19067  1.0000
  H   H384      1.0  0.06214  0.55654  0.22117  1.0000
  C   C472      1.0  0.25604  0.81922  0.16418  1.0000
  C   C473      1.0  0.27803  0.70520  0.12354  1.0000
  C   C474      1.0  0.26185  0.66491  0.12640  1.0000
  C   C475      1.0  0.27782  0.63758  0.13524  1.0000
  C   C476      1.0  0.31016  0.65050  0.14111  1.0000
  C   C477      1.0  0.32635  0.69078  0.13833  1.0000
  C   C478      1.0  0.32878  0.79539  0.10621  1.0000
  C   C479      1.0  0.33608  0.77727  0.09337  1.0000
  C   C480      1.0  0.33484  0.79616  0.07787  1.0000
  C   C481      1.0  0.30136  0.53895  0.19290  1.0000
  H   H385      1.0  0.45425  0.71459  0.29259  1.0000
  C   C482      1.0  0.25695  0.94002  0.25431  1.0000
  H   H386      1.0  0.43302  0.79000  0.15599  1.0000
  H   H387      1.0  0.36490  0.77042  0.15383  1.0000
  H   H388      1.0  0.40745  0.79045  0.10221  1.0000
  H   H389      1.0  0.24694  0.74678  0.14443  1.0000
  H   H390      1.0  0.20802  0.77188  0.16502  1.0000
  S   S66       1.0  0.38848  0.82017  0.18758  1.0000
  Fe  Fe32      1.0  0.35336  0.51108  0.23803  1.0000
  H   H391      1.0  0.26456  0.72591  0.11703  1.0000
  H   H392      1.0  0.23601  0.65467  0.12230  1.0000
  H   H393      1.0  0.26427  0.60643  0.13797  1.0000
  H   H394      1.0  0.32158  0.62929  0.14848  1.0000
  H   H395      1.0  0.35029  0.69999  0.14360  1.0000
  H   H396      1.0  0.34272  0.74848  0.09535  1.0000
  H   H397      1.0  0.34024  0.78189  0.06805  1.0000
  C   C483      1.0  0.31754  0.51740  0.18268  1.0000
  H   H398      1.0  0.34859  0.83849  0.14008  1.0000
  H   H399      1.0  0.05043  0.79933  0.30263  1.0000
  C   C484      1.0  0.10809  0.83765  0.29222  1.0000
  C   C485      1.0  0.23913  0.51451  0.28206  1.0000
  H   H400      1.0  0.15180  0.62674  0.24063  1.0000
  S   S67       1.0  0.16048  0.58836  0.14490  1.0000
  C   C486      1.0  0.47138  0.62899  0.21796  1.0000
  C   C487      1.0  0.41215  0.89454  0.26170  1.0000
  C   C488      1.0  0.13876  0.55954  0.31124  1.0000
  C   C489      1.0  0.09369  0.54691  0.13918  1.0000
  S   S68       1.0  0.33510  0.89335  0.26115  1.0000
  H   H401      1.0  0.38843  0.75328  0.24306  1.0000
  C   C490      1.0  0.14016  0.59597  0.24658  1.0000
  C   C491      1.0  0.11618  0.79259  0.26951  1.0000
  H   H402      1.0  0.44360  0.93092  0.14092  1.0000
  H   H403      1.0  0.19712  0.58502  0.24727  1.0000
  Fe  Fe33      1.0  0.44853  0.81808  0.19191  1.0000
  S   S69       1.0  0.28195  0.83818  0.30588  1.0000
  C   C492      1.0  0.11192  0.71467  0.20708  1.0000
  C   C493      1.0  0.15105  0.53249  0.25813  1.0000
  H   H404      1.0  0.13203  0.66719  0.21974  1.0000
  S   S70       1.0  0.10563  0.68962  0.28948  1.0000
  C   C494      1.0  0.31954  0.85174  0.08771  1.0000
  S   S71       1.0  0.04579  0.72160  0.25647  1.0000
  Fe  Fe34      1.0  0.09531  0.62373  0.29461  1.0000
  C   C495      1.0  0.43469  0.67751  0.21065  1.0000
  C   C496      1.0  0.10475  0.65874  0.14440  1.0000
  C   C497      1.0  0.30660  0.72934  0.18386  1.0000
  C   C498      1.0  0.31796  0.82358  0.14540  1.0000
  C   C499      1.0  0.29562  0.83786  0.15709  1.0000
  H   H405      1.0  0.29005  0.75583  0.28921  1.0000
  H   H406      1.0  0.16742  0.86883  0.28049  1.0000
  C   C500      1.0  0.41728  0.97056  0.19586  1.0000
  C   C501      1.0  0.44611  0.65337  0.30461  1.0000
  H   H407      1.0  0.40127  0.50968  0.31026  1.0000
  C   C502      1.0  0.42821  0.77696  0.27143  1.0000
  C   C503      1.0  0.21803  0.88327  0.24881  1.0000
  C   C504      1.0  0.11313  0.55606  0.15086  1.0000
  C   C505      1.0  0.40981  0.81542  0.29585  1.0000
  C   C506      1.0  0.11390  0.68813  0.22090  1.0000
  H   H408      1.0  0.47260  0.89452  0.26169  1.0000
  C   C507      1.0  0.49442  0.68485  0.16632  1.0000
  H   H409      1.0  0.40784  0.90995  0.27112  1.0000
  Fe  Fe35      1.0  0.49837  0.83283  0.21535  1.0000
  C   C508      1.0  0.07049  0.71741  0.23763  1.0000
  H   H410      1.0  0.43568  0.76252  0.26183  1.0000
  C   C509      1.0  0.21403  0.90782  0.23476  1.0000
  H   H411      1.0  0.05720  0.75996  0.28230  1.0000
  H   H412      1.0  0.35123  0.80540  0.29235  1.0000
  C   C510      1.0  0.36650  0.70718  0.18486  1.0000
  H   H413      1.0  0.38263  0.68428  0.18476  1.0000
  H   H414      1.0  0.01190  0.60245  0.15482  1.0000
  H   H415      1.0  0.36761  0.77127  0.27061  1.0000
  C   C511      1.0  0.25275  0.96422  0.24036  1.0000
  C   C512      1.0  0.03057  0.58655  0.20596  1.0000
  H   H416      1.0  0.11915  0.77371  0.26126  1.0000
  H   H417      1.0  0.04982  0.76432  0.22484  1.0000
  H   H418      1.0  0.31310  0.88059  0.08551  1.0000
  C   C513      1.0  0.32469  0.76609  0.18573  1.0000
  C   C514      1.0  0.39000  0.78203  0.27632  1.0000
  C   C515      1.0  0.03546  0.63861  0.16950  1.0000
  H   H419      1.0  0.13185  0.66523  0.13501  1.0000
  H   H420      1.0  0.47038  0.94277  0.21228  1.0000
  C   C516      1.0  0.40451  0.69640  0.31306  1.0000
  C   C517      1.0  0.38454  0.74377  0.18656  1.0000
  H   H421      1.0  0.02623  0.51775  0.31631  1.0000
  C   C518      1.0  0.18501  0.79495  0.20748  1.0000
  H   H422      1.0  0.13089  0.81449  0.21049  1.0000
  H   H423      1.0  0.13011  0.69337  0.15882  1.0000
  C   C519      1.0  0.45564  0.50956  0.31735  1.0000
  C   C520      1.0  0.10381  0.67433  0.15786  1.0000
  C   C521      1.0  0.38133  0.88351  0.25469  1.0000
  C   C522      1.0  0.36981  0.90767  0.20702  1.0000
  S   S72       1.0  0.32018  0.57373  0.31863  1.0000
  C   C523      1.0  0.05512  0.51766  0.17191  1.0000
  C   C524      1.0  0.28916  0.79675  0.26768  1.0000
  C   C525      1.0  0.23077  0.75688  0.28771  1.0000
  H   H424      1.0  0.10938  0.54457  0.17633  1.0000
  C   C526      1.0  0.23995  0.53094  0.29523  1.0000
  S   S73       1.0  0.18068  0.86821  0.32251  1.0000
  Fe  Fe36      1.0  0.24682  0.87816  0.31551  1.0000
  H   H425      1.0  0.50194  0.62661  0.17431  1.0000
  C   C527      1.0  0.49571  0.96741  0.20883  1.0000
  H   H426      1.0  0.05326  0.52821  0.26167  1.0000
  C   C528      1.0  0.47116  0.52315  0.20800  1.0000
  H   H427      1.0  0.00702  0.71040  0.17140  1.0000
  C   C529      1.0  0.47355  0.78414  0.31938  1.0000
  S   S74       1.0  0.49998  0.85479  0.23757  1.0000
  C   C530      1.0  0.14846  0.82231  0.32537  1.0000
  C   C531      1.0  0.11038  0.51593  0.26210  1.0000
  H   H428      1.0  0.47898  0.66206  0.25795  1.0000
  C   C532      1.0  0.46450  0.89790  0.29893  1.0000
  C   C533      1.0  0.45487  0.53659  0.27208  1.0000
  H   H429      1.0  0.45289  0.89221  0.28894  1.0000
  C   C534      1.0  0.46284  0.93335  0.30320  1.0000
  S   S75       1.0  0.49631  0.80027  0.17573  1.0000
  C   C535      1.0  0.49800  0.68752  0.25951  1.0000
  C   C536      1.0  0.20676  0.50641  0.22467  1.0000
  H   H430      1.0  0.26593  0.99545  0.23722  1.0000
  H   H431      1.0  0.12741  0.60474  0.32336  1.0000
  H   H432      1.0  0.47619  0.96888  0.31942  1.0000
  H   H433      1.0  0.01789  0.61742  0.08505  1.0000
  C   C537      1.0  0.47759  0.94148  0.31610  1.0000
  H   H434      1.0  0.00644  0.62087  0.25553  1.0000
  C   C538      1.0  0.13135  0.57506  0.32476  1.0000
  C   C539      1.0  0.03546  0.50894  0.16030  1.0000
  Fe  Fe37      1.0  0.00712  0.60884  0.30388  1.0000
  H   H435      1.0  0.04056  0.51603  0.13480  1.0000
  H   H436      1.0  0.49922  0.62135  0.21839  1.0000
  C   C540      1.0  0.05500  0.52328  0.14388  1.0000
  H   H437      1.0  0.00558  0.76748  0.18331  1.0000
  H   H438      1.0  0.20573  0.51997  0.47234  1.0000
  H   H439      1.0  0.20840  0.55063  0.52508  1.0000
  Fe  Fe38      1.0  0.23009  0.85308  0.64280  1.0000
  S   S76       1.0  0.27603  0.83012  0.62802  1.0000
  S   S77       1.0  0.22259  0.91410  0.63348  1.0000
  Fe  Fe39      1.0  0.22894  0.77413  0.63476  1.0000
  S   S78       1.0  0.22222  0.73683  0.61702  1.0000
  H   H440      1.0  0.40873  0.80193  0.62009  1.0000
  H   H441      1.0  0.02248  0.59900  0.53602  1.0000
  H   H442      1.0  0.38275  0.95942  0.33058  1.0000
  C   C541      1.0  0.24196  0.60374  0.62423  1.0000
  H   H443      1.0  0.17990  0.62999  0.64506  1.0000
  C   C542      1.0  0.44572  0.62866  0.64465  1.0000
  H   H444      1.0  0.47302  0.62047  0.64583  1.0000
  C   C543      1.0  0.13524  0.67697  0.56683  1.0000
  H   H445      1.0  0.10492  0.50903  0.50304  1.0000
  C   C544      1.0  0.21568  0.64802  0.57328  1.0000
  C   C545      1.0  0.08205  0.78164  0.33664  1.0000
  C   C546      1.0  0.16609  0.53776  0.49955  1.0000
  C   C547      1.0  0.01219  0.57555  0.46231  1.0000
  C   C548      1.0  0.02195  0.55422  0.52278  1.0000
  S   S79       1.0  0.29962  0.50562  0.39596  1.0000
  H   H446      1.0  0.02103  0.57373  0.51171  1.0000
  C   C549      1.0  0.23119  0.53500  0.52222  1.0000
  S   S80       1.0  0.29665  0.59061  0.36253  1.0000
  C   C550      1.0  0.13759  0.51498  0.34180  1.0000
  H   H447      1.0  0.41188  0.74859  0.35716  1.0000
  H   H448      1.0  0.08588  0.56861  0.49095  1.0000
  Fe  Fe40      1.0  0.23648  0.60265  0.36716  1.0000
  S   S81       1.0  0.22011  0.65696  0.37301  1.0000
  C   C551      1.0  0.06807  0.63870  0.38629  1.0000
  S   S82       1.0  0.20729  0.54500  0.38508  1.0000
  C   C552      1.0  0.35194  0.99024  0.59579  1.0000
  H   H449      1.0  0.35638  0.66992  0.33424  1.0000
  Fe  Fe41      1.0  0.05356  0.53881  0.58776  1.0000
  S   S83       1.0  0.09990  0.50832  0.62362  1.0000
  H   H450      1.0  0.24836  0.55029  0.41501  1.0000
  C   C553      1.0  0.26330  0.63042  0.63084  1.0000
  C   C554      1.0  0.13110  0.55295  0.34000  1.0000
  S   S84       1.0  0.22260  0.58224  0.34593  1.0000
  C   C555      1.0  0.26587  0.54415  0.52717  1.0000
  H   H451      1.0  0.13527  0.63230  0.48055  1.0000
  H   H452      1.0  0.17252  0.80715  0.52318  1.0000
  C   C556      1.0  0.42409  0.00163  0.33722  1.0000
  H   H453      1.0  0.15072  0.52832  0.55734  1.0000
  H   H454      1.0  0.03559  0.64760  0.58209  1.0000
  C   C557      1.0  0.11615  0.57021  0.49163  1.0000
  C   C558      1.0  0.14442  0.69753  0.57822  1.0000
  C   C559      1.0  0.07698  0.57856  0.44591  1.0000
  C   C560      1.0  0.34446  0.99573  0.62936  1.0000
  S   S85       1.0  0.19496  0.53612  0.58941  1.0000
  C   C561      1.0  0.09174  0.75310  0.32870  1.0000
  C   C562      1.0  0.12066  0.59118  0.53022  1.0000
  S   S86       1.0  0.28322  0.89219  0.33274  1.0000
  S   S87       1.0  0.18173  0.79912  0.64745  1.0000
  H   H455      1.0  0.24907  0.65086  0.63613  1.0000
  H   H456      1.0  0.40141  0.54091  0.34505  1.0000
  C   C563      1.0  0.05111  0.62653  0.37442  1.0000
  C   C564      1.0  0.25611  0.70019  0.36276  1.0000
  C   C565      1.0  0.24508  0.73612  0.35945  1.0000
  C   C566      1.0  0.27324  0.77049  0.35048  1.0000
  C   C567      1.0  0.12708  0.53629  0.49855  1.0000
  C   C568      1.0  0.37756  0.62756  0.65639  1.0000
  H   H457      1.0  0.21472  0.73744  0.36361  1.0000
  H   H458      1.0  0.26451  0.79811  0.34783  1.0000
  C   C569      1.0  0.45050  0.90939  0.62672  1.0000
  C   C570      1.0  0.14537  0.69971  0.63376  1.0000
  C   C571      1.0  0.11120  0.66933  0.63747  1.0000
  C   C572      1.0  0.12877  0.67172  0.36591  1.0000
  H   H459      1.0  0.14593  0.72289  0.64004  1.0000
  C   C573      1.0  0.04835  0.59757  0.45203  1.0000
  C   C574      1.0  0.19420  0.57371  0.49312  1.0000
  C   C575      1.0  0.07534  0.68186  0.59238  1.0000
  C   C576      1.0  0.22311  0.94354  0.64738  1.0000
  H   H460      1.0  0.20331  0.66955  0.60489  1.0000
  H   H461      1.0  0.24728  0.62774  0.59047  1.0000
  C   C577      1.0  0.16365  0.59117  0.55355  1.0000
  C   C578      1.0  0.31923  0.95818  0.60017  1.0000
  H   H462      1.0  0.40715  0.67945  0.61690  1.0000
  C   C579      1.0  0.34819  0.95658  0.63292  1.0000
  H   H463      1.0  0.29612  0.95398  0.61103  1.0000
  S   S88       1.0  0.47380  0.53459  0.35334  1.0000
  C   C580      1.0  0.31633  0.93097  0.59076  1.0000
  C   C581      1.0  0.34606  0.93560  0.57683  1.0000
  C   C582      1.0  0.09415  0.50570  0.42340  1.0000
  H   H464      1.0  0.46913  0.66050  0.61969  1.0000
  C   C583      1.0  0.32889  0.76553  0.60741  1.0000
  C   C584      1.0  0.02442  0.51429  0.35614  1.0000
  S   S89       1.0  0.49072  0.94760  0.61498  1.0000
  H   H465      1.0  0.17966  0.51367  0.41968  1.0000
  H   H466      1.0  0.12187  0.71496  0.59992  1.0000
  H   H467      1.0  0.05412  0.62938  0.44876  1.0000
  C   C585      1.0  0.09561  0.66011  0.56805  1.0000
  H   H468      1.0  0.12636  0.57039  0.65707  1.0000
  H   H469      1.0  0.29104  0.90617  0.59442  1.0000
  H   H470      1.0  0.34386  0.91435  0.56960  1.0000
  C   C586      1.0  0.42577  0.52612  0.36546  1.0000
  H   H471      1.0  0.05124  0.63189  0.39872  1.0000
  H   H472      1.0  0.14312  0.56865  0.45801  1.0000
  H   H473      1.0  0.17953  0.59005  0.56283  1.0000
  H   H474      1.0  0.24123  0.68771  0.33486  1.0000
  C   C587      1.0  0.41746  0.51333  0.38231  1.0000
  C   C588      1.0  0.11178  0.66047  0.35403  1.0000
  C   C589      1.0  0.26015  0.57792  0.61701  1.0000
  C   C590      1.0  0.07319  0.63792  0.35826  1.0000
  H   H475      1.0  0.15862  0.68949  0.36254  1.0000
  C   C591      1.0  0.28639  0.66821  0.56904  1.0000
  H   H476      1.0  0.33339  0.52753  0.36151  1.0000
  C   C592      1.0  0.43444  0.74972  0.34651  1.0000
  C   C593      1.0  0.38164  0.99483  0.58174  1.0000
  H   H477      1.0  0.21138  0.60328  0.62444  1.0000
  H   H478      1.0  0.41818  0.91229  0.60838  1.0000
  C   C594      1.0  0.14388  0.63879  0.61792  1.0000
  H   H479      1.0  0.49300  0.69395  0.33107  1.0000
  C   C595      1.0  0.44353  0.65120  0.62992  1.0000
  Fe  Fe42      1.0  0.27965  0.56345  0.34320  1.0000
  C   C596      1.0  0.24966  0.64626  0.57872  1.0000
  H   H480      1.0  0.12050  0.66999  0.39113  1.0000
  C   C597      1.0  0.44494  0.78259  0.33336  1.0000
  H   H481      1.0  0.30427  0.67145  0.35994  1.0000
  S   S90       1.0  0.05427  0.71121  0.33108  1.0000
  H   H482      1.0  0.14402  0.61497  0.61205  1.0000
  C   C598      1.0  0.29549  0.69889  0.35731  1.0000
  H   H483      1.0  0.10312  0.59098  0.52150  1.0000
  H   H484      1.0  0.20641  0.80186  0.49613  1.0000
  C   C599      1.0  0.18109  0.78016  0.52178  1.0000
  C   C600      1.0  0.31267  0.76916  0.34526  1.0000
  H   H485      1.0  0.31260  0.66697  0.57339  1.0000
  C   C601      1.0  0.02798  0.54428  0.36423  1.0000
  H   H486      1.0  0.12698  0.56573  0.35028  1.0000
  C   C602      1.0  0.37523  0.65051  0.64167  1.0000
  S   S91       1.0  0.06781  0.60023  0.63468  1.0000
  C   C603      1.0  0.33671  0.93392  0.64885  1.0000
  H   H487      1.0  0.47497  0.89959  0.64736  1.0000
  P   P18       1.0  0.33001  0.66471  0.63960  1.0000
  C   C604      1.0  0.10705  0.66074  0.38204  1.0000
  C   C605      1.0  0.18302  0.60777  0.48649  1.0000
  C   C606      1.0  0.25529  0.69314  0.54819  1.0000
  C   C607      1.0  0.17862  0.69988  0.62194  1.0000
  H   H488      1.0  0.10449  0.59601  0.43768  1.0000
  C   C608      1.0  0.41836  0.89761  0.62048  1.0000
  C   C609      1.0  0.32380  0.73339  0.34871  1.0000
  S   S92       1.0  0.34843  0.81193  0.33448  1.0000
  C   C610      1.0  0.17762  0.66955  0.61396  1.0000
  C   C611      1.0  0.03287  0.51553  0.46006  1.0000
  C   C612      1.0  0.41273  0.61677  0.65785  1.0000
  C   C613      1.0  0.30294  0.63095  0.63055  1.0000
  H   H489      1.0  0.22631  0.74020  0.49295  1.0000
  H   H490      1.0  0.35947  0.94318  0.62344  1.0000
  H   H491      1.0  0.24358  0.55756  0.61174  1.0000
  C   C614      1.0  0.34238  0.71457  0.62719  1.0000
  C   C615      1.0  0.45036  0.89066  0.64244  1.0000
  C   C616      1.0  0.15603  0.54000  0.43858  1.0000
  H   H492      1.0  0.06022  0.63043  0.34881  1.0000
  H   H493      1.0  0.31026  0.77485  0.59972  1.0000
  C   C617      1.0  0.38601  0.86743  0.63003  1.0000
  H   H494      1.0  0.36104  0.85882  0.62527  1.0000
  S   S93       1.0  0.02864  0.56495  0.56737  1.0000
  C   C618      1.0  0.11038  0.63874  0.62957  1.0000
  S   S94       1.0  0.10351  0.57910  0.59247  1.0000
  C   C619      1.0  0.06984  0.53735  0.45028  1.0000
  C   C620      1.0  0.02505  0.50446  0.55150  1.0000
  H   H495      1.0  0.29415  0.70667  0.61561  1.0000
  C   C621      1.0  0.38655  0.84792  0.64557  1.0000
  H   H496      1.0  0.05250  0.77737  0.34402  1.0000
  C   C622      1.0  0.32120  0.60527  0.62301  1.0000
  H   H497      1.0  0.17466  0.71113  0.57752  1.0000
  H   H498      1.0  0.27123  0.53365  0.57214  1.0000
  H   H499      1.0  0.18746  0.63097  0.58109  1.0000
  C   C623      1.0  0.35665  0.52451  0.36746  1.0000
  H   H500      1.0  0.05533  0.55334  0.36748  1.0000
  C   C624      1.0  0.14733  0.55577  0.55041  1.0000
  H   H501      1.0  0.31769  0.70892  0.54630  1.0000
  C   C625      1.0  0.21136  0.74241  0.50476  1.0000
  H   H502      1.0  0.35419  0.73229  0.34456  1.0000
  C   C626      1.0  0.20467  0.58575  0.44576  1.0000
  H   H503      1.0  0.08750  0.64396  0.55953  1.0000
  C   C627      1.0  0.23166  0.98447  0.64178  1.0000
  S   S95       1.0  0.01824  0.52197  0.61370  1.0000
  H   H504      1.0  0.13326  0.56024  0.40818  1.0000
  H   H505      1.0  0.03575  0.55854  0.40313  1.0000
  C   C628      1.0  0.02158  0.51474  0.52333  1.0000
  C   C629      1.0  0.16565  0.56511  0.44837  1.0000
  H   H506      1.0  0.15834  0.75139  0.54695  1.0000
  C   C630      1.0  0.11452  0.69999  0.59091  1.0000
  C   C631      1.0  0.13605  0.62653  0.53362  1.0000
  H   H507      1.0  0.12960  0.65327  0.52755  1.0000
  C   C632      1.0  0.12577  0.55576  0.53875  1.0000
  C   C633      1.0  0.31961  0.72666  0.61662  1.0000
  Fe  Fe43      1.0  0.19748  0.52371  0.36347  1.0000
  C   C634      1.0  0.20334  0.71057  0.51820  1.0000
  C   C635      1.0  0.15797  0.62692  0.54526  1.0000
  H   H508      1.0  0.36789  0.82288  0.60166  1.0000
  Fe  Fe44      1.0  0.07095  0.55838  0.61849  1.0000
  H   H509      1.0  0.22486  0.57550  0.49306  1.0000
  H   H510      1.0  0.10183  0.83853  0.34068  1.0000
  P   P19       1.0  0.17397  0.67215  0.55087  1.0000
  C   C636      1.0  0.23441  0.58064  0.43367  1.0000
  C   C637      1.0  0.40841  0.66201  0.62840  1.0000
  H   H511      1.0  0.37228  0.60453  0.33804  1.0000
  H   H512      1.0  0.20475  0.63545  0.48177  1.0000
  C   C638      1.0  0.29533  0.52373  0.52388  1.0000
  H   H513      1.0  0.44303  0.69206  0.35578  1.0000
  C   C639      1.0  0.41880  0.85956  0.65173  1.0000
  C   C640      1.0  0.17304  0.74838  0.53526  1.0000
  C   C641      1.0  0.21819  0.67111  0.55789  1.0000
  C   C642      1.0  0.10291  0.52780  0.39440  1.0000
  H   H514      1.0  0.21238  0.68387  0.51667  1.0000
  H   H515      1.0  0.12811  0.67017  0.34146  1.0000
  H   H516      1.0  0.26946  0.56629  0.53394  1.0000
  C   C643      1.0  0.18624  0.53409  0.42686  1.0000
  C   C644      1.0  0.29985  0.57900  0.61623  1.0000
  C   C645      1.0  0.28920  0.69174  0.55379  1.0000
  C   C646      1.0  0.34819  0.51254  0.38434  1.0000
  C   C647      1.0  0.36119  0.79257  0.60853  1.0000
  C   C648      1.0  0.39535  0.53193  0.35807  1.0000
  C   C649      1.0  0.18396  0.71328  0.53354  1.0000
  C   C650      1.0  0.37469  0.74209  0.62830  1.0000
  H   H517      1.0  0.35183  0.60533  0.62230  1.0000
  H   H518      1.0  0.42993  0.80630  0.33400  1.0000
  C   C651      1.0  0.20020  0.77717  0.50654  1.0000
  H   H519      1.0  0.44095  0.50914  0.38808  1.0000
  H   H520      1.0  0.25831  0.71158  0.53635  1.0000
  H   H521      1.0  0.08557  0.66929  0.64662  1.0000
  C   C652      1.0  0.06586  0.66225  0.58087  1.0000
  S   S96       1.0  0.24637  0.74915  0.65717  1.0000
  C   C653      1.0  0.37867  0.96754  0.57231  1.0000
  H   H522      1.0  0.33841  0.90337  0.65146  1.0000
  H   H523      1.0  0.39220  0.73406  0.63665  1.0000
  P   P20       1.0  0.10604  0.51265  0.44192  1.0000
  C   C654      1.0  0.48018  0.71906  0.33178  1.0000
  Fe  Fe45      1.0  0.12915  0.52657  0.59719  1.0000
  H   H524      1.0  0.05247  0.68246  0.60260  1.0000
  C   C655      1.0  0.38419  0.78076  0.61892  1.0000
  H   H525      1.0  0.21194  0.60574  0.45308  1.0000
  C   C656      1.0  0.14398  0.60602  0.48575  1.0000
  C   C657      1.0  0.02271  0.56850  0.53656  1.0000
  C   C658      1.0  0.11198  0.53384  0.40870  1.0000
  H   H526      1.0  0.11771  0.54897  0.38297  1.0000
  C   C659      1.0  0.37874  0.50699  0.39177  1.0000
  C   C660      1.0  0.02525  0.54408  0.55085  1.0000
  H   H527      1.0  0.31403  0.55956  0.61027  1.0000
  H   H528      1.0  0.26461  0.59679  0.43153  1.0000
  C   C661      1.0  0.45193  0.71791  0.34571  1.0000
  Fe  Fe46      1.0  0.26663  0.53106  0.37878  1.0000
  Fe  Fe47      1.0  0.28923  0.80711  0.65170  1.0000
  C   C662      1.0  0.11004  0.81622  0.33480  1.0000
  C   C663      1.0  0.30168  0.66331  0.65956  1.0000
  H   H529      1.0  0.40184  0.97102  0.56158  1.0000
  H   H530      1.0  0.11192  0.52832  0.53664  1.0000
  H   H531      1.0  0.43659  0.97960  0.34348  1.0000
  S   S97       1.0  0.34801  0.80815  0.65739  1.0000
  C   C664      1.0  0.25060  0.50757  0.57198  1.0000
  C   C665      1.0  0.22522  0.55455  0.42431  1.0000
  H   H532      1.0  0.23765  0.99763  0.62900  1.0000
  H   H533      1.0  0.32179  0.53007  0.52806  1.0000
  H   H534      1.0  0.33526  0.71965  0.66046  1.0000
  C   C666      1.0  0.16511  0.62336  0.65769  1.0000
  C   C667      1.0  0.32092  0.99001  0.65807  1.0000
  C   C668      1.0  0.39057  0.62873  0.32821  1.0000
  C   C669      1.0  0.39361  0.99017  0.32997  1.0000
  C   C670      1.0  0.00437  0.53453  0.46621  1.0000
  C   C671      1.0  0.22572  0.50535  0.51393  1.0000
  C   C672      1.0  0.09279  0.99821  0.65693  1.0000
  H   H535      1.0  0.07964  0.96745  0.65842  1.0000
  C   C673      1.0  0.00498  0.55545  0.40878  1.0000
  H   H536      1.0  0.00750  0.51807  0.43108  1.0000
  Fe  Fe48      1.0  0.20533  0.78417  0.78729  1.0000
  S   S98       1.0  0.20093  0.84699  0.78094  1.0000
  S   S99       1.0  0.26234  0.76703  0.77915  1.0000
  S   S100      1.0  0.43235  0.83453  0.82195  1.0000
  S   S101      1.0  0.02356  0.56413  0.77288  1.0000
  H   H537      1.0  0.42757  0.75288  0.80284  1.0000
  H   H538      1.0  0.30976  0.83973  0.75601  1.0000
  S   S102      1.0  0.15987  0.93954  0.83429  1.0000
  H   H539      1.0  0.22425  0.95483  0.75671  1.0000
  H   H540      1.0  0.09508  0.67642  0.69225  1.0000
  H   H541      1.0  0.38798  0.95951  0.71182  1.0000
  H   H542      1.0  0.22545  0.60500  0.69050  1.0000
  C   C674      1.0  0.44248  0.80222  0.76363  1.0000
  C   C675      1.0  0.11446  0.58199  0.68071  1.0000
  H   H543      1.0  0.25520  0.61776  0.83315  1.0000
  C   C676      1.0  0.46879  0.79976  0.72240  1.0000
  C   C677      1.0  0.31166  0.69415  0.66681  1.0000
  H   H544      1.0  0.17762  0.91914  0.78009  1.0000
  H   H545      1.0  0.20863  0.93758  0.68769  1.0000
  S   S103      1.0  0.28382  0.71042  0.81938  1.0000
  H   H546      1.0  0.31364  0.81387  0.71041  1.0000
  H   H547      1.0  0.08001  0.51981  0.73430  1.0000
  H   H548      1.0  0.06078  0.83965  0.91242  1.0000
  S   S104      1.0  0.16048  0.74798  0.69342  1.0000
  C   C678      1.0  0.21719  0.84986  0.72139  1.0000
  C   C679      1.0  0.13430  0.84293  0.68663  1.0000
  C   C680      1.0  0.39081  0.81703  0.73480  1.0000
  C   C681      1.0  0.13646  0.59103  0.72176  1.0000
  C   C682      1.0  0.12395  0.54533  0.77267  1.0000
  C   C683      1.0  0.07959  0.67188  0.70475  1.0000
  C   C684      1.0  0.15492  0.64180  0.68316  1.0000
  C   C685      1.0  0.39866  0.73725  0.73234  1.0000
  C   C686      1.0  0.05831  0.52072  0.72729  1.0000
  H   H549      1.0  0.14012  0.86433  0.76086  1.0000
  C   C687      1.0  0.17637  0.55715  0.82732  1.0000
  C   C688      1.0  0.14519  0.86417  0.71046  1.0000
  H   H550      1.0  0.10108  0.89216  0.72120  1.0000
  C   C689      1.0  0.03931  0.66242  0.73690  1.0000
  Fe  Fe49      1.0  0.20292  0.77839  0.66945  1.0000
  C   C690      1.0  0.14793  0.52711  0.80141  1.0000
  C   C691      1.0  0.07626  0.88240  0.88954  1.0000
  C   C692      1.0  0.46154  0.92400  0.72142  1.0000
  H   H551      1.0  0.45055  0.71356  0.73168  1.0000
  C   C693      1.0  0.01834  0.99941  0.84372  1.0000
  H   H552      1.0  0.06487  0.89080  0.70000  1.0000
  H   H553      1.0  0.34170  0.75125  0.73252  1.0000
  H   H554      1.0  0.39270  0.69989  0.79289  1.0000
  C   C694      1.0  0.42691  0.75803  0.79023  1.0000
  H   H555      1.0  0.42249  0.84931  0.71025  1.0000
  C   C695      1.0  0.34326  0.69550  0.72717  1.0000
  C   C696      1.0  0.03133  0.57922  0.80172  1.0000
  S   S105      1.0  0.46215  0.90975  0.77732  1.0000
  H   H556      1.0  0.31317  0.69015  0.72606  1.0000
  C   C697      1.0  0.07651  0.63654  0.80370  1.0000
  C   C698      1.0  0.06882  0.94833  0.89057  1.0000
  C   C699      1.0  0.18508  0.73644  0.70855  1.0000
  C   C700      1.0  0.22594  0.74119  0.70453  1.0000
  C   C701      1.0  0.24533  0.73096  0.71664  1.0000
  H   H557      1.0  0.24263  0.75274  0.69209  1.0000
  H   H558      1.0  0.20905  0.81243  0.74530  1.0000
  C   C702      1.0  0.32372  0.74748  0.81956  1.0000
  C   C703      1.0  0.33848  0.78261  0.80736  1.0000
  C   C704      1.0  0.37170  0.81028  0.80789  1.0000
  C   C705      1.0  0.38974  0.80278  0.82068  1.0000
  C   C706      1.0  0.37401  0.76834  0.83301  1.0000
  C   C707      1.0  0.34152  0.74073  0.83238  1.0000
  H   H559      1.0  0.32488  0.78807  0.79741  1.0000
  H   H560      1.0  0.38363  0.83700  0.79839  1.0000
  H   H561      1.0  0.38764  0.76250  0.84296  1.0000
  C   C708      1.0  0.27089  0.63071  0.66836  1.0000
  C   C709      1.0  0.18581  0.86957  0.79656  1.0000
  C   C710      1.0  0.18418  0.85288  0.81273  1.0000
  C   C711      1.0  0.17466  0.87356  0.82459  1.0000
  C   C712      1.0  0.16760  0.91119  0.82018  1.0000
  C   C713      1.0  0.16897  0.92750  0.80408  1.0000
  C   C714      1.0  0.17729  0.90645  0.79242  1.0000
  H   H562      1.0  0.19100  0.82457  0.81604  1.0000
  H   H563      1.0  0.17416  0.86107  0.83701  1.0000
  H   H564      1.0  0.16367  0.95653  0.80057  1.0000
  C   C715      1.0  0.24306  0.86486  0.70593  1.0000
  H   H565      1.0  0.27036  0.79044  0.73823  1.0000
  H   H566      1.0  0.31246  0.93223  0.67357  1.0000
  S   S106      1.0  0.24716  0.83446  0.66599  1.0000
  C   C716      1.0  0.33463  0.84150  0.74614  1.0000
  H   H567      1.0  0.43190  0.92776  0.72496  1.0000
  C   C717      1.0  0.10214  0.86027  0.68701  1.0000
  C   C718      1.0  0.37335  0.87212  0.71883  1.0000
  H   H568      1.0  0.18812  0.97374  0.86841  1.0000
  S   S107      1.0  0.25512  0.99911  0.80613  1.0000
  C   C719      1.0  0.34198  0.87021  0.73177  1.0000
  H   H569      1.0  0.04131  0.99337  0.81969  1.0000
  C   C720      1.0  0.40750  0.72811  0.78458  1.0000
  C   C721      1.0  0.44425  0.79510  0.77979  1.0000
  C   C722      1.0  0.15615  0.56091  0.71984  1.0000
  C   C723      1.0  0.09784  0.76173  0.75498  1.0000
  C   C724      1.0  0.16372  0.72216  0.72474  1.0000
  S   S108      1.0  0.17065  0.74150  0.77690  1.0000
  C   C725      1.0  0.22551  0.99163  0.66921  1.0000
  H   H570      1.0  0.01001  0.55175  0.80747  1.0000
  C   C726      1.0  0.33830  0.95747  0.70150  1.0000
  H   H571      1.0  0.29626  0.97981  0.76408  1.0000
  C   C727      1.0  0.29069  0.69289  0.68238  1.0000
  H   H572      1.0  0.38892  0.95532  0.78747  1.0000
  C   C728      1.0  0.34700  0.95589  0.75707  1.0000
  C   C729      1.0  0.30999  0.95539  0.76663  1.0000
  C   C730      1.0  0.28982  0.92285  0.77938  1.0000
  C   C731      1.0  0.30643  0.89054  0.78275  1.0000
  C   C732      1.0  0.34342  0.89086  0.77338  1.0000
  C   C733      1.0  0.36335  0.92308  0.76039  1.0000
  H   H573      1.0  0.18909  0.63274  0.74505  1.0000
  C   C734      1.0  0.40634  0.73488  0.76834  1.0000
  H   H574      1.0  0.22230  0.57856  0.74217  1.0000
  H   H575      1.0  0.42105  0.65226  0.72532  1.0000
  H   H576      1.0  0.13500  0.62767  0.84050  1.0000
  H   H577      1.0  0.23821  0.54510  0.79572  1.0000
  C   C735      1.0  0.21557  0.95067  0.67487  1.0000
  H   H578      1.0  0.32264  0.89024  0.73061  1.0000
  H   H579      1.0  0.03104  0.72088  0.72898  1.0000
  H   H580      1.0  0.04321  0.88698  0.92840  1.0000
  H   H581      1.0  0.35079  0.94386  0.69226  1.0000
  H   H582      1.0  0.28416  0.95900  0.69402  1.0000
  H   H583      1.0  0.14779  0.54116  0.71256  1.0000
  H   H584      1.0  0.46860  0.97085  0.83701  1.0000
  H   H585      1.0  0.09024  0.93032  0.86864  1.0000
  H   H586      1.0  0.26119  0.92272  0.78665  1.0000
  H   H587      1.0  0.29042  0.86522  0.79256  1.0000
  H   H588      1.0  0.35618  0.86568  0.77593  1.0000
  H   H589      1.0  0.39098  0.92181  0.75279  1.0000
  C   C736      1.0  0.26267  0.81113  0.72918  1.0000
  C   C737      1.0  0.12244  0.79095  0.74174  1.0000
  H   H590      1.0  0.16315  0.66234  0.69020  1.0000
  C   C738      1.0  0.19860  0.58206  0.73638  1.0000
  S   S109      1.0  0.10035  0.66155  0.81556  1.0000
  C   C739      1.0  0.48159  0.93425  0.70506  1.0000
  C   C740      1.0  0.19609  0.62613  0.83760  1.0000
  C   C741      1.0  0.39789  0.84600  0.72036  1.0000
  C   C742      1.0  0.42057  0.70878  0.73040  1.0000
  Fe  Fe50      1.0  0.24370  0.72404  0.80331  1.0000
  C   C743      1.0  0.22498  0.60593  0.83311  1.0000
  H   H591      1.0  0.20407  0.65353  0.84098  1.0000
  P   P21       1.0  0.17114  0.86458  0.72622  1.0000
  H   H592      1.0  0.14388  0.98637  0.66490  1.0000
  C   C744      1.0  0.36054  0.88833  0.88484  1.0000
  C   C745      1.0  0.37912  0.85713  0.88437  1.0000
  C   C746      1.0  0.37165  0.83259  0.87421  1.0000
  C   C747      1.0  0.34556  0.83915  0.86456  1.0000
  C   C748      1.0  0.32682  0.87053  0.86490  1.0000
  C   C749      1.0  0.33462  0.89516  0.87510  1.0000
  P   P22       1.0  0.29595  0.88056  0.85125  1.0000
  C   C750      1.0  0.32677  0.90705  0.83155  1.0000
  C   C751      1.0  0.26994  0.83409  0.84945  1.0000
  C   C752      1.0  0.26885  0.82787  0.83418  1.0000
  C   C753      1.0  0.25151  0.79096  0.83274  1.0000
  C   C754      1.0  0.23441  0.76007  0.84649  1.0000
  C   C755      1.0  0.23459  0.76619  0.86179  1.0000
  C   C756      1.0  0.25242  0.80310  0.86329  1.0000
  C   C757      1.0  0.31319  0.93378  0.82113  1.0000
  C   C758      1.0  0.33582  0.95142  0.80533  1.0000
  C   C759      1.0  0.37135  0.94157  0.79969  1.0000
  C   C760      1.0  0.38485  0.91505  0.81004  1.0000
  C   C761      1.0  0.36284  0.89794  0.82586  1.0000
  C   C762      1.0  0.26170  0.90884  0.85817  1.0000
  C   C763      1.0  0.27556  0.94886  0.85720  1.0000
  C   C764      1.0  0.20868  0.95538  0.86618  1.0000
  C   C765      1.0  0.44489  0.99411  0.74414  1.0000
  C   C766      1.0  0.19464  0.91552  0.86732  1.0000
  C   C767      1.0  0.22096  0.89229  0.86328  1.0000
  H   H593      1.0  0.36664  0.90760  0.89259  1.0000
  H   H594      1.0  0.39966  0.85223  0.89172  1.0000
  H   H595      1.0  0.38663  0.80888  0.87353  1.0000
  H   H596      1.0  0.34093  0.82030  0.85647  1.0000
  H   H597      1.0  0.32112  0.91981  0.87550  1.0000
  H   H598      1.0  0.28201  0.85106  0.82327  1.0000
  H   H599      1.0  0.25251  0.78617  0.82084  1.0000
  H   H600      1.0  0.22164  0.73130  0.84518  1.0000
  H   H601      1.0  0.22155  0.74214  0.87243  1.0000
  H   H602      1.0  0.25309  0.80738  0.87517  1.0000
  H   H603      1.0  0.28501  0.94068  0.82511  1.0000
  C   C768      1.0  0.30643  0.99190  0.72558  1.0000
  C   C769      1.0  0.24975  0.62971  0.68391  1.0000
  H   H604      1.0  0.41253  0.90770  0.80599  1.0000
  H   H605      1.0  0.37396  0.87707  0.83341  1.0000
  H   H606      1.0  0.30673  0.96265  0.85264  1.0000
  H   H607      1.0  0.11742  0.56737  0.83132  1.0000
  H   H608      1.0  0.41925  0.84477  0.66377  1.0000
  H   H609      1.0  0.16320  0.90319  0.87041  1.0000
  H   H610      1.0  0.20917  0.86202  0.86353  1.0000
  H   H611      1.0  0.16672  0.70274  0.74943  1.0000
  C   C770      1.0  0.06308  0.70190  0.70934  1.0000
  C   C771      1.0  0.07935  0.92145  0.88166  1.0000
  C   C772      1.0  0.27765  0.85176  0.70196  1.0000
  C   C773      1.0  0.08610  0.65074  0.78690  1.0000
  P   P23       1.0  0.09878  0.59825  0.71117  1.0000
  H   H612      1.0  0.06680  0.72919  0.70045  1.0000
  H   H613      1.0  0.14281  0.82794  0.67730  1.0000
  C   C774      1.0  0.06308  0.86992  0.90636  1.0000
  H   H614      1.0  0.09154  0.55540  0.68568  1.0000
  Fe  Fe51      1.0  0.19693  0.00005  0.82130  1.0000
  H   H615      1.0  0.35228  0.79254  0.75891  1.0000
  C   C775      1.0  0.04828  0.60139  0.81113  1.0000
  H   H616      1.0  0.15854  0.94405  0.71252  1.0000
  H   H617      1.0  0.37917  0.89397  0.70753  1.0000
  C   C776      1.0  0.35882  0.81492  0.74769  1.0000
  C   C777      1.0  0.34392  0.98420  0.72461  1.0000
  H   H618      1.0  0.15711  0.58990  0.79973  1.0000
  H   H619      1.0  0.20716  0.89520  0.66841  1.0000
  C   C778      1.0  0.05886  0.55528  0.71616  1.0000
  H   H620      1.0  0.50261  0.99320  0.74784  1.0000
  C   C779      1.0  0.17098  0.94481  0.72275  1.0000
  H   H621      1.0  0.08666  0.73269  0.75353  1.0000
  H   H622      1.0  0.05316  0.60578  0.74131  1.0000
  C   C780      1.0  0.47116  0.80325  0.70587  1.0000
  C   C781      1.0  0.08867  0.76963  0.77018  1.0000
  C   C782      1.0  0.15556  0.84456  0.69836  1.0000
  H   H623      1.0  0.39049  0.71145  0.76434  1.0000
  H   H624      1.0  0.23595  0.88569  0.69678  1.0000
  S   S110      1.0  0.24948  0.70532  0.74773  1.0000
  H   H625      1.0  0.13700  0.60531  0.77448  1.0000
  P   P24       1.0  0.42118  0.78180  0.73689  1.0000
  H   H626      1.0  0.08603  0.85919  0.67780  1.0000
  H   H627      1.0  0.03835  0.52563  0.83692  1.0000
  H   H628      1.0  0.27697  0.73482  0.71346  1.0000
  C   C783      1.0  0.12518  0.50672  0.77931  1.0000
  C   C784      1.0  0.02850  0.55600  0.70815  1.0000
  H   H629      1.0  0.46444  0.90260  0.74584  1.0000
  H   H630      1.0  0.02384  0.65852  0.74940  1.0000
  H   H631      1.0  0.43048  0.98327  0.75689  1.0000
  C   C785      1.0  0.05610  0.93565  0.90751  1.0000
  H   H632      1.0  0.10788  0.99148  0.82359  1.0000
  H   H633      1.0  0.33018  0.71386  0.84186  1.0000
  H   H634      1.0  0.09802  0.81265  0.78398  1.0000
  C   C786      1.0  0.22420  0.71763  0.73287  1.0000
  C   C787      1.0  0.18334  0.71356  0.73695  1.0000
  H   H635      1.0  0.13200  0.71779  0.72783  1.0000
  C   C788      1.0  0.13810  0.82834  0.74357  1.0000
  Fe  Fe52      1.0  0.22586  0.72016  0.77115  1.0000
  C   C789      1.0  0.35963  0.96668  0.71255  1.0000
  S   S111      1.0  0.18915  0.74457  0.81219  1.0000
  H   H636      1.0  0.10745  0.67806  0.78112  1.0000
  C   C790      1.0  0.14874  0.61705  0.73082  1.0000
  C   C791      1.0  0.20857  0.95160  0.74748  1.0000
  C   C792      1.0  0.42446  0.77187  0.75766  1.0000
  H   H637      1.0  0.13486  0.64108  0.73223  1.0000
  C   C793      1.0  0.13476  0.58979  0.66451  1.0000
  H   H638      1.0  0.21457  0.89264  0.74818  1.0000
  C   C794      1.0  0.15724  0.61158  0.83728  1.0000
  C   C795      1.0  0.17573  0.97958  0.72794  1.0000
  C   C796      1.0  0.12388  0.60839  0.69009  1.0000
  C   C797      1.0  0.05594  0.63251  0.73233  1.0000
  H   H639      1.0  0.29831  0.71738  0.68763  1.0000
  H   H640      1.0  0.12968  0.78436  0.73006  1.0000
  C   C798      1.0  0.24917  0.97195  0.86127  1.0000
  C   C799      1.0  0.09040  0.87819  0.69945  1.0000
  C   C800      1.0  0.17974  0.61257  0.73805  1.0000
  C   C801      1.0  0.13659  0.57516  0.77991  1.0000
  C   C802      1.0  0.02661  0.00213  0.85849  1.0000
  C   C803      1.0  0.04185  0.59286  0.78489  1.0000
  Fe  Fe53      1.0  0.15908  0.70020  0.80126  1.0000
  C   C804      1.0  0.18267  0.91217  0.73065  1.0000
  Fe  Fe54      1.0  0.47305  0.88192  0.80100  1.0000
  C   C805      1.0  0.07679  0.63725  0.71632  1.0000
  H   H641      1.0  0.45530  0.83139  0.75580  1.0000
  H   H642      1.0  0.07059  0.74667  0.78056  1.0000
  C   C806      1.0  0.11136  0.87944  0.71131  1.0000
  H   H643      1.0  0.05036  0.51004  0.66859  1.0000
  H   H644      1.0  0.17943  0.82963  0.69807  1.0000
  S   S112      1.0  0.21187  0.67529  0.79475  1.0000
  C   C807      1.0  0.22775  0.82359  0.73312  1.0000
  C   C808      1.0  0.12847  0.83612  0.75887  1.0000
  H   H645      1.0  0.29674  0.86204  0.68983  1.0000
  H   H646      1.0  0.11316  0.55219  0.76195  1.0000
  H   H647      1.0  0.07656  0.63981  0.76449  1.0000
  C   C809      1.0  0.20342  0.91663  0.74246  1.0000
  C   C810      1.0  0.06830  0.62920  0.77750  1.0000
  C   C811      1.0  0.28718  0.82453  0.71353  1.0000
  C   C812      1.0  0.14810  0.56616  0.79433  1.0000
  H   H648      1.0  0.24266  0.66050  0.70283  1.0000
  C   C813      1.0  0.04318  0.69731  0.72542  1.0000
  C   C814      1.0  0.28574  0.98383  0.71423  1.0000
  C   C815      1.0  0.10404  0.80678  0.77211  1.0000
  C   C816      1.0  0.25947  0.66090  0.69089  1.0000
  H   H649      1.0  0.44475  0.79556  0.70178  1.0000
  C   C817      1.0  0.40396  0.67405  0.72680  1.0000
  S   S113      1.0  0.45878  0.95469  0.69047  1.0000
  C   C818      1.0  0.14737  0.57729  0.83213  1.0000
  H   H650      1.0  0.20152  0.53258  0.72596  1.0000
  H   H651      1.0  0.35229  0.64056  0.72241  1.0000
  C   C819      1.0  0.21517  0.57133  0.82814  1.0000
  C   C820      1.0  0.35968  0.73025  0.73084  1.0000
  H   H652      1.0  0.04014  0.59110  0.82415  1.0000
  C   C821      1.0  0.30127  0.96603  0.70238  1.0000
  C   C822      1.0  0.18681  0.55620  0.72728  1.0000
  C   C823      1.0  0.05311  0.89657  0.91535  1.0000
  C   C824      1.0  0.36532  0.66746  0.72515  1.0000
  C   C825      1.0  0.23762  0.51523  0.80178  1.0000
  H   H653      1.0  0.08429  0.86191  0.88252  1.0000
  H   H654      1.0  0.45842  0.81849  0.78434  1.0000
  H   H655      1.0  0.44430  0.98762  0.81020  1.0000
  H   H656      1.0  0.23812  0.55630  0.82478  1.0000
  S   S114      1.0  0.49654  0.93924  0.80632  1.0000
  H   H657      1.0  0.25751  0.99126  0.71458  1.0000
  C   C826      1.0  0.48017  0.91006  0.73330  1.0000
  H   H658      1.0  0.02811  0.58269  0.69972  1.0000
  H   H659      1.0  0.07278  0.52572  0.85889  1.0000
  C   C827      1.0  0.32251  0.95043  0.66138  1.0000
  H   H660      1.0  0.32598  0.97283  0.79741  1.0000
  Fe  Fe55      1.0  0.50040  0.98446  0.66617  1.0000
  C   C828      1.0  0.02328  0.50902  0.84916  1.0000
  P   P25       1.0  0.16326  0.51414  0.81986  1.0000
  H   H661      1.0  0.04890  0.95605  0.91468  1.0000
  H   H662      1.0  0.26305  0.60605  0.66327  1.0000
  H   H663      1.0  0.26014  0.00314  0.85986  1.0000
  C   C829      1.0  0.17523  0.64928  0.66696  1.0000
  C   C830      1.0  0.06415  0.00049  0.86088  1.0000
  C   C831      1.0  0.19326  0.98242  0.74069  1.0000
  C   C832      1.0  0.21478  0.92668  0.66397  1.0000
  P   P26       1.0  0.07383  0.99919  0.88053  1.0000
  P   P27       1.0  0.37011  0.99566  0.73931  1.0000
  C   C833      1.0  0.49421  0.99484  0.83453  1.0000
  C   C834      1.0  0.08517  0.99461  0.83330  1.0000
  C   C835      1.0  0.04754  0.99534  0.83116  1.0000
  C   C836      1.0  0.48591  0.00026  0.73907  1.0000
  H   H664      1.0  0.12290  0.99647  0.84945  1.0000
  C   C837      1.0  0.09358  0.99750  0.84803  1.0000
  H   H665      1.0  0.13267  0.98676  0.89923  1.0000
  Fe  Fe56      1.0  0.49100  0.96670  0.78176  1.0000
  H   H666      1.0  0.29472  0.51624  0.78726  1.0000
  C   C838      1.0  0.04269  0.50893  0.86154  1.0000
  C   C839      1.0  0.42281  0.00196  0.73282  1.0000
  H   H667      1.0  0.35238  0.61808  0.66677  1.0000
  H   H668      1.0  0.41447  0.59933  0.66927  1.0000
  H   H669      1.0  0.38898  0.99424  0.83106  1.0000
  H   H670      1.0  0.31006  0.00313  0.66775  1.0000
  H   H671      1.0  0.19837  0.67552  0.66146  1.0000
  H   H672      1.0  0.78791  0.47313  0.11192  1.0000
  H   H673      1.0  0.91775  0.41662  0.09316  1.0000
  H   H674      1.0  0.88001  0.44552  0.06701  1.0000
  Fe  Fe57      1.0  0.74164  0.16591  0.16509  1.0000
  S   S115      1.0  0.71532  0.19078  0.14505  1.0000
  S   S116      1.0  0.79248  0.19786  0.17272  1.0000
  Fe  Fe58      1.0  0.68560  0.08543  0.17389  1.0000
  S   S117      1.0  0.65439  0.10304  0.15490  1.0000
  H   H675      1.0  0.51630  0.40515  0.21107  1.0000
  Fe  Fe59      1.0  0.71479  0.13279  0.13888  1.0000
  S   S118      1.0  0.72971  0.12248  0.11397  1.0000
  Fe  Fe60      1.0  0.65747  0.15897  0.16275  1.0000
  S   S119      1.0  0.60296  0.18211  0.16755  1.0000
  S   S120      1.0  0.74606  0.11015  0.15739  1.0000
  S   S121      1.0  0.68370  0.13922  0.18325  1.0000
  S   S122      1.0  0.86563  0.31202  0.02819  1.0000
  Fe  Fe61      1.0  0.82246  0.39319  0.04336  1.0000
  S   S123      1.0  0.82563  0.33868  0.06075  1.0000
  Fe  Fe62      1.0  0.88579  0.34792  0.04450  1.0000
  Fe  Fe63      1.0  0.80501  0.30754  0.04304  1.0000
  S   S124      1.0  0.75981  0.25068  0.04845  1.0000
  S   S125      1.0  0.79687  0.36134  0.02690  1.0000
  C   C840      1.0  0.73516  0.16029  0.09671  1.0000
  C   C841      1.0  0.75206  0.19975  0.09556  1.0000
  C   C842      1.0  0.76014  0.22804  0.08072  1.0000
  C   C843      1.0  0.75031  0.21698  0.06728  1.0000
  C   C844      1.0  0.73267  0.17781  0.06864  1.0000
  C   C845      1.0  0.72553  0.14956  0.08320  1.0000
  H   H676      1.0  0.76040  0.20806  0.10586  1.0000
  H   H677      1.0  0.77433  0.25820  0.07956  1.0000
  H   H678      1.0  0.72597  0.16900  0.05819  1.0000
  H   H679      1.0  0.71313  0.11906  0.08394  1.0000
  C   C846      1.0  0.61527  0.22617  0.17317  1.0000
  C   C847      1.0  0.65363  0.24005  0.17423  1.0000
  H   H680      1.0  0.67550  0.22320  0.17192  1.0000
  C   C848      1.0  0.83785  0.27298  0.16510  1.0000
  C   C849      1.0  0.80164  0.24903  0.16553  1.0000
  C   C850      1.0  0.77245  0.26614  0.16065  1.0000
  C   C851      1.0  0.77912  0.30702  0.15550  1.0000
  H   H681      1.0  0.86061  0.25970  0.16875  1.0000
  H   H682      1.0  0.74438  0.24799  0.16113  1.0000
  C   C852      1.0  0.69535  0.30982  0.27414  1.0000
  H   H683      1.0  0.68200  0.30981  0.25128  1.0000
  S   S126      1.0  0.74373  0.33771  0.26465  1.0000
  C   C853      1.0  0.57981  0.03785  0.25258  1.0000
  C   C854      1.0  0.51845  0.09344  0.23597  1.0000
  H   H684      1.0  0.96082  0.47271  0.32118  1.0000
  C   C855      1.0  0.79664  0.37373  0.19405  1.0000
  C   C856      1.0  0.80626  0.42907  0.10072  1.0000
  H   H685      1.0  0.69455  0.28848  0.17733  1.0000
  H   H686      1.0  0.89589  0.37026  0.07718  1.0000
  H   H687      1.0  0.60891  0.40595  0.08304  1.0000
  S   S127      1.0  0.66406  0.02591  0.19143  1.0000
  H   H688      1.0  0.96276  0.31277  0.21625  1.0000
  H   H689      1.0  0.75617  0.32012  0.15189  1.0000
  S   S128      1.0  0.88908  0.47083  0.15400  1.0000
  H   H690      1.0  0.62062  0.32733  0.06481  1.0000
  C   C857      1.0  0.83050  0.17592  0.06679  1.0000
  H   H691      1.0  0.84453  0.33614  0.24352  1.0000
  C   C858      1.0  0.67708  0.08353  0.22131  1.0000
  C   C859      1.0  0.70454  0.06034  0.22232  1.0000
  C   C860      1.0  0.73247  0.06776  0.23110  1.0000
  C   C861      1.0  0.73319  0.09859  0.23878  1.0000
  C   C862      1.0  0.70627  0.12264  0.23749  1.0000
  C   C863      1.0  0.67796  0.11470  0.22880  1.0000
  P   P28       1.0  0.70639  0.16219  0.24753  1.0000
  C   C864      1.0  0.66741  0.14722  0.26603  1.0000
  C   C865      1.0  0.75345  0.17395  0.25237  1.0000
  C   C866      1.0  0.75701  0.16044  0.26818  1.0000
  C   C867      1.0  0.79365  0.16857  0.27176  1.0000
  C   C868      1.0  0.82710  0.18995  0.25960  1.0000
  C   C869      1.0  0.82399  0.20283  0.24381  1.0000
  C   C870      1.0  0.78743  0.19456  0.24017  1.0000
  C   C871      1.0  0.64164  0.10988  0.27042  1.0000
  C   C872      1.0  0.61218  0.09806  0.28490  1.0000
  C   C873      1.0  0.58337  0.40486  0.22619  1.0000
  C   C874      1.0  0.66384  0.17205  0.27660  1.0000
  C   C875      1.0  0.70094  0.20457  0.23348  1.0000
  C   C876      1.0  0.72074  0.21320  0.21702  1.0000
  C   C877      1.0  0.71836  0.24692  0.20624  1.0000
  C   C878      1.0  0.69558  0.27188  0.21168  1.0000
  C   C879      1.0  0.67426  0.26251  0.22778  1.0000
  C   C880      1.0  0.67703  0.22919  0.23867  1.0000
  H   H692      1.0  0.55930  0.41931  0.22856  1.0000
  H   H693      1.0  0.51854  0.16063  0.28409  1.0000
  H   H694      1.0  0.75386  0.04983  0.23176  1.0000
  H   H695      1.0  0.75508  0.10374  0.24552  1.0000
  H   H696      1.0  0.65685  0.13281  0.22766  1.0000
  H   H697      1.0  0.73171  0.14336  0.27776  1.0000
  H   H698      1.0  0.79609  0.15865  0.28402  1.0000
  H   H699      1.0  0.85541  0.19649  0.26242  1.0000
  H   H700      1.0  0.84996  0.21910  0.23431  1.0000
  H   H701      1.0  0.78602  0.20379  0.22778  1.0000
  H   H702      1.0  0.64443  0.08955  0.26286  1.0000
  C   C881      1.0  0.61674  0.29529  0.00159  1.0000
  H   H703      1.0  0.68374  0.20068  0.27369  1.0000
  H   H704      1.0  0.73832  0.19417  0.21241  1.0000
  H   H705      1.0  0.73421  0.25368  0.19363  1.0000
  H   H706      1.0  0.69407  0.29831  0.20338  1.0000
  H   H707      1.0  0.65562  0.28124  0.23183  1.0000
  H   H708      1.0  0.66032  0.22311  0.25104  1.0000
  C   C882      1.0  0.87758  0.20991  0.99710  1.0000
  C   C883      1.0  0.70380  0.41557  0.24794  1.0000
  C   C884      1.0  0.69541  0.40662  0.31570  1.0000
  C   C885      1.0  0.85890  0.21767  0.01158  1.0000
  C   C886      1.0  0.51467  0.12952  0.28467  1.0000
  C   C887      1.0  0.65804  0.43418  0.06252  1.0000
  H   H709      1.0  0.85819  0.48717  0.29006  1.0000
  S   S129      1.0  0.59187  0.36472  0.15072  1.0000
  C   C888      1.0  0.70591  0.42310  0.26288  1.0000
  C   C889      1.0  0.61033  0.29649  0.07106  1.0000
  P   P29       1.0  0.50640  0.05537  0.25447  1.0000
  C   C890      1.0  0.90555  0.41823  0.21755  1.0000
  C   C891      1.0  0.53249  0.31363  0.31456  1.0000
  H   H710      1.0  0.65553  0.07755  0.21446  1.0000
  S   S130      1.0  0.87152  0.29968  0.31050  1.0000
  H   H711      1.0  0.71231  0.39933  0.18871  1.0000
  H   H712      1.0  0.57132  0.07753  0.22441  1.0000
  C   C892      1.0  0.65010  0.21940  0.02517  1.0000
  C   C893      1.0  0.55945  0.12603  0.20898  1.0000
  C   C894      1.0  0.60824  0.14799  0.04727  1.0000
  H   H713      1.0  0.73740  0.49592  0.31337  1.0000
  C   C895      1.0  0.80842  0.46760  0.10211  1.0000
  H   H714      1.0  0.56826  0.30215  0.11266  1.0000
  C   C896      1.0  0.50998  0.23448  0.15444  1.0000
  H   H715      1.0  0.81159  0.27446  0.26503  1.0000
  H   H716      1.0  0.84990  0.26154  0.28541  1.0000
  C   C897      1.0  0.63339  0.27512  0.27100  1.0000
  C   C898      1.0  0.64784  0.16272  0.04646  1.0000
  H   H717      1.0  0.58510  0.12884  0.19925  1.0000
  H   H718      1.0  0.76119  0.30038  0.00894  1.0000
  C   C899      1.0  0.69413  0.34349  0.01278  1.0000
  H   H719      1.0  0.76179  0.36669  0.17690  1.0000
  C   C900      1.0  0.62522  0.16023  0.11987  1.0000
  C   C901      1.0  0.50858  0.07506  0.27183  1.0000
  C   C902      1.0  0.51406  0.41287  0.18625  1.0000
  C   C903      1.0  0.88234  0.43157  0.22939  1.0000
  C   C904      1.0  0.81696  0.16420  0.99825  1.0000
  H   H720      1.0  0.54007  0.17327  0.19573  1.0000
  H   H721      1.0  0.84991  0.47465  0.23438  1.0000
  H   H722      1.0  0.80504  0.20558  0.03025  1.0000
  C   C905      1.0  0.69378  0.13457  0.31886  1.0000
  C   C906      1.0  0.89584  0.46942  0.19685  1.0000
  H   H723      1.0  0.76807  0.15777  0.01854  1.0000
  C   C907      1.0  0.51386  0.11556  0.27083  1.0000
  C   C908      1.0  0.59683  0.26890  0.06297  1.0000
  C   C909      1.0  0.92669  0.15792  0.13175  1.0000
  C   C910      1.0  0.89303  0.14774  0.14461  1.0000
  C   C911      1.0  0.86147  0.16528  0.14332  1.0000
  C   C912      1.0  0.86350  0.19317  0.12923  1.0000
  C   C913      1.0  0.89722  0.20359  0.11624  1.0000
  C   C914      1.0  0.92876  0.18562  0.11756  1.0000
  P   P30       1.0  0.89842  0.23798  0.09779  1.0000
  C   C915      1.0  0.94877  0.25651  0.08568  1.0000
  C   C916      1.0  0.87079  0.21367  0.08595  1.0000
  C   C917      1.0  0.84750  0.17520  0.09230  1.0000
  C   C918      1.0  0.82763  0.15641  0.08270  1.0000
  C   C919      1.0  0.85325  0.21432  0.06044  1.0000
  C   C920      1.0  0.87346  0.23311  0.06994  1.0000
  C   C921      1.0  0.95310  0.49430  0.04896  1.0000
  H   H724      1.0  0.65484  0.17847  0.11629  1.0000
  C   C922      1.0  0.96544  0.23429  0.07569  1.0000
  C   C923      1.0  0.87734  0.27692  0.10364  1.0000
  C   C924      1.0  0.84520  0.28683  0.09817  1.0000
  C   C925      1.0  0.82833  0.31610  0.10326  1.0000
  C   C926      1.0  0.84374  0.33605  0.11361  1.0000
  C   C927      1.0  0.87560  0.32630  0.11913  1.0000
  C   C928      1.0  0.89169  0.29616  0.11452  1.0000
  H   H725      1.0  0.95112  0.14425  0.13275  1.0000
  H   H726      1.0  0.89125  0.12621  0.15559  1.0000
  H   H727      1.0  0.83528  0.15723  0.15324  1.0000
  H   H728      1.0  0.83857  0.20633  0.12846  1.0000
  H   H729      1.0  0.95497  0.19287  0.10773  1.0000
  H   H730      1.0  0.84411  0.15961  0.10467  1.0000
  H   H731      1.0  0.89088  0.26295  0.06489  1.0000
  C   C929      1.0  0.97189  0.29235  0.08617  1.0000
  C   C930      1.0  0.81818  0.25088  0.28875  1.0000
  H   H732      1.0  0.94823  0.20659  0.07508  1.0000
  H   H733      1.0  0.83289  0.27197  0.09009  1.0000
  H   H734      1.0  0.80362  0.32371  0.09900  1.0000
  H   H735      1.0  0.83100  0.35903  0.11744  1.0000
  H   H736      1.0  0.81937  0.49254  0.13825  1.0000
  H   H737      1.0  0.91553  0.28810  0.11937  1.0000
  H   H738      1.0  0.66238  0.14661  0.05438  1.0000
  C   C931      1.0  0.58713  0.24828  0.17604  1.0000
  C   C932      1.0  0.58426  0.21703  0.08734  1.0000
  C   C933      1.0  0.68680  0.48619  0.19019  1.0000
  H   H739      1.0  0.59223  0.06931  0.28822  1.0000
  C   C934      1.0  0.97929  0.42748  0.08110  1.0000
  H   H740      1.0  0.95018  0.23341  0.01755  1.0000
  S   S131      1.0  0.68540  0.41385  0.13981  1.0000
  H   H741      1.0  0.69140  0.33303  0.08531  1.0000
  S   S132      1.0  0.98695  0.47936  0.16686  1.0000
  Fe  Fe64      1.0  0.78883  0.39772  0.30749  1.0000
  C   C935      1.0  0.75752  0.21858  0.30935  1.0000
  C   C936      1.0  0.96479  0.29361  0.01866  1.0000
  H   H742      1.0  0.73906  0.25263  0.27291  1.0000
  S   S133      1.0  0.88469  0.40514  0.02870  1.0000
  H   H743      1.0  0.62789  0.45631  0.22398  1.0000
  H   H744      1.0  0.50813  0.50050  0.32457  1.0000
  H   H745      1.0  0.57146  0.36977  0.30201  1.0000
  S   S134      1.0  0.85364  0.40277  0.30313  1.0000
  H   H746      1.0  0.90152  0.48409  0.18421  1.0000
  H   H747      1.0  0.69882  0.31867  0.05754  1.0000
  H   H748      1.0  0.51726  0.13642  0.25952  1.0000
  C   C937      1.0  0.51718  0.25713  0.23118  1.0000
  C   C938      1.0  0.62044  0.11955  0.12226  1.0000
  C   C939      1.0  0.98245  0.34085  0.20973  1.0000
  H   H749      1.0  0.78392  0.40516  0.10932  1.0000
  C   C940      1.0  0.51098  0.37422  0.30823  1.0000
  H   H750      1.0  0.66368  0.08751  0.31060  1.0000
  C   C941      1.0  0.79662  0.25841  0.27730  1.0000
  H   H751      1.0  0.96251  0.41915  0.26843  1.0000
  H   H752      1.0  0.69968  0.20892  0.03479  1.0000
  C   C942      1.0  0.95222  0.39376  0.26411  1.0000
  H   H753      1.0  0.71470  0.14725  0.30728  1.0000
  C   C943      1.0  0.81957  0.19881  0.01929  1.0000
  Fe  Fe65      1.0  0.66168  0.46789  0.14006  1.0000
  H   H754      1.0  0.63707  0.02488  0.25114  1.0000
  C   C944      1.0  0.53832  0.22144  0.14451  1.0000
  C   C945      1.0  0.56644  0.21683  0.24556  1.0000
  H   H755      1.0  0.59527  0.21921  0.01801  1.0000
  C   C946      1.0  0.53498  0.02942  0.19093  1.0000
  H   H756      1.0  0.54527  0.19381  0.14922  1.0000
  H   H757      1.0  0.94866  0.35163  0.28616  1.0000
  H   H758      1.0  0.59067  0.06891  0.25140  1.0000
  H   H759      1.0  0.71352  0.39725  0.30635  1.0000
  C   C947      1.0  0.71512  0.48539  0.23614  1.0000
  H   H760      1.0  0.82982  0.39218  0.08641  1.0000
  H   H761      1.0  0.70219  0.39888  0.27325  1.0000
  C   C948      1.0  0.94589  0.39920  0.24863  1.0000
  C   C949      1.0  0.51415  0.25247  0.24779  1.0000
  C   C950      1.0  0.66425  0.27669  0.17757  1.0000
  H   H762      1.0  0.61852  0.27081  0.14103  1.0000
  Fe  Fe66      1.0  0.54822  0.20029  0.32200  1.0000
  C   C951      1.0  0.93064  0.50157  0.01986  1.0000
  C   C952      1.0  0.50512  0.04908  0.28669  1.0000
  H   H763      1.0  0.75147  0.36319  0.06322  1.0000
  H   H764      1.0  0.51823  0.40498  0.30199  1.0000
  C   C953      1.0  0.50622  0.06319  0.30040  1.0000
  C   C954      1.0  0.70886  0.44663  0.23442  1.0000
  C   C955      1.0  0.62221  0.42574  0.22355  1.0000
  C   C956      1.0  0.71739  0.49286  0.25111  1.0000
  Fe  Fe67      1.0  0.83948  0.34219  0.29976  1.0000
  C   C957      1.0  0.56954  0.22204  0.22901  1.0000
  Fe  Fe68      1.0  0.78106  0.36032  0.28016  1.0000
  C   C958      1.0  0.81567  0.30156  0.23005  1.0000
  C   C959      1.0  0.79873  0.23112  0.30474  1.0000
  H   H765      1.0  0.52834  0.16358  0.12734  1.0000
  C   C960      1.0  0.95466  0.37461  0.06332  1.0000
  C   C961      1.0  0.67978  0.25794  0.10790  1.0000
  C   C962      1.0  0.64524  0.27222  0.13221  1.0000
  H   H766      1.0  0.57421  0.20764  0.06475  1.0000
  C   C963      1.0  0.66507  0.10042  0.32073  1.0000
  C   C964      1.0  0.61141  0.28432  0.08717  1.0000
  H   H767      1.0  0.95248  0.42880  0.24107  1.0000
  C   C965      1.0  0.58279  0.09480  0.12716  1.0000
  C   C966      1.0  0.88886  0.50028  0.28876  1.0000
  S   S135      1.0  0.79049  0.42337  0.28164  1.0000
  H   H768      1.0  0.54710  0.24594  0.20907  1.0000
  Fe  Fe69      1.0  0.95337  0.47040  0.14811  1.0000
  C   C967      1.0  0.92357  0.32873  0.25299  1.0000
  C   C968      1.0  0.71547  0.27809  0.10969  1.0000
  C   C969      1.0  0.71608  0.29551  0.12262  1.0000
  C   C970      1.0  0.68095  0.29271  0.13382  1.0000
  H   H769      1.0  0.74260  0.28061  0.10094  1.0000
  H   H770      1.0  0.74365  0.31141  0.12395  1.0000
  H   H771      1.0  0.68127  0.30691  0.14367  1.0000
  H   H772      1.0  0.80883  0.12712  0.08783  1.0000
  H   H773      1.0  0.55747  0.23767  0.17528  1.0000
  S   S136      1.0  0.90384  0.47242  0.26186  1.0000
  S   S137      1.0  0.94058  0.34080  0.05233  1.0000
  H   H774      1.0  0.70938  0.46917  0.04415  1.0000
  C   C971      1.0  0.75561  0.24603  0.28179  1.0000
  C   C972      1.0  0.62889  0.43356  0.07603  1.0000
  C   C973      1.0  0.65072  0.28168  0.99654  1.0000
  H   H775      1.0  0.77413  0.41569  0.22538  1.0000
  Fe  Fe70      1.0  0.85943  0.36870  0.01361  1.0000
  H   H776      1.0  0.67995  0.24507  0.09766  1.0000
  C   C974      1.0  0.86367  0.49124  0.07826  1.0000
  C   C975      1.0  0.92681  0.38376  0.07498  1.0000
  H   H777      1.0  0.95994  0.31104  0.09321  1.0000
  S   S138      1.0  0.94408  0.41795  0.13745  1.0000
  C   C976      1.0  0.55149  0.28223  0.12400  1.0000
  C   C977      1.0  0.55882  0.24485  0.12902  1.0000
  C   C978      1.0  0.69010  0.38578  0.09355  1.0000
  H   H778      1.0  0.85456  0.22982  0.04827  1.0000
  S   S139      1.0  0.84556  0.36172  0.27323  1.0000
  C   C979      1.0  0.85529  0.30040  0.20413  1.0000
  C   C980      1.0  0.81915  0.28944  0.21567  1.0000
  C   C981      1.0  0.63432  0.16015  0.29105  1.0000
  C   C982      1.0  0.84832  0.32501  0.23280  1.0000
  C   C983      1.0  0.88470  0.33644  0.22120  1.0000
  C   C984      1.0  0.88779  0.32437  0.20673  1.0000
  P   P31       1.0  0.92307  0.37442  0.22305  1.0000
  H   H779      1.0  0.95244  0.42259  0.30536  1.0000
  C   C985      1.0  0.93056  0.36684  0.24313  1.0000
  C   C986      1.0  0.76438  0.37706  0.18757  1.0000
  H   H780      1.0  0.64613  0.10712  0.12053  1.0000
  H   H781      1.0  0.55306  0.29112  0.27047  1.0000
  C   C987      1.0  0.97051  0.37602  0.21040  1.0000
  C   C988      1.0  0.68555  0.46919  0.05414  1.0000
  H   H782      1.0  0.70405  0.21913  0.30132  1.0000
  H   H783      1.0  0.77411  0.49805  0.20083  1.0000
  C   C989      1.0  0.56313  0.02888  0.19990  1.0000
  H   H784      1.0  0.87633  0.41705  0.24205  1.0000
  H   H785      1.0  0.85766  0.29174  0.19283  1.0000
  H   H786      1.0  0.79360  0.27265  0.21320  1.0000
  H   H787      1.0  0.91468  0.33481  0.19712  1.0000
  C   C990      1.0  0.64429  0.25486  0.11916  1.0000
  C   C991      1.0  0.99466  0.39181  0.06060  1.0000
  C   C992      1.0  0.60846  0.12324  0.29517  1.0000
  C   C993      1.0  0.67121  0.29928  0.26425  1.0000
  H   H788      1.0  0.94191  0.49828  0.22703  1.0000
  H   H789      1.0  0.60641  0.29550  0.01414  1.0000
  C   C994      1.0  0.84477  0.31409  0.15975  1.0000
  H   H790      1.0  0.61515  0.26709  0.26317  1.0000
  H   H791      1.0  0.59223  0.12039  0.05577  1.0000
  H   H792      1.0  0.54053  0.05319  0.18023  1.0000
  S   S140      1.0  0.79815  0.44171  0.05153  1.0000
  C   C995      1.0  0.83232  0.42162  0.08801  1.0000
  H   H793      1.0  0.81409  0.16171  0.05955  1.0000
  C   C996      1.0  0.61927  0.26094  0.28777  1.0000
  C   C997      1.0  0.68649  0.30401  0.02139  1.0000
  S   S141      1.0  0.57214  0.22913  0.29534  1.0000
  H   H794      1.0  0.62299  0.30592  0.09308  1.0000
  C   C998      1.0  0.71410  0.47930  0.19934  1.0000
  H   H795      1.0  0.66886  0.35269  0.21732  1.0000
  C   C999      1.0  0.75767  0.42026  0.06816  1.0000
  H   H796      1.0  0.65847  0.46595  0.19278  1.0000
  C   C1000     1.0  0.55226  0.38710  0.26712  1.0000
  C   C1001     1.0  0.59768  0.24466  0.09559  1.0000
  C   C1002     1.0  0.59213  0.17669  0.12191  1.0000
  H   H797      1.0  0.91259  0.30332  0.24884  1.0000
  H   H798      1.0  0.66918  0.02319  0.15804  1.0000
  P   P32       1.0  0.67765  0.26539  0.01111  1.0000
  H   H799      1.0  0.78725  0.29430  0.23875  1.0000
  C   C1003     1.0  0.63631  0.29911  0.18014  1.0000
  C   C1004     1.0  0.93052  0.32334  0.26842  1.0000
  H   H800      1.0  0.56933  0.41364  0.26880  1.0000
  C   C1005     1.0  0.68768  0.29542  0.03765  1.0000
  C   C1006     1.0  0.60607  0.01308  0.25243  1.0000
  H   H801      1.0  0.70436  0.03680  0.21616  1.0000
  H   H802      1.0  0.69439  0.35090  0.00010  1.0000
  C   C1007     1.0  0.81531  0.33100  0.15490  1.0000
  H   H803      1.0  0.60052  0.31639  0.22193  1.0000
  C   C1008     1.0  0.68113  0.29643  0.29100  1.0000
  C   C1009     1.0  0.94447  0.35585  0.27403  1.0000
  C   C1010     1.0  0.54299  0.31787  0.26782  1.0000
  H   H804      1.0  0.87275  0.33263  0.15931  1.0000
  H   H805      1.0  0.57424  0.18609  0.09329  1.0000
  C   C1011     1.0  0.64308  0.27172  0.29782  1.0000
  C   C1012     1.0  0.73598  0.39514  0.19444  1.0000
  P   P33       1.0  0.59797  0.22956  0.11667  1.0000
  C   C1013     1.0  0.59770  0.28486  0.17943  1.0000
  H   H806      1.0  0.81938  0.36106  0.18822  1.0000
  H   H807      1.0  0.58555  0.20138  0.25118  1.0000
  Fe  Fe71      1.0  0.63789  0.38718  0.16275  1.0000
  C   C1014     1.0  0.86098  0.45238  0.07689  1.0000
  C   C1015     1.0  0.61030  0.20422  0.02598  1.0000
  C   C1016     1.0  0.66881  0.19808  0.03537  1.0000
  H   H808      1.0  0.69952  0.30446  0.29877  1.0000
  H   H809      1.0  0.57944  0.06323  0.12935  1.0000
  H   H810      1.0  0.57609  0.30228  0.18136  1.0000
  H   H811      1.0  0.74701  0.47858  0.14147  1.0000
  H   H812      1.0  0.92435  0.29407  0.27625  1.0000
  C   C1017     1.0  0.74260  0.44260  0.07838  1.0000
  P   P34       1.0  0.70362  0.43565  0.21558  1.0000
  C   C1018     1.0  0.96839  0.33279  0.01090  1.0000
  C   C1019     1.0  0.54969  0.11082  0.12917  1.0000
  H   H813      1.0  0.63226  0.26107  0.31081  1.0000
  C   C1020     1.0  0.86672  0.46415  0.22500  1.0000
  S   S142      1.0  0.89146  0.46548  0.11666  1.0000
  S   S143      1.0  0.99607  0.46234  0.09123  1.0000
  C   C1021     1.0  0.54473  0.24194  0.22189  1.0000
  H   H814      1.0  0.63129  0.17959  0.29909  1.0000
  C   C1022     1.0  0.56533  0.35230  0.26968  1.0000
  S   S144      1.0  0.61835  0.44294  0.16417  1.0000
  C   C1023     1.0  0.53970  0.02276  0.25403  1.0000
  H   H815      1.0  0.64512  0.40104  0.30547  1.0000
  Fe  Fe72      1.0  0.57618  0.42281  0.14997  1.0000
  C   C1024     1.0  0.52365  0.29543  0.13407  1.0000
  H   H816      1.0  0.54561  0.34952  0.22733  1.0000
  H   H817      1.0  0.52224  0.49920  0.20845  1.0000
  H   H818      1.0  0.78983  0.14850  0.32445  1.0000
  S   S145      1.0  0.77399  0.33473  0.30648  1.0000
  C   C1025     1.0  0.70384  0.36496  0.03655  1.0000
  H   H819      1.0  0.59123  0.21087  0.22166  1.0000
  H   H820      1.0  0.60542  0.46577  0.09217  1.0000
  C   C1026     1.0  0.53884  0.23185  0.25490  1.0000
  C   C1027     1.0  0.55428  0.15160  0.12633  1.0000
  C   C1028     1.0  0.93919  0.40980  0.08407  1.0000
  C   C1029     1.0  0.73599  0.22684  0.29783  1.0000
  C   C1030     1.0  0.95368  0.26370  0.01119  1.0000
  H   H821      1.0  0.52055  0.09159  0.13276  1.0000
  S   S146      1.0  0.51289  0.42774  0.15436  1.0000
  C   C1031     1.0  0.98598  0.46936  0.31266  1.0000
  C   C1032     1.0  0.58953  0.16864  0.03699  1.0000
  H   H822      1.0  0.58573  0.11400  0.30641  1.0000
  H   H823      1.0  0.82521  0.38566  0.21256  1.0000
  H   H824      1.0  0.96958  0.28656  0.03068  1.0000
  Fe  Fe73      1.0  0.88122  0.42368  0.14080  1.0000
  C   C1033     1.0  0.54121  0.35404  0.30774  1.0000
  C   C1034     1.0  0.72380  0.25666  0.00118  1.0000
  H   H825      1.0  0.71456  0.46716  0.27611  1.0000
  C   C1035     1.0  0.62702  0.46792  0.08119  1.0000
  H   H826      1.0  0.75670  0.47326  0.07635  1.0000
  C   C1036     1.0  0.71292  0.46170  0.26446  1.0000
  H   H827      1.0  0.88760  0.34204  0.12707  1.0000
  C   C1037     1.0  0.53401  0.15111  0.20695  1.0000
  Fe  Fe74      1.0  0.63761  0.39593  0.12784  1.0000
  C   C1038     1.0  0.73853  0.40853  0.20831  1.0000
  C   C1039     1.0  0.77081  0.40479  0.21492  1.0000
  Fe  Fe75      1.0  0.85433  0.42240  0.27709  1.0000
  C   C1040     1.0  0.91771  0.49801  0.27568  1.0000
  C   C1041     1.0  0.64538  0.36762  0.21988  1.0000
  S   S147      1.0  0.61802  0.45226  0.12583  1.0000
  S   S148      1.0  0.64522  0.36496  0.10799  1.0000
  S   S149      1.0  0.82189  0.38189  0.14817  1.0000
  C   C1042     1.0  0.70915  0.42508  0.09129  1.0000
  H   H828      1.0  0.59244  0.35169  0.27342  1.0000
  C   C1043     1.0  0.58409  0.22914  0.07107  1.0000
  C   C1044     1.0  0.98125  0.44119  0.30375  1.0000
  C   C1045     1.0  0.73969  0.38055  0.07098  1.0000
  H   H829      1.0  0.70962  0.40418  0.01353  1.0000
  C   C1046     1.0  0.79987  0.38764  0.20771  1.0000
  H   H830      1.0  0.98923  0.43975  0.20292  1.0000
  C   C1047     1.0  0.51039  0.10327  0.29946  1.0000
  H   H831      1.0  0.69723  0.44221  0.09914  1.0000
  C   C1048     1.0  0.70561  0.36351  0.08347  1.0000
  C   C1049     1.0  0.57556  0.36547  0.22560  1.0000
  S   S150      1.0  0.65014  0.34603  0.18312  1.0000
  H   H832      1.0  0.66033  0.40708  0.05907  1.0000
  C   C1050     1.0  0.97258  0.47976  0.03666  1.0000
  Fe  Fe76      1.0  0.95471  0.46381  0.11418  1.0000
  C   C1051     1.0  0.75999  0.27873  0.00188  1.0000
  H   H833      1.0  0.55898  0.15690  0.03744  1.0000
  H   H834      1.0  0.69818  0.38542  0.24693  1.0000
  C   C1052     1.0  0.79869  0.17190  0.01269  1.0000
  C   C1053     1.0  0.60648  0.34673  0.22265  1.0000
  C   C1054     1.0  0.70261  0.37381  0.02036  1.0000
  H   H835      1.0  0.59681  0.27828  0.05037  1.0000
  C   C1055     1.0  0.65357  0.40759  0.21987  1.0000
  H   H836      1.0  0.71240  0.38846  0.04218  1.0000
  H   H837      1.0  0.92699  0.42540  0.19185  1.0000
  C   C1056     1.0  0.65679  0.40880  0.31519  1.0000
  H   H838      1.0  0.68294  0.26550  0.04456  1.0000
  H   H839      1.0  0.53703  0.22765  0.26769  1.0000
  H   H840      1.0  0.58996  0.05192  0.19606  1.0000
  C   C1057     1.0  0.69653  0.32578  0.04515  1.0000
  C   C1058     1.0  0.91104  0.43656  0.20123  1.0000
  H   H841      1.0  0.55585  0.29788  0.31384  1.0000
  C   C1059     1.0  0.87370  0.48327  0.20870  1.0000
  H   H842      1.0  0.54213  0.40580  0.18251  1.0000
  H   H843      1.0  0.87418  0.23854  0.01689  1.0000
  C   C1060     1.0  0.55167  0.09713  0.22339  1.0000
  H   H844      1.0  0.50645  0.41428  0.26071  1.0000
  H   H845      1.0  0.81591  0.22711  0.31357  1.0000
  C   C1061     1.0  0.96153  0.48357  0.02208  1.0000
  C   C1062     1.0  0.99718  0.41208  0.20233  1.0000
  H   H846      1.0  0.97596  0.35585  0.01690  1.0000
  H   H847      1.0  0.93150  0.34357  0.32261  1.0000
  H   H848      1.0  0.97608  0.47149  0.01269  1.0000
  H   H849      1.0  0.96177  0.49081  0.06027  1.0000
  S   S151      1.0  0.58566  0.42517  0.32649  1.0000
  C   C1063     1.0  0.51688  0.38743  0.26263  1.0000
  H   H850      1.0  0.51053  0.11395  0.31023  1.0000
  C   C1064     1.0  0.50804  0.31813  0.26279  1.0000
  H   H851      1.0  0.99582  0.46496  0.03857  1.0000
  H   H852      1.0  0.51925  0.32483  0.13028  1.0000
  C   C1065     1.0  0.96096  0.34209  0.99566  1.0000
  C   C1066     1.0  0.94592  0.27274  0.99588  1.0000
  C   C1067     1.0  0.83672  0.49868  0.09085  1.0000
  H   H853      1.0  0.56981  0.31923  0.99445  1.0000
  H   H854      1.0  0.50340  0.04300  0.31186  1.0000
  H   H855      1.0  0.52008  0.50000  0.11625  1.0000
  H   H856      1.0  0.92118  0.50325  0.00877  1.0000
  C   C1068     1.0  0.63334  0.42101  0.32730  1.0000
  H   H857      1.0  0.91215  0.14579  0.99572  1.0000
  H   H858      1.0  0.95542  0.09983  0.99795  1.0000
  C   C1069     1.0  0.96789  0.13118  0.99511  1.0000
  S   S152      1.0  0.64916  0.02067  0.64208  1.0000
  S   S153      1.0  0.83253  0.16351  0.63547  1.0000
  H   H859      1.0  0.98636  0.28328  0.58835  1.0000
  Fe  Fe77      1.0  0.83731  0.26856  0.64145  1.0000
  S   S154      1.0  0.87850  0.25667  0.62106  1.0000
  S   S155      1.0  0.84465  0.33053  0.64404  1.0000
  Fe  Fe78      1.0  0.82602  0.21635  0.61839  1.0000
  S   S156      1.0  0.82073  0.21089  0.59376  1.0000
  Fe  Fe79      1.0  0.88243  0.20490  0.63956  1.0000
  S   S157      1.0  0.78348  0.23376  0.63688  1.0000
  H   H860      1.0  0.94317  0.46803  0.53122  1.0000
  C   C1070     1.0  0.52146  0.14476  0.43712  1.0000
  C   C1071     1.0  0.94243  0.21767  0.53315  1.0000
  Fe  Fe80      1.0  0.89926  0.39042  0.52516  1.0000
  S   S158      1.0  0.89733  0.35387  0.50724  1.0000
  S   S159      1.0  0.85316  0.38086  0.54826  1.0000
  C   C1072     1.0  0.62857  0.15872  0.57788  1.0000
  Fe  Fe81      1.0  0.91896  0.41112  0.48832  1.0000
  S   S160      1.0  0.89914  0.42688  0.46531  1.0000
  S   S161      1.0  0.91480  0.44776  0.50637  1.0000
  C   C1073     1.0  0.89081  0.29727  0.39954  1.0000
  H   H861      1.0  0.93100  0.12573  0.55665  1.0000
  H   H862      1.0  0.89042  0.17171  0.57573  1.0000
  C   C1074     1.0  0.65162  0.47751  0.39294  1.0000
  P   P35       1.0  0.69228  0.15794  0.59175  1.0000
  C   C1075     1.0  0.73543  0.09302  0.65295  1.0000
  C   C1076     1.0  0.94884  0.30679  0.56120  1.0000
  H   H863      1.0  0.54656  0.19536  0.39036  1.0000
  H   H864      1.0  0.95805  0.03204  0.62516  1.0000
  Fe  Fe82      1.0  0.75017  0.36416  0.40653  1.0000
  S   S162      1.0  0.72703  0.32266  0.39261  1.0000
  S   S163      1.0  0.75841  0.42959  0.40099  1.0000
  Fe  Fe83      1.0  0.75724  0.30010  0.43339  1.0000
  S   S164      1.0  0.73273  0.25246  0.42260  1.0000
  S   S165      1.0  0.77735  0.28542  0.45610  1.0000
  Fe  Fe84      1.0  0.77242  0.29026  0.39914  1.0000
  S   S166      1.0  0.80830  0.25494  0.38620  1.0000
  Fe  Fe85      1.0  0.68960  0.28822  0.41712  1.0000
  S   S167      1.0  0.62520  0.26298  0.42083  1.0000
  S   S168      1.0  0.79995  0.33574  0.41037  1.0000
  S   S169      1.0  0.70962  0.33189  0.43056  1.0000
  C   C1077     1.0  0.60820  0.19618  0.38265  1.0000
  C   C1078     1.0  0.64592  0.20918  0.38462  1.0000
  C   C1079     1.0  0.65127  0.23060  0.39607  1.0000
  C   C1080     1.0  0.61881  0.23890  0.40566  1.0000
  C   C1081     1.0  0.58109  0.22653  0.40350  1.0000
  H   H865      1.0  0.67105  0.20247  0.37734  1.0000
  H   H866      1.0  0.68042  0.23979  0.39774  1.0000
  C   C1082     1.0  0.56090  0.14620  0.43710  1.0000
  H   H867      1.0  0.95652  0.44419  0.63198  1.0000
  C   C1083     1.0  0.88899  0.30910  0.43038  1.0000
  C   C1084     1.0  0.86642  0.27466  0.42868  1.0000
  C   C1085     1.0  0.72193  0.23953  0.58582  1.0000
  C   C1086     1.0  0.50983  0.18418  0.65806  1.0000
  C   C1087     1.0  0.61940  0.14814  0.63610  1.0000
  C   C1088     1.0  0.91209  0.33785  0.41672  1.0000
  H   H868      1.0  0.98519  0.33194  0.63414  1.0000
  Fe  Fe86      1.0  0.79371  0.18341  0.65432  1.0000
  S   S170      1.0  0.98292  0.41331  0.48643  1.0000
  C   C1089     1.0  0.94804  0.32394  0.34470  1.0000
  C   C1090     1.0  0.83233  0.31211  0.33900  1.0000
  C   C1091     1.0  0.81852  0.30266  0.35591  1.0000
  C   C1092     1.0  0.82845  0.27119  0.36531  1.0000
  C   C1093     1.0  0.85349  0.25043  0.35791  1.0000
  H   H869      1.0  0.96191  0.24786  0.66042  1.0000
  H   H870      1.0  0.73642  0.50069  0.40466  1.0000
  H   H871      1.0  0.79933  0.31889  0.36163  1.0000
  H   H872      1.0  0.86170  0.22650  0.36521  1.0000
  C   C1094     1.0  0.72971  0.12974  0.59137  1.0000
  C   C1095     1.0  0.86618  0.38747  0.46225  1.0000
  C   C1096     1.0  0.84504  0.39428  0.45048  1.0000
  C   C1097     1.0  0.81763  0.36311  0.44847  1.0000
  C   C1098     1.0  0.81122  0.32512  0.45828  1.0000
  C   C1099     1.0  0.83279  0.31830  0.46981  1.0000
  C   C1100     1.0  0.86058  0.34923  0.47159  1.0000
  H   H873      1.0  0.84943  0.42368  0.44308  1.0000
  H   H874      1.0  0.80106  0.36862  0.43952  1.0000
  H   H875      1.0  0.82848  0.28891  0.47723  1.0000
  H   H876      1.0  0.87800  0.34320  0.48004  1.0000
  C   C1101     1.0  0.82957  0.25781  0.58097  1.0000
  C   C1102     1.0  0.82519  0.28979  0.58756  1.0000
  C   C1103     1.0  0.83161  0.32723  0.57734  1.0000
  C   C1104     1.0  0.84418  0.33327  0.56060  1.0000
  C   C1105     1.0  0.84918  0.30136  0.55398  1.0000
  C   C1106     1.0  0.84108  0.26345  0.56417  1.0000
  H   H877      1.0  0.81614  0.28560  0.60051  1.0000
  H   H878      1.0  0.82735  0.35169  0.58242  1.0000
  H   H879      1.0  0.85861  0.30575  0.54103  1.0000
  H   H880      1.0  0.84440  0.23869  0.55905  1.0000
  H   H881      1.0  0.88501  0.16167  0.51565  1.0000
  C   C1107     1.0  0.90575  0.13933  0.53645  1.0000
  C   C1108     1.0  0.89511  0.35361  0.63939  1.0000
  H   H882      1.0  0.84915  0.24239  0.41196  1.0000
  C   C1109     1.0  0.86213  0.46315  0.34255  1.0000
  S   S171      1.0  0.56504  0.14679  0.33420  1.0000
  C   C1110     1.0  0.54690  0.20111  0.64742  1.0000
  H   H883      1.0  0.61478  0.05741  0.33703  1.0000
  C   C1111     1.0  0.62302  0.04522  0.49030  1.0000
  H   H884      1.0  0.71610  0.23587  0.59873  1.0000
  C   C1112     1.0  0.92487  0.41400  0.38740  1.0000
  C   C1113     1.0  0.57578  0.20549  0.39185  1.0000
  H   H885      1.0  0.89227  0.11827  0.62406  1.0000
  H   H886      1.0  0.95377  0.49558  0.40031  1.0000
  H   H887      1.0  0.63265  0.42480  0.38553  1.0000
  C   C1114     1.0  0.86749  0.26866  0.41328  1.0000
  C   C1115     1.0  0.53257  0.22856  0.45930  1.0000
  H   H888      1.0  0.90447  0.39694  0.33148  1.0000
  C   C1116     1.0  0.98624  0.09997  0.65255  1.0000
  C   C1117     1.0  0.65217  0.13550  0.58437  1.0000
  H   H889      1.0  0.65911  0.07575  0.59139  1.0000
  H   H890      1.0  0.69025  0.39766  0.39007  1.0000
  C   C1118     1.0  0.76336  0.18510  0.35720  1.0000
  C   C1119     1.0  0.72212  0.21363  0.56220  1.0000
  H   H891      1.0  0.84726  0.25316  0.43929  1.0000
  C   C1120     1.0  0.94012  0.35383  0.59371  1.0000
  H   H892      1.0  0.91817  0.23120  0.51266  1.0000
  H   H893      1.0  0.60011  0.09242  0.42395  1.0000
  Fe  Fe87      1.0  0.56783  0.46794  0.37881  1.0000
  C   C1121     1.0  0.57797  0.31362  0.38407  1.0000
  S   S172      1.0  0.56323  0.03517  0.62297  1.0000
  H   H894      1.0  0.95880  0.29988  0.34094  1.0000
  C   C1122     1.0  0.69376  0.20265  0.46664  1.0000
  C   C1123     1.0  0.67708  0.23532  0.46517  1.0000
  C   C1124     1.0  0.64351  0.23462  0.45926  1.0000
  C   C1125     1.0  0.62640  0.20116  0.45495  1.0000
  C   C1126     1.0  0.64271  0.16812  0.45648  1.0000
  C   C1127     1.0  0.67680  0.16920  0.46225  1.0000
  P   P36       1.0  0.62211  0.12599  0.44982  1.0000
  C   C1128     1.0  0.62559  0.08180  0.46325  1.0000
  C   C1129     1.0  0.57084  0.12464  0.45038  1.0000
  C   C1130     1.0  0.54061  0.10234  0.46390  1.0000
  H   H895      1.0  0.88534  0.41182  0.63804  1.0000
  C   C1131     1.0  0.71018  0.23220  0.33766  1.0000
  C   C1132     1.0  0.81381  0.14032  0.34519  1.0000
  C   C1133     1.0  0.62034  0.07935  0.47985  1.0000
  C   C1134     1.0  0.64851  0.12946  0.42933  1.0000
  C   C1135     1.0  0.68726  0.15214  0.42302  1.0000
  C   C1136     1.0  0.70699  0.15587  0.40699  1.0000
  C   C1137     1.0  0.68833  0.13652  0.39722  1.0000
  C   C1138     1.0  0.64984  0.11375  0.40341  1.0000
  C   C1139     1.0  0.63007  0.10993  0.41943  1.0000
  H   H896      1.0  0.72066  0.20399  0.47069  1.0000
  H   H897      1.0  0.69098  0.26166  0.46811  1.0000
  H   H898      1.0  0.63154  0.26053  0.45741  1.0000
  H   H899      1.0  0.60126  0.20183  0.44991  1.0000
  H   H900      1.0  0.69084  0.14464  0.46300  1.0000
  H   H901      1.0  0.92821  0.36495  0.41833  1.0000
  H   H902      1.0  0.58378  0.16404  0.42668  1.0000
  C   C1140     1.0  0.93260  0.34852  0.33437  1.0000
  C   C1141     1.0  0.64832  0.43064  0.33996  1.0000
  H   H903      1.0  0.61414  0.10384  0.48472  1.0000
  H   H904      1.0  0.70220  0.16757  0.43030  1.0000
  H   H905      1.0  0.73639  0.17468  0.40207  1.0000
  C   C1142     1.0  0.86679  0.25946  0.34108  1.0000
  C   C1143     1.0  0.94573  0.18828  0.54580  1.0000
  C   C1144     1.0  0.99560  0.26660  0.59802  1.0000
  C   C1145     1.0  0.94571  0.26691  0.56175  1.0000
  C   C1146     1.0  0.56068  0.33275  0.41404  1.0000
  C   C1147     1.0  0.61253  0.45180  0.43293  1.0000
  C   C1148     1.0  0.64753  0.44404  0.43616  1.0000
  C   C1149     1.0  0.65320  0.40583  0.43834  1.0000
  C   C1150     1.0  0.62357  0.37520  0.43759  1.0000
  C   C1151     1.0  0.58793  0.38260  0.43473  1.0000
  C   C1152     1.0  0.81310  0.14803  0.36030  1.0000
  H   H906      1.0  0.58468  0.30564  0.37264  1.0000
  C   C1153     1.0  0.94941  0.44322  0.39178  1.0000
  H   H907      1.0  0.93067  0.32280  0.59446  1.0000
  H   H908      1.0  0.55837  0.27355  0.48766  1.0000
  C   C1154     1.0  0.58296  0.42131  0.43206  1.0000
  H   H909      1.0  0.84126  0.44845  0.39280  1.0000
  H   H910      1.0  0.99866  0.35025  0.59569  1.0000
  C   C1155     1.0  0.78681  0.08473  0.59087  1.0000
  C   C1156     1.0  0.70037  0.16925  0.62164  1.0000
  H   H911      1.0  0.88768  0.31404  0.44231  1.0000
  C   C1157     1.0  0.63779  0.08319  0.33563  1.0000
  H   H912      1.0  0.61183  0.13855  0.61344  1.0000
  H   H913      1.0  0.53032  0.25783  0.43567  1.0000
  C   C1158     1.0  0.63593  0.01540  0.46778  1.0000
  C   C1159     1.0  0.53943  0.30234  0.39380  1.0000
  H   H914      1.0  0.57790  0.15958  0.56808  1.0000
  H   H915      1.0  0.67090  0.46788  0.43632  1.0000
  H   H916      1.0  0.68100  0.40019  0.44020  1.0000
  H   H917      1.0  0.62859  0.34580  0.43897  1.0000
  C   C1160     1.0  0.71346  0.20732  0.57911  1.0000
  C   C1161     1.0  0.92043  0.20807  0.52239  1.0000
  H   H918      1.0  0.83736  0.40044  0.34937  1.0000
  C   C1162     1.0  0.90194  0.16895  0.52406  1.0000
  C   C1163     1.0  0.79660  0.43199  0.35939  1.0000
  H   H919      1.0  0.83343  0.12306  0.34055  1.0000
  H   H920      1.0  0.62336  0.35823  0.40831  1.0000
  H   H921      1.0  0.63486  0.10009  0.39561  1.0000
  C   C1164     1.0  0.73906  0.27720  0.57578  1.0000
  H   H922      1.0  0.74416  0.04283  0.61101  1.0000
  C   C1165     1.0  0.57749  0.22000  0.65286  1.0000
  C   C1166     1.0  0.78945  0.46886  0.36013  1.0000
  C   C1167     1.0  0.72234  0.09362  0.60275  1.0000
  C   C1168     1.0  0.94741  0.41276  0.63367  1.0000
  P   P37       1.0  0.73197  0.19542  0.33013  1.0000
  H   H923      1.0  0.51650  0.28508  0.39003  1.0000
  H   H924      1.0  0.61887  0.08634  0.36038  1.0000
  C   C1169     1.0  0.89614  0.47619  0.39676  1.0000
  H   H925      1.0  0.63522  0.15977  0.65746  1.0000
  H   H926      1.0  0.95690  0.24809  0.53150  1.0000
  C   C1170     1.0  0.76443  0.17813  0.34187  1.0000
  C   C1171     1.0  0.93468  0.36087  0.36495  1.0000
  H   H927      1.0  0.80660  0.50202  0.38492  1.0000
  H   H928      1.0  0.56124  0.08743  0.57102  1.0000
  H   H929      1.0  0.65119  0.20900  0.33577  1.0000
  C   C1172     1.0  0.68682  0.42845  0.34048  1.0000
  H   H930      1.0  0.52418  0.19957  0.45735  1.0000
  C   C1173     1.0  0.67037  0.23222  0.33868  1.0000
  Fe  Fe88      1.0  0.50495  0.48865  0.36228  1.0000
  C   C1174     1.0  0.85534  0.50002  0.34364  1.0000
  S   S173      1.0  0.61009  0.49664  0.39122  1.0000
  C   C1175     1.0  0.93657  0.06287  0.64269  1.0000
  C   C1176     1.0  0.78768  0.17012  0.36634  1.0000
  C   C1177     1.0  0.92042  0.46034  0.55654  1.0000
  C   C1178     1.0  0.96346  0.34938  0.63518  1.0000
  H   H931      1.0  0.66662  0.31608  0.35139  1.0000
  H   H932      1.0  0.96505  0.13903  0.61668  1.0000
  C   C1179     1.0  0.67363  0.05449  0.65107  1.0000
  C   C1180     1.0  0.59942  0.34360  0.40426  1.0000
  C   C1181     1.0  0.96588  0.05067  0.63294  1.0000
  C   C1182     1.0  0.88701  0.14283  0.60015  1.0000
  S   S174      1.0  0.94036  0.18831  0.64045  1.0000
  S   S175      1.0  0.60221  0.16507  0.36980  1.0000
  H   H933      1.0  0.69843  0.43628  0.35023  1.0000
  C   C1183     1.0  0.83274  0.42908  0.35044  1.0000
  C   C1184     1.0  0.79474  0.12101  0.57971  1.0000
  H   H934      1.0  0.85503  0.13569  0.60354  1.0000
  C   C1185     1.0  0.94902  0.14470  0.60751  1.0000
  H   H935      1.0  0.77369  0.17174  0.57137  1.0000
  H   H936      1.0  0.93814  0.22905  0.60864  1.0000
  H   H937      1.0  0.76277  0.31212  0.55128  1.0000
  P   P38       1.0  0.94133  0.37106  0.38378  1.0000
  H   H938      1.0  0.74721  0.25589  0.53918  1.0000
  H   H939      1.0  0.97487  0.46469  0.59122  1.0000
  H   H940      1.0  0.97937  0.44193  0.39200  1.0000
  H   H941      1.0  0.90603  0.05377  0.64247  1.0000
  Fe  Fe89      1.0  0.96126  0.35817  0.50628  1.0000
  C   C1186     1.0  0.87428  0.47950  0.61710  1.0000
  S   S176      1.0  0.57031  0.49860  0.35338  1.0000
  P   P39       1.0  0.89184  0.45039  0.58953  1.0000
  C   C1187     1.0  0.84142  0.42211  0.59522  1.0000
  C   C1188     1.0  0.92559  0.41845  0.59168  1.0000
  C   C1189     1.0  0.91385  0.37828  0.59233  1.0000
  C   C1190     1.0  0.53061  0.31240  0.40859  1.0000
  Fe  Fe90      1.0  0.55653  0.17160  0.35597  1.0000
  H   H942      1.0  0.63801  0.34243  0.38193  1.0000
  C   C1191     1.0  0.82761  0.39298  0.60977  1.0000
  C   C1192     1.0  0.78931  0.36957  0.61408  1.0000
  C   C1193     1.0  0.76433  0.37520  0.60385  1.0000
  C   C1194     1.0  0.77776  0.40422  0.58929  1.0000
  C   C1195     1.0  0.81618  0.42757  0.58495  1.0000
  S   S177      1.0  0.54559  0.04139  0.66085  1.0000
  H   H943      1.0  0.96150  0.31096  0.36777  1.0000
  Fe  Fe91      1.0  0.97701  0.44438  0.50645  1.0000
  Fe  Fe92      1.0  0.58362  0.01339  0.64502  1.0000
  S   S178      1.0  0.54529  0.22804  0.34300  1.0000
  H   H944      1.0  0.98816  0.36270  0.55800  1.0000
  C   C1196     1.0  0.91758  0.37882  0.33935  1.0000
  C   C1197     1.0  0.66926  0.13297  0.34702  1.0000
  C   C1198     1.0  0.97851  0.36929  0.59425  1.0000
  H   H945      1.0  0.92673  0.43155  0.55945  1.0000
  H   H946      1.0  0.89179  0.10896  0.53762  1.0000
  H   H947      1.0  0.88450  0.36557  0.59177  1.0000
  C   C1199     1.0  0.69528  0.15168  0.33194  1.0000
  H   H948      1.0  0.84702  0.38791  0.61756  1.0000
  H   H949      1.0  0.77950  0.34658  0.62523  1.0000
  H   H950      1.0  0.73489  0.35659  0.60705  1.0000
  H   H951      1.0  0.75887  0.40795  0.58112  1.0000
  H   H952      1.0  0.82629  0.44885  0.57336  1.0000
  H   H953      1.0  0.00088  0.17692  0.58904  1.0000
  H   H954      1.0  0.90886  0.41009  0.35772  1.0000
  C   C1200     1.0  0.85570  0.28984  0.33159  1.0000
  C   C1201     1.0  0.54736  0.29960  0.44929  1.0000
  H   H955      1.0  0.82386  0.33587  0.33175  1.0000
  C   C1202     1.0  0.60796  0.33434  0.38928  1.0000
  C   C1203     1.0  0.96753  0.23719  0.61004  1.0000
  C   C1204     1.0  0.73964  0.25131  0.55221  1.0000
  H   H956      1.0  0.88979  0.29253  0.38777  1.0000
  C   C1205     1.0  0.88569  0.41599  0.38792  1.0000
  C   C1206     1.0  0.63328  0.04951  0.45729  1.0000
  H   H957      1.0  0.55598  0.23282  0.41097  1.0000
  C   C1207     1.0  0.53604  0.26180  0.44700  1.0000
  H   H958      1.0  0.77348  0.40574  0.36537  1.0000
  C   C1208     1.0  0.96927  0.16597  0.59180  1.0000
  C   C1209     1.0  0.68764  0.42580  0.39242  1.0000
  C   C1210     1.0  0.71686  0.44714  0.39791  1.0000
  H   H959      1.0  0.91462  0.29965  0.64057  1.0000
  H   H960      1.0  0.74647  0.30177  0.58099  1.0000
  C   C1211     1.0  0.97968  0.25190  0.55916  1.0000
  C   C1212     1.0  0.91344  0.33207  0.40118  1.0000
  C   C1213     1.0  0.64012  0.09932  0.34881  1.0000
  C   C1214     1.0  0.92342  0.33118  0.63849  1.0000
  C   C1215     1.0  0.92786  0.14891  0.54721  1.0000
  C   C1216     1.0  0.76627  0.14334  0.57988  1.0000
  C   C1217     1.0  0.68634  0.17046  0.63767  1.0000
  H   H961      1.0  0.70313  0.14002  0.38472  1.0000
  C   C1218     1.0  0.65517  0.44122  0.38976  1.0000
  H   H962      1.0  0.73095  0.05334  0.63754  1.0000
  C   C1219     1.0  0.94909  0.33005  0.35994  1.0000
  C   C1220     1.0  0.64591  0.15992  0.64490  1.0000
  H   H963      1.0  0.73193  0.17666  0.61631  1.0000
  H   H964      1.0  0.80889  0.06750  0.59076  1.0000
  C   C1221     1.0  0.74821  0.28306  0.55900  1.0000
  H   H965      1.0  0.88989  0.46123  0.33529  1.0000
  H   H966      1.0  0.61910  0.04358  0.50309  1.0000
  C   C1222     1.0  0.96456  0.43386  0.59194  1.0000
  C   C1223     1.0  0.67382  0.15873  0.61253  1.0000
  C   C1224     1.0  0.97562  0.39004  0.63287  1.0000
  S   S179      1.0  0.98511  0.30616  0.50218  1.0000
  H   H967      1.0  0.60632  0.23270  0.64460  1.0000
  C   C1225     1.0  0.94864  0.17409  0.57993  1.0000
  C   C1226     1.0  0.71858  0.29344  0.34613  1.0000
  H   H968      1.0  0.91678  0.24781  0.56415  1.0000
  H   H969      1.0  0.71610  0.18922  0.55676  1.0000
  H   H970      1.0  0.76089  0.47037  0.36682  1.0000
  H   H971      1.0  0.82318  0.13233  0.57107  1.0000
  H   H972      1.0  0.55196  0.19892  0.63497  1.0000
  H   H973      1.0  0.63473  0.19006  0.57695  1.0000
  H   H974      1.0  0.73741  0.31753  0.34875  1.0000
  C   C1227     1.0  0.63315  0.14785  0.61993  1.0000
  C   C1228     1.0  0.59617  0.14151  0.57292  1.0000
  C   C1229     1.0  0.71483  0.06567  0.64638  1.0000
  C   C1230     1.0  0.87160  0.44733  0.39234  1.0000
  C   C1231     1.0  0.75052  0.07096  0.60233  1.0000
  H   H975      1.0  0.85003  0.45402  0.62211  1.0000
  C   C1232     1.0  0.60987  0.07757  0.58112  1.0000
  H   H976      1.0  0.60199  0.04595  0.58278  1.0000
  H   H977      1.0  0.86576  0.39294  0.38520  1.0000
  H   H978      1.0  0.92254  0.31820  0.56319  1.0000
  C   C1233     1.0  0.90792  0.13316  0.61169  1.0000
  H   H979      1.0  0.60890  0.48174  0.43041  1.0000
  C   C1234     1.0  0.99369  0.37915  0.38184  1.0000
  C   C1235     1.0  0.67876  0.29279  0.34751  1.0000
  C   C1236     1.0  0.68125  0.49893  0.39817  1.0000
  C   C1237     1.0  0.90725  0.16334  0.58434  1.0000
  C   C1238     1.0  0.98934  0.50186  0.35193  1.0000
  C   C1239     1.0  0.98585  0.33193  0.55820  1.0000
  H   H980      1.0  0.62383  0.26172  0.34496  1.0000
  H   H981      1.0  0.88522  0.24255  0.33542  1.0000
  H   H982      1.0  0.70686  0.17848  0.64467  1.0000
  H   H983      1.0  0.54730  0.08569  0.47437  1.0000
  C   C1240     1.0  0.90384  0.47712  0.56869  1.0000
  H   H984      1.0  0.74384  0.20194  0.36226  1.0000
  C   C1241     1.0  0.81871  0.50323  0.35225  1.0000
  H   H985      1.0  0.55674  0.42838  0.42901  1.0000
  C   C1242     1.0  0.91924  0.38551  0.35445  1.0000
  H   H986      1.0  0.63058  0.44052  0.34924  1.0000
  H   H987      1.0  0.67116  0.14492  0.35737  1.0000
  S   S180      1.0  0.56023  0.40744  0.37447  1.0000
  C   C1243     1.0  0.73425  0.26346  0.34107  1.0000
  P   P40       1.0  0.97480  0.20046  0.55949  1.0000
  S   S181      1.0  0.96146  0.38920  0.52622  1.0000
  C   C1244     1.0  0.90715  0.39445  0.63707  1.0000
  P   P41       1.0  0.54991  0.34277  0.43379  1.0000
  C   C1245     1.0  0.63085  0.01327  0.48427  1.0000
  Fe  Fe93      1.0  0.55732  0.43785  0.34970  1.0000
  H   H988      1.0  0.63733  0.05053  0.44457  1.0000
  H   H989      1.0  0.58813  0.13871  0.64185  1.0000
  H   H990      1.0  0.69471  0.08287  0.61198  1.0000
  C   C1246     1.0  0.97752  0.21839  0.62369  1.0000
  C   C1247     1.0  0.64241  0.09470  0.58602  1.0000
  H   H991      1.0  0.99015  0.34172  0.40526  1.0000
  S   S182      1.0  0.84444  0.21966  0.66044  1.0000
  H   H992      1.0  0.76711  0.10135  0.64912  1.0000
  C   C1248     1.0  0.58679  0.10093  0.57455  1.0000
  C   C1249     1.0  0.65472  0.26226  0.34376  1.0000
  H   H993      1.0  0.99338  0.12013  0.65982  1.0000
  C   C1250     1.0  0.92906  0.48069  0.54038  1.0000
  C   C1251     1.0  0.78931  0.15501  0.33606  1.0000
  C   C1252     1.0  0.71395  0.48405  0.40045  1.0000
  C   C1253     1.0  0.54067  0.23273  0.47394  1.0000
  C   C1254     1.0  0.55199  0.27024  0.47633  1.0000
  C   C1255     1.0  0.93492  0.47393  0.39656  1.0000
  C   C1256     1.0  0.55515  0.30355  0.46411  1.0000
  H   H994      1.0  0.78754  0.17662  0.37795  1.0000
  C   C1257     1.0  0.94680  0.08774  0.65238  1.0000
  H   H995      1.0  0.56341  0.33239  0.46625  1.0000
  H   H996      1.0  0.83236  0.13712  0.36733  1.0000
  H   H997      1.0  0.76527  0.26470  0.33967  1.0000
  H   H998      1.0  0.86187  0.50162  0.63836  1.0000
  S   S183      1.0  0.75972  0.41873  0.32812  1.0000
  C   C1258     1.0  0.99079  0.40926  0.59322  1.0000
  H   H999      1.0  0.88492  0.49984  0.40061  1.0000
  H   H1000     1.0  0.53847  0.20693  0.48336  1.0000
  C   C1259     1.0  0.89920  0.48529  0.60168  1.0000
  H   H1001     1.0  0.92431  0.09857  0.65943  1.0000
  H   H1002     1.0  0.51423  0.16119  0.42668  1.0000
  H   H1003     1.0  0.98655  0.47863  0.34569  1.0000
  S   S184      1.0  0.52024  0.12149  0.62906  1.0000
  Fe  Fe94      1.0  0.52185  0.05906  0.63927  1.0000
  C   C1260     1.0  0.71046  0.41690  0.32827  1.0000
  H   H1004     1.0  0.50427  0.19203  0.61355  1.0000
  H   H1005     1.0  0.51435  0.11179  0.59506  1.0000
  H   H1006     1.0  0.51052  0.38840  0.41316  1.0000
  S   S185      1.0  0.50305  0.46321  0.38809  1.0000
  C   C1261     1.0  0.95728  0.24623  0.93791  1.0000
  C   C1262     1.0  0.90986  0.27507  0.96030  1.0000
  C   C1263     1.0  0.78361  0.07130  0.87028  1.0000
  H   H1007     1.0  0.94945  0.42475  0.95825  1.0000
  S   S186      1.0  0.95247  0.41210  0.75593  1.0000
  Fe  Fe95      1.0  0.94834  0.43515  0.81279  1.0000
  S   S187      1.0  0.90137  0.43131  0.83488  1.0000
  H   H1008     1.0  0.92086  0.36113  0.66867  1.0000
  H   H1009     1.0  0.72424  0.27373  0.71173  1.0000
  C   C1264     1.0  0.78766  0.44978  0.86686  1.0000
  Fe  Fe96      1.0  0.77330  0.24249  0.78236  1.0000
  S   S188      1.0  0.79768  0.29059  0.75950  1.0000
  S   S189      1.0  0.77023  0.29089  0.91191  1.0000
  Fe  Fe97      1.0  0.78220  0.20059  0.94188  1.0000
  S   S190      1.0  0.78769  0.20213  0.91564  1.0000
  S   S191      1.0  0.79476  0.15199  0.95952  1.0000
  Fe  Fe98      1.0  0.82260  0.26417  0.91122  1.0000
  S   S192      1.0  0.88230  0.28768  0.89371  1.0000
  Fe  Fe99      1.0  0.73502  0.22856  0.91869  1.0000
  S   S193      1.0  0.68126  0.21045  0.90977  1.0000
  S   S194      1.0  0.82116  0.26030  0.93722  1.0000
  H   H1010     1.0  0.64428  0.18614  0.82763  1.0000
  Fe  Fe100     1.0  0.78264  0.17357  0.80651  1.0000
  S   S195      1.0  0.78972  0.23761  0.80599  1.0000
  C   C1265     1.0  0.66376  0.24478  0.88224  1.0000
  H   H1011     1.0  0.64357  0.25625  0.89008  1.0000
  C   C1266     1.0  0.66672  0.25353  0.86562  1.0000
  H   H1012     1.0  0.83782  0.12337  0.88291  1.0000
  H   H1013     1.0  0.82601  0.34840  0.91982  1.0000
  H   H1014     1.0  0.57470  0.01275  0.78845  1.0000
  C   C1267     1.0  0.74090  0.03712  0.69242  1.0000
  C   C1268     1.0  0.82866  0.34380  0.95520  1.0000
  C   C1269     1.0  0.71546  0.21474  0.86181  1.0000
  C   C1270     1.0  0.71288  0.20639  0.87854  1.0000
  C   C1271     1.0  0.68706  0.22159  0.88874  1.0000
  H   H1015     1.0  0.53842  0.19195  0.86003  1.0000
  H   H1016     1.0  0.73558  0.20329  0.85392  1.0000
  H   H1017     1.0  0.73090  0.18835  0.88355  1.0000
  H   H1018     1.0  0.94646  0.37173  0.83955  1.0000
  S   S196      1.0  0.94154  0.47002  0.78957  1.0000
  C   C1272     1.0  0.86222  0.12482  0.96013  1.0000
  C   C1273     1.0  0.84362  0.15030  0.95163  1.0000
  C   C1274     1.0  0.86400  0.17430  0.93642  1.0000
  C   C1275     1.0  0.90206  0.17202  0.92940  1.0000
  Fe  Fe101     1.0  0.76633  0.28256  0.93834  1.0000
  H   H1019     1.0  0.85032  0.19411  0.92972  1.0000
  H   H1020     1.0  0.91651  0.18984  0.91746  1.0000
  H   H1021     1.0  0.60334  0.12904  0.72767  1.0000
  C   C1276     1.0  0.90897  0.37843  0.75773  1.0000
  C   C1277     1.0  0.89178  0.38201  0.74469  1.0000
  C   C1278     1.0  0.85741  0.35511  0.74549  1.0000
  C   C1279     1.0  0.84037  0.32410  0.75919  1.0000
  C   C1280     1.0  0.85810  0.32000  0.77214  1.0000
  C   C1281     1.0  0.89250  0.34730  0.77143  1.0000
  H   H1022     1.0  0.90475  0.40594  0.73401  1.0000
  H   H1023     1.0  0.84390  0.35872  0.73549  1.0000
  H   H1024     1.0  0.84551  0.29586  0.78262  1.0000
  H   H1025     1.0  0.90640  0.34413  0.78137  1.0000
  C   C1282     1.0  0.89839  0.39298  0.85150  1.0000
  C   C1283     1.0  0.86876  0.38684  0.86566  1.0000
  C   C1284     1.0  0.86268  0.35367  0.87840  1.0000
  C   C1285     1.0  0.88735  0.32753  0.87735  1.0000
  C   C1286     1.0  0.91793  0.33447  0.86338  1.0000
  C   C1287     1.0  0.92341  0.36710  0.85042  1.0000
  H   H1026     1.0  0.84938  0.40675  0.86650  1.0000
  H   H1027     1.0  0.83861  0.34802  0.88893  1.0000
  H   H1028     1.0  0.93710  0.31428  0.86256  1.0000
  S   S197      1.0  0.66005  0.13728  0.78580  1.0000
  C   C1288     1.0  0.98490  0.48640  0.85243  1.0000
  H   H1029     1.0  0.84200  0.49136  0.82152  1.0000
  C   C1289     1.0  0.90119  0.12350  0.95324  1.0000
  C   C1290     1.0  0.77548  0.34060  0.80714  1.0000
  C   C1291     1.0  0.81071  0.33651  0.81111  1.0000
  C   C1292     1.0  0.84478  0.36645  0.80418  1.0000
  C   C1293     1.0  0.84396  0.39980  0.79277  1.0000
  C   C1294     1.0  0.80867  0.40404  0.78863  1.0000
  C   C1295     1.0  0.77418  0.37456  0.79624  1.0000
  P   P42       1.0  0.80694  0.44675  0.77382  1.0000
  C   C1296     1.0  0.79893  0.43403  0.75550  1.0000
  H   H1030     1.0  0.97212  0.41008  0.66366  1.0000
  H   H1031     1.0  0.69100  0.27442  0.97555  1.0000
  C   C1297     1.0  0.90120  0.35114  0.68062  1.0000
  H   H1032     1.0  0.93659  0.44547  0.87018  1.0000
  H   H1033     1.0  0.88739  0.35502  0.95865  1.0000
  H   H1034     1.0  0.94367  0.32058  0.97650  1.0000
  C   C1298     1.0  0.78210  0.39528  0.75550  1.0000
  C   C1299     1.0  0.77543  0.38629  0.74128  1.0000
  C   C1300     1.0  0.78596  0.41570  0.72690  1.0000
  C   C1301     1.0  0.90857  0.42217  0.90365  1.0000
  H   H1035     1.0  0.75818  0.24253  0.69163  1.0000
  C   C1302     1.0  0.56182  0.16775  0.78985  1.0000
  C   C1303     1.0  0.52589  0.10457  0.78853  1.0000
  H   H1036     1.0  0.73022  0.48914  0.81828  1.0000
  H   H1037     1.0  0.89036  0.28555  0.96885  1.0000
  C   C1304     1.0  0.57095  0.22201  0.66898  1.0000
  C   C1305     1.0  0.79537  0.27359  0.99308  1.0000
  H   H1038     1.0  0.74923  0.31716  0.81247  1.0000
  H   H1039     1.0  0.81148  0.31003  0.81957  1.0000
  H   H1040     1.0  0.87210  0.36345  0.80738  1.0000
  H   H1041     1.0  0.87100  0.42179  0.78711  1.0000
  H   H1042     1.0  0.74643  0.37731  0.79345  1.0000
  H   H1043     1.0  0.50731  0.07553  0.79437  1.0000
  P   P43       1.0  0.96135  0.43217  0.90046  1.0000
  H   H1044     1.0  0.97915  0.31398  0.88186  1.0000
  Fe  Fe102     1.0  0.96573  0.42531  0.77852  1.0000
  H   H1045     1.0  0.82957  0.00358  0.90799  1.0000
  H   H1046     1.0  0.77486  0.37149  0.76623  1.0000
  H   H1047     1.0  0.76319  0.35608  0.74140  1.0000
  H   H1048     1.0  0.78145  0.40844  0.71585  1.0000
  H   H1049     1.0  0.84565  0.02696  0.93110  1.0000
  H   H1050     1.0  0.95497  0.20255  0.69287  1.0000
  C   C1306     1.0  0.97341  0.01547  0.90851  1.0000
  H   H1051     1.0  0.80053  0.14408  0.99288  1.0000
  C   C1307     1.0  0.97080  0.15481  0.77250  1.0000
  C   C1308     1.0  0.83925  0.10189  0.89336  1.0000
  S   S198      1.0  0.74108  0.14279  0.67303  1.0000
  H   H1052     1.0  0.95008  0.37116  0.88355  1.0000
  C   C1309     1.0  0.98295  0.28728  0.74190  1.0000
  C   C1310     1.0  0.54879  0.14613  0.82913  1.0000
  C   C1311     1.0  0.89719  0.18847  0.70921  1.0000
  C   C1312     1.0  0.85758  0.16816  0.71261  1.0000
  C   C1313     1.0  0.84567  0.14672  0.70189  1.0000
  P   P44       1.0  0.82172  0.17129  0.73000  1.0000
  C   C1314     1.0  0.79049  0.12314  0.74014  1.0000
  C   C1315     1.0  0.84712  0.18847  0.74411  1.0000
  C   C1316     1.0  0.86203  0.22887  0.74192  1.0000
  C   C1317     1.0  0.88109  0.24253  0.75289  1.0000
  C   C1318     1.0  0.88527  0.21596  0.76620  1.0000
  C   C1319     1.0  0.87103  0.17569  0.76836  1.0000
  C   C1320     1.0  0.85223  0.16190  0.75735  1.0000
  C   C1321     1.0  0.75124  0.11900  0.74853  1.0000
  C   C1322     1.0  0.72853  0.08217  0.75777  1.0000
  C   C1323     1.0  0.98555  0.05296  0.91079  1.0000
  H   H1053     1.0  0.97267  0.21348  0.95799  1.0000
  C   C1324     1.0  0.80638  0.08972  0.74097  1.0000
  C   C1325     1.0  0.79191  0.20475  0.72389  1.0000
  C   C1326     1.0  0.78649  0.21224  0.70815  1.0000
  C   C1327     1.0  0.76223  0.23709  0.70380  1.0000
  C   C1328     1.0  0.74315  0.25463  0.71510  1.0000
  C   C1329     1.0  0.69231  0.23842  0.85538  1.0000
  C   C1330     1.0  0.77275  0.22269  0.73512  1.0000
  H   H1054     1.0  0.93418  0.27997  0.68125  1.0000
  C   C1331     1.0  0.87293  0.14590  0.68797  1.0000
  C   C1332     1.0  0.96921  0.34240  0.72457  1.0000
  H   H1055     1.0  0.90720  0.20572  0.71707  1.0000
  H   H1056     1.0  0.81509  0.13156  0.70405  1.0000
  H   H1057     1.0  0.85817  0.24980  0.73190  1.0000
  H   H1058     1.0  0.89158  0.27380  0.75132  1.0000
  H   H1059     1.0  0.89865  0.22646  0.77507  1.0000
  H   H1060     1.0  0.87323  0.15516  0.77894  1.0000
  H   H1061     1.0  0.84072  0.13062  0.75961  1.0000
  H   H1062     1.0  0.73815  0.14412  0.74839  1.0000
  H   H1063     1.0  0.69840  0.07935  0.76434  1.0000
  C   C1333     1.0  0.73016  0.10421  0.87624  1.0000
  P   P45       1.0  0.52008  0.11535  0.81952  1.0000
  H   H1064     1.0  0.83674  0.09231  0.73481  1.0000
  H   H1065     1.0  0.80052  0.19891  0.69916  1.0000
  H   H1066     1.0  0.83894  0.05677  0.69055  1.0000
  H   H1067     1.0  0.77615  0.21727  0.74736  1.0000
  S   S199      1.0  0.71832  0.15572  0.81982  1.0000
  S   S200      1.0  0.75349  0.33004  0.95086  1.0000
  C   C1334     1.0  0.89038  0.45373  0.90059  1.0000
  H   H1068     1.0  0.79293  0.18033  0.83612  1.0000
  Fe  Fe103     1.0  0.97971  0.16964  0.90137  1.0000
  H   H1069     1.0  0.80279  0.32671  0.69828  1.0000
  H   H1070     1.0  0.67871  0.32596  0.82416  1.0000
  C   C1335     1.0  0.85283  0.48360  0.76852  1.0000
  C   C1336     1.0  0.83472  0.03466  0.90737  1.0000
  S   S201      1.0  0.96807  0.14337  0.92817  1.0000
  C   C1337     1.0  0.78150  0.05105  0.68584  1.0000
  C   C1338     1.0  0.91573  0.34186  0.69434  1.0000
  C   C1339     1.0  0.84809  0.11479  0.90656  1.0000
  C   C1340     1.0  0.72578  0.01914  0.70896  1.0000
  H   H1071     1.0  0.86335  0.13082  0.67936  1.0000
  H   H1072     1.0  0.60530  0.14677  0.81380  1.0000
  H   H1073     1.0  0.99756  0.24153  0.73073  1.0000
  C   C1341     1.0  0.82601  0.48030  0.83411  1.0000
  C   C1342     1.0  0.74495  0.04936  0.75899  1.0000
  H   H1074     1.0  0.65511  0.43450  0.83301  1.0000
  C   C1343     1.0  0.77983  0.36363  0.97347  1.0000
  C   C1344     1.0  0.88510  0.38406  0.91061  1.0000
  C   C1345     1.0  0.89409  0.03842  0.83572  1.0000
  H   H1075     1.0  0.81397  0.20257  0.85870  1.0000
  H   H1076     1.0  0.74896  0.09763  0.83718  1.0000
  Fe  Fe104     1.0  0.72483  0.22050  0.81734  1.0000
  H   H1077     1.0  0.69616  0.20948  0.99213  1.0000
  H   H1078     1.0  0.64877  0.27181  0.86072  1.0000
  P   P46       1.0  0.92872  0.23300  0.98713  1.0000
  C   C1346     1.0  0.88173  0.15581  0.83133  1.0000
  C   C1347     1.0  0.59384  0.19138  0.84474  1.0000
  C   C1348     1.0  0.78980  0.34684  0.96045  1.0000
  C   C1349     1.0  0.52413  0.06505  0.82608  1.0000
  C   C1350     1.0  0.72661  0.10863  0.86039  1.0000
  C   C1351     1.0  0.93748  0.27352  0.83059  1.0000
  C   C1352     1.0  0.90319  0.27367  0.82526  1.0000
  C   C1353     1.0  0.90382  0.27434  0.80918  1.0000
  C   C1354     1.0  0.93862  0.27374  0.79848  1.0000
  C   C1355     1.0  0.64613  0.08577  0.79151  1.0000
  C   C1356     1.0  0.76270  0.46968  0.79892  1.0000
  H   H1079     1.0  0.96271  0.37243  0.98984  1.0000
  C   C1357     1.0  0.98036  0.27256  0.66284  1.0000
  C   C1358     1.0  0.61245  0.17862  0.83171  1.0000
  H   H1080     1.0  0.82728  0.30728  0.72260  1.0000
  S   S202      1.0  0.83024  0.14398  0.81244  1.0000
  S   S203      1.0  0.77167  0.17985  0.78182  1.0000
  C   C1359     1.0  0.89450  0.17008  0.84370  1.0000
  C   C1360     1.0  0.59013  0.15615  0.82393  1.0000
  H   H1081     1.0  0.61134  0.20861  0.85078  1.0000
  C   C1361     1.0  0.84700  0.37211  0.97637  1.0000
  C   C1362     1.0  0.97040  0.36457  0.89075  1.0000
  H   H1082     1.0  0.92389  0.13794  0.79440  1.0000
  C   C1363     1.0  0.94973  0.31228  0.98815  1.0000
  H   H1083     1.0  0.92306  0.16789  0.84568  1.0000
  C   C1364     1.0  0.95969  0.44379  0.94612  1.0000
  C   C1365     1.0  0.97292  0.27196  0.80389  1.0000
  H   H1084     1.0  0.87582  0.27175  0.83376  1.0000
  H   H1085     1.0  0.87697  0.27392  0.80520  1.0000
  H   H1086     1.0  0.93841  0.27311  0.78616  1.0000
  H   H1087     1.0  0.83400  0.01192  0.84878  1.0000
  C   C1366     1.0  0.84928  0.44723  0.90446  1.0000
  H   H1088     1.0  0.79261  0.06565  0.67310  1.0000
  C   C1367     1.0  0.67400  0.09581  0.67011  1.0000
  H   H1089     1.0  0.59777  0.08473  0.78038  1.0000
  H   H1090     1.0  0.73405  0.26115  0.73958  1.0000
  S   S204      1.0  0.70894  0.23107  0.79359  1.0000
  S   S205      1.0  0.72650  0.22223  0.94543  1.0000
  C   C1368     1.0  0.50523  0.01485  0.72271  1.0000
  H   H1091     1.0  0.94775  0.19536  0.80414  1.0000
  C   C1369     1.0  0.74858  0.24755  0.73074  1.0000
  H   H1092     1.0  0.97749  0.46069  0.72289  1.0000
  H   H1093     1.0  0.83682  0.33146  0.94514  1.0000
  C   C1370     1.0  0.87012  0.18701  0.85357  1.0000
  H   H1094     1.0  0.52965  0.20722  0.69204  1.0000
  H   H1095     1.0  0.90010  0.14174  0.82401  1.0000
  C   C1371     1.0  0.73276  0.48585  0.80606  1.0000
  Fe  Fe105     1.0  0.94317  0.19628  0.87367  1.0000
  C   C1372     1.0  0.68368  0.34992  0.82995  1.0000
  C   C1373     1.0  0.66454  0.38055  0.82723  1.0000
  C   C1374     1.0  0.67034  0.41101  0.83496  1.0000
  C   C1375     1.0  0.69560  0.41098  0.84528  1.0000
  C   C1376     1.0  0.71500  0.38030  0.84801  1.0000
  C   C1377     1.0  0.70879  0.34968  0.84034  1.0000
  P   P47       1.0  0.74606  0.38004  0.86190  1.0000
  C   C1378     1.0  0.77968  0.42811  0.85566  1.0000
  C   C1379     1.0  0.71639  0.36945  0.88244  1.0000
  C   C1380     1.0  0.73465  0.36728  0.89529  1.0000
  C   C1381     1.0  0.71200  0.35736  0.91128  1.0000
  C   C1382     1.0  0.67093  0.34855  0.91459  1.0000
  C   C1383     1.0  0.65244  0.34978  0.90192  1.0000
  C   C1384     1.0  0.67501  0.36009  0.88590  1.0000
  H   H1096     1.0  0.96046  0.12913  0.76836  1.0000
  C   C1385     1.0  0.80820  0.37555  0.98165  1.0000
  C   C1386     1.0  0.79839  0.44426  0.83919  1.0000
  C   C1387     1.0  0.77404  0.34264  0.86059  1.0000
  C   C1388     1.0  0.76285  0.30701  0.87254  1.0000
  C   C1389     1.0  0.78685  0.28005  0.87257  1.0000
  C   C1390     1.0  0.82138  0.28764  0.86043  1.0000
  C   C1391     1.0  0.83159  0.32190  0.84802  1.0000
  C   C1392     1.0  0.80809  0.34924  0.84805  1.0000
  H   H1097     1.0  0.69971  0.43459  0.85130  1.0000
  H   H1098     1.0  0.72301  0.32542  0.84243  1.0000
  H   H1099     1.0  0.76646  0.37214  0.89294  1.0000
  H   H1100     1.0  0.72626  0.35517  0.92116  1.0000
  H   H1101     1.0  0.65351  0.33984  0.92700  1.0000
  H   H1102     1.0  0.62057  0.34185  0.90452  1.0000
  H   H1103     1.0  0.65996  0.35954  0.87637  1.0000
  H   H1104     1.0  0.53678  0.01834  0.71873  1.0000
  P   P48       1.0  0.96838  0.34829  0.69225  1.0000
  H   H1105     1.0  0.79267  0.42826  0.83032  1.0000
  H   H1106     1.0  0.73622  0.30021  0.88214  1.0000
  H   H1107     1.0  0.77934  0.25361  0.88228  1.0000
  H   H1108     1.0  0.84096  0.26771  0.86109  1.0000
  H   H1109     1.0  0.85909  0.32867  0.83888  1.0000
  H   H1110     1.0  0.81805  0.37612  0.83866  1.0000
  C   C1393     1.0  0.80909  0.46352  0.74101  1.0000
  H   H1111     1.0  0.78314  0.46064  0.80569  1.0000
  C   C1394     1.0  0.92086  0.14678  0.93769  1.0000
  C   C1395     1.0  0.95023  0.15970  0.78714  1.0000
  S   S206      1.0  0.88502  0.20494  0.86915  1.0000
  H   H1112     1.0  0.93662  0.27239  0.84317  1.0000
  S   S207      1.0  0.69407  0.25057  0.83466  1.0000
  H   H1113     1.0  0.89819  0.35912  0.91317  1.0000
  C   C1396     1.0  0.91234  0.16569  0.68484  1.0000
  H   H1114     1.0  0.56603  0.06003  0.74035  1.0000
  H   H1115     1.0  0.89839  0.09683  0.86849  1.0000
  H   H1116     1.0  0.57082  0.18851  0.79660  1.0000
  C   C1397     1.0  0.75903  0.22328  0.98339  1.0000
  H   H1117     1.0  0.67104  0.14279  0.70987  1.0000
  H   H1118     1.0  0.74257  0.47552  0.76209  1.0000
  Fe  Fe106     1.0  0.70824  0.16780  0.79494  1.0000
  C   C1398     1.0  0.83329  0.19019  0.85090  1.0000
  C   C1399     1.0  0.65464  0.11275  0.71548  1.0000
  C   C1400     1.0  0.84404  0.37781  0.91449  1.0000
  C   C1401     1.0  0.66707  0.06302  0.79992  1.0000
  C   C1402     1.0  0.84542  0.16010  0.82838  1.0000
  C   C1403     1.0  0.82131  0.17750  0.83813  1.0000
  H   H1119     1.0  0.79898  0.06599  0.84556  1.0000
  C   C1404     1.0  0.93511  0.27234  0.93265  1.0000
  C   C1405     1.0  0.85021  0.08767  0.92015  1.0000
  S   S208      1.0  0.88293  0.38507  0.98660  1.0000
  S   S209      1.0  0.94803  0.13719  0.88661  1.0000
  H   H1120     1.0  0.61325  0.01586  0.69887  1.0000
  C   C1406     1.0  0.61355  0.06728  0.78707  1.0000
  C   C1407     1.0  0.96369  0.19259  0.79259  1.0000
  C   C1408     1.0  0.80277  0.45432  0.72677  1.0000
  H   H1121     1.0  0.88424  0.45339  0.75289  1.0000
  C   C1409     1.0  0.84802  0.32008  0.71089  1.0000
  C   C1410     1.0  0.98719  0.33245  0.88966  1.0000
  C   C1411     1.0  0.61653  0.10500  0.72543  1.0000
  C   C1412     1.0  0.59548  0.06617  0.73251  1.0000
  C   C1413     1.0  0.96466  0.29121  0.67447  1.0000
  H   H1122     1.0  0.72766  0.02123  0.76670  1.0000
  H   H1123     1.0  0.84651  0.10612  0.97193  1.0000
  H   H1124     1.0  0.59480  0.23641  0.67323  1.0000
  H   H1125     1.0  0.84987  0.35472  0.67157  1.0000
  C   C1414     1.0  0.85736  0.35720  0.96288  1.0000
  H   H1126     1.0  0.59210  0.01151  0.83263  1.0000
  C   C1415     1.0  0.84378  0.04771  0.92053  1.0000
  H   H1127     1.0  0.89486  0.30738  0.93965  1.0000
  C   C1416     1.0  0.64351  0.29668  0.96901  1.0000
  H   H1128     1.0  0.85686  0.09758  0.93039  1.0000
  H   H1129     1.0  0.70150  0.08854  0.70507  1.0000
  H   H1130     1.0  0.89820  0.31783  0.72040  1.0000
  H   H1131     1.0  0.85359  0.14597  0.90615  1.0000
  C   C1417     1.0  0.98955  0.42285  0.67084  1.0000
  C   C1418     1.0  0.78373  0.05303  0.75047  1.0000
  C   C1419     1.0  0.89668  0.07996  0.85957  1.0000
  H   H1132     1.0  0.79427  0.40404  0.91493  1.0000
  H   H1133     1.0  0.59354  0.32016  0.96552  1.0000
  C   C1420     1.0  0.83413  0.33085  0.69724  1.0000
  C   C1421     1.0  0.56063  0.05666  0.82722  1.0000
  C   C1422     1.0  0.67191  0.08172  0.71273  1.0000
  H   H1134     1.0  0.94747  0.50221  0.74591  1.0000
  C   C1423     1.0  0.53374  0.20535  0.67965  1.0000
  C   C1424     1.0  0.61251  0.03510  0.72960  1.0000
  C   C1425     1.0  0.57434  0.17903  0.77297  1.0000
  H   H1135     1.0  0.62151  0.06126  0.66678  1.0000
  H   H1136     1.0  0.72113  0.04061  0.68461  1.0000
  S   S210      1.0  0.96611  0.38643  0.80215  1.0000
  C   C1426     1.0  0.97652  0.32537  0.71140  1.0000
  H   H1137     1.0  0.69253  0.07721  0.80328  1.0000
  H   H1138     1.0  0.79642  0.02755  0.75152  1.0000
  C   C1427     1.0  0.65098  0.04265  0.71981  1.0000
  C   C1428     1.0  0.82610  0.40925  0.91153  1.0000
  C   C1429     1.0  0.92447  0.18686  0.69546  1.0000
  C   C1430     1.0  0.65522  0.02168  0.80374  1.0000
  C   C1431     1.0  0.75822  0.08525  0.88125  1.0000
  H   H1139     1.0  0.93501  0.28019  0.91998  1.0000
  C   C1432     1.0  0.77979  0.07590  0.85439  1.0000
  H   H1140     1.0  0.81292  0.02407  0.71974  1.0000
  C   C1433     1.0  0.56236  0.15329  0.76386  1.0000
  C   C1434     1.0  0.65321  0.06975  0.66296  1.0000
  H   H1141     1.0  0.70507  0.12363  0.85650  1.0000
  C   C1435     1.0  0.56371  0.01778  0.83209  1.0000
  C   C1436     1.0  0.97481  0.48401  0.94380  1.0000
  C   C1437     1.0  0.75119  0.09409  0.84954  1.0000
  H   H1142     1.0  0.65807  0.10727  0.67936  1.0000
  C   C1438     1.0  0.86170  0.05339  0.86043  1.0000
  C   C1439     1.0  0.83210  0.06168  0.89373  1.0000
  C   C1440     1.0  0.98035  0.38862  0.90081  1.0000
  H   H1143     1.0  0.96481  0.06600  0.91769  1.0000
  C   C1441     1.0  0.71515  0.10833  0.66479  1.0000
  H   H1144     1.0  0.86946  0.17804  0.97898  1.0000
  C   C1442     1.0  0.86070  0.03253  0.84841  1.0000
  H   H1145     1.0  0.95467  0.07003  0.82513  1.0000
  H   H1146     1.0  0.94397  0.39711  0.93488  1.0000
  S   S211      1.0  0.97017  0.22817  0.88990  1.0000
  H   H1147     1.0  0.75873  0.20192  0.97618  1.0000
  H   H1148     1.0  0.77329  0.43900  0.87956  1.0000
  C   C1443     1.0  0.92874  0.06510  0.83495  1.0000
  C   C1444     1.0  0.72367  0.22762  0.99248  1.0000
  C   C1445     1.0  0.95603  0.23467  0.95434  1.0000
  C   C1446     1.0  0.91200  0.28724  0.94381  1.0000
  H   H1149     1.0  0.91560  0.10377  0.95970  1.0000
  C   C1447     1.0  0.53028  0.15949  0.84216  1.0000
  C   C1448     1.0  0.55277  0.18196  0.84992  1.0000
  C   C1449     1.0  0.92991  0.08587  0.84685  1.0000
  H   H1150     1.0  0.58710  0.07973  0.82399  1.0000
  C   C1450     1.0  0.93247  0.24927  0.96570  1.0000
  H   H1151     1.0  0.81110  0.47712  0.71560  1.0000
  C   C1451     1.0  0.66416  0.28300  0.98010  1.0000
  C   C1452     1.0  0.79480  0.24684  0.98341  1.0000
  C   C1453     1.0  0.98803  0.32450  0.67700  1.0000
  H   H1152     1.0  0.52862  0.09613  0.76463  1.0000
  C   C1454     1.0  0.76695  0.46614  0.78297  1.0000
  P   P49       1.0  0.81866  0.04522  0.87694  1.0000
  H   H1153     1.0  0.82321  0.29104  0.99348  1.0000
  C   C1455     1.0  0.88860  0.32604  0.70953  1.0000
  H   H1154     1.0  0.57230  0.16192  0.75081  1.0000
  C   C1456     1.0  0.53815  0.13005  0.79777  1.0000
  C   C1457     1.0  0.60104  0.02633  0.79130  1.0000
  H   H1155     1.0  0.83541  0.47168  0.90225  1.0000
  C   C1458     1.0  0.60937  0.30946  0.97418  1.0000
  H   H1156     1.0  0.80015  0.38767  0.99192  1.0000
  C   C1459     1.0  0.81525  0.48592  0.86174  1.0000
  C   C1460     1.0  0.53781  0.11625  0.77163  1.0000
  H   H1157     1.0  0.64491  0.38038  0.81927  1.0000
  C   C1461     1.0  0.95933  0.19821  0.98987  1.0000
  C   C1462     1.0  0.86072  0.34656  0.68216  1.0000
  H   H1158     1.0  0.93340  0.16516  0.67403  1.0000
  H   H1159     1.0  0.75996  0.08163  0.89368  1.0000
  H   H1160     1.0  0.97445  0.23386  0.92928  1.0000
  H   H1161     1.0  0.96012  0.37001  0.72324  1.0000
  H   H1162     1.0  0.71124  0.11565  0.88465  1.0000
  H   H1163     1.0  0.95643  0.10722  0.84609  1.0000
  H   H1164     1.0  0.74999  0.36654  0.97745  1.0000
  H   H1165     1.0  0.65459  0.29775  0.95634  1.0000
  C   C1463     1.0  0.85605  0.18355  0.99037  1.0000
  H   H1166     1.0  0.82200  0.24387  0.97605  1.0000
  C   C1464     1.0  0.98487  0.46406  0.88065  1.0000
  C   C1465     1.0  0.80746  0.04633  0.69568  1.0000
  H   H1167     1.0  0.96681  0.33677  0.74978  1.0000
  C   C1466     1.0  0.98337  0.49328  0.91488  1.0000
  H   H1168     1.0  0.68026  0.01369  0.74825  1.0000
  C   C1467     1.0  0.94334  0.15749  0.99383  1.0000
  C   C1468     1.0  0.97223  0.27244  0.81999  1.0000
  C   C1469     1.0  0.70626  0.49782  0.79743  1.0000
  C   C1470     1.0  0.96914  0.45273  0.91710  1.0000
  H   H1169     1.0  0.59371  0.20761  0.76699  1.0000
  C   C1471     1.0  0.99337  0.40010  0.68533  1.0000
  C   C1472     1.0  0.59603  0.30888  0.99047  1.0000
  C   C1473     1.0  0.79277  0.02795  0.71214  1.0000
  C   C1474     1.0  0.75207  0.01442  0.71879  1.0000
  C   C1475     1.0  0.97266  0.32351  0.73969  1.0000
  C   C1476     1.0  0.95672  0.42822  0.93284  1.0000
  H   H1170     1.0  0.97665  0.49602  0.95415  1.0000
  C   C1477     1.0  0.83474  0.50095  0.84541  1.0000
  C   C1478     1.0  0.74018  0.47813  0.77437  1.0000
  C   C1479     1.0  0.88590  0.47898  0.75780  1.0000
  C   C1480     1.0  0.70988  0.49381  0.78161  1.0000
  H   H1171     1.0  0.99789  0.27064  0.82464  1.0000
  C   C1481     1.0  0.96582  0.46383  0.86807  1.0000
  C   C1482     1.0  0.98664  0.28872  0.71375  1.0000
  H   H1172     1.0  0.89301  0.02254  0.82643  1.0000
  H   H1173     1.0  0.82202  0.49364  0.74070  1.0000
  H   H1174     1.0  0.90805  0.48345  0.89548  1.0000
  H   H1175     1.0  0.99169  0.27444  0.70394  1.0000
  H   H1176     1.0  0.98499  0.27264  0.75371  1.0000
  C   C1483     1.0  0.98992  0.26984  0.72894  1.0000
  H   H1177     1.0  0.99246  0.33661  0.77744  1.0000
  H   H1178     1.0  0.59578  0.00511  0.73506  1.0000
  H   H1179     1.0  0.97009  0.48564  0.84277  1.0000
  S   S212      1.0  0.99984  0.20835  0.85462  1.0000
  C   C1484     1.0  0.00018  0.21211  0.98719  1.0000
  H   H1180     1.0  0.67150  0.00397  0.81012  1.0000
  C   C1485     1.0  0.62204  0.00330  0.79945  1.0000
  H   H1181     1.0  0.82214  0.50193  0.87049  1.0000
  C   C1486     1.0  0.99762  0.22121  0.78336  1.0000
  C   C1487     1.0  0.00004  0.48715  0.72105  1.0000
  H   H1182     1.0  0.68933  0.50309  0.77492  1.0000
  H   H1183     1.0  0.75907  0.57242  0.26623  1.0000
  C   C1488     1.0  0.55243  0.95769  0.25556  1.0000
  C   C1489     1.0  0.82547  0.61462  0.04207  1.0000
  S   S213      1.0  0.95052  0.56261  0.31285  1.0000
  H   H1184     1.0  0.76923  0.70536  0.27482  1.0000
  H   H1185     1.0  0.51165  0.75184  0.30772  1.0000
  H   H1186     1.0  0.61293  0.94927  0.20561  1.0000
  H   H1187     1.0  0.64182  0.55271  0.04604  1.0000
  H   H1188     1.0  0.65872  0.56666  0.11027  1.0000
  H   H1189     1.0  0.83389  0.64467  0.30007  1.0000
  C   C1490     1.0  0.60090  0.54496  0.12610  1.0000
  C   C1491     1.0  0.60661  0.93248  0.16909  1.0000
  H   H1190     1.0  0.87694  0.52166  0.31012  1.0000
  C   C1492     1.0  0.53296  0.96487  0.14735  1.0000
  H   H1191     1.0  0.71312  0.52355  0.29003  1.0000
  S   S214      1.0  0.87887  0.56625  0.12697  1.0000
  C   C1493     1.0  0.82096  0.55440  0.24136  1.0000
  H   H1192     1.0  0.54321  0.99334  0.16587  1.0000
  C   C1494     1.0  0.88593  0.64824  0.30912  1.0000
  H   H1193     1.0  0.54187  0.92681  0.25641  1.0000
  H   H1194     1.0  0.57441  0.65891  0.28016  1.0000
  C   C1495     1.0  0.93563  0.55864  0.07010  1.0000
  H   H1195     1.0  0.97096  0.69036  0.23101  1.0000
  H   H1196     1.0  0.76794  0.53282  0.10027  1.0000
  C   C1496     1.0  0.56181  0.52591  0.12792  1.0000
  C   C1497     1.0  0.86940  0.56447  0.05512  1.0000
  S   S215      1.0  0.54987  0.81549  0.20159  1.0000
  H   H1197     1.0  0.52866  0.58229  0.28554  1.0000
  H   H1198     1.0  0.63391  0.62389  0.08063  1.0000
  C   C1498     1.0  0.96304  0.55337  0.20896  1.0000
  C   C1499     1.0  0.92858  0.56197  0.08613  1.0000
  H   H1199     1.0  0.56387  0.96538  0.14298  1.0000
  C   C1500     1.0  0.96779  0.53504  0.28541  1.0000
  C   C1501     1.0  0.52687  0.63957  0.30202  1.0000
  C   C1502     1.0  0.64956  0.99637  0.16585  1.0000
  H   H1200     1.0  0.52009  0.85662  0.26730  1.0000
  C   C1503     1.0  0.56477  0.82865  0.29719  1.0000
  H   H1201     1.0  0.80664  0.60080  0.08704  1.0000
  C   C1504     1.0  0.52014  0.52408  0.18410  1.0000
  C   C1505     1.0  0.76990  0.56099  0.27650  1.0000
  C   C1506     1.0  0.80967  0.57408  0.04719  1.0000
  C   C1507     1.0  0.61715  0.54103  0.09809  1.0000
  C   C1508     1.0  0.76426  0.50850  0.13701  1.0000
  H   H1202     1.0  0.61286  0.95396  0.25331  1.0000
  C   C1509     1.0  0.60368  0.83762  0.28782  1.0000
  C   C1510     1.0  0.82296  0.60340  0.32313  1.0000
  C   C1511     1.0  0.77760  0.59115  0.08523  1.0000
  H   H1203     1.0  0.62628  0.64729  0.29414  1.0000
  H   H1204     1.0  0.62723  0.83282  0.29355  1.0000
  C   C1512     1.0  0.99530  0.58521  0.20111  1.0000
  C   C1513     1.0  0.82768  0.55524  0.12956  1.0000
  H   H1205     1.0  0.83739  0.52842  0.09194  1.0000
  C   C1514     1.0  0.99492  0.60157  0.08078  1.0000
  C   C1515     1.0  0.74594  0.53929  0.13291  1.0000
  C   C1516     1.0  0.76843  0.57801  0.12744  1.0000
  C   C1517     1.0  0.80916  0.58598  0.12581  1.0000
  H   H1206     1.0  0.90065  0.54787  0.09471  1.0000
  C   C1518     1.0  0.86306  0.63022  0.04357  1.0000
  H   H1207     1.0  0.75435  0.60187  0.12428  1.0000
  H   H1208     1.0  0.82643  0.61596  0.12144  1.0000
  H   H1209     1.0  0.57993  0.89963  0.19372  1.0000
  H   H1210     1.0  0.99839  0.54703  0.28437  1.0000
  H   H1211     1.0  0.54113  0.72229  0.28685  1.0000
  C   C1519     1.0  0.93876  0.53788  0.29837  1.0000
  C   C1520     1.0  0.56644  0.64793  0.29319  1.0000
  C   C1521     1.0  0.59244  0.97306  0.25375  1.0000
  H   H1212     1.0  0.97981  0.51221  0.26426  1.0000
  C   C1522     1.0  0.75602  0.55272  0.09259  1.0000
  C   C1523     1.0  0.98725  0.73250  0.20791  1.0000
  H   H1213     1.0  0.55869  0.81747  0.31016  1.0000
  C   C1524     1.0  0.83150  0.54912  0.05370  1.0000
  C   C1525     1.0  0.74382  0.53341  0.28989  1.0000
  H   H1214     1.0  0.70555  0.53045  0.05277  1.0000
  H   H1215     1.0  0.78052  0.56176  0.04614  1.0000
  C   C1526     1.0  0.57732  0.52420  0.09974  1.0000
  H   H1216     1.0  0.58830  0.87173  0.25080  1.0000
  C   C1527     1.0  0.63203  0.61913  0.06890  1.0000
  P   P50       1.0  0.89784  0.53154  0.06285  1.0000
  C   C1528     1.0  0.82179  0.57184  0.21297  1.0000
  H   H1217     1.0  0.79244  0.59219  0.32345  1.0000
  C   C1529     1.0  0.59948  0.92635  0.18588  1.0000
  H   H1218     1.0  0.52033  0.69849  0.16961  1.0000
  H   H1219     1.0  0.74174  0.56852  0.16190  1.0000
  C   C1530     1.0  0.52599  0.98222  0.25597  1.0000
  C   C1531     1.0  0.00216  0.59871  0.06478  1.0000
  C   C1532     1.0  0.58195  0.85983  0.26377  1.0000
  H   H1220     1.0  0.97169  0.57370  0.24303  1.0000
  H   H1221     1.0  0.60881  0.61945  0.32386  1.0000
  C   C1533     1.0  0.69664  0.51870  0.17693  1.0000
  H   H1222     1.0  0.90433  0.67124  0.29885  1.0000
  S   S216      1.0  0.58401  0.89658  0.16058  1.0000
  Fe  Fe107     1.0  0.90334  0.51229  0.12972  1.0000
  C   C1534     1.0  0.55004  0.51573  0.11471  1.0000
  H   H1223     1.0  0.86226  0.50885  0.20516  1.0000
  H   H1224     1.0  0.67577  0.52352  0.16970  1.0000
  H   H1225     1.0  0.90409  0.54343  0.16200  1.0000
  C   C1535     1.0  0.97819  0.66220  0.21130  1.0000
  C   C1536     1.0  0.52423  0.96682  0.21767  1.0000
  C   C1537     1.0  0.83623  0.61134  0.21229  1.0000
  C   C1538     1.0  0.84257  0.62256  0.22617  1.0000
  C   C1539     1.0  0.83435  0.59427  0.24090  1.0000
  C   C1540     1.0  0.53410  0.83454  0.28984  1.0000
  P   P51       1.0  0.84342  0.60842  0.25882  1.0000
  C   C1541     1.0  0.80969  0.57369  0.27639  1.0000
  C   C1542     1.0  0.89419  0.60941  0.25902  1.0000
  C   C1543     1.0  0.91372  0.63455  0.26684  1.0000
  C   C1544     1.0  0.95406  0.63863  0.26560  1.0000
  H   H1226     1.0  0.93492  0.55228  0.20606  1.0000
  C   C1545     1.0  0.95553  0.59108  0.24947  1.0000
  C   C1546     1.0  0.91520  0.58689  0.25065  1.0000
  C   C1547     1.0  0.55775  0.99769  0.21329  1.0000
  H   H1227     1.0  0.91421  0.61785  0.05097  1.0000
  H   H1228     1.0  0.61581  0.67392  0.06132  1.0000
  H   H1229     1.0  0.63776  0.97230  0.14608  1.0000
  C   C1548     1.0  0.82279  0.55876  0.28994  1.0000
  C   C1549     1.0  0.83563  0.65734  0.25838  1.0000
  C   C1550     1.0  0.80107  0.66308  0.26779  1.0000
  C   C1551     1.0  0.79593  0.70113  0.26753  1.0000
  C   C1552     1.0  0.82522  0.73372  0.25792  1.0000
  C   C1553     1.0  0.85972  0.72832  0.24856  1.0000
  C   C1554     1.0  0.86495  0.69035  0.24878  1.0000
  H   H1230     1.0  0.87533  0.66165  0.03965  1.0000
  C   C1555     1.0  0.53305  0.72143  0.27562  1.0000
  H   H1231     1.0  0.84248  0.63334  0.20099  1.0000
  H   H1232     1.0  0.85391  0.65331  0.22527  1.0000
  H   H1233     1.0  0.97877  0.57615  0.04691  1.0000
  H   H1234     1.0  0.89801  0.65157  0.27366  1.0000
  C   C1556     1.0  0.95806  0.58360  0.09137  1.0000
  C   C1557     1.0  0.84638  0.63327  0.30983  1.0000
  C   C1558     1.0  0.62176  0.64752  0.05800  1.0000
  H   H1235     1.0  0.90078  0.56607  0.24503  1.0000
  C   C1559     1.0  0.97508  0.61736  0.25669  1.0000
  H   H1236     1.0  0.98761  0.75762  0.21312  1.0000
  H   H1237     1.0  0.77817  0.64699  0.07014  1.0000
  H   H1238     1.0  0.61036  0.55233  0.13638  1.0000
  H   H1239     1.0  0.85314  0.56843  0.29022  1.0000
  H   H1240     1.0  0.77805  0.63847  0.27544  1.0000
  C   C1560     1.0  0.94809  0.61315  0.17828  1.0000
  H   H1241     1.0  0.82122  0.76318  0.25775  1.0000
  H   H1242     1.0  0.88255  0.75360  0.24118  1.0000
  H   H1243     1.0  0.89204  0.68678  0.24152  1.0000
  C   C1561     1.0  0.97766  0.69458  0.21800  1.0000
  C   C1562     1.0  0.54786  0.75430  0.26248  1.0000
  H   H1244     1.0  0.71200  0.62505  0.06615  1.0000
  C   C1563     1.0  0.50631  0.51439  0.20090  1.0000
  C   C1564     1.0  0.90890  0.56966  0.16639  1.0000
  C   C1565     1.0  0.61903  0.64179  0.04286  1.0000
  C   C1566     1.0  0.54312  0.85086  0.27313  1.0000
  H   H1245     1.0  0.58051  0.99668  0.21978  1.0000
  C   C1567     1.0  0.91087  0.51589  0.03220  1.0000
  H   H1246     1.0  0.79129  0.55521  0.17711  1.0000
  H   H1247     1.0  0.95249  0.58600  0.10376  1.0000
  H   H1248     1.0  0.96928  0.65847  0.27144  1.0000
  H   H1249     1.0  0.93278  0.64390  0.32099  1.0000
  C   C1568     1.0  0.59594  0.64113  0.30104  1.0000
  C   C1569     1.0  0.73399  0.54399  0.17246  1.0000
  H   H1250     1.0  0.51462  0.93330  0.13063  1.0000
  C   C1570     1.0  0.62848  0.55266  0.11123  1.0000
  H   H1251     1.0  0.64236  0.85998  0.26383  1.0000
  C   C1571     1.0  0.61226  0.85308  0.27111  1.0000
  H   H1252     1.0  0.56768  0.51608  0.08964  1.0000
  C   C1572     1.0  0.92376  0.63967  0.17605  1.0000
  C   C1573     1.0  0.89248  0.63125  0.16893  1.0000
  C   C1574     1.0  0.88527  0.59638  0.16399  1.0000
  C   C1575     1.0  0.92246  0.51296  0.04674  1.0000
  H   H1253     1.0  0.62402  0.60302  0.02694  1.0000
  H   H1254     1.0  0.54833  0.77977  0.23781  1.0000
  H   H1255     1.0  0.81900  0.51773  0.05744  1.0000
  P   P52       1.0  0.99113  0.62574  0.18583  1.0000
  C   C1576     1.0  0.61807  0.95465  0.19263  1.0000
  C   C1577     1.0  0.93993  0.57768  0.17363  1.0000
  C   C1578     1.0  0.99753  0.73804  0.19113  1.0000
  C   C1579     1.0  0.50805  0.68770  0.27424  1.0000
  C   C1580     1.0  0.88505  0.60526  0.05004  1.0000
  H   H1256     1.0  0.80853  0.63392  0.03701  1.0000
  H   H1257     1.0  0.56727  0.78011  0.26356  1.0000
  S   S217      1.0  0.51477  0.70459  0.20354  1.0000
  H   H1258     1.0  0.51029  0.52465  0.27504  1.0000
  C   C1581     1.0  0.65383  0.50358  0.07260  1.0000
  S   S218      1.0  0.69524  0.53079  0.13422  1.0000
  P   P53       1.0  0.65277  0.54862  0.07906  1.0000
  H   H1259     1.0  0.92931  0.66731  0.17939  1.0000
  H   H1260     1.0  0.87457  0.65229  0.16676  1.0000
  H   H1261     1.0  0.86214  0.59047  0.15784  1.0000
  C   C1582     1.0  0.63186  0.96749  0.15908  1.0000
  C   C1583     1.0  0.81400  0.54341  0.22752  1.0000
  C   C1584     1.0  0.63994  0.58488  0.06468  1.0000
  C   C1585     1.0  0.70180  0.56596  0.08117  1.0000
  C   C1586     1.0  0.72377  0.60453  0.07360  1.0000
  C   C1587     1.0  0.76145  0.61711  0.07576  1.0000
  C   C1588     1.0  0.00243  0.52362  0.22525  1.0000
  H   H1262     1.0  0.61099  0.66377  0.03442  1.0000
  C   C1589     1.0  0.71826  0.54020  0.09067  1.0000
  C   C1590     1.0  0.63675  0.57913  0.04951  1.0000
  C   C1591     1.0  0.62644  0.60759  0.03863  1.0000
  C   C1592     1.0  0.95730  0.51488  0.27411  1.0000
  H   H1263     1.0  0.70151  0.51065  0.09694  1.0000
  H   H1264     1.0  0.51013  0.55018  0.16141  1.0000
  H   H1265     1.0  0.50524  0.72025  0.23503  1.0000
  H   H1266     1.0  0.81698  0.56331  0.20218  1.0000
  C   C1593     1.0  0.68352  0.50374  0.05918  1.0000
  H   H1267     1.0  0.54087  0.51807  0.13964  1.0000
  C   C1594     1.0  0.80524  0.51646  0.13525  1.0000
  Fe  Fe108     1.0  0.53694  0.85112  0.17988  1.0000
  C   C1595     1.0  0.97258  0.57771  0.05940  1.0000
  H   H1268     1.0  0.52080  0.94177  0.22762  1.0000
  H   H1269     1.0  0.88634  0.52865  0.03040  1.0000
  C   C1596     1.0  0.58618  0.62549  0.31775  1.0000
  S   S219      1.0  0.96815  0.51563  0.12471  1.0000
  C   C1597     1.0  0.98916  0.66750  0.19449  1.0000
  H   H1270     1.0  0.95848  0.55683  0.17502  1.0000
  H   H1271     1.0  0.80276  0.51273  0.22807  1.0000
  C   C1598     1.0  0.96677  0.52268  0.22092  1.0000
  C   C1599     1.0  0.99846  0.70567  0.18443  1.0000
  C   C1600     1.0  0.53735  0.75407  0.24795  1.0000
  C   C1601     1.0  0.50514  0.94679  0.14037  1.0000
  C   C1602     1.0  0.51738  0.62348  0.31881  1.0000
  H   H1272     1.0  0.71772  0.50980  0.22605  1.0000
  Fe  Fe109     1.0  0.50473  0.76612  0.19894  1.0000
  C   C1603     1.0  0.90203  0.63318  0.32163  1.0000
  H   H1273     1.0  0.54702  0.51660  0.17860  1.0000
  C   C1604     1.0  0.76179  0.53661  0.18114  1.0000
  C   C1605     1.0  0.89945  0.51984  0.30013  1.0000
  H   H1274     1.0  0.81597  0.53172  0.25239  1.0000
  C   C1606     1.0  0.64268  0.98997  0.18265  1.0000
  H   H1275     1.0  0.72221  0.52274  0.25241  1.0000
  H   H1276     1.0  0.97094  0.63316  0.21922  1.0000
  C   C1607     1.0  0.75193  0.50435  0.19454  1.0000
  H   H1277     1.0  0.80717  0.51791  0.31345  1.0000
  C   C1608     1.0  0.75739  0.51794  0.30315  1.0000
  C   C1609     1.0  0.79678  0.53057  0.30319  1.0000
  C   C1610     1.0  0.51271  0.72061  0.24644  1.0000
  C   C1611     1.0  0.54696  0.61673  0.32660  1.0000
  C   C1612     1.0  0.52096  0.98073  0.16042  1.0000
  H   H1278     1.0  0.50759  0.85740  0.32754  1.0000
  H   H1279     1.0  0.68235  0.58630  0.37197  1.0000
  C   C1613     1.0  0.87890  0.60326  0.33485  1.0000
  H   H1280     1.0  0.94999  0.52404  0.58379  1.0000
  C   C1614     1.0  0.83380  0.60172  0.37177  1.0000
  C   C1615     1.0  0.67832  0.54887  0.35568  1.0000
  H   H1281     1.0  0.64725  0.54739  0.35666  1.0000
  C   C1616     1.0  0.92479  0.54379  0.42341  1.0000
  C   C1617     1.0  0.73780  0.57130  0.36377  1.0000
  C   C1618     1.0  0.75763  0.54931  0.35463  1.0000
  H   H1282     1.0  0.96279  0.65141  0.39612  1.0000
  H   H1283     1.0  0.89659  0.56257  0.54487  1.0000
  C   C1619     1.0  0.73750  0.52766  0.34580  1.0000
  H   H1284     1.0  0.87851  0.52586  0.33748  1.0000
  C   C1620     1.0  0.81672  0.53232  0.38498  1.0000
  C   C1621     1.0  0.83909  0.58829  0.33577  1.0000
  C   C1622     1.0  0.99667  0.56254  0.36792  1.0000
  H   H1285     1.0  0.96084  0.57189  0.59998  1.0000
  H   H1286     1.0  0.83674  0.62563  0.36143  1.0000
  H   H1287     1.0  0.93656  0.50768  0.44405  1.0000
  H   H1288     1.0  0.91726  0.56082  0.62744  1.0000
  H   H1289     1.0  0.75240  0.58804  0.37077  1.0000
  H   H1290     1.0  0.84251  0.58688  0.41055  1.0000
  S   S220      1.0  0.54033  0.95456  0.65213  1.0000
  C   C1623     1.0  0.82411  0.54109  0.39913  1.0000
  H   H1291     1.0  0.92112  0.57897  0.40098  1.0000
  P   P54       1.0  0.80916  0.55083  0.35333  1.0000
  C   C1624     1.0  0.93710  0.69646  0.36299  1.0000
  C   C1625     1.0  0.69821  0.57085  0.36434  1.0000
  H   H1292     1.0  0.92813  0.53322  0.52351  1.0000
  C   C1626     1.0  0.98100  0.57351  0.40023  1.0000
  C   C1627     1.0  0.69798  0.52744  0.34636  1.0000
  H   H1293     1.0  0.88041  0.52662  0.57360  1.0000
  C   C1628     1.0  0.91192  0.53998  0.62023  1.0000
  C   C1629     1.0  0.95783  0.51944  0.35577  1.0000
  C   C1630     1.0  0.82122  0.56244  0.37123  1.0000
  C   C1631     1.0  0.98904  0.53224  0.42458  1.0000
  H   H1294     1.0  0.75203  0.51024  0.33876  1.0000
  C   C1632     1.0  0.94062  0.56707  0.40760  1.0000
  H   H1295     1.0  0.99007  0.59017  0.46718  1.0000
  C   C1633     1.0  0.97388  0.63604  0.37310  1.0000
  H   H1296     1.0  0.93072  0.50978  0.35247  1.0000
  H   H1297     1.0  0.89231  0.59153  0.34426  1.0000
  C   C1634     1.0  0.95260  0.67611  0.35206  1.0000
  C   C1635     1.0  0.83702  0.58014  0.39953  1.0000
  H   H1298     1.0  0.68222  0.50988  0.33990  1.0000
  C   C1636     1.0  0.96127  0.54942  0.36388  1.0000
  H   H1299     1.0  0.89356  0.53839  0.42903  1.0000
  H   H1300     1.0  0.85179  0.64076  0.38615  1.0000
  H   H1301     1.0  0.64201  0.99063  0.46310  1.0000
  H   H1302     1.0  0.92948  0.70369  0.38726  1.0000
  C   C1637     1.0  0.97103  0.64609  0.35705  1.0000
  C   C1638     1.0  0.95901  0.65720  0.38393  1.0000
  H   H1303     1.0  0.93628  0.56217  0.36703  1.0000
  C   C1639     1.0  0.84209  0.61045  0.38582  1.0000
  H   H1304     1.0  0.95213  0.68484  0.33949  1.0000
  H   H1305     1.0  0.92384  0.72043  0.35895  1.0000
  C   C1640     1.0  0.90320  0.53405  0.54815  1.0000
  C   C1641     1.0  0.92074  0.51755  0.53612  1.0000
  H   H1306     1.0  0.53920  0.60370  0.33952  1.0000
  P   P55       1.0  0.00047  0.59956  0.37924  1.0000
  C   C1642     1.0  0.94032  0.68703  0.37893  1.0000
  C   C1643     1.0  0.94900  0.52639  0.43190  1.0000
  H   H1307     1.0  0.98459  0.63206  0.34817  1.0000
  C   C1644     1.0  0.93642  0.54627  0.60479  1.0000
  C   C1645     1.0  0.89440  0.51374  0.56440  1.0000
  H   H1308     1.0  0.63301  0.98686  0.49237  1.0000
  C   C1646     1.0  0.93029  0.51894  0.59562  1.0000
  Fe  Fe110     1.0  0.51602  0.97948  0.63156  1.0000
  H   H1309     1.0  0.67864  0.52695  0.40066  1.0000
  H   H1310     1.0  0.97625  0.51729  0.47410  1.0000
  H   H1311     1.0  0.81912  0.51739  0.40983  1.0000
  C   C1647     1.0  0.88082  0.50662  0.62637  1.0000
  H   H1312     1.0  0.50446  0.92023  0.33500  1.0000
  H   H1313     1.0  0.85710  0.52825  0.84151  1.0000
  H   H1314     1.0  0.53495  0.93576  0.68796  1.0000
  Fe  Fe111     1.0  0.55563  0.93415  0.79350  1.0000
  C   C1648     1.0  0.54192  0.82764  0.69943  1.0000
  C   C1649     1.0  0.67126  0.94970  0.69741  1.0000
  C   C1650     1.0  0.85621  0.51681  0.77495  1.0000
  C   C1651     1.0  0.66780  0.98274  0.74988  1.0000
  S   S221      1.0  0.54275  0.88846  0.74361  1.0000
  C   C1652     1.0  0.51882  0.90577  0.72888  1.0000
  S   S222      1.0  0.53317  0.87408  0.79023  1.0000
  H   H1315     1.0  0.56807  0.91074  0.70904  1.0000
  C   C1653     1.0  0.63142  0.94762  0.67812  1.0000
  C   C1654     1.0  0.89217  0.54459  0.77078  1.0000
  C   C1655     1.0  0.64008  0.91797  0.76782  1.0000
  H   H1316     1.0  0.95313  0.56044  0.75732  1.0000
  H   H1317     1.0  0.85145  0.97547  0.87987  1.0000
  H   H1318     1.0  0.70569  0.92948  0.89687  1.0000
  H   H1319     1.0  0.89498  0.56972  0.77600  1.0000
  C   C1656     1.0  0.92494  0.53957  0.76016  1.0000
  H   H1320     1.0  0.74773  0.88113  0.89694  1.0000
  P   P56       1.0  0.67302  0.00197  0.71704  1.0000
  C   C1657     1.0  0.99939  0.52194  0.71050  1.0000
  H   H1321     1.0  0.66427  0.96884  0.77534  1.0000
  H   H1322     1.0  0.69372  0.93941  0.70262  1.0000
  C   C1658     1.0  0.62612  0.99266  0.69541  1.0000
  C   C1659     1.0  0.00027  0.99910  0.89944  1.0000
  C   C1660     1.0  0.63163  0.90358  0.75487  1.0000
  C   C1661     1.0  0.73750  0.93958  0.89309  1.0000
  H   H1323     1.0  0.63139  0.89888  0.77994  1.0000
  C   C1662     1.0  0.65950  0.93379  0.68529  1.0000
  C   C1663     1.0  0.80222  0.92543  0.88836  1.0000
  C   C1664     1.0  0.79596  0.99326  0.88308  1.0000
  H   H1324     1.0  0.99110  0.51314  0.90299  1.0000
  H   H1325     1.0  0.61589  0.87332  0.75694  1.0000
  H   H1326     1.0  0.67270  0.91136  0.68121  1.0000
  C   C1665     1.0  0.54009  0.82259  0.71588  1.0000
  H   H1327     1.0  0.82061  0.90435  0.88847  1.0000
  H   H1328     1.0  0.94310  0.99934  0.91366  1.0000
  C   C1666     1.0  0.50375  0.80867  0.72733  1.0000
  H   H1329     1.0  0.56664  0.83085  0.71981  1.0000
  S   S223      1.0  0.55201  0.96541  0.76904  1.0000
  H   H1330     1.0  0.99041  0.97012  0.89769  1.0000
  C   C1667     1.0  0.81959  0.96573  0.88341  1.0000
  C   C1668     1.0  0.75478  0.97990  0.88817  1.0000
  C   C1669     1.0  0.51986  0.92902  0.70059  1.0000
  C   C1670     1.0  0.53842  0.91471  0.71250  1.0000
  H   H1331     1.0  0.63377  0.91701  0.72965  1.0000
  C   C1671     1.0  0.65839  0.95751  0.76527  1.0000
  C   C1672     1.0  0.66060  0.96831  0.73672  1.0000
  H   H1332     1.0  0.83152  0.52145  0.78324  1.0000
  H   H1333     1.0  0.56995  0.83967  0.69057  1.0000
  C   C1673     1.0  0.64191  0.92860  0.73934  1.0000
  C   C1674     1.0  0.65466  0.97929  0.70254  1.0000
  H   H1334     1.0  0.53346  0.95673  0.83881  1.0000
  H   H1335     1.0  0.59363  0.98813  0.67739  1.0000
  Fe  Fe112     1.0  0.52393  0.90604  0.76685  1.0000
  C   C1675     1.0  0.98661  0.50876  0.92819  1.0000
  C   C1676     1.0  0.92174  0.50680  0.75367  1.0000
  C   C1677     1.0  0.76119  0.91235  0.89315  1.0000
  S   S224      1.0  0.60676  0.95174  0.80412  1.0000
  H   H1336     1.0  0.73589  0.00049  0.88830  1.0000
  C   C1678     1.0  0.53061  0.98687  0.83563  1.0000
  H   H1337     1.0  0.50878  0.82180  0.68167  1.0000
  H   H1338     1.0  0.99759  0.54006  0.92644  1.0000
  C   C1679     1.0  0.61479  0.97695  0.68321  1.0000
  H   H1339     1.0  0.50348  0.80560  0.73991  1.0000
  H   H1340     1.0  0.97649  0.52244  0.70405  1.0000
  H   H1341     1.0  0.62299  0.93631  0.66839  1.0000
  H   H1342     1.0  0.68300  0.51032  0.80296  1.0000
  C   C1680     1.0  0.50747  0.81772  0.69443  1.0000
  H   H1343     1.0  0.74151  0.00010  0.73151  1.0000
  H   H1344     1.0  0.98949  0.00123  0.84194  1.0000
