data_image0
_chemical_formula_structural       HFeCHCSCSC3HCHSCH2C3HC2H2CH4PCHCH2FeC2HCHCSHFeH2CH5CH2C2SCHSHCHCH2SH2C5H2CHC4H2C5H2C11H2FeCH4C2H2CHCHFeHC2FeHC2HC4SC3H6CH3FePC3HC2SHCH2C2HC3H2C2HC3HC2HC3HSC2H3CSH5C2HCHCHCHC3HC2H5C2H2CHCHCHCH9CHSHFeHCH2SHFeC3SC2HC2SCHS2CH4C2HSH4CHFeCFe2CHSH2CHC2H2CSC2SH2C4HCHC4H3C2HC7FeCHCSFeC2HCPHCH2C3HSC2H3CFeC2HC2HCFeS3CHCHSHC2PCSC2H3CHCHFeHFeC2H2C3HC3FeCH3CH5CH2CFeC3HC3H2CH3C8H5CH2C5HCHC2S2C3H2SHCSHC2HC2H3CH2CHCH2CSH2PCFeS2H3C2FeS2FeSFeCHC2HC2FeS3CFeSFeS3C6H3CSCH2C5HC6H4C6H5C3FeCH3SH4C7PC6HC6PC2H8CHCH4CH4C3HC11PC3H2C3HC3HCH3C2H3C4H4CH3CSHC4HCPCHC3HCFeC3H2SHC2HC3H2C4HPC2H2CSC6H2C4HCH2C2H2CFeH7C5HC2HSC3H4CHSC2H2CH3C2SHSHC2HCHC2HSCFeHFeCSCPCH2PCH3CH3C4SHFeHCHSHC2HC3SCHSCHCH4FeCH2CH2CHC3HCFeCHCH2C2HCHC4HC2HCHCH2CH2C2H4CHC2HCHC3HCH4FeSHCSH2CPH2CHCFeSFeHSHFeSFeS2CHFeSC3HCHC8H4C2HC3HCHCH3C3HC4S2HSHCS2CHC4H3CH2C2HC3HCH2SH2C4H2C3HC7H3C4H2SHCH3C2H9C3HCHCHC2HCPC2HC2H3CH3CHC2HCHPH3CFeHC2HCH2C2FeHC4SC2HFeC3H2PH2C2HC6H2PC2H3CHCHCSHCH3CSC4H2C2SC2HCHCH2CSH2C2SFeSCFeS2FeSFeS5C6H4C6FeH3C6H3C2HC4HCSH2C2H3C5PC4H2C7HCSH4CH12C8H5CH2CH2CHCSC3H2C2H3C2PCHCH2FeC8HCFeC2H2C8PC8HC4HC3H6SH3CHC2H6CHCHC4HCHC2SHC6SCH4CH5C2HCH2CHCHFeCSCH2C2SHC6H5CHC2SHFeCH2C2HSC9HPH3CHC2H2PHC4H2FeC3HFeCH2CHC2H2C2H3C3H2CFeHCH2CH2CH2CHC4HFeS3FeSFeS4HSHCHCHC2HC4HCHC6H4C6H3C6HCHC4H2C2HCHCHPC2H2C2HC2H2C6PC9HC8HCH9PCH10C3PCHCHC7HFeH2CH2CH2SCH4CHCHC2HC2HPHCHC5HCHCHC13H2CSHC3HC2H4CH3CH2C2HCHCHC3HC3H2C2HCHSPC3HC4HCH2CH3C2HC2SH2C2H2CH2C6HCH2C3HC2H4C4HPC2H3CH2C2H5C2SC2HCHCH3CHCH2CHCHCHC2HC2H2CH2CHC2HSC2H2CHPHCSCH2CSHS2FeSH2C2FeSCFeHSHCFeSC4H2FeC4H2CSCH2C2H2SC3H2C6H6CH2CH4C3H2C2H2C6PC18H12SH7C6PC5SC12SH5S2HCH10C2HCHCHC2H2C9PCHC2Fe2CSH2C2H5FeHSCSCSCFeHC2FeCHCHCH2CHSHC2SHCH3C2H2SC3HSHFeC2H3C2SH5C2HSHCHSC3H2C2SCH2C5HC2HC3HC5H2CPC3HCSHCSC3HC2FeSC3HCHCFeS2FeSFeSFeS3C2HC4FeH2C3H2C7H4C6H6C2HC2H3CSH6PHC4H3C3HCHC2FeH3CSCHCH2CHCH2PC5PC13H3CH2CHSH5CH4CH2CH3CHC3HC4PCHCHC2FePC2FeHC3H3CHCH3C3H3CSC2HCHCHC3FeCHCHCPHC5H3CHCHCHCH3C3HCHCH2PHC2HCHC4HCSHCH3CSHC2HCHC2HC4H5C6HC4FeC4H2CHCH2CH2CSHCH3C2HC2H2C3HSH2CHC4H2C3HSHC2FeS2FeS2Fe2S3C4SCFeSHSHCFeHCSHSC5H2CSC4HCHFeCHC2HCH3C6H2C7H2C3H3CHSC3H3C6PC10H14C6PC3HCHPC7H5C2HCH7C4H2C2HCH3CSCH2C4H4CSH2SCHC2HCHC2HC2HCSHC7PC15H2CH15S3CHPC2HSH2CFeH3CHCHC5HC2HCH4CSFeC3HSCFeHC3HCH2CHC6HCSFeCH4C2HSHCHSH3CH3PH2CSCH5CH2CSCHC2H3C5H2C4FeH3CHC2HSHC2H2C3HC3HC4HCHSCHCHC2H3C3HC4PC3PC6H3CHC8H3CHC2H3CFeH2CHCHCH2CPHSHCHC2HC2FeC6H2C2HCFeC2H5CHC2HC2HCHCHC5SH2SH2C2H2C2HCH2CHFeHC3HC2H2C3H2C2HC2H2SC3SH3CH3CSC2SHC4HC4HC3HCHPCHCHCHCH3C2HFeHC3H6CHCHC3HPFeC2HCFeH3CH2C2HCH2CHC4HC3H2C3HCH3C2HCHSHC2HCHSC3HSHC4H2SCFeC6H2CHC4H2CH6P2C4SHC6H2FeCHCHSC2FeCSH4SCHFeHSHCS3FeS2FeS2CHFeS3CSHCFeCSCH2CS2HFeCH2C3SCH2CHC6H4CH2C2H2C6H5C6FeC9H4CHC3SHC3H3C6PC4SC13H7CH12C6H8C9H2C2HCHCFeH3C2PC16HCHFeCH13PC2H2C3H2CHC2SHSCPC4HPCHC2FeH2CHFeHFeSH2C2H2CSCHC2HC2HCH3C2H2C2HC4HFeHC2HC4PC2HCHCH4CHCHSH2C2HC3H5C3H2C2HC3H3C4HC5HCH5C3HCHCHC2HPCHC4H2C4HCH3C2H2CHC3SPCFeHSCSC3HCHCHCH3C7H4CHCHSCHCH2CFeHSC2HCH2C2H3C4SC2H3FeCHFeHSFeSH2SHS2HSCHC9H3SC3HC2H4PH2C4HCHC3H2CHC4H3SCHSCH2CHC7HCH2CHC3FeC4HCHCHC2HSH2C2HCHC4SHC5HC3HCHCHCFeC2H3CH2CHCH3C4HC8H3CPFeH2C5SC2HCH5P2CHCH3CH2C2H3C5SH3CH2C3H3SC3HCSHCH5CHFeS2FeS2FeSFeS3HCHC3FeSC2SCH2SHCHFeCSH4CSH2C2HC2H2C4H2CHCHC2H3CH2CHC6HCH2C6H4C6H4CH2CHC2H3C2H2C5PC9H3C7H2CH4CH6C4HCH2CHCHCHC5HCH2C7HCH2C2PHC6HC2H3CFeC6PCSC4H7CH4C5PC12HCHCH4CHC2H6CHCHC3H2C2HC4HCPC2SCH3C2PHC2H5C11HCHC2HC3HCH2C2HCHC6HCH5SCFeH2CH2C2H2CHCH3S2HFeC4HCSCSHC4H5C3H3CH3C2FeC2H6C3H2SCHSHCSHFeHSCHSCH2CHSC3SC2HPH3C3HC6H2CHFeH2C4HCH2CH2SC2SPC2H6C2H4C2H2CHCSHC7HCFeH2SH2C8HCHCHC2HC4SCH3CHCHCHC7HC3H3PH5C6PC8H2CHC6HCH9CHC2H5C2H2C2HCHCHFeH2CHCH3C2HC3SPC2H2C2HCHCHC3H3C3SH2CFeH2CSPHC2H3FeS2FeHSFeSFeS3FeS3FeS2HCFeS2H2FeSHSCHCH3CHC6H4C6H5CHSC3HCH3C2FeHC2H2SHCHFeH3FeH2C2H4C2H2CHC4HCSCHC2HCHC2H3CSC2PC12HC2H3C2H5CH6CH2C3HC2PC10H3CH3C6HCHC4HCSHCH2CH2CHCHCHCHC3FeCHC2HFeCSFeHSHCHSCH3CFeH4C3HCS2H2PCH2CHCSCH2C8HC3H2C2PCHC2HC7H2C5SHCH4C3H2CHC9H4CHCHCH2SC3HC3PC4HCPC3HC3HCHC6SHCH4C6H2SCHC2H3SC3H4CH2C3H3CH2C4H3CHC2HCH2CH3CH2CH6CH2SHSH2C2HC2HC2HCFeS2C4HFeCS2FeSFeHFeS2FeC2FeS2FeHCS2HCHC2H2C8H2CHC4HCH2CH2CHCHC2FeSH2C7H3C7H2C4FeSHC2HC2SC2H4SH2C2SC2H2C2PC9HCHC3H2PHSCHSHCHC7PC13H16CHC2HSHC2HCHC2FeSC3HC5SC5FeCSC3SHC2H2SC2HCHC5HC2H6C2H2C2H2CHCH2CFeC2HC2HSCPH2CH6FeHC2HCHCH4CH4C3H3FeCPCSHCH4C2HCSCHC3H2CSHCSC3H2CH2C2HCHSCH2SCFeH2CSPH2CH4FeH2C2HC2HPH2CH3CSCHC2FeCHCSC2HFeCFeHC2SH7C2HC3H5C2H2CSH8CH2C2HCHCH2CSCFeSCHCHC2HC3HSC2H2CHCHSC2HSC2FeC3HC2HCH2CHCH3C3SCH2C5HFeH2CHPC3HCH6CHCHC2HCH2C4HCH2CH2CHC2HCH2CH4C2HC6HC2HC4H2CSCHCHCFeC2HCHCHS2C7S2CH2SCH3FeHCSFeHC2PCHC3H3Fe2HC3HCHCPHC3HC2HCHSCSCFeH2CH3C2HCH2PFeCHCHCSC2HCHC2H2C6HCH3C6H3SH4CH3C4SH2SHFeSHFeCSHCH2CSH2CPCH3CSCHC4HC2PCSCSHCHFeC6H5C5Fe2H7C7SH3CHCH3C6HCHC3HC2HCH3C2SH2CSHC2HC4HCSHSHSH3SH2SHFeSCFeSFeHSH2FeHC2HPHCH3C7H4SFeH2FeCH3C3H2CHCHCH2CH2C3HC2HCFeHCH2SCFeCSHC4H3FeHCHCHCH2C3HCHSHC2HC5SCHC2HSH2PH2SC2HCHC3HC4H2SHCSC2HCHSCHC2SC4H3CH2Fe2HCH2C3HC2HCH2C3HCHCHSHCHC6SCPC2H3C3HC3HCHC3HCHCHCHC3H2C3HC3H2C2H2CH5CSHC2HC6HC3FeC2SFeHC2H6C2HC2HSH3CH2CHC2Fe2H5C2H3C2H3CHC3H2CPCHC3HCH4C4HCHPFeSC2S2C4SCHCHC2SPSH2CHCHC2HC3HSC3HPCFeH2CFeH4CSH
_chemical_formula_sum              "H2496 Fe208 C3120 S416 P104"
_cell_length_a       59.4435
_cell_length_b       60.3055
_cell_length_c       64.7442
_cell_angle_alpha    76.4349
_cell_angle_beta     76.451
_cell_angle_gamma    79.8255

_space_group_name_H-M_alt    "P 1"
_space_group_IT_number       1

loop_
  _space_group_symop_operation_xyz
  'x, y, z'

loop_
  _atom_site_type_symbol
  _atom_site_label
  _atom_site_symmetry_multiplicity
  _atom_site_fract_x
  _atom_site_fract_y
  _atom_site_fract_z
  _atom_site_occupancy
  H   H1        1.0  0.02785  0.26675  0.01987  1.0000
  Fe  Fe1       1.0  0.07047  0.28013  0.19387  1.0000
  C   C1        1.0  0.00674  0.21359  0.05459  1.0000
  H   H2        1.0  0.45606  0.02272  0.22150  1.0000
  C   C2        1.0  0.48998  0.01163  0.22961  1.0000
  S   S1        1.0  0.04156  0.25875  0.21046  1.0000
  C   C3        1.0  0.19879  0.28878  0.07402  1.0000
  S   S2        1.0  0.09300  0.26507  0.21845  1.0000
  C   C4        1.0  0.13109  0.28795  0.07899  1.0000
  C   C5        1.0  0.05571  0.21695  0.13548  1.0000
  C   C6        1.0  0.00052  0.20366  0.17781  1.0000
  H   H3        1.0  0.42430  0.05058  0.10599  1.0000
  C   C7        1.0  0.05010  0.24833  0.06579  1.0000
  H   H4        1.0  0.13967  0.30187  0.08017  1.0000
  S   S3        1.0  0.08784  0.28538  0.15850  1.0000
  C   C8        1.0  0.15682  0.19137  0.05263  1.0000
  H   H5        1.0  0.99897  0.99353  0.15467  1.0000
  H   H6        1.0  0.14427  0.29176  0.20611  1.0000
  C   C9        1.0  0.46616  0.98631  0.22261  1.0000
  C   C10       1.0  0.06296  0.25064  0.02104  1.0000
  C   C11       1.0  0.02785  0.20052  0.05820  1.0000
  H   H7        1.0  0.20521  0.27656  0.06342  1.0000
  C   C12       1.0  0.04779  0.27798  0.14829  1.0000
  C   C13       1.0  0.03325  0.27920  0.13374  1.0000
  H   H8        1.0  0.20244  0.26361  0.10317  1.0000
  H   H9        1.0  0.43682  0.01201  0.12637  1.0000
  C   C14       1.0  0.19208  0.31185  0.06531  1.0000
  H   H10       1.0  0.04252  0.27012  0.16514  1.0000
  H   H11       1.0  0.01679  0.27239  0.13942  1.0000
  H   H12       1.0  0.47460  0.03497  0.01796  1.0000
  H   H13       1.0  0.45044  0.98391  0.21822  1.0000
  P   P1        1.0  0.09436  0.22877  0.07361  1.0000
  C   C15       1.0  0.12247  0.28913  0.06041  1.0000
  H   H14       1.0  0.00799  0.20031  0.19218  1.0000
  C   C16       1.0  0.06075  0.19106  0.23611  1.0000
  H   H15       1.0  0.45391  0.07587  0.08443  1.0000
  H   H16       1.0  0.09719  0.23654  0.02646  1.0000
  Fe  Fe2       1.0  0.99323  0.08143  0.21423  1.0000
  C   C17       1.0  0.00089  0.02025  0.22965  1.0000
  C   C18       1.0  0.48314  0.05141  0.09280  1.0000
  H   H17       1.0  0.01620  0.02871  0.22712  1.0000
  C   C19       1.0  0.47346  0.01519  0.11613  1.0000
  H   H18       1.0  0.01751  0.19135  0.11322  1.0000
  C   C20       1.0  0.06792  0.22764  0.11549  1.0000
  S   S4        1.0  0.04014  0.14891  0.19470  1.0000
  H   H19       1.0  0.06712  0.16158  0.12880  1.0000
  Fe  Fe3       1.0  0.02681  0.28752  0.22810  1.0000
  H   H20       1.0  0.17446  0.99169  0.20468  1.0000
  H   H21       1.0  0.04674  0.22711  0.14744  1.0000
  C   C21       1.0  0.07301  0.24010  0.05669  1.0000
  H   H22       1.0  0.09183  0.19324  0.05046  1.0000
  H   H23       1.0  0.18769  0.29117  0.12743  1.0000
  H   H24       1.0  0.05866  0.19238  0.18381  1.0000
  H   H25       1.0  0.06633  0.30655  0.08783  1.0000
  H   H26       1.0  0.04786  0.18231  0.08214  1.0000
  C   C22       1.0  0.06118  0.29835  0.10455  1.0000
  H   H27       1.0  0.14536  0.21871  0.07015  1.0000
  H   H28       1.0  0.99479  0.16857  0.18181  1.0000
  C   C23       1.0  0.04888  0.16466  0.21059  1.0000
  C   C24       1.0  0.05705  0.18589  0.20101  1.0000
  S   S5        1.0  0.02106  0.29173  0.09419  1.0000
  C   C25       1.0  0.45940  0.05895  0.09328  1.0000
  H   H29       1.0  0.01643  0.26476  0.05965  1.0000
  S   S6        1.0  0.05367  0.31042  0.20907  1.0000
  H   H30       1.0  0.09233  0.30364  0.11320  1.0000
  C   C26       1.0  0.05515  0.19321  0.14007  1.0000
  H   H31       1.0  0.13446  0.26830  0.11080  1.0000
  C   C27       1.0  0.44271  0.04476  0.10540  1.0000
  H   H32       1.0  0.06784  0.24610  0.11208  1.0000
  H   H33       1.0  0.04472  0.24793  0.08300  1.0000
  S   S7        1.0  0.02790  0.08417  0.22086  1.0000
  H   H34       1.0  0.11504  0.23653  0.10810  1.0000
  H   H35       1.0  0.12184  0.16542  0.03349  1.0000
  C   C28       1.0  0.13993  0.20727  0.06217  1.0000
  C   C29       1.0  0.15032  0.17632  0.04226  1.0000
  C   C30       1.0  0.08004  0.21460  0.10003  1.0000
  C   C31       1.0  0.11702  0.25108  0.09464  1.0000
  C   C32       1.0  0.06733  0.18005  0.12493  1.0000
  H   H36       1.0  0.00392  0.21994  0.03817  1.0000
  H   H37       1.0  0.04543  0.18489  0.15542  1.0000
  C   C33       1.0  0.12688  0.17708  0.04153  1.0000
  H   H38       1.0  0.16345  0.16407  0.03480  1.0000
  C   C34       1.0  0.07978  0.19065  0.10498  1.0000
  C   C35       1.0  0.12832  0.26897  0.09613  1.0000
  C   C36       1.0  0.11636  0.20828  0.06135  1.0000
  C   C37       1.0  0.03156  0.19252  0.07936  1.0000
  H   H39       1.0  0.11708  0.29840  0.18108  1.0000
  H   H40       1.0  0.04137  0.19677  0.04455  1.0000
  C   C38       1.0  0.18891  0.29723  0.11013  1.0000
  C   C39       1.0  0.03988  0.28950  0.11189  1.0000
  C   C40       1.0  0.07590  0.29673  0.11897  1.0000
  C   C41       1.0  0.49036  0.02954  0.10440  1.0000
  C   C42       1.0  0.11124  0.27124  0.05884  1.0000
  H   H41       1.0  0.07161  0.01636  0.21623  1.0000
  H   H42       1.0  0.10474  0.27251  0.04426  1.0000
  C   C43       1.0  0.10995  0.19293  0.05108  1.0000
  C   C44       1.0  0.13393  0.30455  0.17535  1.0000
  C   C45       1.0  0.99310  0.18574  0.17191  1.0000
  C   C46       1.0  0.04026  0.25892  0.03021  1.0000
  C   C47       1.0  0.06310  0.98528  0.23913  1.0000
  C   C48       1.0  0.07941  0.24168  0.03412  1.0000
  C   C49       1.0  0.03387  0.25785  0.05256  1.0000
  C   C50       1.0  0.06284  0.19910  0.21374  1.0000
  C   C51       1.0  0.14936  0.30070  0.18946  1.0000
  C   C52       1.0  0.06920  0.28664  0.14086  1.0000
  C   C53       1.0  0.01424  0.19767  0.09697  1.0000
  H   H43       1.0  0.06908  0.21544  0.20619  1.0000
  H   H44       1.0  0.06807  0.25220  0.00359  1.0000
  Fe  Fe4       1.0  0.01671  0.12232  0.21414  1.0000
  C   C54       1.0  0.10827  0.25215  0.07600  1.0000
  H   H45       1.0  0.08902  0.18004  0.09356  1.0000
  H   H46       1.0  0.17499  0.19073  0.05324  1.0000
  H   H47       1.0  0.13118  0.98283  0.21361  1.0000
  H   H48       1.0  0.17389  0.02227  0.22468  1.0000
  C   C55       1.0  0.17110  0.30866  0.18213  1.0000
  C   C56       1.0  0.46933  0.00826  0.22451  1.0000
  H   H49       1.0  0.00457  0.23956  0.16956  1.0000
  H   H50       1.0  0.12418  0.30405  0.04727  1.0000
  C   C57       1.0  0.17825  0.00436  0.23197  1.0000
  H   H51       1.0  0.99257  0.98773  0.19468  1.0000
  C   C58       1.0  0.19725  0.28150  0.09641  1.0000
  H   H52       1.0  0.44371  0.98934  0.06391  1.0000
  Fe  Fe5       1.0  0.07405  0.29385  0.23500  1.0000
  H   H53       1.0  0.47844  0.99804  0.12490  1.0000
  C   C59       1.0  0.99298  0.21079  0.09345  1.0000
  C   C60       1.0  0.06667  0.00841  0.23319  1.0000
  Fe  Fe6       1.0  0.06277  0.24586  0.23629  1.0000
  H   H54       1.0  0.18305  0.30566  0.19309  1.0000
  C   C61       1.0  0.44976  0.02296  0.11685  1.0000
  C   C62       1.0  0.04757  0.15633  0.23282  1.0000
  H   H55       1.0  0.42026  0.99478  0.09964  1.0000
  C   C63       1.0  0.99863  0.22575  0.16500  1.0000
  C   C64       1.0  0.17852  0.98713  0.22073  1.0000
  C   C65       1.0  0.08264  0.00213  0.33145  1.0000
  C   C66       1.0  0.00997  0.04043  0.32350  1.0000
  S   S8        1.0  0.04581  0.27313  0.25539  1.0000
  C   C67       1.0  0.05363  0.16939  0.24553  1.0000
  C   C68       1.0  0.07343  0.99401  0.31704  1.0000
  C   C69       1.0  0.03650  0.19313  0.34611  1.0000
  H   H56       1.0  0.99727  0.17700  0.24184  1.0000
  H   H57       1.0  0.20760  0.27283  0.26467  1.0000
  H   H58       1.0  0.01293  0.14299  0.36447  1.0000
  H   H59       1.0  0.04604  0.08734  0.33258  1.0000
  H   H60       1.0  0.06024  0.09830  0.25772  1.0000
  H   H61       1.0  0.02821  0.03395  0.32278  1.0000
  C   C70       1.0  0.04566  0.12521  0.30066  1.0000
  H   H62       1.0  0.44323  0.21632  0.35314  1.0000
  H   H63       1.0  0.00914  0.01580  0.28309  1.0000
  H   H64       1.0  0.21446  0.26045  0.30226  1.0000
  Fe  Fe7       1.0  0.00773  0.08504  0.25464  1.0000
  P   P2        1.0  0.02052  0.13364  0.32037  1.0000
  C   C71       1.0  0.08764  0.12105  0.28699  1.0000
  C   C72       1.0  0.48517  0.18464  0.37954  1.0000
  C   C73       1.0  0.46403  0.19056  0.37245  1.0000
  H   H65       1.0  0.99719  0.18010  0.30341  1.0000
  C   C74       1.0  0.00005  0.20827  0.25115  1.0000
  C   C75       1.0  0.00763  0.98544  0.30905  1.0000
  S   S9        1.0  0.99926  0.12333  0.24851  1.0000
  H   H66       1.0  0.03622  0.98845  0.41688  1.0000
  C   C76       1.0  0.05111  0.98687  0.32340  1.0000
  H   H67       1.0  0.05220  0.16298  0.26276  1.0000
  H   H68       1.0  0.09978  0.10520  0.25910  1.0000
  C   C77       1.0  0.21126  0.29505  0.30728  1.0000
  C   C78       1.0  0.18389  0.99852  0.25251  1.0000
  H   H69       1.0  0.04199  0.17543  0.29890  1.0000
  C   C79       1.0  0.06257  0.10674  0.27000  1.0000
  C   C80       1.0  0.02110  0.15684  0.35297  1.0000
  C   C81       1.0  0.02333  0.99655  0.46878  1.0000
  H   H70       1.0  0.08370  0.99341  0.30098  1.0000
  H   H71       1.0  0.06476  0.03972  0.24457  1.0000
  C   C82       1.0  0.02238  0.00012  0.44690  1.0000
  C   C83       1.0  0.00305  0.05643  0.30592  1.0000
  H   H72       1.0  0.07684  0.00916  0.36358  1.0000
  C   C84       1.0  0.01347  0.10887  0.34152  1.0000
  C   C85       1.0  0.21147  0.27861  0.29517  1.0000
  C   C86       1.0  0.47627  0.22708  0.35204  1.0000
  H   H73       1.0  0.21407  0.28965  0.32376  1.0000
  C   C87       1.0  0.04227  0.19312  0.32391  1.0000
  C   C88       1.0  0.03864  0.98711  0.34462  1.0000
  H   H74       1.0  0.07083  0.13579  0.31464  1.0000
  C   C89       1.0  0.02680  0.15676  0.33069  1.0000
  C   C90       1.0  0.45960  0.21176  0.35869  1.0000
  C   C91       1.0  0.06820  0.12805  0.30206  1.0000
  H   H75       1.0  0.10488  0.12393  0.28773  1.0000
  S   S10       1.0  0.06571  0.20836  0.25263  1.0000
  C   C92       1.0  0.04782  0.99541  0.35890  1.0000
  C   C93       1.0  0.05561  0.01155  0.27092  1.0000
  H   H76       1.0  0.05040  0.20717  0.31254  1.0000
  H   H77       1.0  0.04018  0.20722  0.35203  1.0000
  H   H78       1.0  0.45108  0.17873  0.37758  1.0000
  C   C94       1.0  0.06295  0.02153  0.24911  1.0000
  S   S11       1.0  0.02396  0.06479  0.28253  1.0000
  H   H79       1.0  0.05188  0.02219  0.28296  1.0000
  H   H80       1.0  0.01169  0.99240  0.25433  1.0000
  H   H81       1.0  0.47246  0.24328  0.34129  1.0000
  H   H82       1.0  0.09971  0.00787  0.32640  1.0000
  H   H83       1.0  0.01493  0.20093  0.25858  1.0000
  C   C95       1.0  0.04308  0.11418  0.28475  1.0000
  C   C96       1.0  0.00022  0.06919  0.37156  1.0000
  H   H84       1.0  0.02604  0.11121  0.28371  1.0000
  C   C97       1.0  0.03749  0.17502  0.31622  1.0000
  H   H85       1.0  0.03791  0.99572  0.37518  1.0000
  C   C98       1.0  0.08481  0.11048  0.27089  1.0000
  H   H86       1.0  0.03420  0.05273  0.35904  1.0000
  C   C99       1.0  0.02595  0.17499  0.36063  1.0000
  H   H87       1.0  0.48947  0.04901  0.27669  1.0000
  C   C100      1.0  0.02908  0.08841  0.34326  1.0000
  C   C101      1.0  0.02246  0.06869  0.35828  1.0000
  C   C102      1.0  0.20765  0.28559  0.27398  1.0000
  H   H88       1.0  0.99847  0.02001  0.35531  1.0000
  C   C103      1.0  0.06978  0.00292  0.35236  1.0000
  C   C104      1.0  0.05180  0.98840  0.27704  1.0000
  H   H89       1.0  0.18394  0.01189  0.26114  1.0000
  H   H90       1.0  0.02148  0.17502  0.37784  1.0000
  H   H91       1.0  0.01007  0.01386  0.44021  1.0000
  H   H92       1.0  0.48864  0.16819  0.39018  1.0000
  H   H93       1.0  0.12614  0.98900  0.25108  1.0000
  C   C105      1.0  0.99815  0.00504  0.29570  1.0000
  C   C106      1.0  0.20366  0.30901  0.26483  1.0000
  H   H94       1.0  0.04198  0.13976  0.24017  1.0000
  H   H95       1.0  0.48495  0.28135  0.34399  1.0000
  C   C107      1.0  0.03695  0.98575  0.43385  1.0000
  H   H96       1.0  0.99854  0.24167  0.25837  1.0000
  C   C108      1.0  0.99834  0.99977  0.24508  1.0000
  H   H97       1.0  0.01183  0.00758  0.47893  1.0000
  C   C109      1.0  0.99532  0.14356  0.30787  1.0000
  H   H98       1.0  0.47816  0.31049  0.31148  1.0000
  C   C110      1.0  0.99324  0.03254  0.34182  1.0000
  H   H99       1.0  0.11574  0.00117  0.48211  1.0000
  H   H100      1.0  0.02173  0.98107  0.35022  1.0000
  H   H101      1.0  0.20054  0.31395  0.24848  1.0000
  H   H102      1.0  0.99472  0.05367  0.38257  1.0000
  H   H103      1.0  0.07188  0.12420  0.67286  1.0000
  H   H104      1.0  0.19930  0.99769  0.65174  1.0000
  H   H105      1.0  0.10473  0.18257  0.68439  1.0000
  H   H106      1.0  0.15313  0.19240  0.72038  1.0000
  H   H107      1.0  0.07103  0.08248  0.68628  1.0000
  C   C111      1.0  0.14673  0.08636  0.68608  1.0000
  H   H108      1.0  0.01423  0.06061  0.60621  1.0000
  S   S12       1.0  0.04418  0.01926  0.69219  1.0000
  H   H109      1.0  0.15385  0.11537  0.69618  1.0000
  Fe  Fe8       1.0  0.04996  0.23511  0.72095  1.0000
  H   H110      1.0  0.16574  0.04761  0.72590  1.0000
  C   C112      1.0  0.06570  0.11757  0.68993  1.0000
  H   H111      1.0  0.02272  0.05861  0.67061  1.0000
  H   H112      1.0  0.06831  0.10309  0.61436  1.0000
  S   S13       1.0  0.15092  0.00514  0.66951  1.0000
  H   H113      1.0  0.15846  0.08968  0.67045  1.0000
  Fe  Fe9       1.0  0.07029  0.03273  0.70433  1.0000
  C   C113      1.0  0.07493  0.00259  0.57523  1.0000
  C   C114      1.0  0.05874  0.28957  0.69496  1.0000
  C   C115      1.0  0.15959  0.99673  0.60995  1.0000
  S   S14       1.0  0.09202  0.04356  0.67125  1.0000
  C   C116      1.0  0.06530  0.09384  0.69754  1.0000
  C   C117      1.0  0.11856  0.06362  0.71136  1.0000
  H   H114      1.0  0.02935  0.28841  0.72178  1.0000
  C   C118      1.0  0.99514  0.01047  0.63879  1.0000
  C   C119      1.0  0.99605  0.02071  0.73237  1.0000
  S   S15       1.0  0.05926  0.16233  0.69415  1.0000
  C   C120      1.0  0.05794  0.13275  0.70424  1.0000
  H   H115      1.0  0.09065  0.29796  0.71704  1.0000
  S   S16       1.0  0.07321  0.26240  0.70466  1.0000
  S   S17       1.0  0.05058  0.04562  0.63097  1.0000
  C   C121      1.0  0.04564  0.10314  0.64553  1.0000
  H   H116      1.0  0.20007  0.21082  0.72537  1.0000
  H   H117      1.0  0.05133  0.14212  0.59789  1.0000
  H   H118      1.0  0.19516  0.99289  0.69193  1.0000
  H   H119      1.0  0.02039  0.10695  0.67442  1.0000
  C   C122      1.0  0.09422  0.98554  0.57474  1.0000
  C   C123      1.0  0.02692  0.11503  0.65781  1.0000
  H   H120      1.0  0.00739  0.15884  0.70205  1.0000
  S   S18       1.0  0.01845  0.01795  0.56121  1.0000
  H   H121      1.0  0.07078  0.01335  0.56032  1.0000
  H   H122      1.0  0.04605  0.01942  0.59544  1.0000
  H   H123      1.0  0.10407  0.14250  0.70442  1.0000
  H   H124      1.0  0.01365  0.01166  0.63366  1.0000
  C   C124      1.0  0.06083  0.00596  0.59504  1.0000
  H   H125      1.0  0.12414  0.99275  0.61191  1.0000
  Fe  Fe10      1.0  0.11154  0.00791  0.67702  1.0000
  C   C125      1.0  0.05429  0.11278  0.62392  1.0000
  Fe  Fe11      1.0  0.04437  0.18734  0.71642  1.0000
  Fe  Fe12      1.0  0.06710  0.02790  0.65955  1.0000
  C   C126      1.0  0.11539  0.17589  0.69654  1.0000
  H   H126      1.0  0.05486  0.99492  0.62960  1.0000
  S   S19       1.0  0.09160  0.99808  0.71115  1.0000
  H   H127      1.0  0.12909  0.20773  0.69230  1.0000
  H   H128      1.0  0.15489  0.01207  0.61686  1.0000
  C   C127      1.0  0.02123  0.05785  0.63792  1.0000
  H   H129      1.0  0.04295  0.21314  0.64992  1.0000
  C   C128      1.0  0.01683  0.13687  0.64855  1.0000
  C   C129      1.0  0.18068  0.02189  0.70675  1.0000
  H   H130      1.0  0.05312  0.08614  0.65262  1.0000
  H   H131      1.0  0.03548  0.17349  0.65354  1.0000
  C   C130      1.0  0.02514  0.20922  0.65409  1.0000
  S   S20       1.0  0.03201  0.22287  0.69998  1.0000
  C   C131      1.0  0.99780  0.18134  0.66177  1.0000
  C   C132      1.0  0.12909  0.19003  0.70106  1.0000
  S   S21       1.0  0.08888  0.99314  0.66179  1.0000
  H   H132      1.0  0.99607  0.00405  0.67246  1.0000
  H   H133      1.0  0.21773  0.17003  0.72802  1.0000
  C   C133      1.0  0.14213  0.98548  0.60734  1.0000
  C   C134      1.0  0.05754  0.08501  0.71957  1.0000
  C   C135      1.0  0.14395  0.10092  0.70068  1.0000
  C   C136      1.0  0.00666  0.22641  0.65852  1.0000
  H   H134      1.0  0.99466  0.29414  0.69880  1.0000
  C   C137      1.0  0.02609  0.14674  0.62697  1.0000
  H   H135      1.0  0.04333  0.13582  0.73716  1.0000
  C   C138      1.0  0.03782  0.29877  0.70694  1.0000
  C   C139      1.0  0.99706  0.14468  0.70705  1.0000
  C   C140      1.0  0.12778  0.14458  0.72446  1.0000
  C   C141      1.0  0.02080  0.18671  0.65606  1.0000
  H   H136      1.0  0.17774  0.03303  0.69158  1.0000
  H   H137      1.0  0.08563  0.29589  0.66635  1.0000
  H   H138      1.0  0.13611  0.05639  0.68012  1.0000
  C   C142      1.0  0.13409  0.06765  0.69146  1.0000
  C   C143      1.0  0.19056  0.99904  0.70698  1.0000
  H   H139      1.0  0.01009  0.24370  0.65764  1.0000
  C   C144      1.0  0.11492  0.15320  0.70804  1.0000
  C   C145      1.0  0.19233  0.98181  0.65341  1.0000
  C   C146      1.0  0.14166  0.15882  0.72886  1.0000
  C   C147      1.0  0.06571  0.99194  0.61433  1.0000
  C   C148      1.0  0.14247  0.18140  0.71700  1.0000
  C   C149      1.0  0.06952  0.30296  0.67570  1.0000
  C   C150      1.0  0.01182  0.06184  0.65883  1.0000
  Fe  Fe13      1.0  0.00158  0.22164  0.72780  1.0000
  C   C151      1.0  0.00702  0.06356  0.62243  1.0000
  H   H140      1.0  0.10524  0.98370  0.55935  1.0000
  C   C152      1.0  0.04463  0.13466  0.61467  1.0000
  S   S22       1.0  0.05804  0.05507  0.72953  1.0000
  Fe  Fe14      1.0  0.01329  0.98096  0.57339  1.0000
  C   C153      1.0  0.04978  0.12408  0.72621  1.0000
  C   C154      1.0  0.17384  0.03002  0.72608  1.0000
  H   H141      1.0  0.01864  0.16363  0.61957  1.0000
  C   C155      1.0  0.19328  0.19783  0.73899  1.0000
  P   P3        1.0  0.99217  0.15225  0.66400  1.0000
  H   H142      1.0  0.01273  0.98568  0.73509  1.0000
  C   C156      1.0  0.12842  0.09694  0.72083  1.0000
  H   H143      1.0  0.17278  0.08954  0.73053  1.0000
  H   H144      1.0  0.10841  0.04937  0.71531  1.0000
  C   C157      1.0  0.11552  0.07827  0.72593  1.0000
  C   C158      1.0  0.10067  0.31148  0.71643  1.0000
  C   C159      1.0  0.99862  0.99803  0.72964  1.0000
  H   H145      1.0  0.09964  0.23199  0.73306  1.0000
  S   S23       1.0  0.06521  0.19957  0.73531  1.0000
  C   C160      1.0  0.10766  0.98599  0.49084  1.0000
  C   C161      1.0  0.04974  0.10023  0.73393  1.0000
  H   H146      1.0  0.11297  0.98890  0.52174  1.0000
  H   H147      1.0  0.19649  0.99653  0.60659  1.0000
  H   H148      1.0  0.99670  0.05879  0.57703  1.0000
  C   C162      1.0  0.19345  0.98399  0.72656  1.0000
  Fe  Fe15      1.0  0.06735  0.98583  0.69554  1.0000
  C   C163      1.0  0.18303  0.98793  0.60423  1.0000
  C   C164      1.0  0.99317  0.13328  0.72879  1.0000
  H   H149      1.0  0.12390  0.19333  0.83955  1.0000
  C   C165      1.0  0.09277  0.14950  0.80961  1.0000
  C   C166      1.0  0.06278  0.29988  0.96718  1.0000
  H   H150      1.0  0.09656  0.29308  0.94698  1.0000
  C   C167      1.0  0.12220  0.21830  0.77889  1.0000
  Fe  Fe16      1.0  0.08371  0.25152  0.85613  1.0000
  S   S24       1.0  0.05334  0.27874  0.85197  1.0000
  S   S25       1.0  0.08097  0.21449  0.85790  1.0000
  S   S26       1.0  0.01851  0.23718  0.74777  1.0000
  C   C168      1.0  0.03869  0.30297  0.96844  1.0000
  H   H151      1.0  0.00167  0.28751  0.82325  1.0000
  C   C169      1.0  0.17578  0.16439  0.77420  1.0000
  H   H152      1.0  0.17152  0.02153  0.76066  1.0000
  S   S27       1.0  0.09018  0.26087  0.88562  1.0000
  H   H153      1.0  0.17719  0.22430  0.78895  1.0000
  C   C170      1.0  0.10125  0.13267  0.82577  1.0000
  C   C171      1.0  0.09517  0.09452  0.77571  1.0000
  P   P4        1.0  0.14058  0.19549  0.79285  1.0000
  C   C172      1.0  0.48423  0.98532  0.81288  1.0000
  S   S28       1.0  0.03070  0.18332  0.79559  1.0000
  C   C173      1.0  0.03534  0.28186  0.77411  1.0000
  C   C174      1.0  0.14353  0.21468  0.84865  1.0000
  H   H154      1.0  0.07166  0.07817  0.80358  1.0000
  H   H155      1.0  0.16454  0.23831  0.85293  1.0000
  H   H156      1.0  0.05099  0.27066  0.77714  1.0000
  C   C175      1.0  0.17701  0.01528  0.74564  1.0000
  H   H157      1.0  0.04359  0.09361  0.75099  1.0000
  C   C176      1.0  0.06006  0.13200  0.77433  1.0000
  H   H158      1.0  0.04050  0.11160  0.80230  1.0000
  Fe  Fe17      1.0  0.03217  0.20057  0.76061  1.0000
  H   H159      1.0  0.09172  0.11821  0.83376  1.0000
  Fe  Fe18      1.0  0.08071  0.30044  0.83128  1.0000
  C   C177      1.0  0.02971  0.30276  0.95025  1.0000
  C   C178      1.0  0.10357  0.23384  0.74803  1.0000
  H   H160      1.0  0.19823  0.08608  0.78810  1.0000
  H   H161      1.0  0.18665  0.24354  0.81495  1.0000
  C   C179      1.0  0.07433  0.09354  0.79118  1.0000
  C   C180      1.0  0.05676  0.11229  0.79047  1.0000
  C   C181      1.0  0.16802  0.22099  0.80565  1.0000
  H   H162      1.0  0.20223  0.14035  0.75928  1.0000
  C   C182      1.0  0.06895  0.29506  0.92995  1.0000
  C   C183      1.0  0.17340  0.23204  0.82032  1.0000
  C   C184      1.0  0.16103  0.22903  0.84177  1.0000
  Fe  Fe19      1.0  0.11373  0.28480  0.86216  1.0000
  C   C185      1.0  0.15026  0.20671  0.81241  1.0000
  H   H163      1.0  0.09678  0.18176  0.78793  1.0000
  H   H164      1.0  0.47462  0.99222  0.82690  1.0000
  H   H165      1.0  0.09268  0.27171  0.78188  1.0000
  C   C186      1.0  0.09848  0.11421  0.75923  1.0000
  H   H166      1.0  0.14902  0.15557  0.82722  1.0000
  H   H167      1.0  0.08082  0.29219  0.91514  1.0000
  H   H168      1.0  0.04013  0.16294  0.83702  1.0000
  H   H169      1.0  0.46702  0.98746  0.87776  1.0000
  H   H170      1.0  0.99927  0.29080  0.86070  1.0000
  C   C187      1.0  0.17452  0.20409  0.75501  1.0000
  H   H171      1.0  0.07659  0.14823  0.80520  1.0000
  H   H172      1.0  0.16938  0.15123  0.78768  1.0000
  C   C188      1.0  0.12157  0.13490  0.83202  1.0000
  Fe  Fe20      1.0  0.06143  0.28968  0.88008  1.0000
  C   C189      1.0  0.14616  0.11193  0.77525  1.0000
  C   C190      1.0  0.16554  0.18739  0.77273  1.0000
  C   C191      1.0  0.18674  0.99232  0.74593  1.0000
  H   H173      1.0  0.13335  0.21291  0.86508  1.0000
  C   C192      1.0  0.08083  0.13304  0.75882  1.0000
  C   C193      1.0  0.11705  0.21606  0.75948  1.0000
  C   C194      1.0  0.16381  0.10452  0.78724  1.0000
  H   H174      1.0  0.44952  0.05524  0.92389  1.0000
  H   H175      1.0  0.04633  0.14644  0.77360  1.0000
  C   C195      1.0  0.12494  0.17103  0.80583  1.0000
  H   H176      1.0  0.12785  0.12211  0.84491  1.0000
  H   H177      1.0  0.16133  0.10856  0.80314  1.0000
  H   H178      1.0  0.13026  0.12194  0.78196  1.0000
  C   C196      1.0  0.46119  0.04496  0.91312  1.0000
  C   C197      1.0  0.11322  0.23845  0.78695  1.0000
  C   C198      1.0  0.06590  0.20767  0.84035  1.0000
  C   C199      1.0  0.06250  0.22251  0.82078  1.0000
  C   C200      1.0  0.05184  0.21535  0.80654  1.0000
  C   C201      1.0  0.04379  0.19378  0.81244  1.0000
  C   C202      1.0  0.04642  0.17954  0.83235  1.0000
  C   C203      1.0  0.05787  0.18622  0.84599  1.0000
  H   H179      1.0  0.06840  0.23925  0.81654  1.0000
  H   H180      1.0  0.04977  0.22643  0.79116  1.0000
  H   H181      1.0  0.08406  0.26742  0.74718  1.0000
  H   H182      1.0  0.06039  0.17475  0.86109  1.0000
  H   H183      1.0  0.11630  0.24041  0.80220  1.0000
  C   C204      1.0  0.13819  0.20356  0.83406  1.0000
  H   H184      1.0  0.08268  0.14846  0.74639  1.0000
  H   H185      1.0  0.01314  0.25914  0.79689  1.0000
  C   C205      1.0  0.13343  0.15395  0.82205  1.0000
  C   C206      1.0  0.18457  0.09185  0.77877  1.0000
  C   C207      1.0  0.10441  0.16867  0.79977  1.0000
  C   C208      1.0  0.19449  0.15815  0.75810  1.0000
  C   C209      1.0  0.09970  0.25626  0.77545  1.0000
  H   H186      1.0  0.16696  0.22199  0.75350  1.0000
  C   C210      1.0  0.04485  0.29884  0.93093  1.0000
  H   H187      1.0  0.00027  0.13882  0.74039  1.0000
  C   C211      1.0  0.49140  0.01856  0.88536  1.0000
  C   C212      1.0  0.07788  0.29566  0.94800  1.0000
  S   S29       1.0  0.11056  0.27216  0.83324  1.0000
  S   S30       1.0  0.14851  0.29024  0.86714  1.0000
  C   C213      1.0  0.03666  0.30287  0.75944  1.0000
  C   C214      1.0  0.46650  0.02126  0.92039  1.0000
  C   C215      1.0  0.09488  0.25392  0.75598  1.0000
  H   H188      1.0  0.46703  0.07386  0.88651  1.0000
  H   H189      1.0  0.45884  0.01364  0.93681  1.0000
  S   S31       1.0  0.03353  0.29929  0.90798  1.0000
  H   H190      1.0  0.05342  0.30811  0.75085  1.0000
  C   C216      1.0  0.01369  0.27540  0.78539  1.0000
  S   S32       1.0  0.01255  0.18507  0.74295  1.0000
  H   H191      1.0  0.49088  0.01846  0.79300  1.0000
  C   C217      1.0  0.99451  0.31095  0.76726  1.0000
  C   C218      1.0  0.14895  0.10625  0.75488  1.0000
  H   H192      1.0  0.03565  0.31343  0.82009  1.0000
  C   C219      1.0  0.18770  0.08662  0.75828  1.0000
  C   C220      1.0  0.48167  0.00784  0.90655  1.0000
  H   H193      1.0  0.00811  0.02596  0.74000  1.0000
  H   H194      1.0  0.10861  0.07985  0.77646  1.0000
  H   H195      1.0  0.02707  0.30497  0.98358  1.0000
  C   C221      1.0  0.47103  0.05546  0.89207  1.0000
  H   H196      1.0  0.12322  0.20042  0.75334  1.0000
  H   H197      1.0  0.01105  0.30542  0.95120  1.0000
  C   C222      1.0  0.48614  0.04226  0.87820  1.0000
  H   H198      1.0  0.09681  0.30604  0.75116  1.0000
  C   C223      1.0  0.99308  0.29017  0.78255  1.0000
  H   H199      1.0  0.20383  0.07685  0.75168  1.0000
  H   H200      1.0  0.15171  0.15267  0.74146  1.0000
  C   C224      1.0  0.17000  0.09383  0.74633  1.0000
  S   S33       1.0  0.07460  0.30104  0.98930  1.0000
  H   H201      1.0  0.10274  0.07507  0.74084  1.0000
  H   H202      1.0  0.18865  0.98115  0.76129  1.0000
  P   P5        1.0  0.12581  0.11557  0.73977  1.0000
  C   C225      1.0  0.20322  0.17486  0.74049  1.0000
  Fe  Fe21      1.0  0.18295  0.46121  0.16664  1.0000
  S   S34       1.0  0.14600  0.45602  0.16918  1.0000
  S   S35       1.0  0.20415  0.47586  0.13443  1.0000
  H   H203      1.0  0.02344  0.35613  0.18004  1.0000
  H   H204      1.0  0.24663  0.60759  0.20043  1.0000
  H   H205      1.0  0.15505  0.50930  0.23046  1.0000
  C   C226      1.0  0.33950  0.53983  0.23952  1.0000
  C   C227      1.0  0.02282  0.54787  0.18021  1.0000
  Fe  Fe22      1.0  0.16891  0.61328  0.11968  1.0000
  S   S36       1.0  0.16511  0.59231  0.15335  1.0000
  S   S37       1.0  0.18572  0.59136  0.09486  1.0000
  Fe  Fe23      1.0  0.13111  0.61435  0.16010  1.0000
  S   S38       1.0  0.09911  0.59961  0.18093  1.0000
  Fe  Fe24      1.0  0.18068  0.61942  0.16129  1.0000
  C   C228      1.0  0.16231  0.40891  0.00381  1.0000
  H   H206      1.0  0.13119  0.32742  0.10542  1.0000
  C   C229      1.0  0.11832  0.35683  0.19390  1.0000
  C   C230      1.0  0.12828  0.37228  0.20105  1.0000
  H   H207      1.0  0.12035  0.41257  0.09377  1.0000
  C   C231      1.0  0.99680  0.45081  0.13420  1.0000
  C   C232      1.0  0.18603  0.37255  0.13481  1.0000
  Fe  Fe25      1.0  0.15501  0.47912  0.03668  1.0000
  S   S39       1.0  0.12035  0.49626  0.05129  1.0000
  S   S40       1.0  0.17088  0.44898  0.05886  1.0000
  S   S41       1.0  0.20728  0.60770  0.18245  1.0000
  C   C233      1.0  0.07386  0.61729  0.13151  1.0000
  Fe  Fe26      1.0  0.13291  0.52885  0.03057  1.0000
  S   S42       1.0  0.12235  0.56256  0.04191  1.0000
  Fe  Fe27      1.0  0.10884  0.49213  0.02202  1.0000
  S   S43       1.0  0.07433  0.48045  0.02358  1.0000
  S   S44       1.0  0.16897  0.51214  0.01819  1.0000
  S   S45       1.0  0.14265  0.47246  0.00875  1.0000
  C   C234      1.0  0.07757  0.45031  0.02979  1.0000
  C   C235      1.0  0.09711  0.43821  0.03764  1.0000
  C   C236      1.0  0.10017  0.41421  0.04221  1.0000
  C   C237      1.0  0.99466  0.46650  0.04506  1.0000
  C   C238      1.0  0.06380  0.41402  0.03172  1.0000
  C   C239      1.0  0.06076  0.43824  0.02700  1.0000
  H   H208      1.0  0.10981  0.44730  0.04054  1.0000
  H   H209      1.0  0.05086  0.40463  0.02964  1.0000
  H   H210      1.0  0.04547  0.44765  0.02119  1.0000
  C   C240      1.0  0.29470  0.57208  0.20213  1.0000
  S   S46       1.0  0.45913  0.53121  0.20482  1.0000
  C   C241      1.0  0.07463  0.59343  0.09909  1.0000
  H   H211      1.0  0.08377  0.39869  0.19922  1.0000
  H   H212      1.0  0.28586  0.54596  0.10309  1.0000
  C   C242      1.0  0.03803  0.51980  0.09906  1.0000
  C   C243      1.0  0.08362  0.40201  0.03931  1.0000
  C   C244      1.0  0.00095  0.45940  0.06535  1.0000
  C   C245      1.0  0.07534  0.34615  0.14641  1.0000
  C   C246      1.0  0.33034  0.53832  0.12983  1.0000
  H   H213      1.0  0.32332  0.55994  0.09987  1.0000
  C   C247      1.0  0.16711  0.58261  0.08156  1.0000
  C   C248      1.0  0.17396  0.56230  0.07341  1.0000
  C   C249      1.0  0.16004  0.55562  0.06172  1.0000
  C   C250      1.0  0.13940  0.56948  0.05780  1.0000
  C   C251      1.0  0.13232  0.58953  0.06630  1.0000
  C   C252      1.0  0.14599  0.59597  0.07839  1.0000
  H   H214      1.0  0.18989  0.55153  0.07630  1.0000
  H   H215      1.0  0.16545  0.53995  0.05549  1.0000
  H   H216      1.0  0.11645  0.60035  0.06317  1.0000
  H   H217      1.0  0.14056  0.61163  0.08461  1.0000
  C   C253      1.0  0.19423  0.46891  0.11355  1.0000
  C   C254      1.0  0.19563  0.48388  0.09330  1.0000
  C   C255      1.0  0.18779  0.47821  0.07659  1.0000
  C   C256      1.0  0.17924  0.45720  0.07993  1.0000
  C   C257      1.0  0.17769  0.44234  0.10024  1.0000
  C   C258      1.0  0.18469  0.44844  0.11715  1.0000
  H   H218      1.0  0.20223  0.50010  0.09071  1.0000
  H   H219      1.0  0.18877  0.48988  0.06101  1.0000
  H   H220      1.0  0.17086  0.42622  0.10294  1.0000
  H   H221      1.0  0.18300  0.43720  0.13293  1.0000
  H   H222      1.0  0.25153  0.60252  0.14752  1.0000
  C   C259      1.0  0.14987  0.37091  0.03617  1.0000
  C   C260      1.0  0.12034  0.55518  0.17937  1.0000
  C   C261      1.0  0.14499  0.37341  0.01554  1.0000
  Fe  Fe28      1.0  0.13847  0.47016  0.19939  1.0000
  C   C262      1.0  0.22377  0.62956  0.18086  1.0000
  H   H223      1.0  0.13587  0.52019  0.17810  1.0000
  H   H224      1.0  0.13301  0.56250  0.16591  1.0000
  H   H225      1.0  0.13364  0.38274  0.22894  1.0000
  S   S47       1.0  0.13339  0.63394  0.12570  1.0000
  H   H226      1.0  0.12016  0.35780  0.17673  1.0000
  H   H227      1.0  0.19682  0.39864  0.14660  1.0000
  H   H228      1.0  0.08419  0.51393  0.16543  1.0000
  H   H229      1.0  0.23614  0.38546  0.08500  1.0000
  C   C263      1.0  0.14653  0.54421  0.12602  1.0000
  C   C264      1.0  0.24872  0.44895  0.17609  1.0000
  C   C265      1.0  0.26983  0.43500  0.17118  1.0000
  C   C266      1.0  0.28786  0.44379  0.15488  1.0000
  C   C267      1.0  0.28488  0.46666  0.14377  1.0000
  C   C268      1.0  0.26391  0.48094  0.14911  1.0000
  C   C269      1.0  0.24566  0.47175  0.16503  1.0000
  P   P6        1.0  0.26080  0.51090  0.13597  1.0000
  C   C270      1.0  0.28781  0.52207  0.13358  1.0000
  C   C271      1.0  0.25363  0.51463  0.10964  1.0000
  C   C272      1.0  0.25797  0.49629  0.09872  1.0000
  C   C273      1.0  0.23800  0.53951  0.07947  1.0000
  C   C274      1.0  0.24334  0.53616  0.09997  1.0000
  C   C275      1.0  0.29584  0.53901  0.11567  1.0000
  H   H230      1.0  0.14398  0.35679  0.04896  1.0000
  C   C276      1.0  0.03085  0.52914  0.19514  1.0000
  C   C277      1.0  0.32220  0.52188  0.14794  1.0000
  C   C278      1.0  0.30102  0.51381  0.14983  1.0000
  C   C279      1.0  0.23772  0.52636  0.15272  1.0000
  C   C280      1.0  0.21447  0.52741  0.15088  1.0000
  C   C281      1.0  0.19646  0.53903  0.16396  1.0000
  P   P7        1.0  0.16974  0.34070  0.11901  1.0000
  C   C282      1.0  0.15417  0.52149  0.12390  1.0000
  C   C283      1.0  0.24262  0.53695  0.16801  1.0000
  H   H231      1.0  0.23469  0.44230  0.18866  1.0000
  H   H232      1.0  0.27217  0.41741  0.18005  1.0000
  H   H233      1.0  0.30419  0.43294  0.15098  1.0000
  H   H234      1.0  0.29902  0.47330  0.13121  1.0000
  H   H235      1.0  0.22906  0.48209  0.16914  1.0000
  H   H236      1.0  0.26502  0.47929  0.10613  1.0000
  H   H237      1.0  0.22975  0.55615  0.07230  1.0000
  H   H238      1.0  0.23900  0.55025  0.10848  1.0000
  C   C284      1.0  0.20158  0.55012  0.17862  1.0000
  H   H239      1.0  0.02396  0.44316  0.17923  1.0000
  C   C285      1.0  0.11459  0.35329  0.23828  1.0000
  H   H240      1.0  0.33235  0.51530  0.16050  1.0000
  H   H241      1.0  0.29496  0.50105  0.16396  1.0000
  H   H242      1.0  0.21018  0.51926  0.13933  1.0000
  H   H243      1.0  0.17854  0.53977  0.16245  1.0000
  C   C286      1.0  0.05118  0.52116  0.07795  1.0000
  H   H244      1.0  0.40021  0.61121  0.17626  1.0000
  H   H245      1.0  0.26023  0.53609  0.17009  1.0000
  H   H246      1.0  0.26136  0.47585  0.20141  1.0000
  H   H247      1.0  0.00590  0.55762  0.18461  1.0000
  C   C287      1.0  0.08457  0.62549  0.22781  1.0000
  C   C288      1.0  0.26393  0.48814  0.21014  1.0000
  C   C289      1.0  0.31708  0.54704  0.11381  1.0000
  H   H248      1.0  0.08181  0.53273  0.05554  1.0000
  C   C290      1.0  0.28978  0.50548  0.22359  1.0000
  C   C291      1.0  0.20350  0.36086  0.23641  1.0000
  C   C292      1.0  0.24250  0.52124  0.06861  1.0000
  C   C293      1.0  0.08493  0.55967  0.20626  1.0000
  C   C294      1.0  0.16710  0.40641  0.02441  1.0000
  C   C295      1.0  0.24064  0.59621  0.12038  1.0000
  C   C296      1.0  0.24670  0.59540  0.09837  1.0000
  C   C297      1.0  0.26924  0.59861  0.08677  1.0000
  C   C298      1.0  0.28566  0.60318  0.09704  1.0000
  C   C299      1.0  0.27961  0.60448  0.11907  1.0000
  C   C300      1.0  0.25692  0.60099  0.13065  1.0000
  P   P8        1.0  0.29949  0.61328  0.13200  1.0000
  C   C301      1.0  0.29624  0.59771  0.15973  1.0000
  C   C302      1.0  0.32972  0.60762  0.11883  1.0000
  C   C303      1.0  0.10986  0.35866  0.09477  1.0000
  H   H249      1.0  0.03428  0.42551  0.99708  1.0000
  H   H250      1.0  0.02210  0.51191  0.10368  1.0000
  C   C304      1.0  0.36927  0.58873  0.11992  1.0000
  C   C305      1.0  0.34559  0.59166  0.12962  1.0000
  C   C306      1.0  0.30067  0.60745  0.17576  1.0000
  H   H251      1.0  0.09845  0.32820  0.20313  1.0000
  C   C307      1.0  0.05280  0.51680  0.18955  1.0000
  C   C308      1.0  0.29042  0.56216  0.18622  1.0000
  C   C309      1.0  0.29118  0.57491  0.16508  1.0000
  H   H252      1.0  0.12733  0.31957  0.14378  1.0000
  C   C310      1.0  0.08648  0.53574  0.21321  1.0000
  H   H253      1.0  0.01134  0.40157  0.06719  1.0000
  H   H254      1.0  0.04397  0.33003  0.15561  1.0000
  H   H255      1.0  0.05920  0.50258  0.20132  1.0000
  C   C311      1.0  0.42935  0.60229  0.21036  1.0000
  C   C312      1.0  0.12605  0.37081  0.22331  1.0000
  H   H256      1.0  0.23383  0.59240  0.09027  1.0000
  H   H257      1.0  0.27375  0.59798  0.06968  1.0000
  H   H258      1.0  0.30281  0.60601  0.08760  1.0000
  C   C313      1.0  0.19203  0.35892  0.20326  1.0000
  C   C314      1.0  0.20828  0.36478  0.10023  1.0000
  C   C315      1.0  0.22459  0.54898  0.18077  1.0000
  C   C316      1.0  0.21841  0.39361  0.11585  1.0000
  H   H259      1.0  0.38145  0.57664  0.12850  1.0000
  H   H260      1.0  0.33998  0.58172  0.14573  1.0000
  H   H261      1.0  0.09189  0.39246  0.08513  1.0000
  H   H262      1.0  0.13570  0.36088  0.01269  1.0000
  C   C317      1.0  0.20033  0.38898  0.13377  1.0000
  H   H263      1.0  0.17923  0.35563  0.19522  1.0000
  H   H264      1.0  0.28815  0.56686  0.15287  1.0000
  H   H265      1.0  0.17147  0.36995  0.14839  1.0000
  C   C318      1.0  0.26614  0.41738  0.23195  1.0000
  S   S48       1.0  0.14628  0.64001  0.17114  1.0000
  H   H266      1.0  0.07581  0.61263  0.22471  1.0000
  C   C319      1.0  0.40582  0.60690  0.22022  1.0000
  C   C320      1.0  0.04132  0.44050  0.18261  1.0000
  C   C321      1.0  0.44528  0.50674  0.21743  1.0000
  C   C322      1.0  0.14123  0.38132  0.10569  1.0000
  H   H267      1.0  0.22309  0.59369  0.12936  1.0000
  C   C323      1.0  0.45758  0.58289  0.16712  1.0000
  P   P9        1.0  0.03713  0.39337  0.19405  1.0000
  C   C324      1.0  0.12884  0.34596  0.10330  1.0000
  H   H268      1.0  0.47914  0.46950  0.18727  1.0000
  C   C325      1.0  0.07480  0.61728  0.09397  1.0000
  C   C326      1.0  0.16151  0.32517  0.14664  1.0000
  C   C327      1.0  0.00673  0.41974  0.06132  1.0000
  H   H269      1.0  0.21680  0.36807  0.17359  1.0000
  C   C328      1.0  0.33807  0.62090  0.09840  1.0000
  Fe  Fe29      1.0  0.06072  0.35412  0.03994  1.0000
  C   C329      1.0  0.06694  0.52329  0.16914  1.0000
  C   C330      1.0  0.10620  0.33992  0.20883  1.0000
  C   C331      1.0  0.25241  0.49962  0.07827  1.0000
  H   H270      1.0  0.08447  0.33437  0.13602  1.0000
  H   H271      1.0  0.07564  0.58461  0.08612  1.0000
  S   S49       1.0  0.06817  0.31590  0.04375  1.0000
  H   H272      1.0  0.49021  0.61296  0.19359  1.0000
  C   C332      1.0  0.18993  0.36024  0.11812  1.0000
  C   C333      1.0  0.05196  0.41829  0.19030  1.0000
  H   H273      1.0  0.17846  0.34538  0.07201  1.0000
  C   C334      1.0  0.10683  0.53893  0.12639  1.0000
  C   C335      1.0  0.07450  0.62920  0.11014  1.0000
  C   C336      1.0  0.39627  0.59225  0.23919  1.0000
  H   H274      1.0  0.11776  0.57079  0.12844  1.0000
  H   H275      1.0  0.22739  0.49758  0.22063  1.0000
  C   C337      1.0  0.01595  0.34804  0.11860  1.0000
  C   C338      1.0  0.03657  0.35774  0.10927  1.0000
  C   C339      1.0  0.03608  0.38164  0.10396  1.0000
  C   C340      1.0  0.01502  0.39605  0.10856  1.0000
  H   H276      1.0  0.36470  0.55547  0.21273  1.0000
  P   P10       1.0  0.01433  0.42691  0.10018  1.0000
  C   C341      1.0  0.04215  0.43500  0.10052  1.0000
  C   C342      1.0  0.16408  0.52281  0.23201  1.0000
  H   H277      1.0  0.09781  0.35003  0.09017  1.0000
  H   H278      1.0  0.01457  0.45005  0.13592  1.0000
  C   C343      1.0  0.40952  0.48892  0.22864  1.0000
  S   S50       1.0  0.14495  0.43580  0.22093  1.0000
  C   C344      1.0  0.00016  0.42687  0.04118  1.0000
  C   C345      1.0  0.05327  0.42510  0.11809  1.0000
  C   C346      1.0  0.07403  0.43235  0.11909  1.0000
  C   C347      1.0  0.08401  0.44928  0.10244  1.0000
  C   C348      1.0  0.07329  0.45883  0.08478  1.0000
  C   C349      1.0  0.05252  0.45174  0.08377  1.0000
  H   H279      1.0  0.39477  0.62172  0.21334  1.0000
  H   H280      1.0  0.48287  0.63233  0.15191  1.0000
  C   C350      1.0  0.46154  0.60503  0.16750  1.0000
  C   C351      1.0  0.10481  0.33767  0.23102  1.0000
  C   C352      1.0  0.22241  0.38149  0.09910  1.0000
  C   C353      1.0  0.12238  0.39394  0.09696  1.0000
  H   H281      1.0  0.15927  0.58111  0.22359  1.0000
  C   C354      1.0  0.02105  0.35765  0.22721  1.0000
  H   H282      1.0  0.05283  0.34673  0.10557  1.0000
  H   H283      1.0  0.05202  0.38880  0.09575  1.0000
  C   C355      1.0  0.45862  0.63741  0.19630  1.0000
  C   C356      1.0  0.22477  0.36784  0.22402  1.0000
  H   H284      1.0  0.39094  0.49012  0.22964  1.0000
  H   H285      1.0  0.44318  0.57507  0.17834  1.0000
  C   C357      1.0  0.36173  0.61783  0.08868  1.0000
  Fe  Fe30      1.0  0.05296  0.32080  0.01428  1.0000
  H   H286      1.0  0.04576  0.41197  0.13110  1.0000
  H   H287      1.0  0.08250  0.42483  0.13269  1.0000
  H   H288      1.0  0.10022  0.45483  0.10302  1.0000
  H   H289      1.0  0.08115  0.47163  0.07162  1.0000
  H   H290      1.0  0.04489  0.45935  0.06971  1.0000
  H   H291      1.0  0.24577  0.37624  0.19195  1.0000
  H   H292      1.0  0.28673  0.54456  0.19022  1.0000
  C   C358      1.0  0.16630  0.56324  0.22839  1.0000
  C   C359      1.0  0.13985  0.31680  0.15410  1.0000
  C   C360      1.0  0.08644  0.43468  0.19066  1.0000
  C   C361      1.0  0.28650  0.49041  0.21148  1.0000
  C   C362      1.0  0.40239  0.62900  0.16890  1.0000
  H   H293      1.0  0.46957  0.38162  0.22119  1.0000
  C   C363      1.0  0.06616  0.53887  0.10821  1.0000
  C   C364      1.0  0.07175  0.53125  0.07200  1.0000
  H   H294      1.0  0.15320  0.39065  0.10944  1.0000
  S   S51       1.0  0.08799  0.37183  0.04592  1.0000
  C   C365      1.0  0.10188  0.56949  0.18936  1.0000
  C   C366      1.0  0.04097  0.35841  0.17145  1.0000
  C   C367      1.0  0.07393  0.58133  0.12056  1.0000
  H   H295      1.0  0.25506  0.48526  0.07019  1.0000
  H   H296      1.0  0.10434  0.36508  0.14102  1.0000
  H   H297      1.0  0.34695  0.54424  0.12822  1.0000
  H   H298      1.0  0.08499  0.47136  0.18060  1.0000
  C   C368      1.0  0.05201  0.37578  0.17450  1.0000
  H   H299      1.0  0.30138  0.47998  0.20371  1.0000
  S   S52       1.0  0.04857  0.35937  0.00875  1.0000
  C   C369      1.0  0.24459  0.50048  0.22130  1.0000
  C   C370      1.0  0.42122  0.50814  0.21871  1.0000
  H   H300      1.0  0.09590  0.54659  0.08254  1.0000
  H   H301      1.0  0.23761  0.52365  0.05304  1.0000
  C   C371      1.0  0.29953  0.59478  0.19690  1.0000
  H   H302      1.0  0.30490  0.62485  0.17214  1.0000
  H   H303      1.0  0.17248  0.51502  0.12265  1.0000
  H   H304      1.0  0.04555  0.51439  0.06614  1.0000
  C   C372      1.0  0.04537  0.52877  0.11412  1.0000
  C   C373      1.0  0.37733  0.60175  0.09944  1.0000
  S   S53       1.0  0.19340  0.42632  0.18579  1.0000
  H   H305      1.0  0.07580  0.62643  0.07730  1.0000
  S   S54       1.0  0.11835  0.52614  0.00238  1.0000
  H   H306      1.0  0.11533  0.40517  0.04829  1.0000
  C   C374      1.0  0.10484  0.52144  0.20314  1.0000
  C   C375      1.0  0.07361  0.59349  0.13670  1.0000
  H   H307      1.0  0.07425  0.62636  0.14401  1.0000
  C   C376      1.0  0.17730  0.32056  0.16074  1.0000
  H   H308      1.0  0.26929  0.63865  0.19984  1.0000
  C   C377      1.0  0.15125  0.39241  0.99919  1.0000
  C   C378      1.0  0.44337  0.58355  0.22032  1.0000
  H   H309      1.0  0.18774  0.56005  0.18795  1.0000
  S   S55       1.0  0.14384  0.39262  0.18146  1.0000
  C   C379      1.0  0.08649  0.36343  0.14918  1.0000
  Fe  Fe31      1.0  0.18188  0.44365  0.21453  1.0000
  H   H310      1.0  0.17517  0.41951  0.02794  1.0000
  Fe  Fe32      1.0  0.15558  0.42210  0.19033  1.0000
  C   C380      1.0  0.07493  0.37823  0.16305  1.0000
  S   S56       1.0  0.17453  0.47903  0.19480  1.0000
  C   C381      1.0  0.05251  0.34371  0.15746  1.0000
  P   P11       1.0  0.44232  0.62122  0.18626  1.0000
  C   C382      1.0  0.07951  0.53950  0.08720  1.0000
  H   H311      1.0  0.03484  0.52763  0.13029  1.0000
  H   H312      1.0  0.03033  0.56880  0.14827  1.0000
  P   P12       1.0  0.07645  0.55025  0.12731  1.0000
  C   C383      1.0  0.12301  0.55299  0.12713  1.0000
  H   H313      1.0  0.15895  0.55520  0.12637  1.0000
  H   H314      1.0  0.08435  0.39114  0.16482  1.0000
  H   H315      1.0  0.27725  0.40469  0.22350  1.0000
  C   C384      1.0  0.16093  0.38742  0.04059  1.0000
  H   H316      1.0  0.21143  0.35595  0.08691  1.0000
  H   H317      1.0  0.10261  0.50492  0.12344  1.0000
  H   H318      1.0  0.22838  0.55778  0.19212  1.0000
  C   C385      1.0  0.12188  0.53116  0.18624  1.0000
  C   C386      1.0  0.13828  0.50737  0.12303  1.0000
  C   C387      1.0  0.03676  0.55424  0.15970  1.0000
  C   C388      1.0  0.11466  0.51602  0.12431  1.0000
  S   S57       1.0  0.02512  0.35373  0.06103  1.0000
  H   H319      1.0  0.16390  0.38612  0.05674  1.0000
  Fe  Fe33      1.0  0.01334  0.35548  0.03028  1.0000
  H   H320      1.0  0.14439  0.48980  0.12110  1.0000
  C   C389      1.0  0.05895  0.54200  0.15403  1.0000
  H   H321      1.0  0.30261  0.60266  0.20917  1.0000
  S   S58       1.0  0.35227  0.60422  0.20909  1.0000
  H   H322      1.0  0.01019  0.35554  0.21671  1.0000
  C   C390      1.0  0.07474  0.41561  0.19405  1.0000
  C   C391      1.0  0.09173  0.64360  0.21098  1.0000
  H   H323      1.0  0.23529  0.41394  0.22132  1.0000
  C   C392      1.0  0.18193  0.32039  0.10151  1.0000
  C   C393      1.0  0.99417  0.45021  0.03302  1.0000
  C   C394      1.0  0.03582  0.37494  0.22077  1.0000
  S   S59       1.0  0.10517  0.49154  0.21125  1.0000
  C   C395      1.0  0.05319  0.45960  0.17906  1.0000
  H   H324      1.0  0.29443  0.56220  0.21848  1.0000
  S   S60       1.0  0.18755  0.63899  0.12701  1.0000
  C   C396      1.0  0.24223  0.62485  0.19180  1.0000
  H   H325      1.0  0.41158  0.52421  0.21217  1.0000
  C   C397      1.0  0.18738  0.55771  0.23569  1.0000
  H   H326      1.0  0.07397  0.58447  0.15322  1.0000
  H   H327      1.0  0.39573  0.59963  0.09206  1.0000
  H   H328      1.0  0.99976  0.41422  0.03190  1.0000
  H   H329      1.0  0.00757  0.32300  0.19534  1.0000
  Fe  Fe34      1.0  0.33262  0.63878  0.21330  1.0000
  C   C398      1.0  0.45768  0.48600  0.22602  1.0000
  H   H330      1.0  0.07052  0.57058  0.21396  1.0000
  H   H331      1.0  0.01208  0.39662  0.15842  1.0000
  C   C399      1.0  0.00708  0.40224  0.19123  1.0000
  H   H332      1.0  0.02025  0.52437  0.21116  1.0000
  H   H333      1.0  0.24390  0.56753  0.22506  1.0000
  C   C400      1.0  0.10650  0.38261  0.09185  1.0000
  H   H334      1.0  0.47623  0.48481  0.22505  1.0000
  C   C401      1.0  0.49136  0.58008  0.13801  1.0000
  C   C402      1.0  0.24771  0.51509  0.23413  1.0000
  C   C403      1.0  0.14455  0.35716  0.10909  1.0000
  H   H335      1.0  0.16714  0.42384  0.99151  1.0000
  C   C404      1.0  0.00720  0.43596  0.07357  1.0000
  Fe  Fe35      1.0  0.03149  0.31578  0.06242  1.0000
  C   C405      1.0  0.21318  0.36594  0.19107  1.0000
  H   H336      1.0  0.04497  0.47669  0.17314  1.0000
  C   C406      1.0  0.18372  0.32759  0.07898  1.0000
  H   H337      1.0  0.99567  0.40952  0.22353  1.0000
  H   H338      1.0  0.46160  0.57988  0.21310  1.0000
  C   C407      1.0  0.47266  0.57034  0.15263  1.0000
  C   C408      1.0  0.25513  0.64235  0.19132  1.0000
  H   H339      1.0  0.05982  0.39087  0.23173  1.0000
  C   C409      1.0  0.47976  0.61507  0.15219  1.0000
  H   H340      1.0  0.00611  0.33798  0.99000  1.0000
  C   C410      1.0  0.07571  0.45667  0.18318  1.0000
  C   C411      1.0  0.99974  0.40119  0.17240  1.0000
  C   C412      1.0  0.27052  0.51770  0.23486  1.0000
  C   C413      1.0  0.99430  0.38610  0.11745  1.0000
  H   H341      1.0  0.22890  0.40702  0.11469  1.0000
  C   C414      1.0  0.24246  0.42265  0.23059  1.0000
  C   C415      1.0  0.15469  0.54581  0.22650  1.0000
  H   H342      1.0  0.13854  0.55012  0.22050  1.0000
  C   C416      1.0  0.34993  0.55847  0.22561  1.0000
  H   H343      1.0  0.10396  0.43232  0.19373  1.0000
  C   C417      1.0  0.22950  0.37050  0.20143  1.0000
  H   H344      1.0  0.30720  0.50713  0.22499  1.0000
  H   H345      1.0  0.47013  0.55284  0.15326  1.0000
  C   C418      1.0  0.29353  0.64403  0.13032  1.0000
  H   H346      1.0  0.01616  0.32957  0.12244  1.0000
  H   H347      1.0  0.37120  0.63487  0.15598  1.0000
  C   C419      1.0  0.48171  0.62892  0.19842  1.0000
  C   C420      1.0  0.42193  0.46813  0.23699  1.0000
  H   H348      1.0  0.07321  0.52827  0.22621  1.0000
  H   H349      1.0  0.08838  0.64480  0.19496  1.0000
  H   H350      1.0  0.47751  0.50890  0.16512  1.0000
  H   H351      1.0  0.00106  0.47220  0.07458  1.0000
  C   C421      1.0  0.42111  0.63872  0.17147  1.0000
  H   H352      1.0  0.19611  0.57161  0.23666  1.0000
  C   C422      1.0  0.99482  0.36221  0.12238  1.0000
  C   C423      1.0  0.44604  0.46663  0.23559  1.0000
  H   H353      1.0  0.34626  0.52245  0.23745  1.0000
  C   C424      1.0  0.04892  0.37744  0.23540  1.0000
  H   H354      1.0  0.36806  0.62824  0.07297  1.0000
  C   C425      1.0  0.34089  0.58100  0.22804  1.0000
  C   C426      1.0  0.47157  0.38694  0.23545  1.0000
  C   C427      1.0  0.38603  0.64231  0.15717  1.0000
  H   H355      1.0  0.19438  0.32624  0.15532  1.0000
  C   C428      1.0  0.18714  0.35647  0.22582  1.0000
  H   H356      1.0  0.25862  0.59956  0.23366  1.0000
  H   H357      1.0  0.32634  0.63400  0.09018  1.0000
  H   H358      1.0  0.23769  0.37148  0.23160  1.0000
  H   H359      1.0  0.11490  0.43096  0.99322  1.0000
  Fe  Fe36      1.0  0.15336  0.50690  0.99139  1.0000
  S   S61       1.0  0.29468  0.64710  0.22767  1.0000
  H   H360      1.0  0.17064  0.35098  0.23499  1.0000
  C   C429      1.0  0.43389  0.56918  0.23950  1.0000
  S   S62       1.0  0.01651  0.31725  0.03330  1.0000
  H   H361      1.0  0.19329  0.31754  0.04795  1.0000
  H   H362      1.0  0.32664  0.64677  0.13754  1.0000
  C   C430      1.0  0.18500  0.51717  0.23957  1.0000
  P   P13       1.0  0.42133  0.38942  0.34478  1.0000
  H   H363      1.0  0.25435  0.60286  0.27175  1.0000
  H   H364      1.0  0.25698  0.40249  0.29379  1.0000
  C   C431      1.0  0.11920  0.38117  0.28645  1.0000
  H   H365      1.0  0.05926  0.36344  0.26611  1.0000
  C   C432      1.0  0.38177  0.57864  0.35745  1.0000
  Fe  Fe37      1.0  0.32152  0.43929  0.26406  1.0000
  S   S63       1.0  0.30419  0.45829  0.29064  1.0000
  Fe  Fe38      1.0  0.47325  0.46434  0.36185  1.0000
  H   H366      1.0  0.38455  0.52031  0.25524  1.0000
  S   S64       1.0  0.35597  0.47360  0.28747  1.0000
  H   H367      1.0  0.11653  0.34701  0.30563  1.0000
  Fe  Fe39      1.0  0.33582  0.44463  0.30531  1.0000
  S   S65       1.0  0.33155  0.43379  0.34162  1.0000
  Fe  Fe40      1.0  0.32544  0.48611  0.27125  1.0000
  S   S66       1.0  0.30574  0.52120  0.27246  1.0000
  S   S67       1.0  0.35101  0.42215  0.28098  1.0000
  C   C433      1.0  0.42732  0.59696  0.30093  1.0000
  H   H368      1.0  0.47476  0.44753  0.30834  1.0000
  Fe  Fe41      1.0  0.42416  0.48075  0.38372  1.0000
  S   S68       1.0  0.38614  0.47542  0.39410  1.0000
  C   C434      1.0  0.23707  0.44901  0.25481  1.0000
  C   C435      1.0  0.31149  0.56629  0.25860  1.0000
  C   C436      1.0  0.41413  0.42922  0.31332  1.0000
  H   H369      1.0  0.41746  0.58617  0.31464  1.0000
  C   C437      1.0  0.32005  0.54384  0.25578  1.0000
  H   H370      1.0  0.29667  0.56930  0.27143  1.0000
  C   C438      1.0  0.41897  0.60513  0.28175  1.0000
  C   C439      1.0  0.45124  0.42255  0.32459  1.0000
  C   C440      1.0  0.34761  0.44577  0.35516  1.0000
  C   C441      1.0  0.34072  0.44341  0.37767  1.0000
  C   C442      1.0  0.35268  0.45272  0.38919  1.0000
  C   C443      1.0  0.37222  0.46382  0.37851  1.0000
  C   C444      1.0  0.37955  0.46592  0.35598  1.0000
  C   C445      1.0  0.36702  0.45719  0.34429  1.0000
  H   H371      1.0  0.32583  0.43462  0.38623  1.0000
  H   H372      1.0  0.34690  0.45106  0.40655  1.0000
  H   H373      1.0  0.39455  0.47459  0.34754  1.0000
  H   H374      1.0  0.37248  0.45919  0.32696  1.0000
  C   C446      1.0  0.03413  0.34456  0.26123  1.0000
  C   C447      1.0  0.41479  0.41304  0.37846  1.0000
  H   H375      1.0  0.21497  0.41748  0.29670  1.0000
  C   C448      1.0  0.37057  0.53068  0.28582  1.0000
  C   C449      1.0  0.23677  0.57273  0.28493  1.0000
  C   C450      1.0  0.38296  0.53909  0.37682  1.0000
  H   H376      1.0  0.22569  0.46085  0.26408  1.0000
  C   C451      1.0  0.08875  0.62401  0.24849  1.0000
  H   H377      1.0  0.24707  0.34702  0.26719  1.0000
  C   C452      1.0  0.32499  0.51009  0.32642  1.0000
  H   H378      1.0  0.20679  0.33102  0.30790  1.0000
  H   H379      1.0  0.34264  0.38687  0.33332  1.0000
  H   H380      1.0  0.26776  0.45225  0.26578  1.0000
  C   C453      1.0  0.32164  0.52089  0.36084  1.0000
  C   C454      1.0  0.33149  0.52348  0.33856  1.0000
  C   C455      1.0  0.44862  0.60249  0.30252  1.0000
  H   H381      1.0  0.35370  0.53740  0.28172  1.0000
  C   C456      1.0  0.21602  0.37087  0.27497  1.0000
  C   C457      1.0  0.12812  0.35865  0.29475  1.0000
  C   C458      1.0  0.39709  0.52304  0.31066  1.0000
  C   C459      1.0  0.16696  0.36588  0.27438  1.0000
  S   S69       1.0  0.30458  0.41925  0.24765  1.0000
  S   S70       1.0  0.45246  0.45415  0.39544  1.0000
  H   H382      1.0  0.43450  0.39526  0.24673  1.0000
  S   S71       1.0  0.46069  0.54839  0.33691  1.0000
  H   H383      1.0  0.42590  0.62459  0.24895  1.0000
  C   C460      1.0  0.42941  0.41562  0.32630  1.0000
  S   S72       1.0  0.40757  0.44389  0.24906  1.0000
  S   S73       1.0  0.44380  0.48822  0.34938  1.0000
  C   C461      1.0  0.40554  0.41661  0.39952  1.0000
  H   H384      1.0  0.38166  0.40640  0.42950  1.0000
  C   C462      1.0  0.45173  0.35696  0.36732  1.0000
  C   C463      1.0  0.15497  0.64212  0.25590  1.0000
  C   C464      1.0  0.30114  0.49038  0.35882  1.0000
  C   C465      1.0  0.30993  0.49362  0.33652  1.0000
  H   H385      1.0  0.46414  0.55671  0.29056  1.0000
  H   H386      1.0  0.36724  0.58006  0.28832  1.0000
  H   H387      1.0  0.46320  0.41274  0.33473  1.0000
  C   C466      1.0  0.02025  0.34256  0.24730  1.0000
  H   H388      1.0  0.47591  0.33290  0.38447  1.0000
  H   H389      1.0  0.35609  0.35903  0.30885  1.0000
  C   C467      1.0  0.37691  0.38708  0.33883  1.0000
  C   C468      1.0  0.31329  0.61087  0.29160  1.0000
  H   H390      1.0  0.03425  0.33226  0.27639  1.0000
  C   C469      1.0  0.38807  0.52100  0.27073  1.0000
  C   C470      1.0  0.41467  0.51376  0.29539  1.0000
  C   C471      1.0  0.41014  0.51261  0.27547  1.0000
  H   H391      1.0  0.37075  0.39975  0.34897  1.0000
  C   C472      1.0  0.46328  0.36478  0.32816  1.0000
  H   H392      1.0  0.42377  0.50537  0.26367  1.0000
  H   H393      1.0  0.28249  0.60081  0.31462  1.0000
  S   S74       1.0  0.48063  0.47605  0.43320  1.0000
  H   H394      1.0  0.30436  0.62689  0.28392  1.0000
  H   H395      1.0  0.30560  0.48290  0.32710  1.0000
  C   C473      1.0  0.25444  0.37361  0.28061  1.0000
  C   C474      1.0  0.20721  0.31848  0.29820  1.0000
  C   C475      1.0  0.47468  0.52187  0.43579  1.0000
  C   C476      1.0  0.21907  0.50559  0.27725  1.0000
  H   H396      1.0  0.38604  0.59585  0.35546  1.0000
  H   H397      1.0  0.46597  0.52535  0.42224  1.0000
  C   C477      1.0  0.48585  0.40378  0.37347  1.0000
  C   C478      1.0  0.45788  0.44232  0.30968  1.0000
  C   C479      1.0  0.17242  0.63170  0.26759  1.0000
  H   H398      1.0  0.11343  0.35170  0.25546  1.0000
  C   C480      1.0  0.23852  0.49303  0.28540  1.0000
  C   C481      1.0  0.23550  0.47611  0.30437  1.0000
  C   C482      1.0  0.21308  0.47174  0.31549  1.0000
  C   C483      1.0  0.19362  0.48451  0.30782  1.0000
  C   C484      1.0  0.19656  0.50152  0.28889  1.0000
  C   C485      1.0  0.23134  0.55216  0.25867  1.0000
  C   C486      1.0  0.22868  0.55439  0.28027  1.0000
  H   H399      1.0  0.23517  0.57400  0.30164  1.0000
  H   H400      1.0  0.36571  0.58722  0.32977  1.0000
  H   H401      1.0  0.32559  0.53147  0.37056  1.0000
  C   C487      1.0  0.30683  0.50415  0.37096  1.0000
  C   C488      1.0  0.48101  0.54901  0.29415  1.0000
  C   C489      1.0  0.38812  0.56137  0.37442  1.0000
  C   C490      1.0  0.04825  0.36213  0.25539  1.0000
  H   H402      1.0  0.27293  0.36747  0.27890  1.0000
  H   H403      1.0  0.47085  0.55749  0.43822  1.0000
  S   S75       1.0  0.43581  0.50941  0.39392  1.0000
  H   H404      1.0  0.29023  0.47695  0.36669  1.0000
  C   C491      1.0  0.45430  0.40138  0.26824  1.0000
  H   H405      1.0  0.15827  0.33341  0.29531  1.0000
  H   H406      1.0  0.39804  0.34363  0.30052  1.0000
  H   H407      1.0  0.25610  0.49615  0.27716  1.0000
  C   C492      1.0  0.44718  0.36879  0.34696  1.0000
  C   C493      1.0  0.36506  0.55121  0.34519  1.0000
  H   H408      1.0  0.17622  0.48120  0.31650  1.0000
  H   H409      1.0  0.18121  0.51138  0.28345  1.0000
  H   H410      1.0  0.22084  0.54177  0.29361  1.0000
  H   H411      1.0  0.47712  0.37431  0.39861  1.0000
  H   H412      1.0  0.21080  0.45851  0.33011  1.0000
  H   H413      1.0  0.36900  0.51629  0.36370  1.0000
  H   H414      1.0  0.25063  0.46635  0.31037  1.0000
  H   H415      1.0  0.42718  0.42403  0.36792  1.0000
  H   H416      1.0  0.40228  0.60120  0.28069  1.0000
  C   C494      1.0  0.42084  0.44903  0.29853  1.0000
  C   C495      1.0  0.24545  0.39335  0.28909  1.0000
  C   C496      1.0  0.33657  0.56964  0.31170  1.0000
  H   H417      1.0  0.40902  0.45935  0.28848  1.0000
  C   C497      1.0  0.13404  0.39603  0.27209  1.0000
  H   H418      1.0  0.39704  0.42466  0.31438  1.0000
  C   C498      1.0  0.37485  0.53163  0.30599  1.0000
  H   H419      1.0  0.47827  0.40712  0.28607  1.0000
  C   C499      1.0  0.43226  0.61830  0.26391  1.0000
  C   C500      1.0  0.33714  0.60494  0.28419  1.0000
  H   H420      1.0  0.19502  0.63654  0.28736  1.0000
  C   C501      1.0  0.10049  0.64042  0.25222  1.0000
  P   P14       1.0  0.19752  0.35598  0.26571  1.0000
  C   C502      1.0  0.38919  0.40307  0.41342  1.0000
  C   C503      1.0  0.45381  0.62341  0.26531  1.0000
  H   H421      1.0  0.46031  0.37398  0.31237  1.0000
  C   C504      1.0  0.37025  0.57363  0.34288  1.0000
  C   C505      1.0  0.38249  0.38543  0.40647  1.0000
  H   H422      1.0  0.34657  0.61631  0.27068  1.0000
  H   H423      1.0  0.43181  0.50742  0.29909  1.0000
  H   H424      1.0  0.08291  0.61010  0.26157  1.0000
  C   C506      1.0  0.39208  0.38144  0.38558  1.0000
  H   H425      1.0  0.30011  0.50155  0.38829  1.0000
  H   H426      1.0  0.43891  0.40757  0.27912  1.0000
  H   H427      1.0  0.16900  0.40002  0.25440  1.0000
  C   C507      1.0  0.47750  0.54002  0.44482  1.0000
  H   H428      1.0  0.39730  0.56511  0.38558  1.0000
  C   C508      1.0  0.36851  0.36418  0.31612  1.0000
  C   C509      1.0  0.36091  0.37983  0.32991  1.0000
  H   H429      1.0  0.30279  0.56464  0.33250  1.0000
  C   C510      1.0  0.46214  0.61572  0.28471  1.0000
  H   H430      1.0  0.44818  0.47050  0.28477  1.0000
  P   P15       1.0  0.22328  0.52718  0.25250  1.0000
  H   H431      1.0  0.10077  0.38706  0.29100  1.0000
  H   H432      1.0  0.38705  0.36740  0.38062  1.0000
  H   H433      1.0  0.49074  0.61274  0.37656  1.0000
  C   C511      1.0  0.40820  0.36272  0.32041  1.0000
  Fe  Fe42      1.0  0.46583  0.48342  0.40279  1.0000
  H   H434      1.0  0.44002  0.36005  0.38219  1.0000
  C   C512      1.0  0.22179  0.40177  0.29074  1.0000
  C   C513      1.0  0.34874  0.58437  0.29413  1.0000
  H   H435      1.0  0.36984  0.37489  0.41727  1.0000
  C   C514      1.0  0.20712  0.39066  0.28367  1.0000
  H   H436      1.0  0.41065  0.43028  0.40498  1.0000
  H   H437      1.0  0.40308  0.56244  0.26374  1.0000
  C   C515      1.0  0.39214  0.35558  0.31141  1.0000
  C   C516      1.0  0.15190  0.35100  0.28881  1.0000
  Fe  Fe43      1.0  0.45777  0.51472  0.36030  1.0000
  H   H438      1.0  0.12708  0.41350  0.26569  1.0000
  C   C517      1.0  0.40792  0.39556  0.37124  1.0000
  C   C518      1.0  0.30099  0.59619  0.30891  1.0000
  C   C519      1.0  0.47203  0.34137  0.36872  1.0000
  C   C520      1.0  0.18133  0.64453  0.27850  1.0000
  S   S76       1.0  0.48894  0.49145  0.36999  1.0000
  C   C521      1.0  0.24171  0.56889  0.24183  1.0000
  C   C522      1.0  0.37192  0.53391  0.36206  1.0000
  H   H439      1.0  0.33158  0.51212  0.30918  1.0000
  Fe  Fe44      1.0  0.36913  0.45237  0.26190  1.0000
  C   C523      1.0  0.44283  0.45540  0.29650  1.0000
  C   C524      1.0  0.49022  0.62105  0.31519  1.0000
  C   C525      1.0  0.19685  0.53459  0.24156  1.0000
  H   H440      1.0  0.45433  0.59627  0.31772  1.0000
  H   H441      1.0  0.40114  0.52343  0.32599  1.0000
  P   P16       1.0  0.35198  0.54395  0.32549  1.0000
  H   H442      1.0  0.42635  0.35599  0.31628  1.0000
  H   H443      1.0  0.38779  0.52561  0.38995  1.0000
  C   C526      1.0  0.40071  0.37860  0.33420  1.0000
  C   C527      1.0  0.48783  0.33738  0.34989  1.0000
  H   H444      1.0  0.18905  0.39796  0.28475  1.0000
  C   C528      1.0  0.23977  0.36226  0.27379  1.0000
  C   C529      1.0  0.24753  0.58899  0.26812  1.0000
  C   C530      1.0  0.20349  0.32565  0.27687  1.0000
  C   C531      1.0  0.26085  0.44409  0.25586  1.0000
  C   C532      1.0  0.15776  0.38836  0.26582  1.0000
  C   C533      1.0  0.31256  0.57567  0.31898  1.0000
  H   H445      1.0  0.46857  0.41317  0.37639  1.0000
  H   H446      1.0  0.17927  0.61376  0.26792  1.0000
  P   P17       1.0  0.48900  0.62437  0.28696  1.0000
  C   C534      1.0  0.48916  0.53567  0.46216  1.0000
  C   C535      1.0  0.41032  0.57347  0.24886  1.0000
  H   H447      1.0  0.19162  0.49916  0.24424  1.0000
  H   H448      1.0  0.44482  0.55450  0.24685  1.0000
  H   H449      1.0  0.10343  0.63922  0.26835  1.0000
  C   C536      1.0  0.48323  0.49925  0.44430  1.0000
  H   H450      1.0  0.37790  0.59542  0.24622  1.0000
  C   C537      1.0  0.48410  0.54331  0.31563  1.0000
  H   H451      1.0  0.00926  0.32892  0.25182  1.0000
  C   C538      1.0  0.45181  0.39441  0.24990  1.0000
  S   S77       1.0  0.34074  0.46827  0.24327  1.0000
  H   H452      1.0  0.31519  0.60215  0.24695  1.0000
  C   C539      1.0  0.24994  0.58710  0.24660  1.0000
  H   H453      1.0  0.45564  0.45052  0.24206  1.0000
  H   H454      1.0  0.14882  0.63204  0.24704  1.0000
  H   H455      1.0  0.23306  0.63687  0.24263  1.0000
  C   C540      1.0  0.48332  0.34893  0.32961  1.0000
  S   S78       1.0  0.19747  0.44282  0.24345  1.0000
  C   C541      1.0  0.32200  0.58485  0.24483  1.0000
  C   C542      1.0  0.47655  0.40128  0.27200  1.0000
  C   C543      1.0  0.27536  0.42791  0.24475  1.0000
  C   C544      1.0  0.48705  0.63722  0.34695  1.0000
  H   H456      1.0  0.46375  0.63374  0.25138  1.0000
  H   H457      1.0  0.27354  0.52829  0.24506  1.0000
  C   C545      1.0  0.48668  0.64023  0.32492  1.0000
  C   C546      1.0  0.22782  0.43831  0.24221  1.0000
  S   S79       1.0  0.09170  0.31497  0.24971  1.0000
  C   C547      1.0  0.49068  0.38181  0.38597  1.0000
  C   C548      1.0  0.49069  0.61509  0.35945  1.0000
  H   H458      1.0  0.45834  0.51382  0.69487  1.0000
  C   C549      1.0  0.46074  0.59981  0.73163  1.0000
  H   H459      1.0  0.26871  0.59301  0.72266  1.0000
  C   C550      1.0  0.09277  0.63749  0.67805  1.0000
  H   H460      1.0  0.00228  0.47801  0.63408  1.0000
  H   H461      1.0  0.01225  0.32893  0.70933  1.0000
  C   C551      1.0  0.39715  0.53354  0.60735  1.0000
  S   S80       1.0  0.25876  0.62468  0.63698  1.0000
  H   H462      1.0  0.35620  0.58525  0.62816  1.0000
  H   H463      1.0  0.40728  0.47330  0.73319  1.0000
  C   C552      1.0  0.29731  0.63239  0.57190  1.0000
  C   C553      1.0  0.00533  0.41400  0.55260  1.0000
  S   S81       1.0  0.23102  0.59721  0.69671  1.0000
  Fe  Fe45      1.0  0.15503  0.47901  0.71514  1.0000
  S   S82       1.0  0.16353  0.46041  0.68768  1.0000
  C   C554      1.0  0.48236  0.56665  0.60200  1.0000
  Fe  Fe46      1.0  0.15020  0.52515  0.68587  1.0000
  S   S83       1.0  0.15790  0.51063  0.65575  1.0000
  S   S84       1.0  0.14222  0.56339  0.68292  1.0000
  Fe  Fe47      1.0  0.13450  0.48469  0.67535  1.0000
  S   S85       1.0  0.11230  0.46855  0.66082  1.0000
  Fe  Fe48      1.0  0.18648  0.48757  0.67042  1.0000
  S   S86       1.0  0.21989  0.47888  0.64730  1.0000
  S   S87       1.0  0.12395  0.50137  0.70425  1.0000
  S   S88       1.0  0.18081  0.50407  0.69909  1.0000
  S   S89       1.0  0.36820  0.49652  0.67076  1.0000
  S   S90       1.0  0.32212  0.46269  0.66579  1.0000
  C   C555      1.0  0.24791  0.47659  0.65293  1.0000
  C   C556      1.0  0.26643  0.46570  0.63962  1.0000
  C   C557      1.0  0.28890  0.46181  0.64391  1.0000
  C   C558      1.0  0.29337  0.46926  0.66125  1.0000
  C   C559      1.0  0.27507  0.48099  0.67430  1.0000
  C   C560      1.0  0.25222  0.48458  0.67016  1.0000
  H   H464      1.0  0.26326  0.45966  0.62621  1.0000
  H   H465      1.0  0.30291  0.45284  0.63374  1.0000
  H   H466      1.0  0.27842  0.48684  0.68773  1.0000
  H   H467      1.0  0.23801  0.49346  0.68018  1.0000
  C   C561      1.0  0.20600  0.58833  0.69302  1.0000
  C   C562      1.0  0.19399  0.60106  0.67698  1.0000
  C   C563      1.0  0.17363  0.59401  0.67460  1.0000
  C   C564      1.0  0.16600  0.57361  0.68753  1.0000
  C   C565      1.0  0.17800  0.56093  0.70355  1.0000
  C   C566      1.0  0.19784  0.56838  0.70645  1.0000
  Fe  Fe49      1.0  0.00332  0.38207  0.69635  1.0000
  H   H468      1.0  0.16432  0.60384  0.66224  1.0000
  H   H469      1.0  0.17179  0.54552  0.71398  1.0000
  H   H470      1.0  0.20695  0.55849  0.71893  1.0000
  C   C567      1.0  0.03715  0.46249  0.69679  1.0000
  C   C568      1.0  0.04924  0.44624  0.68457  1.0000
  C   C569      1.0  0.07245  0.44807  0.67376  1.0000
  C   C570      1.0  0.08381  0.46575  0.67567  1.0000
  C   C571      1.0  0.07197  0.48155  0.68853  1.0000
  C   C572      1.0  0.04855  0.48008  0.69886  1.0000
  H   H471      1.0  0.04054  0.43260  0.68297  1.0000
  H   H472      1.0  0.08158  0.43581  0.66385  1.0000
  H   H473      1.0  0.08054  0.49541  0.68979  1.0000
  C   C573      1.0  0.46433  0.40932  0.68335  1.0000
  C   C574      1.0  0.34330  0.56679  0.72025  1.0000
  H   H474      1.0  0.31260  0.55912  0.57385  1.0000
  C   C575      1.0  0.33929  0.50529  0.58975  1.0000
  C   C576      1.0  0.32994  0.50191  0.61197  1.0000
  C   C577      1.0  0.48501  0.40654  0.66804  1.0000
  C   C578      1.0  0.46728  0.51080  0.63286  1.0000
  H   H475      1.0  0.26923  0.53012  0.59955  1.0000
  C   C579      1.0  0.23294  0.53103  0.61399  1.0000
  S   S91       1.0  0.35225  0.45697  0.71380  1.0000
  H   H476      1.0  0.33440  0.48567  0.62245  1.0000
  H   H477      1.0  0.31092  0.59444  0.67231  1.0000
  C   C580      1.0  0.42475  0.61470  0.65434  1.0000
  C   C581      1.0  0.39148  0.64353  0.55899  1.0000
  H   H478      1.0  0.41997  0.50843  0.68900  1.0000
  H   H479      1.0  0.43504  0.60733  0.60761  1.0000
  H   H480      1.0  0.30230  0.36494  0.71799  1.0000
  C   C582      1.0  0.29710  0.38061  0.72428  1.0000
  C   C583      1.0  0.46985  0.51918  0.54537  1.0000
  C   C584      1.0  0.45771  0.51219  0.56656  1.0000
  C   C585      1.0  0.43366  0.51936  0.57226  1.0000
  C   C586      1.0  0.42196  0.53334  0.55637  1.0000
  P   P18       1.0  0.41737  0.50933  0.59919  1.0000
  C   C587      1.0  0.40262  0.48542  0.59918  1.0000
  C   C588      1.0  0.43769  0.50091  0.61745  1.0000
  C   C589      1.0  0.45076  0.51718  0.61963  1.0000
  C   C590      1.0  0.48218  0.56367  0.58128  1.0000
  H   H481      1.0  0.13467  0.41817  0.68502  1.0000
  H   H482      1.0  0.15810  0.62806  0.62578  1.0000
  C   C591      1.0  0.44177  0.47804  0.62857  1.0000
  C   C592      1.0  0.39027  0.47352  0.61867  1.0000
  C   C593      1.0  0.37879  0.45515  0.61879  1.0000
  C   C594      1.0  0.37992  0.44814  0.59945  1.0000
  C   C595      1.0  0.39256  0.45950  0.58000  1.0000
  C   C596      1.0  0.40381  0.47811  0.57981  1.0000
  C   C597      1.0  0.22950  0.46815  0.72959  1.0000
  H   H483      1.0  0.15225  0.57677  0.59133  1.0000
  C   C598      1.0  0.48628  0.39835  0.71210  1.0000
  S   S92       1.0  0.32170  0.63944  0.62437  1.0000
  H   H484      1.0  0.00835  0.39303  0.58386  1.0000
  H   H485      1.0  0.46723  0.50115  0.57832  1.0000
  H   H486      1.0  0.40333  0.53862  0.56031  1.0000
  H   H487      1.0  0.44853  0.53473  0.61090  1.0000
  C   C599      1.0  0.25494  0.53814  0.61021  1.0000
  H   H488      1.0  0.43272  0.46477  0.62687  1.0000
  H   H489      1.0  0.15344  0.43328  0.64779  1.0000
  H   H490      1.0  0.36893  0.44643  0.63394  1.0000
  H   H491      1.0  0.37101  0.43387  0.59958  1.0000
  H   H492      1.0  0.39359  0.45394  0.56501  1.0000
  H   H493      1.0  0.41351  0.48653  0.56453  1.0000
  H   H494      1.0  0.36821  0.51435  0.62386  1.0000
  H   H495      1.0  0.38974  0.47825  0.63388  1.0000
  H   H496      1.0  0.20098  0.62020  0.61603  1.0000
  H   H497      1.0  0.12405  0.56057  0.73102  1.0000
  H   H498      1.0  0.01933  0.39610  0.62756  1.0000
  H   H499      1.0  0.44567  0.61667  0.53333  1.0000
  C   C600      1.0  0.23940  0.56439  0.63487  1.0000
  C   C601      1.0  0.21752  0.55699  0.63877  1.0000
  C   C602      1.0  0.29012  0.56313  0.64500  1.0000
  C   C603      1.0  0.28018  0.54712  0.66285  1.0000
  C   C604      1.0  0.28110  0.54835  0.68389  1.0000
  C   C605      1.0  0.29238  0.56523  0.68730  1.0000
  C   C606      1.0  0.30217  0.58130  0.66970  1.0000
  C   C607      1.0  0.30111  0.58025  0.64863  1.0000
  H   H500      1.0  0.24160  0.57711  0.64337  1.0000
  H   H501      1.0  0.20305  0.56398  0.65003  1.0000
  H   H502      1.0  0.27141  0.53383  0.66059  1.0000
  H   H503      1.0  0.27320  0.53603  0.69749  1.0000
  H   H504      1.0  0.29379  0.56577  0.70352  1.0000
  C   C608      1.0  0.45811  0.53314  0.52970  1.0000
  H   H505      1.0  0.30865  0.59307  0.63545  1.0000
  H   H506      1.0  0.19745  0.53437  0.63162  1.0000
  C   C609      1.0  0.08256  0.43009  0.73216  1.0000
  H   H507      1.0  0.48335  0.48350  0.65471  1.0000
  H   H508      1.0  0.41618  0.59969  0.66238  1.0000
  C   C610      1.0  0.21431  0.54033  0.62835  1.0000
  H   H509      1.0  0.22836  0.46532  0.71402  1.0000
  C   C611      1.0  0.31460  0.51932  0.62074  1.0000
  S   S93       1.0  0.41979  0.45800  0.69267  1.0000
  C   C612      1.0  0.40427  0.55555  0.60186  1.0000
  C   C613      1.0  0.35893  0.59821  0.69299  1.0000
  C   C614      1.0  0.31324  0.59696  0.59308  1.0000
  H   H510      1.0  0.13066  0.63391  0.70809  1.0000
  H   H511      1.0  0.47812  0.54655  0.67324  1.0000
  C   C615      1.0  0.37457  0.53079  0.61953  1.0000
  C   C616      1.0  0.27532  0.62492  0.57794  1.0000
  H   H512      1.0  0.40110  0.41721  0.71337  1.0000
  H   H513      1.0  0.16674  0.64360  0.68174  1.0000
  H   H514      1.0  0.04684  0.41345  0.63995  1.0000
  C   C617      1.0  0.16984  0.36930  0.67388  1.0000
  C   C618      1.0  0.41232  0.63642  0.65598  1.0000
  P   P19       1.0  0.28722  0.56225  0.61803  1.0000
  C   C619      1.0  0.38949  0.57420  0.60905  1.0000
  H   H515      1.0  0.23048  0.51758  0.60648  1.0000
  C   C620      1.0  0.39211  0.41125  0.72983  1.0000
  H   H516      1.0  0.46755  0.53820  0.51322  1.0000
  H   H517      1.0  0.42135  0.55820  0.59217  1.0000
  Fe  Fe50      1.0  0.24214  0.62765  0.67110  1.0000
  C   C621      1.0  0.35238  0.57605  0.69857  1.0000
  C   C622      1.0  0.40269  0.64455  0.59231  1.0000
  C   C623      1.0  0.46498  0.40523  0.70536  1.0000
  C   C624      1.0  0.46100  0.54518  0.67099  1.0000
  C   C625      1.0  0.16009  0.36380  0.73194  1.0000
  C   C626      1.0  0.02641  0.44692  0.63759  1.0000
  C   C627      1.0  0.03105  0.42384  0.63582  1.0000
  C   C628      1.0  0.01513  0.41393  0.62910  1.0000
  H   H518      1.0  0.14809  0.63339  0.57375  1.0000
  C   C629      1.0  0.36740  0.57106  0.62180  1.0000
  Fe  Fe51      1.0  0.35296  0.52267  0.69134  1.0000
  C   C630      1.0  0.10522  0.42977  0.73496  1.0000
  C   C631      1.0  0.41613  0.54163  0.73489  1.0000
  H   H519      1.0  0.13994  0.41191  0.73221  1.0000
  H   H520      1.0  0.03870  0.45457  0.64288  1.0000
  C   C632      1.0  0.46339  0.47857  0.73248  1.0000
  C   C633      1.0  0.38629  0.64084  0.58156  1.0000
  C   C634      1.0  0.10576  0.54321  0.63126  1.0000
  C   C635      1.0  0.08747  0.54413  0.62081  1.0000
  C   C636      1.0  0.07934  0.56489  0.60826  1.0000
  C   C637      1.0  0.08942  0.58481  0.60622  1.0000
  C   C638      1.0  0.10777  0.58406  0.61675  1.0000
  C   C639      1.0  0.11594  0.56304  0.62921  1.0000
  P   P20       1.0  0.12066  0.60970  0.61495  1.0000
  C   C640      1.0  0.11046  0.62029  0.63989  1.0000
  C   C641      1.0  0.15196  0.60266  0.60969  1.0000
  C   C642      1.0  0.16265  0.58614  0.59711  1.0000
  C   C643      1.0  0.18694  0.58190  0.59150  1.0000
  C   C644      1.0  0.20071  0.59427  0.59820  1.0000
  C   C645      1.0  0.19024  0.61064  0.61081  1.0000
  C   C646      1.0  0.16592  0.61494  0.61645  1.0000
  C   C647      1.0  0.09436  0.61399  0.67863  1.0000
  H   H521      1.0  0.44350  0.63097  0.68544  1.0000
  C   C648      1.0  0.09008  0.64438  0.59543  1.0000
  C   C649      1.0  0.28944  0.63998  0.72801  1.0000
  C   C650      1.0  0.10305  0.60543  0.65962  1.0000
  C   C651      1.0  0.48311  0.60645  0.72747  1.0000
  H   H522      1.0  0.08896  0.60224  0.69377  1.0000
  C   C652      1.0  0.18430  0.36026  0.72404  1.0000
  C   C653      1.0  0.11681  0.33371  0.73469  1.0000
  C   C654      1.0  0.45020  0.56151  0.65577  1.0000
  H   H523      1.0  0.47648  0.63173  0.62466  1.0000
  H   H524      1.0  0.11195  0.52706  0.64104  1.0000
  H   H525      1.0  0.07963  0.52869  0.62251  1.0000
  H   H526      1.0  0.06517  0.56554  0.60013  1.0000
  H   H527      1.0  0.08287  0.60060  0.59636  1.0000
  H   H528      1.0  0.13007  0.56200  0.63754  1.0000
  S   S94       1.0  0.26951  0.64663  0.67504  1.0000
  H   H529      1.0  0.24555  0.55465  0.72674  1.0000
  H   H530      1.0  0.21948  0.59101  0.59374  1.0000
  H   H531      1.0  0.35093  0.49166  0.58304  1.0000
  C   C655      1.0  0.05976  0.32558  0.66860  1.0000
  H   H532      1.0  0.34295  0.54687  0.63719  1.0000
  C   C656      1.0  0.26661  0.40933  0.73775  1.0000
  C   C657      1.0  0.43672  0.46443  0.70876  1.0000
  H   H533      1.0  0.37856  0.64108  0.55065  1.0000
  H   H534      1.0  0.10399  0.58718  0.66059  1.0000
  H   H535      1.0  0.48841  0.51365  0.54101  1.0000
  H   H536      1.0  0.03915  0.49278  0.70817  1.0000
  H   H537      1.0  0.01908  0.40325  0.54390  1.0000
  H   H538      1.0  0.33228  0.38679  0.72145  1.0000
  C   C658      1.0  0.22535  0.41920  0.71958  1.0000
  H   H539      1.0  0.42014  0.57018  0.64046  1.0000
  C   C659      1.0  0.46049  0.62219  0.52123  1.0000
  H   H540      1.0  0.06831  0.33586  0.65373  1.0000
  C   C660      1.0  0.15818  0.41540  0.65507  1.0000
  C   C661      1.0  0.44796  0.61279  0.64276  1.0000
  C   C662      1.0  0.03939  0.33518  0.68093  1.0000
  C   C663      1.0  0.28955  0.61868  0.72292  1.0000
  H   H541      1.0  0.44899  0.40791  0.71713  1.0000
  C   C664      1.0  0.31769  0.54345  0.58479  1.0000
  H   H542      1.0  0.47751  0.52331  0.63431  1.0000
  C   C665      1.0  0.47071  0.48825  0.64429  1.0000
  C   C666      1.0  0.14755  0.40666  0.67641  1.0000
  S   S95       1.0  0.31945  0.50751  0.70484  1.0000
  H   H543      1.0  0.42881  0.60467  0.71938  1.0000
  C   C667      1.0  0.18045  0.37814  0.65252  1.0000
  C   C668      1.0  0.45466  0.62373  0.69700  1.0000
  C   C669      1.0  0.23969  0.42433  0.69889  1.0000
  C   C670      1.0  0.23200  0.42314  0.68043  1.0000
  C   C671      1.0  0.20985  0.41727  0.68235  1.0000
  C   C672      1.0  0.19543  0.41240  0.70279  1.0000
  S   S96       1.0  0.35597  0.56017  0.67824  1.0000
  C   C673      1.0  0.43420  0.54026  0.53518  1.0000
  H   H544      1.0  0.25669  0.42966  0.69691  1.0000
  H   H545      1.0  0.24294  0.42754  0.66451  1.0000
  H   H546      1.0  0.20357  0.41732  0.66792  1.0000
  H   H547      1.0  0.19302  0.36707  0.64315  1.0000
  C   C674      1.0  0.35990  0.54940  0.62687  1.0000
  H   H548      1.0  0.42518  0.55084  0.52283  1.0000
  H   H549      1.0  0.34018  0.52855  0.55887  1.0000
  H   H550      1.0  0.33769  0.54989  0.72460  1.0000
  H   H551      1.0  0.18278  0.40809  0.62658  1.0000
  H   H552      1.0  0.12734  0.35381  0.67992  1.0000
  C   C675      1.0  0.99405  0.42687  0.62476  1.0000
  C   C676      1.0  0.30843  0.54031  0.60720  1.0000
  H   H553      1.0  0.48339  0.64150  0.67788  1.0000
  C   C677      1.0  0.09397  0.39380  0.72044  1.0000
  H   H554      1.0  0.26049  0.37927  0.72808  1.0000
  H   H555      1.0  0.40114  0.53663  0.66176  1.0000
  C   C678      1.0  0.33321  0.52607  0.57616  1.0000
  H   H556      1.0  0.20042  0.61624  0.66631  1.0000
  C   C679      1.0  0.25839  0.55476  0.62077  1.0000
  H   H557      1.0  0.07676  0.63864  0.60933  1.0000
  Fe  Fe52      1.0  0.38309  0.47610  0.69910  1.0000
  C   C680      1.0  0.42842  0.52318  0.67978  1.0000
  S   S97       1.0  0.00767  0.46137  0.70925  1.0000
  C   C681      1.0  0.15349  0.38355  0.68613  1.0000
  H   H558      1.0  0.43492  0.60200  0.57114  1.0000
  H   H559      1.0  0.33320  0.62440  0.57522  1.0000
  C   C682      1.0  0.44867  0.59558  0.60018  1.0000
  C   C683      1.0  0.07691  0.41202  0.72512  1.0000
  S   S98       1.0  0.01736  0.39449  0.72018  1.0000
  H   H560      1.0  0.39527  0.59100  0.60520  1.0000
  C   C684      1.0  0.31629  0.61837  0.57940  1.0000
  C   C685      1.0  0.46102  0.46262  0.70213  1.0000
  C   C686      1.0  0.46528  0.57657  0.57001  1.0000
  C   C687      1.0  0.24790  0.62086  0.73653  1.0000
  C   C688      1.0  0.46588  0.58300  0.61143  1.0000
  C   C689      1.0  0.35761  0.61059  0.70917  1.0000
  H   H561      1.0  0.46255  0.59422  0.50485  1.0000
  H   H562      1.0  0.19148  0.36238  0.70688  1.0000
  H   H563      1.0  0.30562  0.60988  0.71504  1.0000
  H   H564      1.0  0.17793  0.40875  0.70422  1.0000
  H   H565      1.0  0.30735  0.51613  0.63798  1.0000
  C   C690      1.0  0.45852  0.63281  0.63329  1.0000
  H   H566      1.0  0.08568  0.64410  0.69272  1.0000
  C   C691      1.0  0.45799  0.47187  0.64212  1.0000
  C   C692      1.0  0.29106  0.58958  0.59967  1.0000
  S   S99       1.0  0.37070  0.50388  0.71836  1.0000
  H   H567      1.0  0.36293  0.62753  0.70469  1.0000
  Fe  Fe53      1.0  0.33617  0.47947  0.68676  1.0000
  C   C693      1.0  0.02826  0.32171  0.70002  1.0000
  H   H568      1.0  0.19134  0.40972  0.73684  1.0000
  H   H569      1.0  0.22512  0.50503  0.71914  1.0000
  C   C694      1.0  0.27216  0.60366  0.59185  1.0000
  C   C695      1.0  0.44648  0.60873  0.71627  1.0000
  H   H570      1.0  0.44781  0.41505  0.67817  1.0000
  S   S100      1.0  0.02852  0.36403  0.67188  1.0000
  C   C696      1.0  0.12232  0.41146  0.73055  1.0000
  C   C697      1.0  0.47436  0.47000  0.71384  1.0000
  C   C698      1.0  0.31402  0.39289  0.72631  1.0000
  C   C699      1.0  0.47048  0.64151  0.52173  1.0000
  C   C700      1.0  0.34962  0.60095  0.73098  1.0000
  C   C701      1.0  0.10948  0.32494  0.69646  1.0000
  C   C702      1.0  0.10424  0.31593  0.73555  1.0000
  C   C703      1.0  0.41779  0.53909  0.66441  1.0000
  C   C704      1.0  0.11298  0.63289  0.59333  1.0000
  H   H571      1.0  0.46502  0.57390  0.55409  1.0000
  P   P21       1.0  0.13968  0.37198  0.71373  1.0000
  H   H572      1.0  0.36541  0.60565  0.67617  1.0000
  H   H573      1.0  0.32804  0.58640  0.59899  1.0000
  H   H574      1.0  0.19513  0.56909  0.58187  1.0000
  C   C705      1.0  0.17465  0.40120  0.64314  1.0000
  H   H575      1.0  0.05949  0.41249  0.72251  1.0000
  C   C706      1.0  0.44850  0.59251  0.57950  1.0000
  C   C707      1.0  0.44999  0.52623  0.68307  1.0000
  H   H576      1.0  0.25485  0.59868  0.59695  1.0000
  H   H577      1.0  0.46949  0.45615  0.68766  1.0000
  P   P22       1.0  0.46453  0.58539  0.63896  1.0000
  H   H578      1.0  0.48450  0.40988  0.65096  1.0000
  C   C708      1.0  0.42864  0.55814  0.65240  1.0000
  C   C709      1.0  0.42592  0.47246  0.72770  1.0000
  C   C710      1.0  0.43310  0.55285  0.73849  1.0000
  C   C711      1.0  0.12593  0.34726  0.71464  1.0000
  H   H579      1.0  0.17419  0.35130  0.68082  1.0000
  H   H580      1.0  0.42083  0.53012  0.72359  1.0000
  Fe  Fe54      1.0  0.99513  0.42771  0.71084  1.0000
  C   C712      1.0  0.11682  0.39336  0.72317  1.0000
  C   C713      1.0  0.47006  0.60924  0.50517  1.0000
  C   C714      1.0  0.26880  0.60912  0.72723  1.0000
  H   H581      1.0  0.30567  0.64733  0.72395  1.0000
  Fe  Fe55      1.0  0.33843  0.48656  0.73048  1.0000
  C   C715      1.0  0.20308  0.41330  0.72136  1.0000
  H   H582      1.0  0.08929  0.38051  0.71413  1.0000
  H   H583      1.0  0.26053  0.63593  0.57236  1.0000
  C   C716      1.0  0.30733  0.41314  0.73438  1.0000
  H   H584      1.0  0.45094  0.55003  0.72967  1.0000
  C   C717      1.0  0.22769  0.49073  0.73242  1.0000
  C   C718      1.0  0.34167  0.57935  0.73641  1.0000
  H   H585      1.0  0.37136  0.39120  0.72029  1.0000
  H   H586      1.0  0.32043  0.42265  0.73599  1.0000
  C   C719      1.0  0.12181  0.34294  0.69553  1.0000
  C   C720      1.0  0.13013  0.64133  0.57559  1.0000
  H   H587      1.0  0.32261  0.64015  0.66859  1.0000
  H   H588      1.0  0.36941  0.63617  0.59075  1.0000
  H   H589      1.0  0.21841  0.35231  0.73210  1.0000
  C   C721      1.0  0.27347  0.38877  0.73001  1.0000
  C   C722      1.0  0.37525  0.39654  0.73377  1.0000
  C   C723      1.0  0.10931  0.64384  0.63958  1.0000
  H   H590      1.0  0.39845  0.64288  0.60981  1.0000
  H   H591      1.0  0.46055  0.45439  0.65112  1.0000
  C   C724      1.0  0.49072  0.64699  0.50631  1.0000
  Fe  Fe56      1.0  0.28401  0.64656  0.63983  1.0000
  H   H592      1.0  0.28150  0.53002  0.73589  1.0000
  C   C725      1.0  0.00588  0.46014  0.63259  1.0000
  H   H593      1.0  0.06941  0.44451  0.73494  1.0000
  H   H594      1.0  0.99858  0.43810  0.52370  1.0000
  C   C726      1.0  0.47702  0.62999  0.69289  1.0000
  H   H595      1.0  0.48646  0.39536  0.72921  1.0000
  H   H596      1.0  0.48008  0.58452  0.67879  1.0000
  C   C727      1.0  0.99913  0.40819  0.57523  1.0000
  H   H597      1.0  0.10620  0.32182  0.68169  1.0000
  H   H598      1.0  0.39446  0.63793  0.66502  1.0000
  C   C728      1.0  0.99383  0.43365  0.54123  1.0000
  H   H599      1.0  0.08495  0.47911  0.73747  1.0000
  C   C729      1.0  0.48994  0.61514  0.48976  1.0000
  C   C730      1.0  0.19977  0.35455  0.73835  1.0000
  C   C731      1.0  0.49108  0.62169  0.70828  1.0000
  C   C732      1.0  0.43925  0.47936  0.73964  1.0000
  H   H600      1.0  0.23174  0.61375  0.73897  1.0000
  Fe  Fe57      1.0  0.23368  0.41691  0.83914  1.0000
  S   S101      1.0  0.22952  0.44885  0.85270  1.0000
  S   S102      1.0  0.26740  0.40253  0.81940  1.0000
  S   S103      1.0  0.17367  0.44300  0.86921  1.0000
  Fe  Fe58      1.0  0.19694  0.45918  0.83899  1.0000
  S   S104      1.0  0.18589  0.49299  0.81803  1.0000
  Fe  Fe59      1.0  0.20682  0.42937  0.88134  1.0000
  S   S105      1.0  0.21091  0.42709  0.91534  1.0000
  S   S106      1.0  0.20312  0.42881  0.82323  1.0000
  S   S107      1.0  0.21294  0.39652  0.86887  1.0000
  S   S108      1.0  0.16857  0.51501  0.95550  1.0000
  H   H601      1.0  0.18798  0.42425  0.76794  1.0000
  S   S109      1.0  0.32106  0.48513  0.76503  1.0000
  H   H602      1.0  0.47995  0.41887  0.76432  1.0000
  C   C733      1.0  0.05381  0.38548  0.91751  1.0000
  H   H603      1.0  0.19685  0.47426  0.89536  1.0000
  C   C734      1.0  0.03440  0.32786  0.80679  1.0000
  H   H604      1.0  0.19009  0.36734  0.82179  1.0000
  C   C735      1.0  0.03618  0.42102  0.94511  1.0000
  C   C736      1.0  0.00005  0.35204  0.97805  1.0000
  H   H605      1.0  0.36053  0.38840  0.78857  1.0000
  C   C737      1.0  0.01599  0.36484  0.96252  1.0000
  C   C738      1.0  0.12931  0.35532  0.97264  1.0000
  C   C739      1.0  0.41966  0.60671  0.81307  1.0000
  C   C740      1.0  0.13690  0.42597  0.96243  1.0000
  H   H606      1.0  0.01980  0.48841  0.78202  1.0000
  C   C741      1.0  0.00271  0.44186  0.90985  1.0000
  H   H607      1.0  0.33524  0.38667  0.87108  1.0000
  C   C742      1.0  0.28154  0.42515  0.80199  1.0000
  C   C743      1.0  0.27123  0.44779  0.80198  1.0000
  C   C744      1.0  0.28316  0.46610  0.78988  1.0000
  C   C745      1.0  0.30531  0.46192  0.77720  1.0000
  C   C746      1.0  0.31530  0.43930  0.77608  1.0000
  C   C747      1.0  0.30347  0.42083  0.78868  1.0000
  H   H608      1.0  0.25401  0.45129  0.81139  1.0000
  H   H609      1.0  0.27522  0.48353  0.79056  1.0000
  H   H610      1.0  0.11854  0.33715  0.74984  1.0000
  H   H611      1.0  0.31142  0.40330  0.78847  1.0000
  C   C748      1.0  0.17308  0.48556  0.79917  1.0000
  C   C749      1.0  0.17507  0.49830  0.77791  1.0000
  C   C750      1.0  0.16732  0.49040  0.76234  1.0000
  C   C751      1.0  0.15784  0.46962  0.76807  1.0000
  C   C752      1.0  0.15501  0.45749  0.78951  1.0000
  C   C753      1.0  0.16230  0.46563  0.80504  1.0000
  H   H612      1.0  0.18344  0.51373  0.77327  1.0000
  H   H613      1.0  0.14764  0.44148  0.79412  1.0000
  H   H614      1.0  0.16008  0.45607  0.82156  1.0000
  C   C754      1.0  0.19989  0.45184  0.92610  1.0000
  C   C755      1.0  0.19651  0.45024  0.94851  1.0000
  C   C756      1.0  0.18689  0.46958  0.95765  1.0000
  C   C757      1.0  0.18093  0.49066  0.94434  1.0000
  C   C758      1.0  0.18483  0.49239  0.92183  1.0000
  C   C759      1.0  0.19414  0.47295  0.91270  1.0000
  H   H615      1.0  0.20111  0.43396  0.95884  1.0000
  C   C760      1.0  0.19047  0.36928  0.92289  1.0000
  H   H616      1.0  0.18031  0.50870  0.91153  1.0000
  C   C761      1.0  0.00795  0.38426  0.94811  1.0000
  C   C762      1.0  0.00842  0.37769  0.83301  1.0000
  C   C763      1.0  0.03130  0.46714  0.84734  1.0000
  C   C764      1.0  0.19871  0.37712  0.80666  1.0000
  H   H617      1.0  0.32831  0.64546  0.78806  1.0000
  H   H618      1.0  0.03955  0.58755  0.80466  1.0000
  C   C765      1.0  0.05923  0.43861  0.86396  1.0000
  C   C766      1.0  0.19122  0.35193  0.76068  1.0000
  H   H619      1.0  0.41316  0.48642  0.80905  1.0000
  C   C767      1.0  0.07107  0.35126  0.90290  1.0000
  H   H620      1.0  0.46074  0.53150  0.76567  1.0000
  C   C768      1.0  0.12369  0.37915  0.97159  1.0000
  H   H621      1.0  0.15396  0.38106  0.93086  1.0000
  P   P23       1.0  0.14582  0.39586  0.97222  1.0000
  C   C769      1.0  0.37828  0.46378  0.77629  1.0000
  C   C770      1.0  0.07581  0.39341  0.91112  1.0000
  H   H622      1.0  0.11928  0.48091  0.86658  1.0000
  H   H623      1.0  0.23242  0.35764  0.80853  1.0000
  C   C771      1.0  0.10533  0.49459  0.83757  1.0000
  C   C772      1.0  0.36913  0.39545  0.77229  1.0000
  H   H624      1.0  0.05793  0.45697  0.97762  1.0000
  C   C773      1.0  0.09930  0.48955  0.81958  1.0000
  C   C774      1.0  0.11500  0.46242  0.96942  1.0000
  H   H625      1.0  0.08084  0.34430  0.95947  1.0000
  H   H626      1.0  0.11661  0.43188  0.77979  1.0000
  C   C775      1.0  0.19855  0.53095  0.84995  1.0000
  C   C776      1.0  0.19756  0.54282  0.86632  1.0000
  C   C777      1.0  0.21617  0.55437  0.86580  1.0000
  C   C778      1.0  0.23583  0.55399  0.84896  1.0000
  C   C779      1.0  0.23693  0.54209  0.83244  1.0000
  C   C780      1.0  0.21815  0.53056  0.83311  1.0000
  P   P24       1.0  0.26318  0.53895  0.81202  1.0000
  C   C781      1.0  0.25606  0.54153  0.78580  1.0000
  C   C782      1.0  0.28132  0.56103  0.80912  1.0000
  C   C783      1.0  0.28341  0.57889  0.79067  1.0000
  C   C784      1.0  0.29953  0.59426  0.78736  1.0000
  C   C785      1.0  0.31354  0.59216  0.80245  1.0000
  C   C786      1.0  0.31118  0.57482  0.82112  1.0000
  C   C787      1.0  0.29517  0.55927  0.82444  1.0000
  C   C788      1.0  0.27250  0.53262  0.76942  1.0000
  C   C789      1.0  0.03174  0.56259  0.83431  1.0000
  H   H627      1.0  0.14599  0.34657  0.97602  1.0000
  C   C790      1.0  0.99949  0.43254  0.80573  1.0000
  C   C791      1.0  0.99553  0.44209  0.76819  1.0000
  C   C792      1.0  0.28028  0.51161  0.82023  1.0000
  C   C793      1.0  0.27016  0.49396  0.83615  1.0000
  C   C794      1.0  0.28383  0.47332  0.84300  1.0000
  C   C795      1.0  0.30762  0.47006  0.83400  1.0000
  C   C796      1.0  0.31784  0.48747  0.81822  1.0000
  C   C797      1.0  0.30429  0.50816  0.81136  1.0000
  H   H628      1.0  0.18437  0.52156  0.85051  1.0000
  C   C798      1.0  0.03054  0.41650  0.96794  1.0000
  H   H629      1.0  0.21549  0.56322  0.87874  1.0000
  H   H630      1.0  0.25019  0.56265  0.84915  1.0000
  H   H631      1.0  0.21896  0.52066  0.82091  1.0000
  H   H632      1.0  0.27325  0.58073  0.77839  1.0000
  H   H633      1.0  0.30171  0.60732  0.77263  1.0000
  H   H634      1.0  0.32652  0.60370  0.79942  1.0000
  H   H635      1.0  0.32214  0.57311  0.83276  1.0000
  H   H636      1.0  0.29401  0.54549  0.83867  1.0000
  H   H637      1.0  0.28866  0.52269  0.77275  1.0000
  P   P25       1.0  0.44896  0.58250  0.75748  1.0000
  C   C799      1.0  0.23176  0.55974  0.75940  1.0000
  H   H638      1.0  0.09438  0.53673  0.75389  1.0000
  H   H639      1.0  0.25255  0.38018  0.77476  1.0000
  H   H640      1.0  0.25178  0.49587  0.84336  1.0000
  H   H641      1.0  0.27590  0.45972  0.85516  1.0000
  H   H642      1.0  0.31806  0.45395  0.83907  1.0000
  H   H643      1.0  0.33616  0.48470  0.81084  1.0000
  H   H644      1.0  0.31255  0.52128  0.79887  1.0000
  H   H645      1.0  0.41468  0.59948  0.83020  1.0000
  H   H646      1.0  0.01831  0.45821  0.82273  1.0000
  H   H647      1.0  0.11948  0.49151  0.94290  1.0000
  C   C800      1.0  0.04876  0.43948  0.93418  1.0000
  C   C801      1.0  0.11005  0.52876  0.78236  1.0000
  C   C802      1.0  0.12804  0.53336  0.79084  1.0000
  P   P26       1.0  0.08747  0.51235  0.79977  1.0000
  C   C803      1.0  0.06589  0.53206  0.81346  1.0000
  H   H648      1.0  0.10510  0.49244  0.76064  1.0000
  C   C804      1.0  0.04941  0.49827  0.79009  1.0000
  H   H649      1.0  0.03447  0.36001  0.96231  1.0000
  C   C805      1.0  0.05372  0.52468  0.83470  1.0000
  C   C806      1.0  0.03680  0.53992  0.84510  1.0000
  C   C807      1.0  0.03832  0.42948  0.97951  1.0000
  C   C808      1.0  0.04355  0.57000  0.81307  1.0000
  C   C809      1.0  0.06052  0.55481  0.80265  1.0000
  C   C810      1.0  0.41655  0.63055  0.80564  1.0000
  C   C811      1.0  0.43591  0.60141  0.77617  1.0000
  H   H650      1.0  0.45858  0.35276  0.79626  1.0000
  Fe  Fe60      1.0  0.18162  0.41185  0.85419  1.0000
  H   H651      1.0  0.13002  0.52561  0.80724  1.0000
  H   H652      1.0  0.03908  0.50395  0.80446  1.0000
  C   C812      1.0  0.19396  0.38258  0.96049  1.0000
  H   H653      1.0  0.05728  0.50717  0.84323  1.0000
  H   H654      1.0  0.27897  0.43724  0.74613  1.0000
  C   C813      1.0  0.47197  0.38472  0.78031  1.0000
  H   H655      1.0  0.21610  0.57044  0.75534  1.0000
  H   H656      1.0  0.06935  0.56085  0.78615  1.0000
  S   S110      1.0  0.08530  0.31449  0.85893  1.0000
  C   C814      1.0  0.09513  0.38038  0.90070  1.0000
  H   H657      1.0  0.22660  0.51222  0.75500  1.0000
  H   H658      1.0  0.11208  0.38650  0.89579  1.0000
  H   H659      1.0  0.43925  0.43660  0.77011  1.0000
  H   H660      1.0  0.07001  0.38576  0.95919  1.0000
  C   C815      1.0  0.23558  0.55517  0.78063  1.0000
  H   H661      1.0  0.07163  0.36654  0.81609  1.0000
  C   C816      1.0  0.03218  0.42286  0.77763  1.0000
  H   H662      1.0  0.09831  0.46217  0.80353  1.0000
  C   C817      1.0  0.15173  0.36111  0.75443  1.0000
  C   C818      1.0  0.11038  0.44886  0.83319  1.0000
  H   H663      1.0  0.41060  0.42960  0.74367  1.0000
  C   C819      1.0  0.12152  0.43892  0.97655  1.0000
  C   C820      1.0  0.33743  0.40591  0.83832  1.0000
  H   H664      1.0  0.15710  0.42717  0.92970  1.0000
  P   P27       1.0  0.02830  0.40269  0.93006  1.0000
  H   H665      1.0  0.14537  0.46848  0.91735  1.0000
  C   C821      1.0  0.12365  0.47310  0.94811  1.0000
  H   H666      1.0  0.06839  0.36173  0.76642  1.0000
  C   C822      1.0  0.03880  0.37132  0.85373  1.0000
  C   C823      1.0  0.00985  0.40863  0.89312  1.0000
  C   C824      1.0  0.10199  0.46653  0.81752  1.0000
  C   C825      1.0  0.16626  0.35209  0.86767  1.0000
  C   C826      1.0  0.43257  0.62532  0.76885  1.0000
  H   H667      1.0  0.11309  0.43115  0.83120  1.0000
  C   C827      1.0  0.11392  0.47690  0.85313  1.0000
  H   H668      1.0  0.01722  0.39100  0.89255  1.0000
  C   C828      1.0  0.10672  0.41772  0.78786  1.0000
  H   H669      1.0  0.10359  0.51220  0.83951  1.0000
  C   C829      1.0  0.14502  0.43666  0.94088  1.0000
  C   C830      1.0  0.17206  0.38517  0.95491  1.0000
  C   C831      1.0  0.14423  0.54778  0.77798  1.0000
  C   C832      1.0  0.17055  0.37879  0.93579  1.0000
  C   C833      1.0  0.22257  0.37155  0.79909  1.0000
  C   C834      1.0  0.15176  0.36740  0.85506  1.0000
  C   C835      1.0  0.18624  0.39593  0.79523  1.0000
  C   C836      1.0  0.19762  0.40909  0.77609  1.0000
  C   C837      1.0  0.22142  0.40308  0.76789  1.0000
  C   C838      1.0  0.23392  0.38444  0.77980  1.0000
  C   C839      1.0  0.46636  0.40832  0.77300  1.0000
  C   C840      1.0  0.48912  0.52391  0.78215  1.0000
  C   C841      1.0  0.37100  0.38765  0.85391  1.0000
  H   H670      1.0  0.10776  0.34906  0.88871  1.0000
  H   H671      1.0  0.31863  0.40992  0.83977  1.0000
  C   C842      1.0  0.08118  0.38103  0.80840  1.0000
  S   S111      1.0  0.15020  0.39727  0.85180  1.0000
  H   H672      1.0  0.02955  0.38003  0.75943  1.0000
  C   C843      1.0  0.23349  0.45386  0.76696  1.0000
  C   C844      1.0  0.23144  0.47644  0.76979  1.0000
  C   C845      1.0  0.09269  0.35395  0.96307  1.0000
  H   H673      1.0  0.06886  0.40753  0.85192  1.0000
  C   C846      1.0  0.05664  0.45234  0.94586  1.0000
  C   C847      1.0  0.11384  0.34281  0.96837  1.0000
  H   H674      1.0  0.07841  0.40945  0.91423  1.0000
  H   H675      1.0  0.02130  0.48408  0.84577  1.0000
  H   H676      1.0  0.22287  0.56283  0.79277  1.0000
  H   H677      1.0  0.41733  0.37036  0.80213  1.0000
  C   C848      1.0  0.02925  0.35206  0.86704  1.0000
  H   H678      1.0  0.06933  0.33490  0.89968  1.0000
  H   H679      1.0  0.23589  0.43976  0.78045  1.0000
  H   H680      1.0  0.23154  0.47972  0.78553  1.0000
  C   C849      1.0  0.10842  0.53921  0.76080  1.0000
  H   H681      1.0  0.09698  0.40830  0.96634  1.0000
  H   H682      1.0  0.01865  0.57442  0.84238  1.0000
  C   C850      1.0  0.13833  0.46015  0.93376  1.0000
  C   C851      1.0  0.22871  0.49483  0.75251  1.0000
  H   H683      1.0  0.36817  0.45780  0.76726  1.0000
  C   C852      1.0  0.07345  0.49995  0.78398  1.0000
  H   H684      1.0  0.02763  0.53419  0.86157  1.0000
  C   C853      1.0  0.11633  0.45405  0.85099  1.0000
  H   H685      1.0  0.12352  0.44035  0.86273  1.0000
  C   C854      1.0  0.05281  0.35500  0.77645  1.0000
  C   C855      1.0  0.05746  0.42367  0.85104  1.0000
  C   C856      1.0  0.43093  0.38121  0.79451  1.0000
  H   H686      1.0  0.19584  0.38797  0.97471  1.0000
  C   C857      1.0  0.00925  0.34565  0.86355  1.0000
  C   C858      1.0  0.03838  0.48950  0.77744  1.0000
  C   C859      1.0  0.26861  0.53710  0.74830  1.0000
  H   H687      1.0  0.20317  0.34754  0.77178  1.0000
  H   H688      1.0  0.02052  0.40272  0.97705  1.0000
  C   C860      1.0  0.05458  0.33620  0.79362  1.0000
  C   C861      1.0  0.05158  0.44722  0.96853  1.0000
  H   H689      1.0  0.16800  0.40088  0.80178  1.0000
  C   C862      1.0  0.39304  0.44823  0.78855  1.0000
  H   H690      1.0  0.18254  0.54276  0.87960  1.0000
  S   S112      1.0  0.14998  0.45782  0.74888  1.0000
  P   P28       1.0  0.39506  0.41768  0.79045  1.0000
  C   C863      1.0  0.38578  0.41065  0.76840  1.0000
  C   C864      1.0  0.01350  0.41933  0.90892  1.0000
  C   C865      1.0  0.21392  0.37329  0.94739  1.0000
  H   H691      1.0  0.02562  0.43175  0.74514  1.0000
  C   C866      1.0  0.08664  0.37743  0.96274  1.0000
  C   C867      1.0  0.38875  0.49552  0.78764  1.0000
  C   C868      1.0  0.16578  0.32824  0.87095  1.0000
  C   C869      1.0  0.40377  0.57120  0.76429  1.0000
  H   H692      1.0  0.99688  0.33107  0.81215  1.0000
  C   C870      1.0  0.08639  0.49199  0.76540  1.0000
  H   H693      1.0  0.36894  0.56314  0.76889  1.0000
  H   H694      1.0  0.10382  0.47248  0.98066  1.0000
  C   C871      1.0  0.08285  0.42199  0.79608  1.0000
  H   H695      1.0  0.34475  0.42444  0.80543  1.0000
  H   H696      1.0  0.12677  0.37075  0.83499  1.0000
  H   H697      1.0  0.36465  0.49932  0.76651  1.0000
  C   C872      1.0  0.04603  0.46026  0.86226  1.0000
  C   C873      1.0  0.15112  0.31980  0.86131  1.0000
  H   H698      1.0  0.13652  0.39215  0.78405  1.0000
  C   C874      1.0  0.42939  0.59217  0.79841  1.0000
  C   C875      1.0  0.10197  0.39005  0.96704  1.0000
  S   S113      1.0  0.08216  0.32333  0.79832  1.0000
  H   H699      1.0  0.43189  0.57373  0.80435  1.0000
  H   H700      1.0  0.07435  0.43956  0.79423  1.0000
  C   C876      1.0  0.47239  0.53887  0.77191  1.0000
  C   C877      1.0  0.07513  0.48396  0.75243  1.0000
  H   H701      1.0  0.00223  0.33042  0.87378  1.0000
  H   H702      1.0  0.18439  0.46824  0.97494  1.0000
  C   C878      1.0  0.09276  0.35929  0.89662  1.0000
  H   H703      1.0  0.22770  0.35997  0.91819  1.0000
  H   H704      1.0  0.37822  0.37777  0.86768  1.0000
  C   C879      1.0  0.02938  0.45216  0.83446  1.0000
  C   C880      1.0  0.02291  0.42333  0.79958  1.0000
  C   C881      1.0  0.38587  0.39526  0.83419  1.0000
  C   C882      1.0  0.04192  0.42995  0.83664  1.0000
  C   C883      1.0  0.13786  0.33519  0.84761  1.0000
  C   C884      1.0  0.05117  0.48264  0.75846  1.0000
  H   H705      1.0  0.17729  0.35861  0.87535  1.0000
  C   C885      1.0  0.40334  0.48009  0.80000  1.0000
  H   H706      1.0  0.12769  0.32881  0.83902  1.0000
  H   H707      1.0  0.04751  0.47178  0.87229  1.0000
  C   C886      1.0  0.11792  0.39520  0.79010  1.0000
  C   C887      1.0  0.38690  0.55998  0.76060  1.0000
  C   C888      1.0  0.37654  0.40786  0.81627  1.0000
  H   H708      1.0  0.07133  0.43351  0.87492  1.0000
  C   C889      1.0  0.42708  0.56753  0.75343  1.0000
  C   C890      1.0  0.16721  0.35502  0.76873  1.0000
  H   H709      1.0  0.03762  0.34176  0.87988  1.0000
  H   H710      1.0  0.05473  0.37520  0.85650  1.0000
  H   H711      1.0  0.16060  0.35277  0.78610  1.0000
  H   H712      1.0  0.06691  0.46615  0.93741  1.0000
  C   C891      1.0  0.45425  0.37114  0.79097  1.0000
  C   C892      1.0  0.13775  0.35891  0.84492  1.0000
  C   C893      1.0  0.07007  0.40371  0.80694  1.0000
  C   C894      1.0  0.10508  0.37681  0.79998  1.0000
  H   H713      1.0  0.15832  0.55077  0.78458  1.0000
  P   P29       1.0  0.04013  0.41019  0.81997  1.0000
  C   C895      1.0  0.03084  0.36520  0.77227  1.0000
  C   C896      1.0  0.34679  0.39276  0.85590  1.0000
  H   H714      1.0  0.23085  0.37197  0.95141  1.0000
  H   H715      1.0  0.11357  0.35920  0.80149  1.0000
  H   H716      1.0  0.13318  0.36382  0.76091  1.0000
  C   C897      1.0  0.01247  0.33785  0.80235  1.0000
  H   H717      1.0  0.40915  0.64184  0.81696  1.0000
  H   H718      1.0  0.04967  0.41464  0.77248  1.0000
  C   C898      1.0  0.35226  0.41385  0.81876  1.0000
  C   C899      1.0  0.21217  0.36661  0.92862  1.0000
  H   H719      1.0  0.18914  0.36436  0.90822  1.0000
  H   H720      1.0  0.41645  0.44473  0.81054  1.0000
  H   H721      1.0  0.99273  0.41171  0.86655  1.0000
  H   H722      1.0  0.40454  0.39144  0.83311  1.0000
  H   H723      1.0  0.11824  0.32446  0.96898  1.0000
  C   C900      1.0  0.40530  0.45651  0.80065  1.0000
  C   C901      1.0  0.37623  0.48737  0.77583  1.0000
  S   S114      1.0  0.34996  0.61546  0.75155  1.0000
  C   C902      1.0  0.02829  0.38461  0.83674  1.0000
  C   C903      1.0  0.42525  0.40505  0.78794  1.0000
  H   H724      1.0  0.43080  0.48592  0.75410  1.0000
  C   C904      1.0  0.05169  0.36415  0.91337  1.0000
  H   H725      1.0  0.05287  0.44366  0.91663  1.0000
  C   C905      1.0  0.44313  0.41841  0.77658  1.0000
  H   H726      1.0  0.03512  0.35734  0.91815  1.0000
  H   H727      1.0  0.30660  0.64657  0.76005  1.0000
  H   H728      1.0  0.38714  0.51376  0.78726  1.0000
  C   C906      1.0  0.14284  0.55751  0.75644  1.0000
  H   H729      1.0  0.43741  0.63289  0.75183  1.0000
  C   C907      1.0  0.47109  0.56277  0.76979  1.0000
  H   H730      1.0  0.00049  0.38654  0.81939  1.0000
  H   H731      1.0  0.33249  0.43606  0.76629  1.0000
  C   C908      1.0  0.01856  0.43236  0.76203  1.0000
  H   H732      1.0  0.17629  0.31638  0.88137  1.0000
  C   C909      1.0  0.99883  0.35848  0.84654  1.0000
  H   H733      1.0  0.35060  0.37723  0.75811  1.0000
  C   C910      1.0  0.36367  0.38872  0.75498  1.0000
  H   H734      1.0  0.39830  0.58309  0.77522  1.0000
  C   C911      1.0  0.01068  0.35632  0.78492  1.0000
  C   C912      1.0  0.01624  0.31727  0.75587  1.0000
  H   H735      1.0  0.04243  0.47650  0.74833  1.0000
  C   C913      1.0  0.42310  0.63983  0.78354  1.0000
  C   C914      1.0  0.99573  0.42029  0.87844  1.0000
  H   H736      1.0  0.37979  0.53709  0.74261  1.0000
  H   H737      1.0  0.33472  0.57207  0.75314  1.0000
  C   C915      1.0  0.39302  0.54535  0.74580  1.0000
  H   H738      1.0  0.00432  0.45013  0.92249  1.0000
  H   H739      1.0  0.49040  0.50555  0.78315  1.0000
  C   C916      1.0  0.23255  0.44956  0.74683  1.0000
  H   H740      1.0  0.48574  0.58963  0.77739  1.0000
  C   C917      1.0  0.48642  0.57131  0.77865  1.0000
  C   C918      1.0  0.12498  0.55317  0.74783  1.0000
  H   H741      1.0  0.01727  0.33370  0.74468  1.0000
  S   S115      1.0  0.47930  0.48898  0.74679  1.0000
  C   C919      1.0  0.24836  0.55085  0.74322  1.0000
  C   C920      1.0  0.24770  0.64213  0.74175  1.0000
  H   H742      1.0  0.15572  0.56825  0.74635  1.0000
  H   H743      1.0  0.16935  0.50001  0.74585  1.0000
  C   C921      1.0  0.39729  0.41840  0.74703  1.0000
  H   H744      1.0  0.10981  0.44391  0.74007  1.0000
  P   P30       1.0  0.23602  0.42033  0.74323  1.0000
  H   H745      1.0  0.49003  0.37693  0.77748  1.0000
  C   C922      1.0  0.28370  0.42139  0.74011  1.0000
  S   S116      1.0  0.04305  0.86955  0.19497  1.0000
  C   C923      1.0  0.40755  0.67483  0.14939  1.0000
  H   H746      1.0  0.42622  0.85784  0.99979  1.0000
  H   H747      1.0  0.07524  0.64757  0.10607  1.0000
  C   C924      1.0  0.46323  0.95750  0.07663  1.0000
  S   S117      1.0  0.09101  0.81724  0.17834  1.0000
  H   H748      1.0  0.07763  0.70561  0.18469  1.0000
  S   S118      1.0  0.30417  0.70156  0.21228  1.0000
  S   S119      1.0  0.08696  0.83215  0.22524  1.0000
  Fe  Fe61      1.0  0.34111  0.68834  0.19922  1.0000
  S   S120      1.0  0.36686  0.71101  0.17729  1.0000
  H   H749      1.0  0.03039  0.88693  0.15320  1.0000
  H   H750      1.0  0.43476  0.77788  0.23103  1.0000
  C   C925      1.0  0.10827  0.70147  0.15963  1.0000
  C   C926      1.0  0.30669  0.67991  0.13065  1.0000
  Fe  Fe62      1.0  0.43185  0.89673  0.20007  1.0000
  S   S121      1.0  0.40025  0.91892  0.19018  1.0000
  C   C927      1.0  0.10862  0.65809  0.23511  1.0000
  Fe  Fe63      1.0  0.42453  0.94513  0.17358  1.0000
  H   H751      1.0  0.14767  0.90894  0.21351  1.0000
  S   S122      1.0  0.45666  0.92140  0.18039  1.0000
  H   H752      1.0  0.18435  0.95095  0.22107  1.0000
  C   C928      1.0  0.09235  0.73743  0.17193  1.0000
  Fe  Fe64      1.0  0.47831  0.73799  0.19053  1.0000
  S   S123      1.0  0.44595  0.73336  0.21649  1.0000
  C   C929      1.0  0.44273  0.84688  0.99734  1.0000
  C   C930      1.0  0.47459  0.95838  0.99060  1.0000
  C   C931      1.0  0.01363  0.87200  0.20863  1.0000
  C   C932      1.0  0.33877  0.83774  0.22355  1.0000
  H   H753      1.0  0.06532  0.97527  0.22678  1.0000
  H   H754      1.0  0.14634  0.74825  0.18523  1.0000
  Fe  Fe65      1.0  0.29428  0.67518  0.19813  1.0000
  C   C933      1.0  0.26879  0.75529  0.22205  1.0000
  C   C934      1.0  0.47923  0.88451  0.13597  1.0000
  C   C935      1.0  0.46071  0.84941  0.00681  1.0000
  C   C936      1.0  0.18756  0.82415  0.20972  1.0000
  H   H755      1.0  0.25905  0.64787  0.12293  1.0000
  H   H756      1.0  0.25271  0.68988  0.11842  1.0000
  C   C937      1.0  0.45388  0.94477  0.11588  1.0000
  S   S124      1.0  0.26572  0.68658  0.17919  1.0000
  C   C938      1.0  0.46298  0.80171  0.07459  1.0000
  H   H757      1.0  0.48311  0.89690  0.14383  1.0000
  H   H758      1.0  0.45673  0.93258  0.13045  1.0000
  C   C939      1.0  0.46140  0.84332  0.19548  1.0000
  C   C940      1.0  0.14948  0.82577  0.23338  1.0000
  H   H759      1.0  0.45811  0.86219  0.01673  1.0000
  H   H760      1.0  0.10750  0.68343  0.16079  1.0000
  S   S125      1.0  0.10311  0.77817  0.22087  1.0000
  C   C941      1.0  0.46345  0.81936  0.19986  1.0000
  C   C942      1.0  0.09141  0.71405  0.17316  1.0000
  C   C943      1.0  0.00475  0.86700  0.15093  1.0000
  H   H761      1.0  0.40499  0.85945  0.04577  1.0000
  H   H762      1.0  0.01319  0.90683  0.21158  1.0000
  C   C944      1.0  0.38958  0.71525  0.18845  1.0000
  C   C945      1.0  0.40850  0.72548  0.17468  1.0000
  C   C946      1.0  0.42614  0.73046  0.18326  1.0000
  C   C947      1.0  0.42449  0.72598  0.20570  1.0000
  C   C948      1.0  0.40584  0.71528  0.21951  1.0000
  C   C949      1.0  0.38865  0.70944  0.21084  1.0000
  H   H763      1.0  0.40953  0.72957  0.15734  1.0000
  H   H764      1.0  0.44082  0.73817  0.17251  1.0000
  H   H765      1.0  0.43422  0.77757  0.15087  1.0000
  H   H766      1.0  0.37425  0.70125  0.22151  1.0000
  H   H767      1.0  0.43872  0.66924  0.16211  1.0000
  H   H768      1.0  0.31958  0.68892  0.13343  1.0000
  C   C950      1.0  0.21330  0.88424  0.21011  1.0000
  H   H769      1.0  0.40932  0.69272  0.14216  1.0000
  H   H770      1.0  0.10885  0.67382  0.20138  1.0000
  C   C951      1.0  0.48357  0.96771  0.22597  1.0000
  H   H771      1.0  0.19963  0.76911  0.13800  1.0000
  H   H772      1.0  0.20312  0.65419  0.22056  1.0000
  H   H773      1.0  0.32447  0.83070  0.22074  1.0000
  H   H774      1.0  0.37540  0.67591  0.13915  1.0000
  C   C952      1.0  0.12639  0.73592  0.14268  1.0000
  C   C953      1.0  0.10995  0.74835  0.15668  1.0000
  C   C954      1.0  0.12585  0.71236  0.14436  1.0000
  H   H775      1.0  0.13984  0.74448  0.13078  1.0000
  H   H776      1.0  0.11064  0.76643  0.15543  1.0000
  C   C955      1.0  0.14881  0.72962  0.18950  1.0000
  C   C956      1.0  0.44785  0.65754  0.20376  1.0000
  H   H777      1.0  0.43333  0.81381  0.12375  1.0000
  H   H778      1.0  0.18002  0.79175  0.16593  1.0000
  C   C957      1.0  0.27022  0.77069  0.16712  1.0000
  C   C958      1.0  0.27638  0.74831  0.16337  1.0000
  C   C959      1.0  0.29985  0.73918  0.15890  1.0000
  C   C960      1.0  0.31721  0.75241  0.15817  1.0000
  C   C961      1.0  0.31125  0.77477  0.16234  1.0000
  C   C962      1.0  0.28756  0.78388  0.16670  1.0000
  P   P31       1.0  0.33416  0.79049  0.16333  1.0000
  C   C963      1.0  0.34460  0.77949  0.18827  1.0000
  C   C964      1.0  0.35727  0.78687  0.14017  1.0000
  C   C965      1.0  0.38007  0.77755  0.14274  1.0000
  C   C966      1.0  0.39759  0.77443  0.12460  1.0000
  C   C967      1.0  0.39252  0.78058  0.10386  1.0000
  C   C968      1.0  0.36978  0.78949  0.10121  1.0000
  C   C969      1.0  0.35218  0.79253  0.11930  1.0000
  C   C970      1.0  0.35782  0.79254  0.19507  1.0000
  C   C971      1.0  0.36581  0.78423  0.21448  1.0000
  C   C972      1.0  0.36085  0.76286  0.22709  1.0000
  C   C973      1.0  0.34764  0.74988  0.22043  1.0000
  C   C974      1.0  0.33956  0.75809  0.20114  1.0000
  C   C975      1.0  0.32383  0.82059  0.16311  1.0000
  C   C976      1.0  0.30777  0.82685  0.18113  1.0000
  C   C977      1.0  0.30013  0.85001  0.18172  1.0000
  C   C978      1.0  0.30889  0.86716  0.16464  1.0000
  C   C979      1.0  0.32529  0.86114  0.14684  1.0000
  C   C980      1.0  0.33281  0.83794  0.14607  1.0000
  H   H779      1.0  0.25195  0.77760  0.17086  1.0000
  H   H780      1.0  0.12035  0.94767  0.20735  1.0000
  H   H781      1.0  0.30455  0.72161  0.15653  1.0000
  H   H782      1.0  0.33533  0.74490  0.15501  1.0000
  H   H783      1.0  0.28224  0.80100  0.16993  1.0000
  H   H784      1.0  0.38435  0.77228  0.15869  1.0000
  H   H785      1.0  0.41512  0.76693  0.12661  1.0000
  H   H786      1.0  0.40621  0.77813  0.08990  1.0000
  H   H787      1.0  0.36576  0.79384  0.08516  1.0000
  H   H788      1.0  0.33456  0.79920  0.11709  1.0000
  H   H789      1.0  0.36202  0.80910  0.18539  1.0000
  H   H790      1.0  0.37581  0.79429  0.21988  1.0000
  S   S126      1.0  0.48126  0.94035  0.22228  1.0000
  H   H791      1.0  0.18230  0.77644  0.20447  1.0000
  H   H792      1.0  0.32978  0.74738  0.19633  1.0000
  H   H793      1.0  0.30128  0.81380  0.19486  1.0000
  H   H794      1.0  0.28767  0.85470  0.19564  1.0000
  H   H795      1.0  0.30319  0.88510  0.16547  1.0000
  H   H796      1.0  0.33235  0.87448  0.13374  1.0000
  H   H797      1.0  0.34584  0.83376  0.13234  1.0000
  C   C981      1.0  0.42707  0.79364  0.15605  1.0000
  C   C982      1.0  0.41969  0.79383  0.17813  1.0000
  C   C983      1.0  0.41192  0.81472  0.18485  1.0000
  C   C984      1.0  0.41148  0.83534  0.16965  1.0000
  C   C985      1.0  0.41810  0.83527  0.14743  1.0000
  C   C986      1.0  0.42642  0.81426  0.14071  1.0000
  P   P32       1.0  0.42115  0.86205  0.12825  1.0000
  C   C987      1.0  0.40008  0.88571  0.13596  1.0000
  C   C988      1.0  0.26902  0.68046  0.12219  1.0000
  C   C989      1.0  0.02345  0.93873  0.23139  1.0000
  C   C990      1.0  0.06418  0.93157  0.21442  1.0000
  C   C991      1.0  0.43696  0.96401  0.11738  1.0000
  S   S127      1.0  0.07073  0.75260  0.18912  1.0000
  C   C992      1.0  0.48451  0.80642  0.19262  1.0000
  C   C993      1.0  0.37844  0.88176  0.14968  1.0000
  C   C994      1.0  0.36222  0.90026  0.15541  1.0000
  C   C995      1.0  0.36726  0.92279  0.14713  1.0000
  C   C996      1.0  0.38826  0.92688  0.13266  1.0000
  C   C997      1.0  0.40455  0.90846  0.12695  1.0000
  C   C998      1.0  0.41655  0.86046  0.10217  1.0000
  C   C999      1.0  0.40122  0.84602  0.10048  1.0000
  C   C1000     1.0  0.39708  0.84565  0.08017  1.0000
  C   C1001     1.0  0.40784  0.85999  0.06155  1.0000
  C   C1002     1.0  0.42254  0.87488  0.06325  1.0000
  C   C1003     1.0  0.42698  0.87506  0.08348  1.0000
  S   S128      1.0  0.47433  0.84449  0.05639  1.0000
  H   H798      1.0  0.42080  0.77790  0.19004  1.0000
  H   H799      1.0  0.40726  0.81521  0.20187  1.0000
  H   H800      1.0  0.40698  0.85136  0.17536  1.0000
  H   H801      1.0  0.47988  0.92644  0.09422  1.0000
  H   H802      1.0  0.17075  0.72566  0.15867  1.0000
  S   S129      1.0  0.34526  0.66198  0.22946  1.0000
  S   S130      1.0  0.15109  0.81896  0.19265  1.0000
  H   H803      1.0  0.45371  0.76761  0.08834  1.0000
  C   C1004     1.0  0.21421  0.73180  0.18254  1.0000
  H   H804      1.0  0.37408  0.86445  0.15602  1.0000
  H   H805      1.0  0.34582  0.89720  0.16643  1.0000
  H   H806      1.0  0.35495  0.93712  0.15194  1.0000
  H   H807      1.0  0.39207  0.94438  0.12607  1.0000
  H   H808      1.0  0.42072  0.91203  0.11566  1.0000
  H   H809      1.0  0.39256  0.83502  0.11478  1.0000
  H   H810      1.0  0.43129  0.88570  0.04884  1.0000
  H   H811      1.0  0.43883  0.88637  0.08443  1.0000
  H   H812      1.0  0.45254  0.68552  0.21714  1.0000
  H   H813      1.0  0.38564  0.83420  0.07883  1.0000
  C   C1005     1.0  0.45602  0.88230  0.13675  1.0000
  C   C1006     1.0  0.20239  0.74411  0.19869  1.0000
  H   H814      1.0  0.21675  0.87317  0.19844  1.0000
  C   C1007     1.0  0.19053  0.76607  0.19249  1.0000
  H   H815      1.0  0.34203  0.86252  0.19359  1.0000
  C   C1008     1.0  0.10356  0.65993  0.21463  1.0000
  H   H816      1.0  0.44229  0.89262  0.14588  1.0000
  C   C1009     1.0  0.44660  0.97683  0.07834  1.0000
  C   C1010     1.0  0.12468  0.96981  0.22731  1.0000
  H   H817      1.0  0.27590  0.78268  0.23467  1.0000
  H   H818      1.0  0.26301  0.73783  0.16425  1.0000
  C   C1011     1.0  0.11486  0.89868  0.21284  1.0000
  C   C1012     1.0  0.10377  0.88700  0.20248  1.0000
  C   C1013     1.0  0.11641  0.87727  0.18497  1.0000
  C   C1014     1.0  0.14021  0.87902  0.17774  1.0000
  C   C1015     1.0  0.15133  0.89076  0.18786  1.0000
  C   C1016     1.0  0.13871  0.90052  0.20541  1.0000
  C   C1017     1.0  0.48491  0.77228  0.09733  1.0000
  C   C1018     1.0  0.13943  0.69415  0.21468  1.0000
  C   C1019     1.0  0.13712  0.71829  0.20944  1.0000
  P   P33       1.0  0.20622  0.73367  0.22634  1.0000
  C   C1020     1.0  0.34876  0.85558  0.20823  1.0000
  H   H819      1.0  0.44867  0.81076  0.20881  1.0000
  C   C1021     1.0  0.16273  0.71695  0.17461  1.0000
  C   C1022     1.0  0.23086  0.89581  0.21194  1.0000
  Fe  Fe66      1.0  0.44987  0.93587  0.21055  1.0000
  Fe  Fe67      1.0  0.11342  0.81266  0.20303  1.0000
  C   C1023     1.0  0.45084  0.86639  0.12638  1.0000
  S   S131      1.0  0.33087  0.66443  0.18240  1.0000
  H   H820      1.0  0.34398  0.73315  0.22997  1.0000
  H   H821      1.0  0.46554  0.83899  0.10889  1.0000
  C   C1024     1.0  0.48588  0.81909  0.99048  1.0000
  C   C1025     1.0  0.46061  0.66978  0.21181  1.0000
  H   H822      1.0  0.08548  0.88483  0.20822  1.0000
  H   H823      1.0  0.10788  0.86771  0.17746  1.0000
  H   H824      1.0  0.15011  0.87065  0.16470  1.0000
  H   H825      1.0  0.16988  0.89167  0.18246  1.0000
  H   H826      1.0  0.01339  0.76756  0.23027  1.0000
  Fe  Fe68      1.0  0.15162  0.65800  0.13621  1.0000
  H   H827      1.0  0.13102  0.82491  0.23642  1.0000
  S   S132      1.0  0.28990  0.88838  0.21921  1.0000
  C   C1026     1.0  0.23121  0.66928  0.16874  1.0000
  S   S133      1.0  0.41939  0.96156  0.20243  1.0000
  C   C1027     1.0  0.38846  0.66531  0.14762  1.0000
  S   S134      1.0  0.14749  0.69693  0.12737  1.0000
  C   C1028     1.0  0.46694  0.94137  0.09542  1.0000
  Fe  Fe69      1.0  0.06357  0.83440  0.20215  1.0000
  H   H828      1.0  0.00572  0.94631  0.23035  1.0000
  C   C1029     1.0  0.32424  0.91590  0.21013  1.0000
  C   C1030     1.0  0.28597  0.69216  0.12511  1.0000
  Fe  Fe70      1.0  0.07846  0.78406  0.19818  1.0000
  C   C1031     1.0  0.20065  0.76222  0.15484  1.0000
  H   H829      1.0  0.00823  0.83794  0.20758  1.0000
  C   C1032     1.0  0.21321  0.74072  0.16077  1.0000
  H   H830      1.0  0.24798  0.89387  0.20157  1.0000
  C   C1033     1.0  0.36711  0.86465  0.21205  1.0000
  H   H831      1.0  0.19851  0.82201  0.19424  1.0000
  H   H832      1.0  0.15588  0.74861  0.22600  1.0000
  C   C1034     1.0  0.48080  0.85442  0.18428  1.0000
  H   H833      1.0  0.22449  0.71540  0.18663  1.0000
  S   S135      1.0  0.47898  0.95468  0.05061  1.0000
  H   H834      1.0  0.07786  0.93392  0.20004  1.0000
  C   C1035     1.0  0.46600  0.77941  0.08690  1.0000
  C   C1036     1.0  0.99659  0.90711  0.15372  1.0000
  S   S136      1.0  0.48842  0.90237  0.02501  1.0000
  H   H835      1.0  0.42973  0.66394  0.20321  1.0000
  C   C1037     1.0  0.31050  0.65596  0.13319  1.0000
  H   H836      1.0  0.19109  0.69607  0.21397  1.0000
  H   H837      1.0  0.38948  0.86346  0.23389  1.0000
  H   H838      1.0  0.17810  0.87674  0.22292  1.0000
  C   C1038     1.0  0.21849  0.65167  0.16903  1.0000
  C   C1039     1.0  0.24965  0.66459  0.17984  1.0000
  H   H839      1.0  0.28275  0.71064  0.12373  1.0000
  H   H840      1.0  0.22690  0.68643  0.15976  1.0000
  S   S137      1.0  0.43421  0.85852  0.20431  1.0000
  C   C1040     1.0  0.34081  0.92634  0.21547  1.0000
  C   C1041     1.0  0.19144  0.88642  0.22378  1.0000
  C   C1042     1.0  0.46915  0.85186  0.11641  1.0000
  H   H841      1.0  0.28700  0.75033  0.21549  1.0000
  S   S138      1.0  0.48889  0.74373  0.11150  1.0000
  H   H842      1.0  0.48590  0.78789  0.19654  1.0000
  Fe  Fe71      1.0  0.39750  0.93336  0.21962  1.0000
  C   C1043     1.0  0.00317  0.89264  0.21515  1.0000
  C   C1044     1.0  0.16349  0.82315  0.21335  1.0000
  H   H843      1.0  0.03729  0.95082  0.19756  1.0000
  H   H844      1.0  0.32282  0.91834  0.19340  1.0000
  H   H845      1.0  0.35194  0.93698  0.20286  1.0000
  C   C1045     1.0  0.18945  0.77493  0.17066  1.0000
  C   C1046     1.0  0.19745  0.82812  0.22606  1.0000
  S   S139      1.0  0.42750  0.90928  0.23068  1.0000
  H   H846      1.0  0.17531  0.68339  0.16777  1.0000
  H   H847      1.0  0.37496  0.87846  0.20018  1.0000
  H   H848      1.0  0.12605  0.72851  0.22045  1.0000
  H   H849      1.0  0.44820  0.80719  0.06671  1.0000
  H   H850      1.0  0.22218  0.73087  0.14855  1.0000
  C   C1047     1.0  0.15413  0.68156  0.19992  1.0000
  C   C1048     1.0  0.48393  0.66186  0.21279  1.0000
  H   H851      1.0  0.47948  0.87291  0.18146  1.0000
  S   S140      1.0  0.04890  0.80186  0.21965  1.0000
  H   H852      1.0  0.24095  0.91739  0.22902  1.0000
  C   C1049     1.0  0.18709  0.90006  0.23935  1.0000
  H   H853      1.0  0.20462  0.65512  0.16010  1.0000
  S   S141      1.0  0.41957  0.96899  0.14221  1.0000
  C   C1050     1.0  0.37516  0.85620  0.23140  1.0000
  C   C1051     1.0  0.47918  0.81685  0.07213  1.0000
  C   C1052     1.0  0.01235  0.88709  0.15240  1.0000
  H   H854      1.0  0.21590  0.82933  0.22312  1.0000
  H   H855      1.0  0.00290  0.92216  0.15552  1.0000
  C   C1053     1.0  0.11866  0.94978  0.22382  1.0000
  C   C1054     1.0  0.16534  0.69299  0.17980  1.0000
  S   S142      1.0  0.48238  0.76769  0.16239  1.0000
  C   C1055     1.0  0.06928  0.91916  0.23439  1.0000
  H   H856      1.0  0.47107  0.95381  0.00817  1.0000
  H   H857      1.0  0.40472  0.71147  0.23687  1.0000
  C   C1056     1.0  0.21513  0.70303  0.23141  1.0000
  C   C1057     1.0  0.20433  0.68877  0.22349  1.0000
  C   C1058     1.0  0.25170  0.74311  0.22010  1.0000
  C   C1059     1.0  0.26247  0.77373  0.23273  1.0000
  C   C1060     1.0  0.27268  0.65648  0.12490  1.0000
  H   H858      1.0  0.01694  0.85136  0.15061  1.0000
  C   C1061     1.0  0.30964  0.90225  0.22639  1.0000
  C   C1062     1.0  0.48220  0.83550  0.00350  1.0000
  H   H859      1.0  0.25680  0.72891  0.21165  1.0000
  C   C1063     1.0  0.04129  0.94131  0.21295  1.0000
  C   C1064     1.0  0.22818  0.74919  0.22911  1.0000
  C   C1065     1.0  0.22671  0.90928  0.22766  1.0000
  H   H860      1.0  0.08655  0.71234  0.22420  1.0000
  C   C1066     1.0  0.21092  0.66500  0.22741  1.0000
  C   C1067     1.0  0.18424  0.96401  0.23007  1.0000
  C   C1068     1.0  0.43336  0.97993  0.09857  1.0000
  C   C1069     1.0  0.00045  0.85380  0.21286  1.0000
  C   C1070     1.0  0.42396  0.66156  0.16111  1.0000
  H   H861      1.0  0.15634  0.66294  0.20367  1.0000
  H   H862      1.0  0.41012  0.81468  0.23626  1.0000
  C   C1071     1.0  0.34253  0.92350  0.23714  1.0000
  P   P34       1.0  0.09904  0.90878  0.23692  1.0000
  C   C1072     1.0  0.22185  0.76815  0.23930  1.0000
  C   C1073     1.0  0.99836  0.77695  0.23908  1.0000
  C   C1074     1.0  0.16350  0.73235  0.28582  1.0000
  H   H863      1.0  0.01463  0.94069  0.29948  1.0000
  C   C1075     1.0  0.03621  0.82209  0.46154  1.0000
  S   S143      1.0  0.06198  0.78775  0.27669  1.0000
  H   H864      1.0  0.05912  0.87902  0.31985  1.0000
  C   C1076     1.0  0.11231  0.95704  0.26604  1.0000
  S   S144      1.0  0.24732  0.81401  0.29321  1.0000
  C   C1077     1.0  0.15753  0.73276  0.40965  1.0000
  C   C1078     1.0  0.06820  0.72867  0.25050  1.0000
  C   C1079     1.0  0.13863  0.74427  0.25947  1.0000
  H   H865      1.0  0.21504  0.75320  0.28708  1.0000
  C   C1080     1.0  0.00529  0.81353  0.44688  1.0000
  C   C1081     1.0  0.01237  0.77043  0.31818  1.0000
  Fe  Fe72      1.0  0.25911  0.84625  0.29587  1.0000
  S   S145      1.0  0.25629  0.85674  0.32748  1.0000
  C   C1082     1.0  0.02217  0.84623  0.30462  1.0000
  C   C1083     1.0  0.26417  0.94008  0.26507  1.0000
  C   C1084     1.0  0.02438  0.85283  0.26588  1.0000
  H   H866      1.0  0.16551  0.72862  0.30256  1.0000
  C   C1085     1.0  0.06738  0.88837  0.37841  1.0000
  H   H867      1.0  0.33665  0.73762  0.26855  1.0000
  C   C1086     1.0  0.03499  0.90851  0.30969  1.0000
  Fe  Fe73      1.0  0.12687  0.79891  0.35582  1.0000
  S   S146      1.0  0.12092  0.83753  0.34941  1.0000
  S   S147      1.0  0.14104  0.77952  0.32899  1.0000
  Fe  Fe74      1.0  0.10802  0.79338  0.40381  1.0000
  S   S148      1.0  0.09934  0.83132  0.40207  1.0000
  Fe  Fe75      1.0  0.08668  0.83247  0.37198  1.0000
  S   S149      1.0  0.05412  0.85422  0.36401  1.0000
  Fe  Fe76      1.0  0.13424  0.83367  0.37986  1.0000
  S   S150      1.0  0.15497  0.85861  0.38549  1.0000
  S   S151      1.0  0.09132  0.79418  0.37602  1.0000
  S   S152      1.0  0.14416  0.79545  0.38390  1.0000
  C   C1087     1.0  0.00385  0.86860  0.42203  1.0000
  C   C1088     1.0  0.07037  0.91065  0.32103  1.0000
  H   H868      1.0  0.18979  0.79064  0.28163  1.0000
  C   C1089     1.0  0.31889  0.73409  0.27118  1.0000
  C   C1090     1.0  0.14376  0.78919  0.46306  1.0000
  C   C1091     1.0  0.10601  0.93715  0.26258  1.0000
  C   C1092     1.0  0.02838  0.92624  0.25122  1.0000
  Fe  Fe77      1.0  0.27455  0.86161  0.24694  1.0000
  H   H869      1.0  0.48867  0.71760  0.24176  1.0000
  H   H870      1.0  0.00697  0.83092  0.25498  1.0000
  C   C1093     1.0  0.27307  0.72453  0.27875  1.0000
  C   C1094     1.0  0.27745  0.74706  0.27752  1.0000
  C   C1095     1.0  0.30047  0.75195  0.27290  1.0000
  H   H871      1.0  0.25533  0.72085  0.28151  1.0000
  H   H872      1.0  0.26313  0.76073  0.27942  1.0000
  C   C1096     1.0  0.08749  0.84791  0.27910  1.0000
  C   C1097     1.0  0.22752  0.85841  0.34234  1.0000
  C   C1098     1.0  0.21080  0.84757  0.33774  1.0000
  C   C1099     1.0  0.18834  0.84771  0.35088  1.0000
  C   C1100     1.0  0.18243  0.85925  0.36817  1.0000
  C   C1101     1.0  0.19888  0.87080  0.37223  1.0000
  C   C1102     1.0  0.22145  0.87019  0.35946  1.0000
  H   H873      1.0  0.21533  0.83859  0.32444  1.0000
  H   H874      1.0  0.17566  0.83873  0.34778  1.0000
  H   H875      1.0  0.19433  0.87971  0.38561  1.0000
  H   H876      1.0  0.23430  0.87866  0.36298  1.0000
  C   C1103     1.0  0.11937  0.78148  0.31425  1.0000
  C   C1104     1.0  0.09691  0.77696  0.32515  1.0000
  C   C1105     1.0  0.07935  0.77897  0.31349  1.0000
  C   C1106     1.0  0.08423  0.78533  0.29088  1.0000
  C   C1107     1.0  0.10672  0.78976  0.27989  1.0000
  C   C1108     1.0  0.12433  0.78779  0.29160  1.0000
  H   H877      1.0  0.09316  0.77144  0.34255  1.0000
  H   H878      1.0  0.06204  0.77559  0.32207  1.0000
  H   H879      1.0  0.11057  0.79468  0.26240  1.0000
  H   H880      1.0  0.14176  0.79116  0.28314  1.0000
  H   H881      1.0  0.02428  0.78315  0.31369  1.0000
  H   H882      1.0  0.05645  0.74003  0.24092  1.0000
  C   C1109     1.0  0.05300  0.96356  0.46479  1.0000
  C   C1110     1.0  0.20482  0.91132  0.24173  1.0000
  H   H883      1.0  0.02499  0.91813  0.45631  1.0000
  C   C1111     1.0  0.23899  0.78015  0.24138  1.0000
  C   C1112     1.0  0.26611  0.74100  0.33856  1.0000
  H   H884      1.0  0.20371  0.77377  0.24563  1.0000
  H   H885      1.0  0.03941  0.87273  0.28138  1.0000
  H   H886      1.0  0.01469  0.88891  0.36637  1.0000
  C   C1113     1.0  0.08179  0.71543  0.28429  1.0000
  S   S153      1.0  0.28699  0.67978  0.27349  1.0000
  H   H887      1.0  0.24120  0.83068  0.39341  1.0000
  H   H888      1.0  0.12604  0.73921  0.29404  1.0000
  H   H889      1.0  0.05193  0.95775  0.26513  1.0000
  H   H890      1.0  0.15287  0.91440  0.43950  1.0000
  H   H891      1.0  0.13905  0.89573  0.41527  1.0000
  H   H892      1.0  0.14278  0.73480  0.38177  1.0000
  P   P35       1.0  0.03887  0.97673  0.30481  1.0000
  H   H893      1.0  0.46102  0.84289  0.25222  1.0000
  C   C1114     1.0  0.08543  0.71301  0.24103  1.0000
  C   C1115     1.0  0.18308  0.73134  0.26903  1.0000
  C   C1116     1.0  0.15578  0.67834  0.26558  1.0000
  C   C1117     1.0  0.02704  0.86166  0.48226  1.0000
  H   H894      1.0  0.20080  0.82133  0.40019  1.0000
  H   H895      1.0  0.19487  0.80030  0.34368  1.0000
  H   H896      1.0  0.45204  0.70357  0.26340  1.0000
  C   C1118     1.0  0.04558  0.80117  0.43214  1.0000
  C   C1119     1.0  0.21375  0.76873  0.33474  1.0000
  C   C1120     1.0  0.06313  0.90930  0.38546  1.0000
  H   H897      1.0  0.06811  0.91616  0.44434  1.0000
  C   C1121     1.0  0.10650  0.76319  0.47635  1.0000
  H   H898      1.0  0.18066  0.67807  0.28509  1.0000
  C   C1122     1.0  0.02812  0.89453  0.37185  1.0000
  C   C1123     1.0  0.48937  0.65416  0.27331  1.0000
  Fe  Fe78      1.0  0.30691  0.67289  0.24103  1.0000
  H   H899      1.0  0.29885  0.72779  0.32027  1.0000
  H   H900      1.0  0.12461  0.93393  0.46614  1.0000
  H   H901      1.0  0.02647  0.85065  0.31840  1.0000
  C   C1124     1.0  0.02956  0.85866  0.28373  1.0000
  S   S154      1.0  0.24152  0.86919  0.27033  1.0000
  C   C1125     1.0  0.01958  0.90270  0.46757  1.0000
  H   H902      1.0  0.10928  0.96008  0.28236  1.0000
  C   C1126     1.0  0.08592  0.84695  0.45201  1.0000
  H   H903      1.0  0.05512  0.90793  0.26831  1.0000
  H   H904      1.0  0.99928  0.95757  0.33637  1.0000
  C   C1127     1.0  0.25151  0.78625  0.36683  1.0000
  H   H905      1.0  0.17643  0.73292  0.43415  1.0000
  C   C1128     1.0  0.99977  0.78319  0.25819  1.0000
  H   H906      1.0  0.12787  0.93343  0.32041  1.0000
  H   H907      1.0  0.14154  0.84601  0.45783  1.0000
  P   P36       1.0  0.37476  0.82754  0.27243  1.0000
  C   C1129     1.0  0.34929  0.82194  0.29367  1.0000
  C   C1130     1.0  0.39434  0.80144  0.26950  1.0000
  C   C1131     1.0  0.39498  0.78265  0.28702  1.0000
  C   C1132     1.0  0.40940  0.76214  0.28413  1.0000
  C   C1133     1.0  0.01239  0.82322  0.46155  1.0000
  P   P37       1.0  0.07294  0.94058  0.47678  1.0000
  C   C1134     1.0  0.17716  0.73516  0.41691  1.0000
  C   C1135     1.0  0.33803  0.83857  0.30597  1.0000
  C   C1136     1.0  0.31713  0.83501  0.32087  1.0000
  C   C1137     1.0  0.30729  0.81487  0.32364  1.0000
  C   C1138     1.0  0.31854  0.79804  0.31183  1.0000
  C   C1139     1.0  0.33938  0.80157  0.29686  1.0000
  C   C1140     1.0  0.39007  0.84810  0.27814  1.0000
  C   C1141     1.0  0.38109  0.87154  0.27516  1.0000
  C   C1142     1.0  0.39291  0.88742  0.27956  1.0000
  C   C1143     1.0  0.41395  0.88015  0.28667  1.0000
  C   C1144     1.0  0.42306  0.85689  0.28965  1.0000
  C   C1145     1.0  0.41116  0.84088  0.28548  1.0000
  C   C1146     1.0  0.08649  0.86703  0.26211  1.0000
  H   H908      1.0  0.32832  0.90865  0.27029  1.0000
  H   H909      1.0  0.06324  0.95694  0.43202  1.0000
  H   H910      1.0  0.13805  0.79300  0.43075  1.0000
  C   C1147     1.0  0.12658  0.90451  0.42687  1.0000
  H   H911      1.0  0.38428  0.78375  0.30285  1.0000
  H   H912      1.0  0.40955  0.74752  0.29754  1.0000
  C   C1148     1.0  0.15926  0.82999  0.24951  1.0000
  H   H913      1.0  0.29936  0.88977  0.26079  1.0000
  S   S155      1.0  0.03573  0.94740  0.39725  1.0000
  H   H914      1.0  0.34474  0.85467  0.30365  1.0000
  H   H915      1.0  0.30794  0.84833  0.32959  1.0000
  H   H916      1.0  0.29045  0.81280  0.33421  1.0000
  H   H917      1.0  0.31053  0.78276  0.31340  1.0000
  H   H918      1.0  0.34708  0.78880  0.28706  1.0000
  C   C1149     1.0  0.05560  0.97532  0.26096  1.0000
  H   H919      1.0  0.38599  0.90552  0.27692  1.0000
  H   H920      1.0  0.42329  0.89266  0.28955  1.0000
  H   H921      1.0  0.43948  0.85130  0.29500  1.0000
  H   H922      1.0  0.41857  0.82297  0.28780  1.0000
  C   C1150     1.0  0.01898  0.74877  0.33028  1.0000
  H   H923      1.0  0.08563  0.90201  0.32744  1.0000
  H   H924      1.0  0.13118  0.85937  0.29900  1.0000
  C   C1151     1.0  0.05128  0.91672  0.25276  1.0000
  H   H925      1.0  0.23397  0.79432  0.24985  1.0000
  H   H926      1.0  0.02213  0.86853  0.42192  1.0000
  H   H927      1.0  0.07111  0.80833  0.44735  1.0000
  C   C1152     1.0  0.04515  0.94573  0.30989  1.0000
  H   H928      1.0  0.19200  0.88144  0.28526  1.0000
  C   C1153     1.0  0.12306  0.84447  0.46231  1.0000
  C   C1154     1.0  0.17808  0.89309  0.29262  1.0000
  C   C1155     1.0  0.00316  0.82265  0.28997  1.0000
  H   H929      1.0  0.09766  0.92528  0.27635  1.0000
  C   C1156     1.0  0.22556  0.92826  0.27177  1.0000
  C   C1157     1.0  0.06527  0.93462  0.31769  1.0000
  C   C1158     1.0  0.09909  0.69973  0.27484  1.0000
  C   C1159     1.0  0.00867  0.82851  0.30777  1.0000
  P   P38       1.0  0.04505  0.83425  0.48093  1.0000
  C   C1160     1.0  0.25601  0.80402  0.37526  1.0000
  H   H930      1.0  0.15824  0.79918  0.45783  1.0000
  C   C1161     1.0  0.29177  0.70712  0.27514  1.0000
  H   H931      1.0  0.04147  0.80953  0.35178  1.0000
  C   C1162     1.0  0.10137  0.69880  0.25295  1.0000
  C   C1163     1.0  0.07554  0.83864  0.47364  1.0000
  Fe  Fe79      1.0  0.07452  0.79822  0.24086  1.0000
  P   P39       1.0  0.12378  0.67917  0.23999  1.0000
  C   C1164     1.0  0.17678  0.91696  0.28475  1.0000
  C   C1165     1.0  0.24943  0.91568  0.29922  1.0000
  Fe  Fe80      1.0  0.28004  0.81096  0.26804  1.0000
  H   H932      1.0  0.01655  0.79564  0.42030  1.0000
  C   C1166     1.0  0.42350  0.76042  0.26386  1.0000
  C   C1167     1.0  0.10981  0.93302  0.24148  1.0000
  C   C1168     1.0  0.10270  0.90500  0.42836  1.0000
  H   H933      1.0  0.19266  0.79031  0.38553  1.0000
  H   H934      1.0  0.00661  0.92508  0.38023  1.0000
  H   H935      1.0  0.07682  0.91532  0.39025  1.0000
  C   C1169     1.0  0.04971  0.88082  0.37190  1.0000
  H   H936      1.0  0.16296  0.86549  0.31631  1.0000
  C   C1170     1.0  0.09817  0.97378  0.47982  1.0000
  H   H937      1.0  0.23978  0.70353  0.25128  1.0000
  H   H938      1.0  0.12129  0.74927  0.25600  1.0000
  H   H939      1.0  0.22892  0.73843  0.32117  1.0000
  C   C1171     1.0  0.23780  0.81655  0.38738  1.0000
  C   C1172     1.0  0.19732  0.74138  0.40194  1.0000
  C   C1173     1.0  0.21896  0.75533  0.31872  1.0000
  H   H940      1.0  0.26587  0.77695  0.35738  1.0000
  H   H941      1.0  0.23523  0.71063  0.38451  1.0000
  H   H942      1.0  0.08433  0.87819  0.37791  1.0000
  C   C1174     1.0  0.02461  0.80669  0.36222  1.0000
  S   S156      1.0  0.10006  0.76757  0.43494  1.0000
  C   C1175     1.0  0.10093  0.88408  0.25881  1.0000
  C   C1176     1.0  0.21506  0.81134  0.39115  1.0000
  H   H943      1.0  0.18026  0.81419  0.30980  1.0000
  C   C1177     1.0  0.36469  0.83874  0.24723  1.0000
  H   H944      1.0  0.20019  0.72596  0.27299  1.0000
  C   C1178     1.0  0.23786  0.66922  0.24864  1.0000
  H   H945      1.0  0.48437  0.65206  0.35439  1.0000
  C   C1179     1.0  0.05272  0.81048  0.44706  1.0000
  C   C1180     1.0  0.21048  0.79373  0.38268  1.0000
  C   C1181     1.0  0.24785  0.73634  0.35659  1.0000
  Fe  Fe81      1.0  0.99796  0.96271  0.40333  1.0000
  C   C1182     1.0  0.05222  0.96757  0.44269  1.0000
  H   H946      1.0  0.27355  0.80837  0.37217  1.0000
  C   C1183     1.0  0.46848  0.66937  0.27454  1.0000
  H   H947      1.0  0.30088  0.68969  0.34515  1.0000
  C   C1184     1.0  0.24913  0.71476  0.37065  1.0000
  P   P40       1.0  0.22242  0.75749  0.36049  1.0000
  H   H948      1.0  0.43449  0.74451  0.26140  1.0000
  C   C1185     1.0  0.17822  0.74253  0.37240  1.0000
  C   C1186     1.0  0.01937  0.78436  0.37131  1.0000
  C   C1187     1.0  0.22866  0.78088  0.37056  1.0000
  C   C1188     1.0  0.28515  0.72424  0.33452  1.0000
  C   C1189     1.0  0.26832  0.69806  0.36663  1.0000
  H   H949      1.0  0.36506  0.87763  0.26918  1.0000
  H   H950      1.0  0.03215  0.76981  0.36783  1.0000
  H   H951      1.0  0.26535  0.75742  0.32725  1.0000
  C   C1190     1.0  0.19987  0.79006  0.33132  1.0000
  H   H952      1.0  0.26913  0.68135  0.37739  1.0000
  C   C1191     1.0  0.01123  0.83484  0.26897  1.0000
  H   H953      1.0  0.17780  0.74599  0.35530  1.0000
  C   C1192     1.0  0.19687  0.78465  0.29622  1.0000
  H   H954      1.0  0.14821  0.83229  0.26487  1.0000
  C   C1193     1.0  0.14126  0.73842  0.28104  1.0000
  H   H955      1.0  0.12993  0.89302  0.26893  1.0000
  H   H956      1.0  0.03571  0.74515  0.33515  1.0000
  H   H957      1.0  0.45223  0.66355  0.28397  1.0000
  C   C1194     1.0  0.19784  0.74561  0.37955  1.0000
  C   C1195     1.0  0.19155  0.79800  0.31210  1.0000
  C   C1196     1.0  0.21081  0.76345  0.29941  1.0000
  H   H958      1.0  0.21211  0.74391  0.40783  1.0000
  C   C1197     1.0  0.28624  0.70276  0.34851  1.0000
  H   H959      1.0  0.09674  0.89649  0.41801  1.0000
  C   C1198     1.0  0.40936  0.79991  0.24952  1.0000
  H   H960      1.0  0.28361  0.92661  0.29048  1.0000
  H   H961      1.0  0.15683  0.94990  0.28906  1.0000
  P   P41       1.0  0.19908  0.92846  0.26241  1.0000
  H   H962      1.0  0.14161  0.72883  0.42123  1.0000
  C   C1199     1.0  0.04109  0.92235  0.38660  1.0000
  C   C1200     1.0  0.09411  0.92712  0.45684  1.0000
  H   H963      1.0  0.01257  0.84272  0.35962  1.0000
  C   C1201     1.0  0.15818  0.73615  0.38742  1.0000
  H   H964      1.0  0.00217  0.81960  0.32409  1.0000
  C   C1202     1.0  0.02362  0.91506  0.37957  1.0000
  C   C1203     1.0  0.06639  0.72990  0.27211  1.0000
  C   C1204     1.0  0.22867  0.91599  0.29246  1.0000
  C   C1205     1.0  0.18061  0.73713  0.24728  1.0000
  H   H965      1.0  0.05847  0.79248  0.42084  1.0000
  C   C1206     1.0  0.13234  0.78569  0.44771  1.0000
  S   S157      1.0  0.30744  0.78007  0.26777  1.0000
  H   H966      1.0  0.02308  0.89836  0.30700  1.0000
  C   C1207     1.0  0.14350  0.89845  0.32034  1.0000
  H   H967      1.0  0.07691  0.94434  0.32141  1.0000
  H   H968      1.0  0.01439  0.92435  0.26542  1.0000
  H   H969      1.0  0.05305  0.74211  0.27940  1.0000
  C   C1208     1.0  0.03013  0.93249  0.30574  1.0000
  S   S158      1.0  0.29325  0.84155  0.27293  1.0000
  H   H970      1.0  0.13104  0.89123  0.33439  1.0000
  C   C1209     1.0  0.11747  0.88100  0.27193  1.0000
  C   C1210     1.0  0.00827  0.82551  0.36681  1.0000
  H   H971      1.0  0.01128  0.84835  0.39769  1.0000
  C   C1211     1.0  0.42361  0.77933  0.24664  1.0000
  H   H972      1.0  0.25078  0.66170  0.25851  1.0000
  C   C1212     1.0  0.16155  0.88393  0.31030  1.0000
  C   C1213     1.0  0.14181  0.92221  0.31246  1.0000
  H   H973      1.0  0.32909  0.69847  0.26918  1.0000
  C   C1214     1.0  0.99757  0.85710  0.40825  1.0000
  C   C1215     1.0  0.11388  0.77248  0.45429  1.0000
  C   C1216     1.0  0.11819  0.92623  0.45552  1.0000
  C   C1217     1.0  0.32727  0.91061  0.25350  1.0000
  H   H974      1.0  0.08032  0.71652  0.30102  1.0000
  H   H975      1.0  0.15008  0.69653  0.26431  1.0000
  H   H976      1.0  0.21548  0.90615  0.30330  1.0000
  H   H977      1.0  0.07573  0.85113  0.43946  1.0000
  H   H978      1.0  0.05061  0.88125  0.45659  1.0000
  C   C1218     1.0  0.26726  0.92748  0.28546  1.0000
  C   C1219     1.0  0.24330  0.94076  0.25836  1.0000
  C   C1220     1.0  0.19019  0.95803  0.25061  1.0000
  C   C1221     1.0  0.10311  0.84556  0.29278  1.0000
  C   C1222     1.0  0.15825  0.74386  0.24257  1.0000
  C   C1223     1.0  0.18313  0.83137  0.24589  1.0000
  H   H979      1.0  0.25191  0.90580  0.31500  1.0000
  C   C1224     1.0  0.11278  0.83673  0.48395  1.0000
  C   C1225     1.0  0.11828  0.86195  0.28903  1.0000
  C   C1226     1.0  0.31100  0.89978  0.24811  1.0000
  C   C1227     1.0  0.05530  0.89762  0.31693  1.0000
  Fe  Fe82      1.0  0.23193  0.83676  0.26565  1.0000
  C   C1228     1.0  0.46831  0.69212  0.26313  1.0000
  C   C1229     1.0  0.10968  0.84944  0.44634  1.0000
  C   C1230     1.0  0.13433  0.91504  0.44052  1.0000
  C   C1231     1.0  0.31463  0.71189  0.27170  1.0000
  H   H980      1.0  0.10396  0.83068  0.30590  1.0000
  H   H981      1.0  0.25487  0.90730  0.48186  1.0000
  C   C1232     1.0  0.15837  0.93148  0.29472  1.0000
  H   H982      1.0  0.33908  0.81510  0.25420  1.0000
  C   C1233     1.0  0.34693  0.82913  0.24279  1.0000
  H   H983      1.0  0.07637  0.83470  0.28148  1.0000
  H   H984      1.0  0.11048  0.68840  0.28470  1.0000
  C   C1234     1.0  0.08654  0.91604  0.44339  1.0000
  H   H985      1.0  0.01599  0.77854  0.26405  1.0000
  H   H986      1.0  0.17006  0.90122  0.24988  1.0000
  C   C1235     1.0  0.47765  0.84838  0.24347  1.0000
  S   S159      1.0  0.19369  0.83906  0.26601  1.0000
  H   H987      1.0  0.03031  0.86235  0.24962  1.0000
  C   C1236     1.0  0.02192  0.80277  0.43197  1.0000
  H   H988      1.0  0.11789  0.85493  0.42950  1.0000
  H   H989      1.0  0.07448  0.86846  0.25147  1.0000
  H   H990      1.0  0.00952  0.71487  0.34488  1.0000
  C   C1237     1.0  0.03409  0.88173  0.46787  1.0000
  C   C1238     1.0  0.17319  0.66791  0.27729  1.0000
  H   H991      1.0  0.26941  0.86696  0.47815  1.0000
  C   C1239     1.0  0.23163  0.69305  0.24440  1.0000
  C   C1240     1.0  0.03870  0.97852  0.47767  1.0000
  H   H992      1.0  0.27819  0.94894  0.25430  1.0000
  H   H993      1.0  0.19477  0.97119  0.27752  1.0000
  C   C1241     1.0  0.14600  0.66539  0.25537  1.0000
  C   C1242     1.0  0.00429  0.73169  0.33565  1.0000
  C   C1243     1.0  0.99774  0.78086  0.38499  1.0000
  H   H994      1.0  0.48365  0.65749  0.31560  1.0000
  S   S160      1.0  0.36367  0.93595  0.24392  1.0000
  H   H995      1.0  0.09221  0.75295  0.48146  1.0000
  H   H996      1.0  0.24127  0.95064  0.24248  1.0000
  C   C1244     1.0  0.13628  0.78016  0.48513  1.0000
  H   H997      1.0  0.99920  0.83164  0.47281  1.0000
  C   C1245     1.0  0.99779  0.90379  0.48150  1.0000
  C   C1246     1.0  0.48901  0.70003  0.25080  1.0000
  C   C1247     1.0  0.18996  0.97546  0.26176  1.0000
  C   C1248     1.0  0.12171  0.97335  0.24842  1.0000
  H   H998      1.0  0.46796  0.88326  0.24822  1.0000
  H   H999      1.0  0.36732  0.75634  0.24196  1.0000
  C   C1249     1.0  0.08920  0.83367  0.48961  1.0000
  C   C1250     1.0  0.48141  0.87115  0.24095  1.0000
  C   C1251     1.0  0.22780  0.65524  0.23986  1.0000
  H   H1000     1.0  0.99368  0.76352  0.39202  1.0000
  S   S161      1.0  0.26376  0.83080  0.23992  1.0000
  H   H1001     1.0  0.09891  0.97972  0.46255  1.0000
  C   C1252     1.0  0.99246  0.97249  0.32557  1.0000
  C   C1253     1.0  0.14804  0.96527  0.59892  1.0000
  Fe  Fe83      1.0  0.13554  0.77612  0.53932  1.0000
  S   S162      1.0  0.10203  0.76196  0.55679  1.0000
  S   S163      1.0  0.15099  0.78533  0.50372  1.0000
  Fe  Fe84      1.0  0.14897  0.77994  0.58065  1.0000
  S   S164      1.0  0.11682  0.76676  0.60167  1.0000
  S   S165      1.0  0.17748  0.78693  0.59470  1.0000
  Fe  Fe85      1.0  0.12311  0.74069  0.58082  1.0000
  Fe  Fe86      1.0  0.09833  0.78890  0.57648  1.0000
  S   S166      1.0  0.15710  0.75213  0.56142  1.0000
  S   S167      1.0  0.12998  0.80503  0.55710  1.0000
  S   S168      1.0  0.26282  0.80709  0.65196  1.0000
  C   C1254     1.0  0.08706  0.84374  0.58541  1.0000
  C   C1255     1.0  0.30964  0.72735  0.70627  1.0000
  C   C1256     1.0  0.20327  0.80073  0.50865  1.0000
  C   C1257     1.0  0.48961  0.68837  0.67148  1.0000
  S   S169      1.0  0.06337  0.80831  0.58671  1.0000
  C   C1258     1.0  0.11752  0.76727  0.49184  1.0000
  Fe  Fe87      1.0  0.24639  0.67835  0.66297  1.0000
  S   S170      1.0  0.23421  0.70656  0.68198  1.0000
  H   H1002     1.0  0.40076  0.78679  0.58294  1.0000
  S   S171      1.0  0.26358  0.68028  0.62796  1.0000
  H   H1003     1.0  0.33338  0.85066  0.71416  1.0000
  C   C1259     1.0  0.17465  0.94072  0.65724  1.0000
  Fe  Fe88      1.0  0.37175  0.68619  0.69730  1.0000
  H   H1004     1.0  0.08591  0.93707  0.66937  1.0000
  C   C1260     1.0  0.08714  0.95444  0.49112  1.0000
  S   S172      1.0  0.44165  0.67729  0.72742  1.0000
  H   H1005     1.0  0.29947  0.64923  0.56175  1.0000
  S   S173      1.0  0.38365  0.70939  0.71344  1.0000
  C   C1261     1.0  0.45496  0.68400  0.69991  1.0000
  C   C1262     1.0  0.47922  0.68304  0.69359  1.0000
  C   C1263     1.0  0.45153  0.69641  0.66215  1.0000
  C   C1264     1.0  0.44125  0.69041  0.68408  1.0000
  C   C1265     1.0  0.34887  0.83565  0.58656  1.0000
  H   H1006     1.0  0.44064  0.70154  0.65020  1.0000
  H   H1007     1.0  0.03227  0.84909  0.57591  1.0000
  C   C1266     1.0  0.38615  0.80023  0.58442  1.0000
  S   S174      1.0  0.03282  0.95962  0.59844  1.0000
  C   C1267     1.0  0.45446  0.88645  0.71050  1.0000
  C   C1268     1.0  0.44098  0.90442  0.69900  1.0000
  C   C1269     1.0  0.02093  0.95698  0.65810  1.0000
  C   C1270     1.0  0.03683  0.88073  0.73254  1.0000
  H   H1008     1.0  0.45794  0.75287  0.50192  1.0000
  C   C1271     1.0  0.43762  0.72460  0.51487  1.0000
  H   H1009     1.0  0.44741  0.87893  0.72713  1.0000
  Fe  Fe89      1.0  0.23714  0.65820  0.62740  1.0000
  C   C1272     1.0  0.47896  0.69878  0.52495  1.0000
  H   H1010     1.0  0.08382  0.79468  0.65249  1.0000
  C   C1273     1.0  0.35989  0.68059  0.65210  1.0000
  C   C1274     1.0  0.34553  0.66506  0.66618  1.0000
  H   H1011     1.0  0.11505  0.65571  0.62462  1.0000
  C   C1275     1.0  0.46705  0.84927  0.63616  1.0000
  H   H1012     1.0  0.16475  0.88511  0.73951  1.0000
  H   H1013     1.0  0.05402  0.88431  0.73266  1.0000
  H   H1014     1.0  0.13791  0.84942  0.57046  1.0000
  C   C1276     1.0  0.25415  0.77932  0.65804  1.0000
  C   C1277     1.0  0.26926  0.76091  0.65051  1.0000
  C   C1278     1.0  0.26274  0.73857  0.65656  1.0000
  C   C1279     1.0  0.24167  0.73445  0.67100  1.0000
  C   C1280     1.0  0.22637  0.75291  0.67784  1.0000
  C   C1281     1.0  0.23227  0.77528  0.67082  1.0000
  H   H1015     1.0  0.28597  0.76381  0.64007  1.0000
  H   H1016     1.0  0.27424  0.72441  0.65072  1.0000
  C   C1282     1.0  0.11639  0.88965  0.69493  1.0000
  C   C1283     1.0  0.02283  0.90624  0.52105  1.0000
  C   C1284     1.0  0.14728  0.69018  0.59909  1.0000
  C   C1285     1.0  0.15481  0.67938  0.61840  1.0000
  C   C1286     1.0  0.17840  0.67059  0.61787  1.0000
  C   C1287     1.0  0.19424  0.67224  0.59800  1.0000
  C   C1288     1.0  0.46728  0.79581  0.73251  1.0000
  H   H1017     1.0  0.14275  0.67891  0.63380  1.0000
  H   H1018     1.0  0.01155  0.89557  0.64031  1.0000
  C   C1289     1.0  0.16846  0.79895  0.61796  1.0000
  C   C1290     1.0  0.18515  0.79992  0.62966  1.0000
  C   C1291     1.0  0.14526  0.80825  0.62460  1.0000
  H   H1019     1.0  0.20278  0.79168  0.62549  1.0000
  H   H1020     1.0  0.13225  0.80744  0.61568  1.0000
  H   H1021     1.0  0.46735  0.73161  0.68311  1.0000
  C   C1292     1.0  0.04824  0.85409  0.57758  1.0000
  H   H1022     1.0  0.47866  0.91225  0.65024  1.0000
  S   S175      1.0  0.37232  0.69907  0.66197  1.0000
  C   C1293     1.0  0.12445  0.66094  0.56033  1.0000
  C   C1294     1.0  0.24851  0.93249  0.67418  1.0000
  C   C1295     1.0  0.08873  0.77639  0.65340  1.0000
  H   H1023     1.0  0.11175  0.76021  0.50886  1.0000
  H   H1024     1.0  0.05771  0.90978  0.67578  1.0000
  H   H1025     1.0  0.09751  0.68788  0.55112  1.0000
  C   C1296     1.0  0.41484  0.71883  0.59669  1.0000
  C   C1297     1.0  0.43302  0.72219  0.60546  1.0000
  C   C1298     1.0  0.42984  0.73973  0.61701  1.0000
  C   C1299     1.0  0.40845  0.75380  0.61997  1.0000
  C   C1300     1.0  0.38958  0.74970  0.61236  1.0000
  C   C1301     1.0  0.39328  0.73268  0.59992  1.0000
  P   P42       1.0  0.36175  0.76786  0.61631  1.0000
  C   C1302     1.0  0.35056  0.77058  0.64442  1.0000
  C   C1303     1.0  0.36506  0.79605  0.59913  1.0000
  C   C1304     1.0  0.34634  0.81391  0.59977  1.0000
  C   C1305     1.0  0.32772  0.78132  0.65051  1.0000
  C   C1306     1.0  0.31939  0.78542  0.67150  1.0000
  C   C1307     1.0  0.33369  0.77874  0.68675  1.0000
  C   C1308     1.0  0.35563  0.76629  0.68150  1.0000
  C   C1309     1.0  0.36392  0.76187  0.66057  1.0000
  C   C1310     1.0  0.34001  0.75528  0.60900  1.0000
  C   C1311     1.0  0.33248  0.73481  0.62202  1.0000
  H   H1026     1.0  0.41729  0.70520  0.58774  1.0000
  H   H1027     1.0  0.44958  0.71117  0.60346  1.0000
  H   H1028     1.0  0.44396  0.74211  0.62396  1.0000
  H   H1029     1.0  0.40657  0.76766  0.62845  1.0000
  H   H1030     1.0  0.37944  0.72971  0.59302  1.0000
  H   H1031     1.0  0.32961  0.81109  0.61010  1.0000
  H   H1032     1.0  0.33436  0.84935  0.58726  1.0000
  H   H1033     1.0  0.31601  0.78623  0.63926  1.0000
  H   H1034     1.0  0.30166  0.79348  0.67598  1.0000
  H   H1035     1.0  0.32738  0.78220  0.70296  1.0000
  H   H1036     1.0  0.36616  0.75984  0.69379  1.0000
  H   H1037     1.0  0.38041  0.75117  0.65753  1.0000
  H   H1038     1.0  0.33960  0.72669  0.63627  1.0000
  H   H1039     1.0  0.31066  0.70835  0.62648  1.0000
  C   C1312     1.0  0.25440  0.79880  0.59961  1.0000
  C   C1313     1.0  0.27680  0.80527  0.59361  1.0000
  C   C1314     1.0  0.28351  0.81981  0.57357  1.0000
  C   C1315     1.0  0.26765  0.82807  0.55968  1.0000
  C   C1316     1.0  0.24495  0.82185  0.56587  1.0000
  C   C1317     1.0  0.23859  0.80711  0.58586  1.0000
  P   P43       1.0  0.22348  0.83307  0.54907  1.0000
  C   C1318     1.0  0.19672  0.84345  0.56592  1.0000
  C   C1319     1.0  0.23348  0.85673  0.52796  1.0000
  C   C1320     1.0  0.47214  0.90528  0.66717  1.0000
  H   H1040     1.0  0.15903  0.77379  0.73172  1.0000
  C   C1321     1.0  0.41328  0.64939  0.54720  1.0000
  H   H1041     1.0  0.12587  0.94917  0.71476  1.0000
  P   P44       1.0  0.20421  0.95400  0.72656  1.0000
  C   C1322     1.0  0.17509  0.84265  0.56113  1.0000
  C   C1323     1.0  0.15443  0.85081  0.57402  1.0000
  C   C1324     1.0  0.15510  0.85991  0.59179  1.0000
  C   C1325     1.0  0.17654  0.86084  0.59668  1.0000
  C   C1326     1.0  0.19731  0.85271  0.58378  1.0000
  C   C1327     1.0  0.21777  0.81107  0.53683  1.0000
  C   C1328     1.0  0.22018  0.78775  0.54712  1.0000
  H   H1042     1.0  0.24902  0.78757  0.61509  1.0000
  H   H1043     1.0  0.28875  0.79905  0.60464  1.0000
  H   H1044     1.0  0.30089  0.82482  0.56889  1.0000
  H   H1045     1.0  0.27306  0.83948  0.54437  1.0000
  H   H1046     1.0  0.22120  0.80223  0.59082  1.0000
  C   C1329     1.0  0.35200  0.66929  0.62129  1.0000
  C   C1330     1.0  0.06514  0.79458  0.73115  1.0000
  H   H1047     1.0  0.27892  0.68007  0.69703  1.0000
  C   C1331     1.0  0.03181  0.95005  0.69324  1.0000
  H   H1048     1.0  0.45562  0.77522  0.57039  1.0000
  H   H1049     1.0  0.09953  0.67061  0.65803  1.0000
  H   H1050     1.0  0.48011  0.85465  0.62190  1.0000
  H   H1051     1.0  0.13901  0.86571  0.60206  1.0000
  H   H1052     1.0  0.17702  0.86740  0.61076  1.0000
  H   H1053     1.0  0.21373  0.85343  0.58794  1.0000
  H   H1054     1.0  0.22582  0.78224  0.56240  1.0000
  C   C1332     1.0  0.43027  0.65217  0.55795  1.0000
  C   C1333     1.0  0.06649  0.83729  0.58298  1.0000
  C   C1334     1.0  0.14499  0.74489  0.72741  1.0000
  C   C1335     1.0  0.01469  0.93536  0.70184  1.0000
  H   H1055     1.0  0.34271  0.66362  0.68350  1.0000
  H   H1056     1.0  0.99844  0.84754  0.50643  1.0000
  C   C1336     1.0  0.24952  0.85230  0.50922  1.0000
  C   C1337     1.0  0.14794  0.74176  0.69005  1.0000
  H   H1057     1.0  0.42022  0.83160  0.68768  1.0000
  C   C1338     1.0  0.05856  0.87986  0.51801  1.0000
  H   H1058     1.0  0.37194  0.85656  0.56205  1.0000
  H   H1059     1.0  0.02624  0.87201  0.53991  1.0000
  H   H1060     1.0  0.04768  0.97263  0.66476  1.0000
  C   C1339     1.0  0.21411  0.77115  0.53826  1.0000
  S   S176      1.0  0.21751  0.91966  0.63834  1.0000
  C   C1340     1.0  0.08466  0.97451  0.61390  1.0000
  H   H1061     1.0  0.44840  0.80186  0.67226  1.0000
  H   H1062     1.0  0.46882  0.68369  0.57257  1.0000
  C   C1341     1.0  0.28743  0.69318  0.69986  1.0000
  C   C1342     1.0  0.30222  0.70529  0.68247  1.0000
  C   C1343     1.0  0.31347  0.72228  0.68570  1.0000
  C   C1344     1.0  0.46114  0.80974  0.60329  1.0000
  H   H1063     1.0  0.30541  0.70101  0.66664  1.0000
  H   H1064     1.0  0.32565  0.73100  0.67249  1.0000
  H   H1065     1.0  0.28843  0.83465  0.67757  1.0000
  H   H1066     1.0  0.20981  0.74988  0.68854  1.0000
  C   C1345     1.0  0.99194  0.87260  0.73251  1.0000
  S   S177      1.0  0.02251  0.95545  0.55164  1.0000
  H   H1067     1.0  0.26349  0.81805  0.71138  1.0000
  H   H1068     1.0  0.27677  0.97599  0.67628  1.0000
  S   S178      1.0  0.04970  0.95402  0.70988  1.0000
  C   C1346     1.0  0.27045  0.89419  0.72261  1.0000
  H   H1069     1.0  0.05978  0.77257  0.64031  1.0000
  C   C1347     1.0  0.17165  0.95630  0.59361  1.0000
  C   C1348     1.0  0.00061  0.93163  0.68870  1.0000
  H   H1070     1.0  0.04240  0.76912  0.56053  1.0000
  C   C1349     1.0  0.26943  0.76801  0.73070  1.0000
  H   H1071     1.0  0.40484  0.82505  0.55982  1.0000
  C   C1350     1.0  0.31603  0.72444  0.61656  1.0000
  C   C1351     1.0  0.02458  0.88171  0.64542  1.0000
  H   H1072     1.0  0.48774  0.86477  0.70941  1.0000
  C   C1352     1.0  0.04173  0.81356  0.50625  1.0000
  C   C1353     1.0  0.08722  0.78561  0.72107  1.0000
  H   H1073     1.0  0.21622  0.92354  0.69477  1.0000
  C   C1354     1.0  0.46662  0.82583  0.64577  1.0000
  S   S179      1.0  0.00658  0.91713  0.59620  1.0000
  H   H1074     1.0  0.22676  0.91539  0.51502  1.0000
  C   C1355     1.0  0.10040  0.79958  0.70387  1.0000
  C   C1356     1.0  0.28624  0.89319  0.63019  1.0000
  C   C1357     1.0  0.28164  0.87667  0.62033  1.0000
  C   C1358     1.0  0.29350  0.85439  0.62380  1.0000
  C   C1359     1.0  0.30988  0.84857  0.63722  1.0000
  C   C1360     1.0  0.31452  0.86499  0.64735  1.0000
  C   C1361     1.0  0.30248  0.88737  0.64375  1.0000
  P   P45       1.0  0.33189  0.85612  0.66812  1.0000
  C   C1362     1.0  0.35687  0.83521  0.66154  1.0000
  C   C1363     1.0  0.34328  0.88083  0.67123  1.0000
  C   C1364     1.0  0.32927  0.89589  0.68398  1.0000
  C   C1365     1.0  0.33794  0.91489  0.68672  1.0000
  C   C1366     1.0  0.36080  0.91891  0.67686  1.0000
  C   C1367     1.0  0.37486  0.90416  0.66391  1.0000
  C   C1368     1.0  0.36615  0.88524  0.66099  1.0000
  C   C1369     1.0  0.36724  0.83442  0.63982  1.0000
  C   C1370     1.0  0.38809  0.81999  0.63481  1.0000
  C   C1371     1.0  0.39877  0.80634  0.65140  1.0000
  C   C1372     1.0  0.38858  0.80705  0.67301  1.0000
  C   C1373     1.0  0.36782  0.82149  0.67807  1.0000
  C   C1374     1.0  0.31321  0.84378  0.69310  1.0000
  C   C1375     1.0  0.29335  0.83437  0.69264  1.0000
  C   C1376     1.0  0.27919  0.82454  0.71189  1.0000
  H   H1075     1.0  0.22528  0.96451  0.63951  1.0000
  H   H1076     1.0  0.24055  0.71836  0.72026  1.0000
  C   C1377     1.0  0.31849  0.84322  0.71324  1.0000
  H   H1077     1.0  0.27644  0.91026  0.62798  1.0000
  H   H1078     1.0  0.26828  0.88098  0.61063  1.0000
  H   H1079     1.0  0.28907  0.84133  0.61699  1.0000
  H   H1080     1.0  0.31782  0.83092  0.64083  1.0000
  H   H1081     1.0  0.30491  0.90020  0.65194  1.0000
  H   H1082     1.0  0.31182  0.89262  0.69218  1.0000
  H   H1083     1.0  0.32719  0.92598  0.69721  1.0000
  H   H1084     1.0  0.36785  0.93305  0.67977  1.0000
  H   H1085     1.0  0.39270  0.90716  0.65658  1.0000
  H   H1086     1.0  0.37750  0.87397  0.65108  1.0000
  H   H1087     1.0  0.35970  0.84551  0.62676  1.0000
  H   H1088     1.0  0.39623  0.81974  0.61805  1.0000
  H   H1089     1.0  0.41510  0.79545  0.64757  1.0000
  H   H1090     1.0  0.39689  0.79666  0.68597  1.0000
  H   H1091     1.0  0.36076  0.82218  0.69493  1.0000
  S   S180      1.0  0.34054  0.67907  0.72358  1.0000
  S   S181      1.0  0.11901  0.70475  0.59977  1.0000
  S   S182      1.0  0.41293  0.91564  0.71103  1.0000
  C   C1378     1.0  0.22540  0.87962  0.52998  1.0000
  H   H1092     1.0  0.31930  0.73943  0.70924  1.0000
  P   P46       1.0  0.14235  0.72762  0.67030  1.0000
  C   C1379     1.0  0.17914  0.81130  0.64703  1.0000
  C   C1380     1.0  0.16855  0.98051  0.66175  1.0000
  H   H1093     1.0  0.10091  0.83072  0.59023  1.0000
  S   S183      1.0  0.20916  0.85510  0.64618  1.0000
  H   H1094     1.0  0.15857  0.96970  0.71306  1.0000
  H   H1095     1.0  0.45469  0.66970  0.62818  1.0000
  C   C1381     1.0  0.03212  0.88060  0.66453  1.0000
  Fe  Fe90      1.0  0.23495  0.83382  0.66560  1.0000
  H   H1096     1.0  0.19225  0.81189  0.65584  1.0000
  H   H1097     1.0  0.43701  0.65267  0.58940  1.0000
  H   H1098     1.0  0.33655  0.78079  0.57968  1.0000
  C   C1382     1.0  0.03340  0.87011  0.71659  1.0000
  H   H1099     1.0  0.44429  0.82615  0.72194  1.0000
  C   C1383     1.0  0.04924  0.77413  0.52563  1.0000
  H   H1100     1.0  0.22001  0.78923  0.67579  1.0000
  C   C1384     1.0  0.37002  0.83972  0.57235  1.0000
  C   C1385     1.0  0.38859  0.82198  0.57117  1.0000
  C   C1386     1.0  0.33080  0.76527  0.59032  1.0000
  C   C1387     1.0  0.15603  0.68012  0.67672  1.0000
  C   C1388     1.0  0.33720  0.65420  0.63527  1.0000
  H   H1101     1.0  0.40670  0.76040  0.73686  1.0000
  C   C1389     1.0  0.13911  0.81931  0.64239  1.0000
  C   C1390     1.0  0.30654  0.73472  0.59828  1.0000
  H   H1102     1.0  0.10485  0.87229  0.58465  1.0000
  C   C1391     1.0  0.16302  0.69119  0.57925  1.0000
  H   H1103     1.0  0.15724  0.69952  0.56433  1.0000
  H   H1104     1.0  0.28596  0.76670  0.71944  1.0000
  H   H1105     1.0  0.22037  0.72437  0.60012  1.0000
  H   H1106     1.0  0.18062  0.72648  0.59396  1.0000
  C   C1392     1.0  0.18641  0.68196  0.57869  1.0000
  S   S184      1.0  0.24290  0.86444  0.67553  1.0000
  Fe  Fe91      1.0  0.21388  0.88463  0.65944  1.0000
  C   C1393     1.0  0.03457  0.82069  0.52617  1.0000
  C   C1394     1.0  0.19839  0.94238  0.64839  1.0000
  C   C1395     1.0  0.31394  0.75512  0.58515  1.0000
  H   H1107     1.0  0.06815  0.86330  0.52345  1.0000
  S   S185      1.0  0.20830  0.82443  0.69602  1.0000
  C   C1396     1.0  0.10604  0.97908  0.51323  1.0000
  Fe  Fe92      1.0  0.18291  0.84729  0.67714  1.0000
  H   H1108     1.0  0.10396  0.70579  0.70092  1.0000
  C   C1397     1.0  0.24872  0.77111  0.72322  1.0000
  C   C1398     1.0  0.15624  0.82129  0.65330  1.0000
  C   C1399     1.0  0.05629  0.81754  0.72406  1.0000
  H   H1109     1.0  0.02391  0.93960  0.50097  1.0000
  C   C1400     1.0  0.08937  0.86710  0.58222  1.0000
  H   H1110     1.0  0.12129  0.82677  0.64718  1.0000
  H   H1111     1.0  0.08820  0.89276  0.49539  1.0000
  C   C1401     1.0  0.24453  0.96697  0.69754  1.0000
  H   H1112     1.0  0.07233  0.73109  0.64020  1.0000
  C   C1402     1.0  0.03473  0.96106  0.67141  1.0000
  C   C1403     1.0  0.00480  0.86286  0.49584  1.0000
  C   C1404     1.0  0.20551  0.72582  0.61331  1.0000
  C   C1405     1.0  0.18302  0.72708  0.60982  1.0000
  C   C1406     1.0  0.47930  0.65168  0.56101  1.0000
  C   C1407     1.0  0.09008  0.91940  0.67740  1.0000
  H   H1113     1.0  0.18437  0.66285  0.63277  1.0000
  C   C1408     1.0  0.46172  0.78085  0.58259  1.0000
  S   S186      1.0  0.14958  0.83626  0.67469  1.0000
  Fe  Fe93      1.0  0.21418  0.85656  0.70454  1.0000
  C   C1409     1.0  0.45312  0.80251  0.58758  1.0000
  H   H1114     1.0  0.08832  0.96400  0.62905  1.0000
  H   H1115     1.0  0.00783  0.85739  0.70489  1.0000
  H   H1116     1.0  0.16775  0.92491  0.65853  1.0000
  H   H1117     1.0  0.07123  0.83203  0.66326  1.0000
  C   C1410     1.0  0.44921  0.81959  0.66416  1.0000
  C   C1411     1.0  0.07513  0.76390  0.64658  1.0000
  H   H1118     1.0  0.06694  0.67308  0.58209  1.0000
  S   S187      1.0  0.18556  0.87869  0.68901  1.0000
  H   H1119     1.0  0.24303  0.88926  0.70822  1.0000
  C   C1412     1.0  0.15965  0.95994  0.66361  1.0000
  H   H1120     1.0  0.28031  0.94529  0.65559  1.0000
  S   S188      1.0  0.22404  0.66292  0.59667  1.0000
  H   H1121     1.0  0.19863  0.68315  0.56331  1.0000
  H   H1122     1.0  0.02472  0.89376  0.67388  1.0000
  H   H1123     1.0  0.15210  0.97462  0.55267  1.0000
  C   C1413     1.0  0.07405  0.90379  0.68114  1.0000
  H   H1124     1.0  0.03917  0.97612  0.49470  1.0000
  H   H1125     1.0  0.45965  0.76798  0.65778  1.0000
  H   H1126     1.0  0.14125  0.95899  0.66987  1.0000
  P   P47       1.0  0.48832  0.80423  0.63454  1.0000
  H   H1127     1.0  0.35383  0.67167  0.60395  1.0000
  H   H1128     1.0  0.21126  0.77624  0.73162  1.0000
  C   C1414     1.0  0.05061  0.84720  0.63950  1.0000
  S   S189      1.0  0.39428  0.65456  0.71015  1.0000
  C   C1415     1.0  0.43309  0.83648  0.67307  1.0000
  H   H1129     1.0  0.48999  0.67779  0.70569  1.0000
  H   H1130     1.0  0.37483  0.69394  0.61892  1.0000
  H   H1131     1.0  0.43978  0.92803  0.66858  1.0000
  H   H1132     1.0  0.24996  0.91911  0.66515  1.0000
  H   H1133     1.0  0.47292  0.83977  0.68858  1.0000
  C   C1416     1.0  0.07132  0.88389  0.57634  1.0000
  H   H1134     1.0  0.09345  0.95458  0.54206  1.0000
  H   H1135     1.0  0.16635  0.96393  0.51683  1.0000
  C   C1417     1.0  0.03503  0.88469  0.52736  1.0000
  S   S190      1.0  0.07434  0.91293  0.57234  1.0000
  C   C1418     1.0  0.48059  0.74308  0.67713  1.0000
  H   H1136     1.0  0.21516  0.75333  0.54673  1.0000
  C   C1419     1.0  0.13847  0.69789  0.68205  1.0000
  C   C1420     1.0  0.42456  0.65025  0.58059  1.0000
  H   H1137     1.0  0.46725  0.74658  0.72110  1.0000
  H   H1138     1.0  0.21307  0.88356  0.54425  1.0000
  H   H1139     1.0  0.09927  0.66517  0.71787  1.0000
  C   C1421     1.0  0.26557  0.94724  0.66879  1.0000
  C   C1422     1.0  0.43427  0.85972  0.66388  1.0000
  C   C1423     1.0  0.47778  0.79525  0.61418  1.0000
  C   C1424     1.0  0.45113  0.86610  0.64534  1.0000
  C   C1425     1.0  0.04882  0.86260  0.67150  1.0000
  H   H1140     1.0  0.30658  0.76298  0.57092  1.0000
  H   H1141     1.0  0.17187  0.78834  0.69236  1.0000
  C   C1426     1.0  0.16021  0.95129  0.71911  1.0000
  C   C1427     1.0  0.15915  0.76161  0.68300  1.0000
  C   C1428     1.0  0.13275  0.65177  0.70096  1.0000
  C   C1429     1.0  0.09511  0.95982  0.52461  1.0000
  Fe  Fe94      1.0  0.99902  0.94591  0.61431  1.0000
  H   H1142     1.0  0.42248  0.87277  0.67148  1.0000
  H   H1143     1.0  0.17397  0.83521  0.54780  1.0000
  H   H1144     1.0  0.11753  0.79289  0.69597  1.0000
  C   C1430     1.0  0.47572  0.69535  0.65576  1.0000
  H   H1145     1.0  0.13296  0.88400  0.69994  1.0000
  C   C1431     1.0  0.14296  0.91590  0.72768  1.0000
  C   C1432     1.0  0.22934  0.93503  0.69111  1.0000
  H   H1146     1.0  0.05780  0.83435  0.62966  1.0000
  S   S191      1.0  0.21786  0.65928  0.66139  1.0000
  H   H1147     1.0  0.29355  0.72675  0.59428  1.0000
  C   C1433     1.0  0.47619  0.76389  0.66297  1.0000
  C   C1434     1.0  0.11619  0.74194  0.66081  1.0000
  H   H1148     1.0  0.45232  0.88415  0.63844  1.0000
  H   H1149     1.0  0.13265  0.71798  0.71842  1.0000
  C   C1435     1.0  0.10271  0.72961  0.65347  1.0000
  C   C1436     1.0  0.01085  0.86585  0.71684  1.0000
  C   C1437     1.0  0.47868  0.72201  0.51494  1.0000
  H   H1150     1.0  0.02913  0.81028  0.56098  1.0000
  C   C1438     1.0  0.25117  0.88409  0.72211  1.0000
  C   C1439     1.0  0.03436  0.80463  0.54564  1.0000
  C   C1440     1.0  0.20877  0.72597  0.63391  1.0000
  H   H1151     1.0  0.42184  0.69374  0.52849  1.0000
  C   C1441     1.0  0.06986  0.89665  0.50221  1.0000
  C   C1442     1.0  0.18906  0.96756  0.59636  1.0000
  C   C1443     1.0  0.08571  0.94748  0.51363  1.0000
  C   C1444     1.0  0.16371  0.72845  0.62683  1.0000
  H   H1152     1.0  0.05576  0.78432  0.49094  1.0000
  C   C1445     1.0  0.15689  0.95233  0.53008  1.0000
  H   H1153     1.0  0.20635  0.83529  0.50960  1.0000
  S   S192      1.0  0.36951  0.87334  0.71957  1.0000
  C   C1446     1.0  0.16683  0.72849  0.64762  1.0000
  H   H1154     1.0  0.43382  0.72463  0.73030  1.0000
  C   C1447     1.0  0.13445  0.89179  0.63861  1.0000
  H   H1155     1.0  0.12230  0.91087  0.57691  1.0000
  C   C1448     1.0  0.05765  0.91847  0.49582  1.0000
  C   C1449     1.0  0.13789  0.91315  0.62501  1.0000
  H   H1156     1.0  0.19247  0.72637  0.66705  1.0000
  H   H1157     1.0  0.03909  0.82404  0.73200  1.0000
  H   H1158     1.0  0.08197  0.82706  0.50645  1.0000
  C   C1450     1.0  0.14877  0.95834  0.55040  1.0000
  C   C1451     1.0  0.14152  0.93966  0.72001  1.0000
  C   C1452     1.0  0.18955  0.72712  0.65104  1.0000
  H   H1159     1.0  0.15833  0.92707  0.51095  1.0000
  C   C1453     1.0  0.20922  0.81740  0.51749  1.0000
  C   C1454     1.0  0.48577  0.88747  0.67858  1.0000
  C   C1455     1.0  0.15244  0.93157  0.52676  1.0000
  C   C1456     1.0  0.23314  0.89777  0.51341  1.0000
  P   P48       1.0  0.12584  0.95146  0.59385  1.0000
  C   C1457     1.0  0.33399  0.65194  0.65773  1.0000
  C   C1458     1.0  0.43782  0.70135  0.52492  1.0000
  C   C1459     1.0  0.09619  0.89507  0.63037  1.0000
  P   P49       1.0  0.05797  0.86105  0.69664  1.0000
  C   C1460     1.0  0.14001  0.91673  0.54379  1.0000
  C   C1461     1.0  0.42306  0.65623  0.64642  1.0000
  C   C1462     1.0  0.07908  0.88091  0.69178  1.0000
  C   C1463     1.0  0.46133  0.81626  0.71837  1.0000
  C   C1464     1.0  0.13203  0.92263  0.56413  1.0000
  C   C1465     1.0  0.13619  0.94356  0.56760  1.0000
  H   H1160     1.0  0.09408  0.76785  0.72648  1.0000
  H   H1161     1.0  0.22623  0.72471  0.63667  1.0000
  H   H1162     1.0  0.08578  0.92580  0.60854  1.0000
  C   C1466     1.0  0.10019  0.87414  0.69914  1.0000
  H   H1163     1.0  0.10841  0.71177  0.65239  1.0000
  C   C1467     1.0  0.11131  0.91229  0.68416  1.0000
  C   C1468     1.0  0.48032  0.66758  0.57346  1.0000
  C   C1469     1.0  0.11372  0.88266  0.64114  1.0000
  C   C1470     1.0  0.09154  0.82240  0.69670  1.0000
  C   C1471     1.0  0.22730  0.77353  0.73758  1.0000
  C   C1472     1.0  0.09943  0.91656  0.61702  1.0000
  C   C1473     1.0  0.03400  0.92311  0.50537  1.0000
  C   C1474     1.0  0.15605  0.76473  0.72020  1.0000
  H   H1164     1.0  0.02321  0.96565  0.64134  1.0000
  H   H1165     1.0  0.14654  0.72876  0.62378  1.0000
  H   H1166     1.0  0.20009  0.76490  0.51261  1.0000
  C   C1475     1.0  0.12048  0.92557  0.61390  1.0000
  H   H1167     1.0  0.17660  0.94054  0.58745  1.0000
  C   C1476     1.0  0.06957  0.83171  0.70685  1.0000
  C   C1477     1.0  0.22744  0.95203  0.70317  1.0000
  H   H1168     1.0  0.08010  0.88807  0.63217  1.0000
  H   H1169     1.0  0.10443  0.85695  0.70805  1.0000
  H   H1170     1.0  0.14790  0.88224  0.64719  1.0000
  C   C1478     1.0  0.45008  0.91407  0.67747  1.0000
  Fe  Fe95      1.0  0.36401  0.64938  0.73810  1.0000
  H   H1171     1.0  0.11117  0.86612  0.65166  1.0000
  H   H1172     1.0  0.13614  0.90077  0.54126  1.0000
  C   C1479     1.0  0.29469  0.71548  0.72362  1.0000
  H   H1173     1.0  0.15421  0.91970  0.62313  1.0000
  C   C1480     1.0  0.37783  0.78717  0.73793  1.0000
  H   H1174     1.0  0.24938  0.77182  0.70625  1.0000
  C   C1481     1.0  0.48932  0.78290  0.72795  1.0000
  H   H1175     1.0  0.16464  0.76832  0.66583  1.0000
  H   H1176     1.0  0.17192  0.68387  0.66520  1.0000
  C   C1482     1.0  0.04182  0.78138  0.54540  1.0000
  P   P50       1.0  0.45908  0.65809  0.54286  1.0000
  H   H1177     1.0  0.02988  0.83865  0.52673  1.0000
  S   S193      1.0  0.39589  0.80884  0.73019  1.0000
  H   H1178     1.0  0.27655  0.90771  0.70931  1.0000
  C   C1483     1.0  0.16327  0.77297  0.69801  1.0000
  H   H1179     1.0  0.11984  0.77564  0.66494  1.0000
  C   C1484     1.0  0.11784  0.69233  0.69680  1.0000
  C   C1485     1.0  0.26852  0.65186  0.73766  1.0000
  H   H1180     1.0  0.41369  0.67299  0.64810  1.0000
  C   C1486     1.0  0.05817  0.84597  0.65869  1.0000
  C   C1487     1.0  0.20562  0.77764  0.51907  1.0000
  Fe  Fe96      1.0  0.40383  0.67730  0.72860  1.0000
  C   C1488     1.0  0.14103  0.73338  0.71243  1.0000
  C   C1489     1.0  0.08447  0.66394  0.58009  1.0000
  C   C1490     1.0  0.10921  0.76549  0.66043  1.0000
  C   C1491     1.0  0.05079  0.87740  0.57401  1.0000
  C   C1492     1.0  0.45851  0.68822  0.53004  1.0000
  C   C1493     1.0  0.22999  0.71207  0.73592  1.0000
  H   H1181     1.0  0.42165  0.73457  0.51079  1.0000
  H   H1182     1.0  0.42267  0.69074  0.68854  1.0000
  C   C1494     1.0  0.47725  0.87851  0.70050  1.0000
  C   C1495     1.0  0.18048  0.93918  0.72607  1.0000
  H   H1183     1.0  0.44047  0.81384  0.57909  1.0000
  C   C1496     1.0  0.20707  0.96301  0.64646  1.0000
  Fe  Fe97      1.0  0.03883  0.93296  0.57833  1.0000
  C   C1497     1.0  0.03375  0.86503  0.63293  1.0000
  C   C1498     1.0  0.28421  0.69767  0.72072  1.0000
  H   H1184     1.0  0.45451  0.82666  0.60675  1.0000
  H   H1185     1.0  0.10178  0.83286  0.68311  1.0000
  H   H1186     1.0  0.13791  0.66778  0.54709  1.0000
  H   H1187     1.0  0.12380  0.92432  0.68103  1.0000
  H   H1188     1.0  0.25598  0.83475  0.50738  1.0000
  C   C1499     1.0  0.08218  0.74052  0.64655  1.0000
  H   H1189     1.0  0.03701  0.89038  0.56910  1.0000
  C   C1500     1.0  0.36353  0.68226  0.62973  1.0000
  C   C1501     1.0  0.26353  0.96456  0.68041  1.0000
  H   H1190     1.0  0.02778  0.86599  0.61814  1.0000
  C   C1502     1.0  0.47738  0.82396  0.69963  1.0000
  C   C1503     1.0  0.00374  0.94232  0.66672  1.0000
  H   H1191     1.0  0.07685  0.93296  0.52297  1.0000
  C   C1504     1.0  0.04919  0.79014  0.50612  1.0000
  H   H1192     1.0  0.01207  0.92719  0.71876  1.0000
  C   C1505     1.0  0.15312  0.65719  0.68606  1.0000
  H   H1193     1.0  0.20720  0.96023  0.59285  1.0000
  C   C1506     1.0  0.44616  0.65440  0.63515  1.0000
  C   C1507     1.0  0.45804  0.73492  0.50987  1.0000
  C   C1508     1.0  0.11511  0.66936  0.70636  1.0000
  C   C1509     1.0  0.09922  0.97131  0.59406  1.0000
  C   C1510     1.0  0.10167  0.67229  0.56262  1.0000
  S   S194      1.0  0.21822  0.85466  0.73877  1.0000
  H   H1194     1.0  0.12333  0.83221  0.49628  1.0000
  H   H1195     1.0  0.00464  0.90993  0.52839  1.0000
  S   S195      1.0  0.48832  0.70280  0.62815  1.0000
  H   H1196     1.0  0.19594  0.80572  0.49413  1.0000
  H   H1197     1.0  0.05560  0.75620  0.52539  1.0000
  C   C1511     1.0  0.28487  0.82368  0.73179  1.0000
  C   C1512     1.0  0.18208  0.91517  0.73305  1.0000
  H   H1198     1.0  0.41698  0.65149  0.52969  1.0000
  H   H1199     1.0  0.12830  0.90704  0.72866  1.0000
  C   C1513     1.0  0.16333  0.90362  0.73399  1.0000
  C   C1514     1.0  0.48628  0.77348  0.60909  1.0000
  H   H1200     1.0  0.20003  0.73603  0.72919  1.0000
  C   C1515     1.0  0.10045  0.65240  0.65856  1.0000
  H   H1201     1.0  0.24340  0.98018  0.70668  1.0000
  H   H1202     1.0  0.25174  0.94053  0.73632  1.0000
  C   C1516     1.0  0.30444  0.83310  0.73246  1.0000
  H   H1203     1.0  0.19778  0.90536  0.73792  1.0000
  Fe  Fe98      1.0  0.39112  0.88987  0.73408  1.0000
  H   H1204     1.0  0.48507  0.74950  0.58963  1.0000
  C   C1517     1.0  0.25719  0.87049  0.49266  1.0000
  C   C1518     1.0  0.24899  0.89322  0.49474  1.0000
  C   C1519     1.0  0.47834  0.76638  0.59332  1.0000
  H   H1205     1.0  0.29268  0.71930  0.73949  1.0000
  C   C1520     1.0  0.46078  0.73904  0.73789  1.0000
  C   C1521     1.0  0.27368  0.78019  0.79657  1.0000
  H   H1206     1.0  0.37602  0.79098  0.78106  1.0000
  H   H1207     1.0  0.26372  0.70814  0.77591  1.0000
  C   C1522     1.0  0.44542  0.83399  0.80176  1.0000
  C   C1523     1.0  0.22769  0.70687  0.82092  1.0000
  C   C1524     1.0  0.21028  0.78833  0.82547  1.0000
  H   H1208     1.0  0.23116  0.65110  0.74833  1.0000
  H   H1209     1.0  0.22353  0.73287  0.79265  1.0000
  C   C1525     1.0  0.45620  0.85345  0.79084  1.0000
  C   C1526     1.0  0.39864  0.78860  0.89444  1.0000
  H   H1210     1.0  0.44574  0.74786  0.82207  1.0000
  C   C1527     1.0  0.28272  0.67689  0.76638  1.0000
  C   C1528     1.0  0.48811  0.74529  0.86000  1.0000
  H   H1211     1.0  0.46998  0.80356  0.97146  1.0000
  H   H1212     1.0  0.48388  0.87307  0.78891  1.0000
  S   S196      1.0  0.37627  0.85845  0.81437  1.0000
  C   C1529     1.0  0.24304  0.74346  0.81228  1.0000
  C   C1530     1.0  0.45502  0.81780  0.81798  1.0000
  C   C1531     1.0  0.22255  0.79184  0.80384  1.0000
  S   S197      1.0  0.33235  0.72933  0.75554  1.0000
  H   H1213     1.0  0.25982  0.81614  0.79551  1.0000
  H   H1214     1.0  0.31776  0.67519  0.81068  1.0000
  H   H1215     1.0  0.44162  0.82979  0.85743  1.0000
  C   C1532     1.0  0.34964  0.75170  0.74958  1.0000
  H   H1216     1.0  0.30842  0.83311  0.74795  1.0000
  H   H1217     1.0  0.21490  0.77316  0.83716  1.0000
  H   H1218     1.0  0.23144  0.67152  0.78232  1.0000
  C   C1533     1.0  0.48888  0.87886  0.95463  1.0000
  S   S198      1.0  0.36138  0.89955  0.76019  1.0000
  C   C1534     1.0  0.45624  0.96314  0.97949  1.0000
  C   C1535     1.0  0.47535  0.82184  0.82323  1.0000
  S   S199      1.0  0.37558  0.66951  0.75814  1.0000
  H   H1219     1.0  0.19322  0.84376  0.78474  1.0000
  C   C1536     1.0  0.21491  0.94066  0.75113  1.0000
  C   C1537     1.0  0.19283  0.71447  0.76107  1.0000
  C   C1538     1.0  0.46835  0.93898  0.91741  1.0000
  C   C1539     1.0  0.43416  0.89679  0.81891  1.0000
  H   H1220     1.0  0.42809  0.91822  0.78861  1.0000
  C   C1540     1.0  0.23901  0.69364  0.75069  1.0000
  C   C1541     1.0  0.42972  0.81809  0.86748  1.0000
  C   C1542     1.0  0.30769  0.67541  0.79867  1.0000
  C   C1543     1.0  0.42673  0.87870  0.83574  1.0000
  H   H1221     1.0  0.29374  0.74646  0.79643  1.0000
  C   C1544     1.0  0.40324  0.80712  0.90167  1.0000
  C   C1545     1.0  0.42489  0.79978  0.85992  1.0000
  C   C1546     1.0  0.37980  0.79845  0.81093  1.0000
  H   H1222     1.0  0.17492  0.72230  0.76491  1.0000
  C   C1547     1.0  0.21623  0.81196  0.78929  1.0000
  H   H1223     1.0  0.39474  0.81012  0.91769  1.0000
  P   P51       1.0  0.24678  0.77126  0.79484  1.0000
  C   C1548     1.0  0.19184  0.80464  0.83229  1.0000
  H   H1224     1.0  0.38194  0.72888  0.74882  1.0000
  C   C1549     1.0  0.46372  0.97057  0.88708  1.0000
  H   H1225     1.0  0.44424  0.96494  0.86490  1.0000
  C   C1550     1.0  0.26890  0.76701  0.75256  1.0000
  H   H1226     1.0  0.26553  0.92172  0.76973  1.0000
  C   C1551     1.0  0.27700  0.69376  0.77913  1.0000
  H   H1227     1.0  0.22567  0.81525  0.77262  1.0000
  H   H1228     1.0  0.36165  0.80532  0.81547  1.0000
  H   H1229     1.0  0.17139  0.83724  0.82293  1.0000
  C   C1552     1.0  0.44630  0.93594  0.89133  1.0000
  C   C1553     1.0  0.35360  0.79241  0.74219  1.0000
  H   H1230     1.0  0.26087  0.74872  0.83605  1.0000
  Fe  Fe99      1.0  0.48419  0.89136  0.83859  1.0000
  H   H1231     1.0  0.43508  0.87350  0.84956  1.0000
  C   C1554     1.0  0.40507  0.89215  0.79990  1.0000
  C   C1555     1.0  0.39778  0.87391  0.81655  1.0000
  C   C1556     1.0  0.40819  0.86760  0.83473  1.0000
  H   H1232     1.0  0.39699  0.89732  0.78592  1.0000
  H   H1233     1.0  0.40210  0.85389  0.84779  1.0000
  H   H1234     1.0  0.42248  0.83618  0.89377  1.0000
  H   H1235     1.0  0.33250  0.79974  0.79696  1.0000
  H   H1236     1.0  0.38662  0.77717  0.90491  1.0000
  H   H1237     1.0  0.43654  0.92596  0.88546  1.0000
  C   C1557     1.0  0.44344  0.71943  0.78107  1.0000
  H   H1238     1.0  0.42911  0.83230  0.79793  1.0000
  C   C1558     1.0  0.39528  0.79863  0.82411  1.0000
  H   H1239     1.0  0.27364  0.81645  0.74671  1.0000
  C   C1559     1.0  0.41912  0.79097  0.81798  1.0000
  C   C1560     1.0  0.42283  0.90388  0.80134  1.0000
  C   C1561     1.0  0.25179  0.73709  0.83151  1.0000
  H   H1240     1.0  0.41796  0.77827  0.76948  1.0000
  P   P52       1.0  0.43960  0.79395  0.83360  1.0000
  Fe  Fe100     1.0  0.37998  0.84117  0.74229  1.0000
  C   C1562     1.0  0.19905  0.93403  0.77059  1.0000
  C   C1563     1.0  0.29611  0.81029  0.79645  1.0000
  H   H1241     1.0  0.38868  0.80602  0.83842  1.0000
  C   C1564     1.0  0.23071  0.72829  0.80721  1.0000
  Fe  Fe101     1.0  0.34033  0.88044  0.74729  1.0000
  H   H1242     1.0  0.47404  0.88678  0.74616  1.0000
  H   H1243     1.0  0.47139  0.71222  0.83183  1.0000
  H   H1244     1.0  0.05480  0.78373  0.74442  1.0000
  C   C1565     1.0  0.43309  0.71686  0.76462  1.0000
  H   H1245     1.0  0.48320  0.81023  0.83573  1.0000
  H   H1246     1.0  0.32073  0.77896  0.75004  1.0000
  C   C1566     1.0  0.37392  0.74656  0.74632  1.0000
  C   C1567     1.0  0.45899  0.76753  0.83971  1.0000
  H   H1247     1.0  0.41847  0.70710  0.76843  1.0000
  C   C1568     1.0  0.48571  0.84157  0.81257  1.0000
  H   H1248     1.0  0.45314  0.92390  0.75447  1.0000
  H   H1249     1.0  0.28039  0.86606  0.77226  1.0000
  C   C1569     1.0  0.47221  0.72728  0.83792  1.0000
  H   H1250     1.0  0.19479  0.91791  0.80446  1.0000
  C   C1570     1.0  0.18562  0.82457  0.81764  1.0000
  C   C1571     1.0  0.29395  0.76421  0.79707  1.0000
  C   C1572     1.0  0.19785  0.82823  0.79616  1.0000
  C   C1573     1.0  0.22665  0.77295  0.75944  1.0000
  H   H1251     1.0  0.18242  0.80187  0.84899  1.0000
  C   C1574     1.0  0.20710  0.92313  0.78957  1.0000
  C   C1575     1.0  0.47619  0.85739  0.79645  1.0000
  C   C1576     1.0  0.31498  0.77118  0.79762  1.0000
  H   H1252     1.0  0.24479  0.84964  0.77214  1.0000
  H   H1253     1.0  0.20989  0.77521  0.77028  1.0000
  C   C1577     1.0  0.23676  0.70052  0.83983  1.0000
  C   C1578     1.0  0.38795  0.79069  0.79148  1.0000
  C   C1579     1.0  0.41170  0.78354  0.78494  1.0000
  H   H1254     1.0  0.29708  0.82822  0.79593  1.0000
  C   C1580     1.0  0.31356  0.65862  0.78603  1.0000
  H   H1255     1.0  0.21832  0.69513  0.81692  1.0000
  H   H1256     1.0  0.44827  0.86605  0.77882  1.0000
  H   H1257     1.0  0.33065  0.75883  0.79751  1.0000
  C   C1581     1.0  0.31608  0.79423  0.79715  1.0000
  C   C1582     1.0  0.28934  0.69292  0.79528  1.0000
  H   H1258     1.0  0.25558  0.71082  0.85993  1.0000
  C   C1583     1.0  0.27497  0.80334  0.79617  1.0000
  H   H1259     1.0  0.23737  0.91015  0.80391  1.0000
  S   S200      1.0  0.48267  0.86715  0.91825  1.0000
  H   H1260     1.0  0.44586  0.77984  0.79202  1.0000
  C   C1584     1.0  0.24873  0.71567  0.84515  1.0000
  C   C1585     1.0  0.42733  0.78414  0.79789  1.0000
  H   H1261     1.0  0.28526  0.70628  0.80466  1.0000
  C   C1586     1.0  0.41883  0.82180  0.88822  1.0000
  H   H1262     1.0  0.19068  0.68993  0.79136  1.0000
  S   S201      1.0  0.40410  0.85707  0.75468  1.0000
  C   C1587     1.0  0.23104  0.91878  0.78929  1.0000
  C   C1588     1.0  0.40954  0.78484  0.87370  1.0000
  C   C1589     1.0  0.24750  0.77004  0.76704  1.0000
  H   H1263     1.0  0.23441  0.68391  0.85043  1.0000
  S   S202      1.0  0.45758  0.91086  0.81912  1.0000
  H   H1264     1.0  0.45208  0.90929  0.91890  1.0000
  C   C1590     1.0  0.24692  0.92537  0.77006  1.0000
  C   C1591     1.0  0.20174  0.69626  0.77598  1.0000
  C   C1592     1.0  0.48740  0.72605  0.85177  1.0000
  C   C1593     1.0  0.22477  0.68587  0.77083  1.0000
  H   H1265     1.0  0.28526  0.76421  0.75788  1.0000
  H   H1266     1.0  0.43670  0.71174  0.79777  1.0000
  S   S203      1.0  0.34887  0.84631  0.76903  1.0000
  C   C1594     1.0  0.99546  0.88330  0.74824  1.0000
  Fe  Fe102     1.0  0.37238  0.86502  0.77968  1.0000
  C   C1595     1.0  0.25222  0.86170  0.75815  1.0000
  C   C1596     1.0  0.47235  0.96132  0.90618  1.0000
  C   C1597     1.0  0.27238  0.87092  0.75821  1.0000
  C   C1598     1.0  0.46268  0.73160  0.77590  1.0000
  C   C1599     1.0  0.44618  0.83039  0.98455  1.0000
  C   C1600     1.0  0.01792  0.88721  0.74834  1.0000
  H   H1267     1.0  0.47501  0.95310  0.75889  1.0000
  H   H1268     1.0  0.02066  0.89583  0.76030  1.0000
  C   C1601     1.0  0.46760  0.81639  0.98128  1.0000
  H   H1269     1.0  0.43233  0.82854  0.97704  1.0000
  C   C1602     1.0  0.46081  0.96879  0.95681  1.0000
  C   C1603     1.0  0.45511  0.92651  0.91015  1.0000
  C   C1604     1.0  0.47376  0.76579  0.85426  1.0000
  C   C1605     1.0  0.47198  0.92065  0.75234  1.0000
  H   H1270     1.0  0.47054  0.73322  0.78879  1.0000
  H   H1271     1.0  0.47389  0.78009  0.86167  1.0000
  C   C1606     1.0  0.47157  0.74135  0.75421  1.0000
  H   H1272     1.0  0.47559  0.93103  0.93170  1.0000
  H   H1273     1.0  0.42096  0.65829  0.77761  1.0000
  H   H1274     1.0  0.44640  0.97223  0.94842  1.0000
  H   H1275     1.0  0.47297  0.87158  0.96251  1.0000
  H   H1276     1.0  0.18044  0.93715  0.77102  1.0000
  H   H1277     1.0  0.40599  0.77032  0.86833  1.0000
  P   P53       1.0  0.48947  0.97729  0.91573  1.0000
  P   P54       1.0  0.26845  0.67965  0.74392  1.0000
  C   C1607     1.0  0.23895  0.93618  0.75103  1.0000
  C   C1608     1.0  0.48737  0.96163  0.81386  1.0000
  C   C1609     1.0  0.48382  0.96992  0.94507  1.0000
  C   C1610     1.0  0.30109  0.65929  0.77004  1.0000
  S   S204      1.0  0.48464  0.85645  0.86053  1.0000
  H   H1278     1.0  0.48005  0.95011  0.82851  1.0000
  C   C1611     1.0  0.48373  0.89981  0.74742  1.0000
  C   C1612     1.0  0.45072  0.95790  0.87972  1.0000
  C   C1613     1.0  0.48448  0.93719  0.75465  1.0000
  C   C1614     1.0  0.45791  0.74782  0.83207  1.0000
  C   C1615     1.0  0.33945  0.77472  0.74756  1.0000
  C   C1616     1.0  0.44178  0.72669  0.74307  1.0000
  H   H1279     1.0  0.13945  0.73842  0.74462  1.0000
  H   H1280     1.0  0.45468  0.79014  0.74700  1.0000
  Fe  Fe103     1.0  0.35435  0.69993  0.74115  1.0000
  C   C1617     1.0  0.20694  0.72230  0.74104  1.0000
  H   H1281     1.0  0.34595  0.81012  0.74095  1.0000
  C   C1618     1.0  0.28178  0.88690  0.74019  1.0000
  H   H1282     1.0  0.43850  0.96222  0.98851  1.0000
  S   S205      1.0  0.30589  0.90019  0.74008  1.0000
  C   C1619     1.0  0.38796  0.76430  0.73993  1.0000
  C   C1620     1.0  0.24208  0.86772  0.73976  1.0000
  Fe  Fe104     1.0  0.57248  0.03780  0.18015  1.0000
  C   C1621     1.0  0.49307  0.03185  0.01112  1.0000
  S   S206      1.0  0.57707  0.02038  0.15232  1.0000
  H   H1283     1.0  0.54309  0.16201  0.10677  1.0000
  H   H1284     1.0  0.55153  0.07704  0.13095  1.0000
  H   H1285     1.0  0.61131  0.99680  0.00489  1.0000
  H   H1286     1.0  0.97375  0.29980  0.08547  1.0000
  S   S207      1.0  0.59803  0.05206  0.19266  1.0000
  C   C1622     1.0  0.71402  0.18873  0.23083  1.0000
  H   H1287     1.0  0.95831  0.09932  0.18057  1.0000
  Fe  Fe105     1.0  0.75686  0.02092  0.16526  1.0000
  H   H1288     1.0  0.88991  0.03492  0.05937  1.0000
  S   S208      1.0  0.75994  0.05601  0.14426  1.0000
  H   H1289     1.0  0.89850  0.18403  0.15710  1.0000
  C   C1623     1.0  0.61471  0.17608  0.16664  1.0000
  S   S209      1.0  0.54354  0.06644  0.18492  1.0000
  S   S210      1.0  0.72158  0.00890  0.17653  1.0000
  S   S211      1.0  0.76592  0.01107  0.19819  1.0000
  Fe  Fe106     1.0  0.83802  0.12920  0.15826  1.0000
  S   S212      1.0  0.80911  0.12934  0.18751  1.0000
  S   S213      1.0  0.85019  0.09585  0.14683  1.0000
  Fe  Fe107     1.0  0.84280  0.17955  0.15328  1.0000
  S   S214      1.0  0.81456  0.18373  0.18236  1.0000
  S   S215      1.0  0.86050  0.20940  0.13214  1.0000
  C   C1624     1.0  0.54331  0.05777  0.08040  1.0000
  H   H1290     1.0  0.79268  0.28171  0.18503  1.0000
  Fe  Fe108     1.0  0.79538  0.16329  0.16905  1.0000
  S   S216      1.0  0.75783  0.17392  0.16643  1.0000
  S   S217      1.0  0.86135  0.14699  0.16991  1.0000
  S   S218      1.0  0.82239  0.16151  0.13870  1.0000
  C   C1625     1.0  0.82512  0.29897  0.23001  1.0000
  S   S219      1.0  0.87496  0.27952  0.18529  1.0000
  H   H1291     1.0  0.92330  0.25165  0.17621  1.0000
  C   C1626     1.0  0.91133  0.98908  0.18677  1.0000
  Fe  Fe109     1.0  0.65052  0.03102  0.04795  1.0000
  C   C1627     1.0  0.58523  0.03742  0.99432  1.0000
  S   S220      1.0  0.63506  0.06278  0.06132  1.0000
  C   C1628     1.0  0.58392  0.15755  0.23017  1.0000
  H   H1292     1.0  0.54105  0.05262  0.06616  1.0000
  H   H1293     1.0  0.82347  0.99145  0.11582  1.0000
  C   C1629     1.0  0.75032  0.07874  0.21576  1.0000
  S   S221      1.0  0.62917  0.01267  0.03508  1.0000
  S   S222      1.0  0.68257  0.02576  0.02248  1.0000
  H   H1294     1.0  0.56065  0.16402  0.16679  1.0000
  Fe  Fe110     1.0  0.53252  0.04445  0.21765  1.0000
  C   C1630     1.0  0.56907  0.18390  0.10432  1.0000
  H   H1295     1.0  0.99045  0.25962  0.09790  1.0000
  H   H1296     1.0  0.93257  0.15707  0.10032  1.0000
  C   C1631     1.0  0.55047  0.16116  0.13798  1.0000
  C   C1632     1.0  0.57622  0.04067  0.01564  1.0000
  C   C1633     1.0  0.56338  0.16951  0.14930  1.0000
  S   S223      1.0  0.62523  0.24287  0.18897  1.0000
  C   C1634     1.0  0.80754  0.02799  0.06136  1.0000
  H   H1297     1.0  0.92117  0.23948  0.11491  1.0000
  H   H1298     1.0  0.86940  0.19911  0.23130  1.0000
  C   C1635     1.0  0.93205  0.16835  0.11126  1.0000
  H   H1299     1.0  0.54560  0.21744  0.15279  1.0000
  C   C1636     1.0  0.86436  0.22895  0.14693  1.0000
  C   C1637     1.0  0.86058  0.22334  0.16956  1.0000
  C   C1638     1.0  0.86367  0.23912  0.18117  1.0000
  C   C1639     1.0  0.87081  0.26042  0.17024  1.0000
  C   C1640     1.0  0.87451  0.26614  0.14759  1.0000
  C   C1641     1.0  0.87125  0.25040  0.13596  1.0000
  H   H1300     1.0  0.85544  0.20679  0.17818  1.0000
  H   H1301     1.0  0.86039  0.23489  0.19868  1.0000
  H   H1302     1.0  0.87986  0.28267  0.13911  1.0000
  H   H1303     1.0  0.87396  0.25482  0.11846  1.0000
  C   C1642     1.0  0.74131  0.18017  0.19109  1.0000
  H   H1304     1.0  0.89998  0.15826  0.13206  1.0000
  H   H1305     1.0  0.71045  0.19406  0.17815  1.0000
  C   C1643     1.0  0.57948  0.18493  0.13823  1.0000
  C   C1644     1.0  0.72972  0.11733  0.21483  1.0000
  H   H1306     1.0  0.63185  0.20132  0.17366  1.0000
  H   H1307     1.0  0.63983  0.27062  0.14741  1.0000
  C   C1645     1.0  0.78581  0.06629  0.14406  1.0000
  C   C1646     1.0  0.78763  0.08970  0.13635  1.0000
  C   C1647     1.0  0.80706  0.09885  0.13792  1.0000
  C   C1648     1.0  0.82538  0.08438  0.14616  1.0000
  C   C1649     1.0  0.82398  0.06077  0.15330  1.0000
  C   C1650     1.0  0.80403  0.05174  0.15253  1.0000
  H   H1308     1.0  0.77367  0.10092  0.12975  1.0000
  H   H1309     1.0  0.80805  0.11709  0.13238  1.0000
  H   H1310     1.0  0.83805  0.04960  0.15987  1.0000
  H   H1311     1.0  0.80276  0.03359  0.15852  1.0000
  H   H1312     1.0  0.56676  0.09859  0.09404  1.0000
  C   C1651     1.0  0.63948  0.99382  0.16999  1.0000
  C   C1652     1.0  0.97176  0.26377  0.09925  1.0000
  C   C1653     1.0  0.90570  0.13104  0.22810  1.0000
  C   C1654     1.0  0.91379  0.16882  0.12926  1.0000
  C   C1655     1.0  0.54105  0.02352  0.99372  1.0000
  C   C1656     1.0  0.98367  0.18991  0.15329  1.0000
  Fe  Fe111     1.0  0.66185  0.00469  0.01130  1.0000
  C   C1657     1.0  0.98163  0.21213  0.14030  1.0000
  C   C1658     1.0  0.63676  0.25300  0.10790  1.0000
  C   C1659     1.0  0.59310  0.03281  0.12733  1.0000
  C   C1660     1.0  0.59561  0.02243  0.10966  1.0000
  C   C1661     1.0  0.60806  0.03205  0.08937  1.0000
  C   C1662     1.0  0.61790  0.05222  0.08655  1.0000
  C   C1663     1.0  0.61507  0.06291  0.10418  1.0000
  C   C1664     1.0  0.60287  0.05299  0.12471  1.0000
  C   C1665     1.0  0.90837  0.28155  0.22445  1.0000
  H   H1313     1.0  0.61003  0.02370  0.07595  1.0000
  H   H1314     1.0  0.62276  0.07845  0.10201  1.0000
  H   H1315     1.0  0.60091  0.06077  0.13852  1.0000
  H   H1316     1.0  0.59398  0.20442  0.10663  1.0000
  C   C1666     1.0  0.84104  0.07374  0.09145  1.0000
  H   H1317     1.0  0.86001  0.10173  0.03079  1.0000
  C   C1667     1.0  0.66176  0.98296  0.17245  1.0000
  C   C1668     1.0  0.92206  0.21964  0.21450  1.0000
  C   C1669     1.0  0.60244  0.24269  0.13492  1.0000
  S   S224      1.0  0.66093  0.00004  0.07193  1.0000
  H   H1318     1.0  0.63601  0.01320  0.21296  1.0000
  C   C1670     1.0  0.71803  0.18998  0.19239  1.0000
  C   C1671     1.0  0.91295  0.18340  0.14337  1.0000
  C   C1672     1.0  0.63156  0.18324  0.17472  1.0000
  H   H1319     1.0  0.87852  0.02033  0.14714  1.0000
  H   H1320     1.0  0.82141  0.02692  0.04729  1.0000
  H   H1321     1.0  0.90518  0.27951  0.10209  1.0000
  C   C1673     1.0  0.70703  0.02900  0.12244  1.0000
  C   C1674     1.0  0.69590  0.02937  0.10560  1.0000
  C   C1675     1.0  0.68042  0.04857  0.09894  1.0000
  C   C1676     1.0  0.67571  0.06724  0.10937  1.0000
  C   C1677     1.0  0.68622  0.06666  0.12687  1.0000
  C   C1678     1.0  0.70248  0.04773  0.13278  1.0000
  P   P55       1.0  0.67973  0.09029  0.14109  1.0000
  C   C1679     1.0  0.65261  0.10690  0.13528  1.0000
  C   C1680     1.0  0.67804  0.07875  0.16990  1.0000
  C   C1681     1.0  0.65662  0.07544  0.18429  1.0000
  C   C1682     1.0  0.65585  0.06639  0.20636  1.0000
  S   S225      1.0  0.98791  0.29702  0.23687  1.0000
  C   C1683     1.0  0.69786  0.06318  0.20017  1.0000
  C   C1684     1.0  0.69867  0.07262  0.17814  1.0000
  C   C1685     1.0  0.63243  0.09612  0.13955  1.0000
  C   C1686     1.0  0.61179  0.10851  0.13395  1.0000
  C   C1687     1.0  0.61146  0.13135  0.12296  1.0000
  C   C1688     1.0  0.63149  0.14218  0.11824  1.0000
  C   C1689     1.0  0.65197  0.13008  0.12449  1.0000
  C   C1690     1.0  0.70277  0.10841  0.13226  1.0000
  C   C1691     1.0  0.72042  0.10587  0.11400  1.0000
  C   C1692     1.0  0.73791  0.12031  0.10725  1.0000
  C   C1693     1.0  0.73792  0.13731  0.11870  1.0000
  C   C1694     1.0  0.72039  0.13996  0.13687  1.0000
  C   C1695     1.0  0.70293  0.12549  0.14371  1.0000
  H   H1322     1.0  0.71924  0.01418  0.12745  1.0000
  H   H1323     1.0  0.69940  0.01490  0.09756  1.0000
  H   H1324     1.0  0.67201  0.04893  0.08568  1.0000
  H   H1325     1.0  0.66385  0.08195  0.10365  1.0000
  H   H1326     1.0  0.71174  0.04752  0.14529  1.0000
  H   H1327     1.0  0.64037  0.07960  0.17881  1.0000
  H   H1328     1.0  0.88777  0.17570  0.20378  1.0000
  C   C1696     1.0  0.96384  0.01874  0.22100  1.0000
  H   H1329     1.0  0.71389  0.05763  0.20622  1.0000
  H   H1330     1.0  0.71550  0.07470  0.16749  1.0000
  H   H1331     1.0  0.63276  0.07795  0.14671  1.0000
  H   H1332     1.0  0.59610  0.10030  0.13775  1.0000
  H   H1333     1.0  0.59568  0.14054  0.11804  1.0000
  H   H1334     1.0  0.63117  0.15988  0.10962  1.0000
  H   H1335     1.0  0.66731  0.13878  0.12034  1.0000
  H   H1336     1.0  0.72095  0.09258  0.10511  1.0000
  H   H1337     1.0  0.75180  0.11790  0.09346  1.0000
  H   H1338     1.0  0.75183  0.14808  0.11380  1.0000
  H   H1339     1.0  0.72072  0.15292  0.14591  1.0000
  H   H1340     1.0  0.68961  0.12752  0.15799  1.0000
  C   C1697     1.0  0.64781  0.16714  0.18467  1.0000
  C   C1698     1.0  0.64681  0.14366  0.18736  1.0000
  C   C1699     1.0  0.63001  0.13638  0.17948  1.0000
  C   C1700     1.0  0.61429  0.15246  0.16889  1.0000
  C   C1701     1.0  0.64504  0.22971  0.10861  1.0000
  C   C1702     1.0  0.63202  0.21288  0.12244  1.0000
  H   H1341     1.0  0.66078  0.17291  0.19081  1.0000
  H   H1342     1.0  0.65874  0.13114  0.19586  1.0000
  H   H1343     1.0  0.62854  0.11830  0.18212  1.0000
  H   H1344     1.0  0.56911  0.16224  0.20186  1.0000
  H   H1345     1.0  0.64698  0.26606  0.09745  1.0000
  H   H1346     1.0  0.66168  0.22472  0.09861  1.0000
  H   H1347     1.0  0.63872  0.19489  0.12299  1.0000
  H   H1348     1.0  0.53832  0.14905  0.14677  1.0000
  C   C1703     1.0  0.63245  0.27113  0.18141  1.0000
  C   C1704     1.0  0.94619  0.27455  0.15468  1.0000
  C   C1705     1.0  0.96459  0.28711  0.15228  1.0000
  C   C1706     1.0  0.98938  0.21875  0.07213  1.0000
  C   C1707     1.0  0.96750  0.27093  0.18965  1.0000
  C   C1708     1.0  0.94920  0.25801  0.19209  1.0000
  C   C1709     1.0  0.93830  0.26032  0.17452  1.0000
  C   C1710     1.0  0.93250  0.20578  0.19931  1.0000
  C   C1711     1.0  0.84584  0.06011  0.07574  1.0000
  H   H1349     1.0  0.63922  0.06365  0.21719  1.0000
  H   H1350     1.0  0.93750  0.27636  0.14135  1.0000
  C   C1712     1.0  0.73816  0.09612  0.22677  1.0000
  C   C1713     1.0  0.79105  0.29564  0.17122  1.0000
  H   H1351     1.0  0.53683  0.98771  0.00824  1.0000
  C   C1714     1.0  0.97080  0.20437  0.23215  1.0000
  H   H1352     1.0  0.51476  0.23496  0.17897  1.0000
  C   C1715     1.0  0.55834  0.22259  0.20732  1.0000
  Fe  Fe112     1.0  0.73210  0.99607  0.20854  1.0000
  H   H1353     1.0  0.98915  0.29540  0.16811  1.0000
  H   H1354     1.0  0.96320  0.18214  0.09303  1.0000
  H   H1355     1.0  0.74841  0.02980  0.07597  1.0000
  C   C1716     1.0  0.71602  0.28944  0.13899  1.0000
  C   C1717     1.0  0.70774  0.29142  0.11994  1.0000
  P   P56       1.0  0.72781  0.26175  0.15288  1.0000
  C   C1718     1.0  0.71415  0.24010  0.14691  1.0000
  C   C1719     1.0  0.75920  0.25758  0.14378  1.0000
  C   C1720     1.0  0.77205  0.23581  0.14872  1.0000
  C   C1721     1.0  0.79602  0.23232  0.14031  1.0000
  C   C1722     1.0  0.80746  0.25054  0.12725  1.0000
  C   C1723     1.0  0.79492  0.27227  0.12244  1.0000
  C   C1724     1.0  0.77094  0.27585  0.13071  1.0000
  C   C1725     1.0  0.69027  0.23901  0.15516  1.0000
  C   C1726     1.0  0.67908  0.22308  0.15011  1.0000
  C   C1727     1.0  0.69169  0.20764  0.13722  1.0000
  C   C1728     1.0  0.71545  0.20869  0.12876  1.0000
  C   C1729     1.0  0.72658  0.22510  0.13326  1.0000
  C   C1730     1.0  0.71927  0.26025  0.18190  1.0000
  C   C1731     1.0  0.69810  0.27249  0.19060  1.0000
  C   C1732     1.0  0.69103  0.27100  0.21298  1.0000
  C   C1733     1.0  0.51072  0.99054  0.16916  1.0000
  H   H1356     1.0  0.80854  0.99641  0.21345  1.0000
  C   C1734     1.0  0.73300  0.24620  0.19613  1.0000
  H   H1357     1.0  0.82730  0.29009  0.15604  1.0000
  Fe  Fe113     1.0  0.62653  0.22580  0.22359  1.0000
  C   C1735     1.0  0.58915  0.11044  0.23008  1.0000
  H   H1358     1.0  0.79434  0.08519  0.22702  1.0000
  H   H1359     1.0  0.70787  0.27635  0.11354  1.0000
  H   H1360     1.0  0.76348  0.22136  0.15861  1.0000
  H   H1361     1.0  0.80579  0.21541  0.14370  1.0000
  H   H1362     1.0  0.82605  0.24779  0.12084  1.0000
  H   H1363     1.0  0.80392  0.28634  0.11242  1.0000
  H   H1364     1.0  0.76172  0.29288  0.12684  1.0000
  H   H1365     1.0  0.68020  0.25045  0.16554  1.0000
  H   H1366     1.0  0.66062  0.22277  0.15642  1.0000
  H   H1367     1.0  0.68309  0.19484  0.13392  1.0000
  H   H1368     1.0  0.72540  0.19666  0.11889  1.0000
  H   H1369     1.0  0.74487  0.22575  0.12617  1.0000
  H   H1370     1.0  0.68677  0.28302  0.18018  1.0000
  P   P57       1.0  0.93772  0.24105  0.21823  1.0000
  C   C1736     1.0  0.58651  0.05438  0.02455  1.0000
  C   C1737     1.0  0.92503  0.00699  0.17855  1.0000
  H   H1371     1.0  0.74903  0.23603  0.19018  1.0000
  H   H1372     1.0  0.92870  0.20971  0.14992  1.0000
  C   C1738     1.0  0.55321  0.16843  0.11550  1.0000
  C   C1739     1.0  0.86280  0.02463  0.11933  1.0000
  C   C1740     1.0  0.89165  0.99137  0.20314  1.0000
  H   H1373     1.0  0.49502  0.99521  0.02266  1.0000
  H   H1374     1.0  0.60149  0.14619  0.16315  1.0000
  C   C1741     1.0  0.61061  0.21926  0.13566  1.0000
  H   H1375     1.0  0.85553  0.04913  0.19367  1.0000
  C   C1742     1.0  0.60577  0.06504  0.01226  1.0000
  C   C1743     1.0  0.97516  0.28536  0.16981  1.0000
  S   S226      1.0  0.77488  0.98850  0.15430  1.0000
  H   H1376     1.0  0.56158  0.03221  0.02555  1.0000
  S   S227      1.0  0.98734  0.05490  0.19755  1.0000
  C   C1744     1.0  0.53181  0.22859  0.18282  1.0000
  P   P58       1.0  0.59412  0.19732  0.15353  1.0000
  C   C1745     1.0  0.58216  0.19215  0.11560  1.0000
  C   C1746     1.0  0.63181  0.28417  0.19686  1.0000
  C   C1747     1.0  0.50951  0.00581  0.14946  1.0000
  C   C1748     1.0  0.61543  0.25947  0.12098  1.0000
  H   H1377     1.0  0.79947  0.27707  0.23190  1.0000
  P   P59       1.0  0.89211  0.05501  0.21503  1.0000
  C   C1749     1.0  0.92041  0.18952  0.19590  1.0000
  H   H1378     1.0  0.87221  0.03886  0.11031  1.0000
  C   C1750     1.0  0.94829  0.19784  0.12100  1.0000
  C   C1751     1.0  0.79394  0.03169  0.09885  1.0000
  Fe  Fe114     1.0  0.58230  0.03175  0.22505  1.0000
  H   H1379     1.0  0.73603  0.23313  0.22945  1.0000
  H   H1380     1.0  0.95038  0.02621  0.21190  1.0000
  C   C1752     1.0  0.89748  0.18763  0.20701  1.0000
  H   H1381     1.0  0.89999  0.11529  0.14860  1.0000
  Fe  Fe115     1.0  0.64166  0.98108  0.05725  1.0000
  H   H1382     1.0  0.83487  0.06644  0.10833  1.0000
  Fe  Fe116     1.0  0.56765  0.07906  0.20038  1.0000
  S   S228      1.0  0.55992  0.01487  0.21178  1.0000
  H   H1383     1.0  0.74503  0.31030  0.07635  1.0000
  H   H1384     1.0  0.94051  0.00519  0.16608  1.0000
  C   C1753     1.0  0.54937  0.21848  0.16807  1.0000
  C   C1754     1.0  0.56691  0.99151  0.05692  1.0000
  H   H1385     1.0  0.79717  0.03352  0.11411  1.0000
  H   H1386     1.0  0.75705  0.06219  0.22436  1.0000
  C   C1755     1.0  0.61984  0.98490  0.18368  1.0000
  S   S229      1.0  0.57011  0.11706  0.19385  1.0000
  C   C1756     1.0  0.92376  0.27501  0.10146  1.0000
  H   H1387     1.0  0.60924  0.27752  0.12080  1.0000
  C   C1757     1.0  0.52365  0.00075  0.13005  1.0000
  C   C1758     1.0  0.57680  0.14988  0.21410  1.0000
  H   H1388     1.0  0.59293  0.20654  0.19675  1.0000
  C   C1759     1.0  0.93840  0.29210  0.09316  1.0000
  C   C1760     1.0  0.85001  0.07712  0.23500  1.0000
  H   H1389     1.0  0.85491  0.06053  0.04125  1.0000
  C   C1761     1.0  0.57154  0.21002  0.17298  1.0000
  H   H1390     1.0  0.58630  0.24814  0.14531  1.0000
  H   H1391     1.0  0.97309  0.22890  0.06907  1.0000
  H   H1392     1.0  0.96335  0.19345  0.22522  1.0000
  C   C1762     1.0  0.81058  0.30043  0.15490  1.0000
  C   C1763     1.0  0.85498  0.09383  0.04775  1.0000
  H   H1393     1.0  0.93957  0.12203  0.15038  1.0000
  H   H1394     1.0  0.62616  0.27720  0.21389  1.0000
  C   C1764     1.0  0.77098  0.03177  0.09695  1.0000
  C   C1765     1.0  0.57595  0.21238  0.19265  1.0000
  H   H1395     1.0  0.85327  0.12515  0.05905  1.0000
  C   C1766     1.0  0.84650  0.01725  0.11065  1.0000
  C   C1767     1.0  0.81244  0.02941  0.08119  1.0000
  C   C1768     1.0  0.85222  0.07045  0.05376  1.0000
  C   C1769     1.0  0.86345  0.14035  0.23744  1.0000
  H   H1396     1.0  0.75683  0.03335  0.11072  1.0000
  Fe  Fe117     1.0  0.83136  0.14947  0.19781  1.0000
  H   H1397     1.0  0.94014  0.30919  0.23276  1.0000
  C   C1770     1.0  0.85109  0.10706  0.06363  1.0000
  C   C1771     1.0  0.55451  0.07709  0.07784  1.0000
  H   H1398     1.0  0.87071  0.01281  0.22461  1.0000
  C   C1772     1.0  0.78452  0.02802  0.05954  1.0000
  C   C1773     1.0  0.88491  0.01959  0.05663  1.0000
  C   C1774     1.0  0.93031  0.10970  0.16300  1.0000
  C   C1775     1.0  0.83544  0.99809  0.12243  1.0000
  P   P60       1.0  0.84201  0.03003  0.08350  1.0000
  C   C1776     1.0  0.93006  0.19793  0.13923  1.0000
  C   C1777     1.0  0.84404  0.09702  0.08546  1.0000
  H   H1399     1.0  0.63945  0.98272  0.11834  1.0000
  C   C1778     1.0  0.93302  0.25229  0.10883  1.0000
  H   H1400     1.0  0.81326  0.06202  0.19917  1.0000
  C   C1779     1.0  0.82604  0.08453  0.23787  1.0000
  H   H1401     1.0  0.97043  0.29842  0.13693  1.0000
  H   H1402     1.0  0.84081  0.10728  0.09782  1.0000
  H   H1403     1.0  0.94998  0.20761  0.19013  1.0000
  H   H1404     1.0  0.67597  0.05245  0.23127  1.0000
  C   C1780     1.0  0.96240  0.28649  0.09204  1.0000
  H   H1405     1.0  0.67464  0.28044  0.21949  1.0000
  C   C1781     1.0  0.95718  0.24648  0.10792  1.0000
  H   H1406     1.0  0.72718  0.13751  0.18318  1.0000
  S   S230      1.0  0.98373  0.11964  0.20401  1.0000
  H   H1407     1.0  0.61430  0.07488  0.01951  1.0000
  H   H1408     1.0  0.91794  0.01152  0.03574  1.0000
  C   C1782     1.0  0.88341  0.13187  0.22363  1.0000
  C   C1783     1.0  0.90805  0.10604  0.16206  1.0000
  H   H1409     1.0  0.87889  0.08756  0.17740  1.0000
  C   C1784     1.0  0.74542  0.10360  0.18145  1.0000
  C   C1785     1.0  0.75392  0.08253  0.19321  1.0000
  C   C1786     1.0  0.81276  0.07888  0.22516  1.0000
  H   H1410     1.0  0.59140  0.09225  0.23008  1.0000
  H   H1411     1.0  0.92879  0.17834  0.18471  1.0000
  H   H1412     1.0  0.56127  0.08647  0.06177  1.0000
  H   H1413     1.0  0.91210  0.28724  0.20698  1.0000
  H   H1414     1.0  0.97573  0.27028  0.20303  1.0000
  C   C1787     1.0  0.57927  0.12630  0.21408  1.0000
  C   C1788     1.0  0.73335  0.12099  0.19227  1.0000
  C   C1789     1.0  0.50547  0.05020  0.00001  1.0000
  H   H1415     1.0  0.52278  0.23855  0.21390  1.0000
  H   H1416     1.0  0.56186  0.22446  0.22241  1.0000
  C   C1790     1.0  0.92894  0.08106  0.19634  1.0000
  C   C1791     1.0  0.86672  0.01396  0.14010  1.0000
  H   H1417     1.0  0.58536  0.99085  0.04985  1.0000
  C   C1792     1.0  0.70455  0.19468  0.21212  1.0000
  C   C1793     1.0  0.55745  0.08408  0.09602  1.0000
  C   C1794     1.0  0.54889  0.07199  0.11678  1.0000
  H   H1418     1.0  0.97818  0.17569  0.14899  1.0000
  H   H1419     1.0  0.58039  0.05586  0.04131  1.0000
  H   H1420     1.0  0.76325  0.06899  0.18491  1.0000
  C   C1795     1.0  0.89606  0.09024  0.17845  1.0000
  C   C1796     1.0  0.94078  0.09711  0.18009  1.0000
  C   C1797     1.0  0.76624  0.02992  0.07734  1.0000
  C   C1798     1.0  0.60363  0.98361  0.00123  1.0000
  H   H1421     1.0  0.88169  0.12607  0.20957  1.0000
  C   C1799     1.0  0.90632  0.07774  0.19580  1.0000
  C   C1800     1.0  0.53526  0.04509  0.10122  1.0000
  C   C1801     1.0  0.94932  0.18275  0.10713  1.0000
  C   C1802     1.0  0.63790  0.30665  0.19022  1.0000
  C   C1803     1.0  0.51965  0.99176  0.07630  1.0000
  H   H1422     1.0  0.68695  0.20318  0.21271  1.0000
  C   C1804     1.0  0.53794  0.05253  0.11940  1.0000
  H   H1423     1.0  0.53223  0.04311  0.13567  1.0000
  H   H1424     1.0  0.56836  0.01307  0.07844  1.0000
  H   H1425     1.0  0.92189  0.00078  0.10635  1.0000
  H   H1426     1.0  0.81970  0.30505  0.05670  1.0000
  H   H1427     1.0  0.58801  0.00682  0.11163  1.0000
  C   C1805     1.0  0.85487  0.99548  0.15206  1.0000
  C   C1806     1.0  0.91910  0.02714  0.18683  1.0000
  C   C1807     1.0  0.89923  0.21708  0.22615  1.0000
  H   H1428     1.0  0.93018  0.04063  0.18045  1.0000
  C   C1808     1.0  0.98379  0.02960  0.21735  1.0000
  H   H1429     1.0  0.72066  0.13122  0.22288  1.0000
  C   C1809     1.0  0.72572  0.24455  0.21855  1.0000
  H   H1430     1.0  0.49661  0.06765  0.99820  1.0000
  C   C1810     1.0  0.73747  0.17937  0.22942  1.0000
  C   C1811     1.0  0.75117  0.17523  0.20953  1.0000
  H   H1431     1.0  0.76920  0.16775  0.20859  1.0000
  P   P61       1.0  0.97002  0.21700  0.11590  1.0000
  C   C1812     1.0  0.78224  0.30642  0.06461  1.0000
  H   H1432     1.0  0.93770  0.07096  0.20906  1.0000
  C   C1813     1.0  0.91831  0.25997  0.23436  1.0000
  C   C1814     1.0  0.89950  0.02941  0.20360  1.0000
  C   C1815     1.0  0.55712  0.00424  0.07306  1.0000
  C   C1816     1.0  0.85709  0.99251  0.06331  1.0000
  H   H1433     1.0  0.57113  0.18958  0.08689  1.0000
  H   H1434     1.0  0.92117  0.12485  0.21735  1.0000
  C   C1817     1.0  0.88577  0.01141  0.21159  1.0000
  C   C1818     1.0  0.86092  0.06385  0.21939  1.0000
  C   C1819     1.0  0.88706  0.20103  0.22244  1.0000
  C   C1820     1.0  0.63895  0.28072  0.15936  1.0000
  H   H1435     1.0  0.52234  0.99499  0.23870  1.0000
  C   C1821     1.0  0.67646  0.06021  0.21430  1.0000
  H   H1436     1.0  0.63738  0.00909  0.15748  1.0000
  H   H1437     1.0  0.74829  0.10647  0.16397  1.0000
  H   H1438     1.0  0.49985  0.99467  0.18403  1.0000
  C   C1822     1.0  0.66836  0.00587  0.22457  1.0000
  C   C1823     1.0  0.53630  0.23060  0.20248  1.0000
  H   H1439     1.0  0.67709  0.98976  0.16182  1.0000
  H   H1440     1.0  0.67918  0.00783  0.20852  1.0000
  C   C1824     1.0  0.86266  0.01311  0.06622  1.0000
  H   H1441     1.0  0.83898  0.28913  0.22044  1.0000
  C   C1825     1.0  0.53326  0.00489  0.08257  1.0000
  C   C1826     1.0  0.58449  0.98931  0.99094  1.0000
  C   C1827     1.0  0.64485  0.30314  0.15272  1.0000
  S   S231      1.0  0.64387  0.18955  0.23157  1.0000
  P   P62       1.0  0.52095  0.02000  0.10451  1.0000
  C   C1828     1.0  0.61481  0.06194  0.99105  1.0000
  Fe  Fe118     1.0  0.69130  0.99275  0.04551  1.0000
  H   H1442     1.0  0.72227  0.30826  0.16132  1.0000
  S   S232      1.0  0.72757  0.98382  0.05285  1.0000
  C   C1829     1.0  0.84746  0.05853  0.20643  1.0000
  S   S233      1.0  0.83528  0.14289  0.23241  1.0000
  C   C1830     1.0  0.52846  0.00521  0.00523  1.0000
  C   C1831     1.0  0.70477  0.25694  0.22697  1.0000
  C   C1832     1.0  0.82346  0.06590  0.20942  1.0000
  H   H1443     1.0  0.78074  0.02650  0.04438  1.0000
  C   C1833     1.0  0.80352  0.31220  0.06597  1.0000
  H   H1444     1.0  0.76106  0.98360  0.07901  1.0000
  C   C1834     1.0  0.90093  0.00624  0.04341  1.0000
  H   H1445     1.0  0.60258  0.99335  0.18192  1.0000
  C   C1835     1.0  0.76950  0.30899  0.16983  1.0000
  H   H1446     1.0  0.78190  0.29488  0.05416  1.0000
  H   H1447     1.0  0.93108  0.30965  0.08751  1.0000
  H   H1448     1.0  0.58155  0.17566  0.23041  1.0000
  C   C1836     1.0  0.96157  0.22758  0.23174  1.0000
  C   C1837     1.0  0.64390  0.00903  0.22708  1.0000
  C   C1838     1.0  0.80286  0.29211  0.23655  1.0000
  C   C1839     1.0  0.69867  0.31294  0.10927  1.0000
  C   C1840     1.0  0.83074  0.98805  0.23687  1.0000
  C   C1841     1.0  0.82021  0.98321  0.22142  1.0000
  C   C1842     1.0  0.96102  0.99853  0.23688  1.0000
  H   H1449     1.0  0.64989  0.31040  0.13563  1.0000
  H   H1450     1.0  0.49571  0.06276  0.08347  1.0000
  H   H1451     1.0  0.75445  0.30558  0.18277  1.0000
  H   H1452     1.0  0.84032  0.98676  0.07121  1.0000
  C   C1843     1.0  0.71602  0.30937  0.14665  1.0000
  H   H1453     1.0  0.75958  0.13033  0.23424  1.0000
  C   C1844     1.0  0.50458  0.00941  0.01373  1.0000
  H   H1454     1.0  0.85737  0.98748  0.16837  1.0000
  S   S234      1.0  0.55380  0.05980  0.23366  1.0000
  C   C1845     1.0  0.83954  0.98737  0.14304  1.0000
  H   H1455     1.0  0.98861  0.24711  0.13636  1.0000
  C   C1846     1.0  0.98945  0.22997  0.14619  1.0000
  H   H1456     1.0  0.90267  0.08589  0.23915  1.0000
  H   H1457     1.0  0.88639  0.31290  0.22918  1.0000
  C   C1847     1.0  0.89350  0.29616  0.23707  1.0000
  Fe  Fe119     1.0  0.96714  0.11770  0.23905  1.0000
  H   H1458     1.0  0.49747  0.02155  0.14942  1.0000
  S   S235      1.0  0.49474  0.03939  0.23038  1.0000
  C   C1848     1.0  0.89504  0.98606  0.04012  1.0000
  C   C1849     1.0  0.93011  0.98308  0.10799  1.0000
  H   H1459     1.0  0.89057  0.22761  0.23783  1.0000
  C   C1850     1.0  0.50693  0.99280  0.23374  1.0000
  H   H1460     1.0  0.50142  0.99114  0.08389  1.0000
  H   H1461     1.0  0.92946  0.98095  0.07540  1.0000
  C   C1851     1.0  0.52936  0.04608  0.99143  1.0000
  C   C1852     1.0  0.54071  0.01629  0.28435  1.0000
  H   H1462     1.0  0.96441  0.25850  0.24194  1.0000
  H   H1463     1.0  0.57711  0.28517  0.35553  1.0000
  H   H1464     1.0  0.53888  0.20749  0.32269  1.0000
  C   C1853     1.0  0.99127  0.10930  0.35518  1.0000
  C   C1854     1.0  0.51858  0.02247  0.27923  1.0000
  C   C1855     1.0  0.91285  0.25306  0.25702  1.0000
  C   C1856     1.0  0.70044  0.26841  0.29534  1.0000
  S   S236      1.0  0.94844  0.03161  0.36542  1.0000
  C   C1857     1.0  0.54318  0.07142  0.32819  1.0000
  C   C1858     1.0  0.66051  0.13160  0.27505  1.0000
  H   H1465     1.0  0.55021  0.99951  0.28275  1.0000
  H   H1466     1.0  0.92020  0.23636  0.26491  1.0000
  H   H1467     1.0  0.69893  0.25528  0.24434  1.0000
  Fe  Fe120     1.0  0.65898  0.20293  0.25410  1.0000
  C   C1859     1.0  0.76057  0.09593  0.28407  1.0000
  H   H1468     1.0  0.57717  0.18361  0.31621  1.0000
  Fe  Fe121     1.0  0.61320  0.23053  0.27029  1.0000
  H   H1469     1.0  0.53606  0.28349  0.34996  1.0000
  S   S237      1.0  0.59091  0.25615  0.28906  1.0000
  Fe  Fe122     1.0  0.61358  0.18431  0.25920  1.0000
  S   S238      1.0  0.59924  0.15047  0.26843  1.0000
  H   H1470     1.0  0.68140  0.25266  0.33948  1.0000
  H   H1471     1.0  0.54417  0.24793  0.30465  1.0000
  S   S239      1.0  0.62980  0.19498  0.28277  1.0000
  H   H1472     1.0  0.62980  0.05005  0.25625  1.0000
  S   S240      1.0  0.61513  0.26400  0.37683  1.0000
  S   S241      1.0  0.96200  0.00049  0.46623  1.0000
  H   H1473     1.0  0.79862  0.13335  0.28095  1.0000
  S   S242      1.0  0.64408  0.23965  0.24402  1.0000
  C   C1860     1.0  0.98467  0.08949  0.37004  1.0000
  H   H1474     1.0  0.58831  0.08870  0.31669  1.0000
  C   C1861     1.0  0.51781  0.28028  0.40411  1.0000
  C   C1862     1.0  0.90504  0.02763  0.25298  1.0000
  C   C1863     1.0  0.59867  0.25824  0.31298  1.0000
  C   C1864     1.0  0.58369  0.27240  0.32599  1.0000
  C   C1865     1.0  0.58895  0.27454  0.34537  1.0000
  C   C1866     1.0  0.60920  0.26233  0.35192  1.0000
  C   C1867     1.0  0.62426  0.24803  0.33891  1.0000
  C   C1868     1.0  0.61905  0.24604  0.31935  1.0000
  C   C1869     1.0  0.97402  0.01120  0.29845  1.0000
  H   H1475     1.0  0.77394  0.05724  0.26185  1.0000
  H   H1476     1.0  0.63987  0.23843  0.34401  1.0000
  H   H1477     1.0  0.63061  0.23500  0.30933  1.0000
  S   S243      1.0  0.59931  0.01081  0.25213  1.0000
  C   C1870     1.0  0.74182  0.01271  0.27929  1.0000
  C   C1871     1.0  0.88782  0.14675  0.26013  1.0000
  C   C1872     1.0  0.86574  0.14733  0.25586  1.0000
  H   H1478     1.0  0.67681  0.14744  0.29325  1.0000
  C   C1873     1.0  0.65703  0.29883  0.27535  1.0000
  C   C1874     1.0  0.88810  0.28923  0.25963  1.0000
  H   H1479     1.0  0.88942  0.15271  0.27418  1.0000
  H   H1480     1.0  0.85040  0.15374  0.26661  1.0000
  H   H1481     1.0  0.57151  0.04483  0.33544  1.0000
  H   H1482     1.0  0.96162  0.19257  0.28856  1.0000
  P   P63       1.0  0.73323  0.09150  0.25592  1.0000
  H   H1483     1.0  0.56812  0.02681  0.29470  1.0000
  H   H1484     1.0  0.51795  0.28962  0.41651  1.0000
  C   C1875     1.0  0.67586  0.30494  0.36636  1.0000
  C   C1876     1.0  0.54768  0.05143  0.36451  1.0000
  C   C1877     1.0  0.78602  0.12537  0.27640  1.0000
  C   C1878     1.0  0.52948  0.26118  0.30649  1.0000
  H   H1485     1.0  0.69932  0.05782  0.27260  1.0000
  C   C1879     1.0  0.69818  0.23045  0.28982  1.0000
  H   H1486     1.0  0.68801  0.09170  0.24510  1.0000
  C   C1880     1.0  0.58583  0.20922  0.35474  1.0000
  C   C1881     1.0  0.55189  0.20816  0.33169  1.0000
  C   C1882     1.0  0.65841  0.30140  0.29602  1.0000
  H   H1487     1.0  0.67252  0.29323  0.26423  1.0000
  H   H1488     1.0  0.91643  0.07952  0.27331  1.0000
  C   C1883     1.0  0.85738  0.99714  0.48609  1.0000
  H   H1489     1.0  0.60335  0.10604  0.25876  1.0000
  C   C1884     1.0  0.53744  0.10916  0.26613  1.0000
  C   C1885     1.0  0.55097  0.03202  0.29080  1.0000
  C   C1886     1.0  0.73497  0.24603  0.27832  1.0000
  C   C1887     1.0  0.51405  0.07981  0.35957  1.0000
  H   H1490     1.0  0.75307  0.08142  0.29516  1.0000
  H   H1491     1.0  0.89364  0.26222  0.28709  1.0000
  H   H1492     1.0  0.96700  0.02629  0.28795  1.0000
  S   S244      1.0  0.93427  0.99053  0.41984  1.0000
  C   C1888     1.0  0.95457  0.15823  0.29089  1.0000
  H   H1493     1.0  0.50011  0.23200  0.39817  1.0000
  S   S245      1.0  0.97384  0.07931  0.24862  1.0000
  C   C1889     1.0  0.61668  0.31355  0.30339  1.0000
  H   H1494     1.0  0.95224  0.12225  0.29458  1.0000
  H   H1495     1.0  0.56797  0.28161  0.32097  1.0000
  C   C1890     1.0  0.52203  0.08343  0.33707  1.0000
  H   H1496     1.0  0.65224  0.06407  0.27726  1.0000
  C   C1891     1.0  0.51469  0.26197  0.32674  1.0000
  C   C1892     1.0  0.67858  0.00107  0.24284  1.0000
  C   C1893     1.0  0.59044  0.19503  0.33962  1.0000
  C   C1894     1.0  0.91324  0.06498  0.26770  1.0000
  C   C1895     1.0  0.54424  0.10433  0.28624  1.0000
  C   C1896     1.0  0.62073  0.05811  0.26968  1.0000
  C   C1897     1.0  0.63335  0.06609  0.28149  1.0000
  H   H1497     1.0  0.64376  0.14185  0.27872  1.0000
  C   C1898     1.0  0.50652  0.04424  0.28095  1.0000
  H   H1498     1.0  0.56175  0.23461  0.36939  1.0000
  H   H1499     1.0  0.53740  0.09552  0.25791  1.0000
  C   C1899     1.0  0.62156  0.07712  0.29841  1.0000
  H   H1500     1.0  0.66893  0.25210  0.30413  1.0000
  C   C1900     1.0  0.77947  0.13408  0.25640  1.0000
  C   C1901     1.0  0.54578  0.12268  0.29557  1.0000
  C   C1902     1.0  0.77657  0.10628  0.29025  1.0000
  Fe  Fe123     1.0  0.96397  0.98594  0.43685  1.0000
  C   C1903     1.0  0.55566  0.05499  0.34203  1.0000
  C   C1904     1.0  0.75438  0.10431  0.26373  1.0000
  C   C1905     1.0  0.67911  0.13459  0.28343  1.0000
  C   C1906     1.0  0.50779  0.24785  0.39351  1.0000
  H   H1501     1.0  0.85992  0.08226  0.24471  1.0000
  C   C1907     1.0  0.95908  0.99804  0.31471  1.0000
  H   H1502     1.0  0.76730  0.30043  0.25268  1.0000
  C   C1908     1.0  0.51799  0.25623  0.37181  1.0000
  H   H1503     1.0  0.49777  0.08919  0.36634  1.0000
  C   C1909     1.0  0.67497  0.28280  0.37905  1.0000
  C   C1910     1.0  0.98771  0.16715  0.30174  1.0000
  H   H1504     1.0  0.49990  0.25342  0.42635  1.0000
  S   S246      1.0  0.69672  0.19255  0.25606  1.0000
  H   H1505     1.0  0.73466  0.27973  0.28397  1.0000
  H   H1506     1.0  0.93897  0.16384  0.28414  1.0000
  C   C1911     1.0  0.64013  0.00088  0.26607  1.0000
  C   C1912     1.0  0.58435  0.07106  0.29244  1.0000
  H   H1507     1.0  0.75333  0.24432  0.27080  1.0000
  C   C1913     1.0  0.89776  0.26765  0.26961  1.0000
  H   H1508     1.0  0.70455  0.01562  0.28337  1.0000
  C   C1914     1.0  0.53942  0.05434  0.29155  1.0000
  C   C1915     1.0  0.66369  0.11592  0.26149  1.0000
  C   C1916     1.0  0.59633  0.06079  0.27495  1.0000
  C   C1917     1.0  0.68744  0.25051  0.29713  1.0000
  S   S247      1.0  0.93493  0.13967  0.25215  1.0000
  H   H1509     1.0  0.91578  0.00676  0.28179  1.0000
  C   C1918     1.0  0.91286  0.02405  0.27244  1.0000
  C   C1919     1.0  0.91695  0.04271  0.27979  1.0000
  C   C1920     1.0  0.71953  0.02491  0.27930  1.0000
  C   C1921     1.0  0.49250  0.29673  0.31008  1.0000
  C   C1922     1.0  0.68010  0.26741  0.34665  1.0000
  H   H1510     1.0  0.68799  0.21674  0.29118  1.0000
  C   C1923     1.0  0.97840  0.98894  0.24885  1.0000
  C   C1924     1.0  0.85946  0.98830  0.46746  1.0000
  C   C1925     1.0  0.54742  0.22310  0.34632  1.0000
  H   H1511     1.0  0.51817  0.19505  0.37859  1.0000
  C   C1926     1.0  0.71667  0.04890  0.27305  1.0000
  H   H1512     1.0  0.55219  0.11949  0.31046  1.0000
  C   C1927     1.0  0.96737  0.17439  0.29337  1.0000
  H   H1513     1.0  0.71518  0.12498  0.28465  1.0000
  C   C1928     1.0  0.59302  0.14161  0.24657  1.0000
  Fe  Fe124     1.0  0.96040  0.00093  0.38940  1.0000
  C   C1929     1.0  0.52582  0.27799  0.28823  1.0000
  C   C1930     1.0  0.50765  0.25992  0.40958  1.0000
  H   H1514     1.0  0.53623  0.30418  0.37839  1.0000
  H   H1515     1.0  0.52896  0.16760  0.25711  1.0000
  H   H1516     1.0  0.94464  0.06441  0.32619  1.0000
  C   C1931     1.0  0.68557  0.10318  0.25627  1.0000
  H   H1517     1.0  0.74403  0.99408  0.28345  1.0000
  H   H1518     1.0  0.59912  0.20993  0.36346  1.0000
  C   C1932     1.0  0.75853  0.04849  0.26711  1.0000
  H   H1519     1.0  0.67525  0.24705  0.37913  1.0000
  C   C1933     1.0  0.70438  0.10591  0.26482  1.0000
  H   H1520     1.0  0.53773  0.27736  0.27279  1.0000
  H   H1521     1.0  0.77865  0.01499  0.27296  1.0000
  H   H1522     1.0  0.92290  0.03996  0.29489  1.0000
  C   C1934     1.0  0.59590  0.11815  0.24631  1.0000
  C   C1935     1.0  0.68108  0.28961  0.33379  1.0000
  C   C1936     1.0  0.53265  0.15000  0.26549  1.0000
  C   C1937     1.0  0.57345  0.19444  0.32813  1.0000
  H   H1523     1.0  0.97410  0.07779  0.29361  1.0000
  C   C1938     1.0  0.96967  0.04111  0.34274  1.0000
  C   C1939     1.0  0.76131  0.02451  0.27330  1.0000
  C   C1940     1.0  0.52693  0.06391  0.37329  1.0000
  C   C1941     1.0  0.73616  0.06091  0.26693  1.0000
  C   C1942     1.0  0.72430  0.26608  0.28582  1.0000
  C   C1943     1.0  0.96205  0.13477  0.29681  1.0000
  C   C1944     1.0  0.52802  0.28861  0.38258  1.0000
  C   C1945     1.0  0.72192  0.22820  0.28037  1.0000
  H   H1524     1.0  0.73004  0.21271  0.27438  1.0000
  H   H1525     1.0  0.97875  0.12471  0.35378  1.0000
  H   H1526     1.0  0.67216  0.99461  0.27772  1.0000
  C   C1946     1.0  0.53144  0.13187  0.25593  1.0000
  P   P64       1.0  0.51942  0.24070  0.35074  1.0000
  Fe  Fe125     1.0  0.59983  0.29771  0.38717  1.0000
  H   H1527     1.0  0.84580  0.99308  0.45812  1.0000
  H   H1528     1.0  0.62929  0.99890  0.28218  1.0000
  C   C1947     1.0  0.70095  0.12178  0.27842  1.0000
  C   C1948     1.0  0.96287  0.05766  0.32544  1.0000
  C   C1949     1.0  0.56450  0.22334  0.35800  1.0000
  C   C1950     1.0  0.97952  0.06518  0.30697  1.0000
  C   C1951     1.0  0.59716  0.07967  0.30384  1.0000
  S   S248      1.0  0.59442  0.21916  0.24910  1.0000
  C   C1952     1.0  0.52797  0.27676  0.36650  1.0000
  C   C1953     1.0  0.76400  0.12345  0.24995  1.0000
  H   H1529     1.0  0.63132  0.08401  0.30711  1.0000
  C   C1954     1.0  0.67688  0.26408  0.36921  1.0000
  H   H1530     1.0  0.50705  0.07679  0.28859  1.0000
  H   H1531     1.0  0.78167  0.09954  0.30577  1.0000
  H   H1532     1.0  0.74497  0.17512  0.24377  1.0000
  H   H1533     1.0  0.58693  0.05528  0.26503  1.0000
  H   H1534     1.0  0.60732  0.18476  0.33656  1.0000
  P   P65       1.0  0.68605  0.29436  0.30455  1.0000
  P   P66       1.0  0.55282  0.07507  0.29920  1.0000
  C   C1955     1.0  0.62983  0.00668  0.24789  1.0000
  H   H1535     1.0  0.63446  0.30117  0.25304  1.0000
  C   C1956     1.0  0.66438  0.99848  0.26355  1.0000
  H   H1536     1.0  0.82698  0.00496  0.24084  1.0000
  H   H1537     1.0  0.55749  0.03884  0.37511  1.0000
  H   H1538     1.0  0.67204  0.28026  0.39656  1.0000
  C   C1957     1.0  0.99008  0.19485  0.24170  1.0000
  H   H1539     1.0  0.94038  0.00288  0.31698  1.0000
  H   H1540     1.0  0.87647  0.30052  0.26939  1.0000
  C   C1958     1.0  0.98232  0.12744  0.30524  1.0000
  C   C1959     1.0  0.53989  0.14540  0.28527  1.0000
  H   H1541     1.0  0.54201  0.15948  0.29211  1.0000
  H   H1542     1.0  0.50456  0.30876  0.27580  1.0000
  H   H1543     1.0  0.98780  0.10916  0.30974  1.0000
  C   C1960     1.0  0.78482  0.30514  0.24839  1.0000
  C   C1961     1.0  0.50187  0.19991  0.37292  1.0000
  C   C1962     1.0  0.50727  0.29570  0.28998  1.0000
  C   C1963     1.0  0.97142  0.24070  0.24175  1.0000
  C   C1964     1.0  0.99068  0.23116  0.25123  1.0000
  S   S249      1.0  0.70880  0.99920  0.24075  1.0000
  H   H1544     1.0  0.90182  0.01290  0.24777  1.0000
  H   H1545     1.0  0.63853  0.31140  0.32589  1.0000
  H   H1546     1.0  0.64924  0.11414  0.25465  1.0000
  C   C1965     1.0  0.51673  0.06003  0.28735  1.0000
  H   H1547     1.0  0.51083  0.01056  0.27364  1.0000
  H   H1548     1.0  0.78665  0.14898  0.24569  1.0000
  C   C1966     1.0  0.61537  0.31056  0.28297  1.0000
  C   C1967     1.0  0.49752  0.22130  0.35917  1.0000
  C   C1968     1.0  0.67830  0.30843  0.34390  1.0000
  H   H1549     1.0  0.96721  0.08961  0.37995  1.0000
  H   H1550     1.0  0.52071  0.06105  0.39071  1.0000
  H   H1551     1.0  0.81795  0.09525  0.24958  1.0000
  S   S250      1.0  0.57201  0.30270  0.41647  1.0000
  C   C1969     1.0  0.63809  0.30903  0.30994  1.0000
  C   C1970     1.0  0.90552  0.06857  0.24825  1.0000
  C   C1971     1.0  0.49633  0.28010  0.32844  1.0000
  H   H1552     1.0  0.51162  0.09545  0.32662  1.0000
  C   C1972     1.0  0.63554  0.30327  0.26893  1.0000
  S   S251      1.0  0.98911  0.99958  0.40678  1.0000
  H   H1553     1.0  0.94058  0.04422  0.48199  1.0000
  C   C1973     1.0  0.90782  0.13867  0.24632  1.0000
  H   H1554     1.0  0.72452  0.30696  0.31853  1.0000
  H   H1555     1.0  0.81202  0.30435  0.32920  1.0000
  H   H1556     1.0  0.52685  0.13539  0.24011  1.0000
  H   H1557     1.0  0.91630  0.01322  0.48968  1.0000
  H   H1558     1.0  0.94542  0.99045  0.23985  1.0000
  C   C1974     1.0  0.90154  0.04997  0.24058  1.0000
  H   H1559     1.0  0.71776  0.24264  0.55825  1.0000
  Fe  Fe126     1.0  0.90652  0.08381  0.59513  1.0000
  S   S252      1.0  0.90815  0.06044  0.62755  1.0000
  S   S253      1.0  0.91742  0.07175  0.56377  1.0000
  Fe  Fe127     1.0  0.88401  0.12504  0.61379  1.0000
  S   S254      1.0  0.88288  0.10553  0.64772  1.0000
  S   S255      1.0  0.87084  0.16254  0.60551  1.0000
  Fe  Fe128     1.0  0.91953  0.09058  0.63523  1.0000
  S   S256      1.0  0.94485  0.08794  0.65697  1.0000
  Fe  Fe129     1.0  0.87151  0.07715  0.63729  1.0000
  S   S257      1.0  0.84388  0.05749  0.66094  1.0000
  S   S258      1.0  0.92140  0.11241  0.60183  1.0000
  S   S259      1.0  0.86900  0.09817  0.60430  1.0000
  H   H1560     1.0  0.86790  0.04558  0.53823  1.0000
  C   C1975     1.0  0.94825  0.21569  0.72024  1.0000
  H   H1561     1.0  0.90188  0.03310  0.59885  1.0000
  C   C1976     1.0  0.83359  0.99859  0.69200  1.0000
  C   C1977     1.0  0.71687  0.08083  0.72877  1.0000
  C   C1978     1.0  0.98002  0.11489  0.73558  1.0000
  Fe  Fe130     1.0  0.69063  0.00943  0.68542  1.0000
  S   S260      1.0  0.65903  0.02968  0.70184  1.0000
  C   C1979     1.0  0.79784  0.02716  0.55374  1.0000
  C   C1980     1.0  0.76955  0.16372  0.54875  1.0000
  S   S261      1.0  0.72695  0.00955  0.68962  1.0000
  C   C1981     1.0  0.80863  0.03983  0.53405  1.0000
  H   H1562     1.0  0.79067  0.18167  0.60829  1.0000
  H   H1563     1.0  0.86324  0.28402  0.64598  1.0000
  S   S262      1.0  0.66438  0.12695  0.71987  1.0000
  H   H1564     1.0  0.77486  0.07217  0.71858  1.0000
  C   C1982     1.0  0.78992  0.29119  0.59327  1.0000
  H   H1565     1.0  0.58689  0.99787  0.54165  1.0000
  Fe  Fe131     1.0  0.81732  0.18631  0.71380  1.0000
  C   C1983     1.0  0.68116  0.25182  0.57038  1.0000
  S   S263      1.0  0.79890  0.18742  0.68717  1.0000
  H   H1566     1.0  0.62638  0.01872  0.61513  1.0000
  H   H1567     1.0  0.78028  0.03310  0.56150  1.0000
  H   H1568     1.0  0.96165  0.19489  0.67260  1.0000
  H   H1569     1.0  0.72972  0.30330  0.58040  1.0000
  C   C1984     1.0  0.74429  0.28913  0.53081  1.0000
  S   S264      1.0  0.84773  0.20608  0.70623  1.0000
  H   H1570     1.0  0.87980  0.26168  0.70919  1.0000
  H   H1571     1.0  0.98144  0.07418  0.68055  1.0000
  C   C1985     1.0  0.81597  0.27326  0.71069  1.0000
  C   C1986     1.0  0.87018  0.28731  0.65887  1.0000
  H   H1572     1.0  0.94698  0.01513  0.61763  1.0000
  C   C1987     1.0  0.77918  0.28247  0.61471  1.0000
  C   C1988     1.0  0.81526  0.26172  0.69453  1.0000
  H   H1573     1.0  0.81328  0.26499  0.66119  1.0000
  H   H1574     1.0  0.81683  0.24330  0.69780  1.0000
  C   C1989     1.0  0.77611  0.10737  0.70070  1.0000
  C   C1990     1.0  0.74962  0.25379  0.72368  1.0000
  C   C1991     1.0  0.87876  0.00811  0.61640  1.0000
  C   C1992     1.0  0.74450  0.17645  0.72180  1.0000
  H   H1575     1.0  0.89263  0.21264  0.71651  1.0000
  H   H1576     1.0  0.54359  0.00300  0.54903  1.0000
  C   C1993     1.0  0.88699  0.98086  0.54076  1.0000
  H   H1577     1.0  0.66961  0.22543  0.71057  1.0000
  C   C1994     1.0  0.92398  0.16323  0.65724  1.0000
  H   H1578     1.0  0.71129  0.27211  0.61095  1.0000
  C   C1995     1.0  0.60537  0.02619  0.73932  1.0000
  C   C1996     1.0  0.71711  0.29245  0.65366  1.0000
  H   H1579     1.0  0.93191  0.29104  0.67882  1.0000
  H   H1580     1.0  0.94227  0.16289  0.68216  1.0000
  H   H1581     1.0  0.85779  0.05160  0.70853  1.0000
  C   C1997     1.0  0.54388  0.01060  0.70604  1.0000
  H   H1582     1.0  0.84654  0.10680  0.72644  1.0000
  H   H1583     1.0  0.61154  0.98433  0.70057  1.0000
  C   C1998     1.0  0.52898  0.01247  0.69177  1.0000
  H   H1584     1.0  0.90716  0.16883  0.66667  1.0000
  C   C1999     1.0  0.66258  0.05605  0.70697  1.0000
  C   C2000     1.0  0.65363  0.06073  0.72772  1.0000
  C   C2001     1.0  0.65430  0.08236  0.73194  1.0000
  C   C2002     1.0  0.66340  0.09964  0.71518  1.0000
  C   C2003     1.0  0.67203  0.09510  0.69428  1.0000
  C   C2004     1.0  0.67206  0.07319  0.69025  1.0000
  H   H1585     1.0  0.74058  0.16517  0.53350  1.0000
  C   C2005     1.0  0.60932  0.99593  0.71155  1.0000
  H   H1586     1.0  0.67872  0.10856  0.68126  1.0000
  H   H1587     1.0  0.67862  0.06981  0.67409  1.0000
  C   C2006     1.0  0.82084  0.05061  0.65169  1.0000
  C   C2007     1.0  0.80252  0.04072  0.66692  1.0000
  C   C2008     1.0  0.78502  0.03302  0.66016  1.0000
  C   C2009     1.0  0.78510  0.03611  0.63807  1.0000
  C   C2010     1.0  0.80263  0.04728  0.62283  1.0000
  C   C2011     1.0  0.82068  0.05421  0.62959  1.0000
  H   H1588     1.0  0.80213  0.03848  0.68405  1.0000
  H   H1589     1.0  0.77160  0.02458  0.67209  1.0000
  H   H1590     1.0  0.80255  0.05009  0.60573  1.0000
  H   H1591     1.0  0.83456  0.06213  0.61773  1.0000
  C   C2012     1.0  0.85232  0.17161  0.62809  1.0000
  C   C2013     1.0  0.83145  0.18572  0.62546  1.0000
  C   C2014     1.0  0.81488  0.19057  0.64367  1.0000
  C   C2015     1.0  0.81996  0.18263  0.66435  1.0000
  C   C2016     1.0  0.84167  0.17024  0.66682  1.0000
  C   C2017     1.0  0.85756  0.16403  0.64876  1.0000
  H   H1592     1.0  0.82798  0.19227  0.60936  1.0000
  H   H1593     1.0  0.79835  0.20075  0.64175  1.0000
  H   H1594     1.0  0.84580  0.16468  0.68278  1.0000
  H   H1595     1.0  0.87387  0.15358  0.65089  1.0000
  C   C2018     1.0  0.71660  0.29179  0.63240  1.0000
  H   H1596     1.0  0.75877  0.17107  0.56210  1.0000
  H   H1597     1.0  0.77815  0.29006  0.50969  1.0000
  C   C2019     1.0  0.97407  0.07630  0.64908  1.0000
  H   H1598     1.0  0.59988  0.02601  0.68826  1.0000
  C   C2020     1.0  0.91904  0.01558  0.70034  1.0000
  C   C2021     1.0  0.93843  0.30834  0.72338  1.0000
  H   H1599     1.0  0.97242  0.07657  0.61613  1.0000
  H   H1600     1.0  0.86611  0.25375  0.67899  1.0000
  H   H1601     1.0  0.75350  0.23632  0.73224  1.0000
  C   C2022     1.0  0.94591  0.05765  0.56190  1.0000
  C   C2023     1.0  0.91771  0.06278  0.50519  1.0000
  H   H1602     1.0  0.98368  0.14204  0.62384  1.0000
  H   H1603     1.0  0.96032  0.09381  0.72587  1.0000
  C   C2024     1.0  0.89998  0.00583  0.71469  1.0000
  C   C2025     1.0  0.98148  0.01349  0.62329  1.0000
  C   C2026     1.0  0.66353  0.25265  0.58884  1.0000
  C   C2027     1.0  0.66867  0.24440  0.60950  1.0000
  C   C2028     1.0  0.69155  0.23519  0.61186  1.0000
  P   P67       1.0  0.69891  0.22751  0.63840  1.0000
  C   C2029     1.0  0.70691  0.25267  0.64416  1.0000
  C   C2030     1.0  0.67406  0.21838  0.65889  1.0000
  C   C2031     1.0  0.65679  0.23482  0.66742  1.0000
  C   C2032     1.0  0.63808  0.22788  0.68396  1.0000
  C   C2033     1.0  0.63653  0.20450  0.69224  1.0000
  C   C2034     1.0  0.65347  0.18802  0.68369  1.0000
  C   C2035     1.0  0.67213  0.19488  0.66704  1.0000
  C   C2036     1.0  0.70692  0.25370  0.66559  1.0000
  C   C2037     1.0  0.60010  0.03443  0.71871  1.0000
  H   H1604     1.0  0.94047  0.03329  0.54449  1.0000
  H   H1605     1.0  0.92861  0.00751  0.65665  1.0000
  H   H1606     1.0  0.96774  0.11345  0.68722  1.0000
  C   C2038     1.0  0.72246  0.20404  0.63967  1.0000
  C   C2039     1.0  0.72575  0.18777  0.62647  1.0000
  C   C2040     1.0  0.74348  0.16919  0.62803  1.0000
  C   C2041     1.0  0.75752  0.16627  0.64325  1.0000
  C   C2042     1.0  0.75388  0.18196  0.65682  1.0000
  C   C2043     1.0  0.73660  0.20085  0.65498  1.0000
  C   C2044     1.0  0.75919  0.16040  0.53259  1.0000
  H   H1607     1.0  0.65485  0.24581  0.62355  1.0000
  H   H1608     1.0  0.92876  0.31312  0.73835  1.0000
  C   C2045     1.0  0.83140  0.03225  0.52425  1.0000
  H   H1609     1.0  0.62247  0.19913  0.70558  1.0000
  H   H1610     1.0  0.65233  0.16988  0.69032  1.0000
  H   H1611     1.0  0.68515  0.18174  0.66096  1.0000
  H   H1612     1.0  0.70215  0.23959  0.67889  1.0000
  C   C2046     1.0  0.87440  0.11602  0.69974  1.0000
  H   H1613     1.0  0.92993  0.04597  0.67754  1.0000
  H   H1614     1.0  0.71443  0.18920  0.61522  1.0000
  H   H1615     1.0  0.74606  0.15675  0.61778  1.0000
  H   H1616     1.0  0.77101  0.15168  0.64476  1.0000
  H   H1617     1.0  0.76432  0.17946  0.66900  1.0000
  H   H1618     1.0  0.73418  0.21257  0.66588  1.0000
  C   C2047     1.0  0.95662  0.19224  0.72324  1.0000
  C   C2048     1.0  0.84387  0.01025  0.60245  1.0000
  C   C2049     1.0  0.89703  0.06319  0.52078  1.0000
  C   C2050     1.0  0.66112  0.23068  0.72564  1.0000
  H   H1619     1.0  0.94840  0.14747  0.60899  1.0000
  C   C2051     1.0  0.97463  0.11917  0.69887  1.0000
  H   H1620     1.0  0.75609  0.18435  0.72774  1.0000
  H   H1621     1.0  0.76289  0.28680  0.67309  1.0000
  C   C2052     1.0  0.55284  0.99295  0.56143  1.0000
  H   H1622     1.0  0.55602  0.02299  0.70289  1.0000
  C   C2053     1.0  0.65296  0.98985  0.61161  1.0000
  H   H1623     1.0  0.95117  0.04352  0.70657  1.0000
  C   C2054     1.0  0.54295  0.99295  0.72449  1.0000
  H   H1624     1.0  0.83920  0.01155  0.69804  1.0000
  C   C2055     1.0  0.98841  0.07107  0.66436  1.0000
  C   C2056     1.0  0.75869  0.25946  0.70141  1.0000
  C   C2057     1.0  0.73086  0.29269  0.55083  1.0000
  C   C2058     1.0  0.86526  0.10511  0.72083  1.0000
  C   C2059     1.0  0.91560  0.03832  0.68899  1.0000
  H   H1625     1.0  0.97167  0.30889  0.73112  1.0000
  C   C2060     1.0  0.74213  0.29916  0.70111  1.0000
  H   H1626     1.0  0.80134  0.99709  0.57889  1.0000
  H   H1627     1.0  0.98952  0.01677  0.60623  1.0000
  C   C2061     1.0  0.70401  0.24281  0.57256  1.0000
  C   C2062     1.0  0.83254  0.99918  0.55385  1.0000
  C   C2063     1.0  0.85126  0.13842  0.55977  1.0000
  C   C2064     1.0  0.78583  0.08510  0.70929  1.0000
  C   C2065     1.0  0.94723  0.15128  0.62477  1.0000
  C   C2066     1.0  0.94015  0.29574  0.69012  1.0000
  C   C2067     1.0  0.96604  0.15339  0.65370  1.0000
  H   H1628     1.0  0.90925  0.00251  0.54707  1.0000
  C   C2068     1.0  0.76774  0.29266  0.52528  1.0000
  H   H1629     1.0  0.73640  0.28403  0.51945  1.0000
  H   H1630     1.0  0.93207  0.10087  0.69953  1.0000
  C   C2069     1.0  0.96282  0.30549  0.71958  1.0000
  C   C2070     1.0  0.87480  0.04155  0.70643  1.0000
  P   P68       1.0  0.87348  0.00300  0.52174  1.0000
  H   H1631     1.0  0.90566  0.12269  0.67575  1.0000
  C   C2071     1.0  0.94402  0.15998  0.66594  1.0000
  C   C2072     1.0  0.77283  0.15098  0.51523  1.0000
  C   C2073     1.0  0.81130  0.27969  0.58416  1.0000
  C   C2074     1.0  0.82208  0.26027  0.59653  1.0000
  C   C2075     1.0  0.81151  0.25208  0.61802  1.0000
  C   C2076     1.0  0.78993  0.26301  0.62701  1.0000
  H   H1632     1.0  0.67716  0.25867  0.55440  1.0000
  C   C2077     1.0  0.65432  0.25406  0.72596  1.0000
  C   C2078     1.0  0.80957  0.29810  0.66960  1.0000
  H   H1633     1.0  0.83888  0.25180  0.58966  1.0000
  H   H1634     1.0  0.82026  0.23755  0.62784  1.0000
  H   H1635     1.0  0.78191  0.25686  0.64379  1.0000
  C   C2079     1.0  0.71182  0.27193  0.62755  1.0000
  Fe  Fe132     1.0  0.86279  0.17725  0.72964  1.0000
  C   C2080     1.0  0.71845  0.11931  0.65020  1.0000
  C   C2081     1.0  0.72356  0.09670  0.64698  1.0000
  C   C2082     1.0  0.73602  0.08010  0.66049  1.0000
  C   C2083     1.0  0.74295  0.08598  0.67748  1.0000
  C   C2084     1.0  0.73703  0.10846  0.68148  1.0000
  C   C2085     1.0  0.72519  0.12520  0.66733  1.0000
  P   P69       1.0  0.74487  0.11476  0.70476  1.0000
  C   C2086     1.0  0.79090  0.12329  0.68784  1.0000
  S   S265      1.0  0.70026  0.00896  0.64983  1.0000
  C   C2087     1.0  0.73656  0.14391  0.70950  1.0000
  C   C2088     1.0  0.71459  0.15585  0.70691  1.0000
  C   C2089     1.0  0.70788  0.17805  0.71109  1.0000
  C   C2090     1.0  0.72289  0.18844  0.71840  1.0000
  H   H1636     1.0  0.70870  0.13217  0.63978  1.0000
  H   H1637     1.0  0.71785  0.09193  0.63409  1.0000
  H   H1638     1.0  0.74000  0.06254  0.65799  1.0000
  H   H1639     1.0  0.75234  0.07272  0.68792  1.0000
  H   H1640     1.0  0.72098  0.14275  0.66939  1.0000
  H   H1641     1.0  0.82637  0.12934  0.67393  1.0000
  H   H1642     1.0  0.78387  0.14044  0.68075  1.0000
  C   C2091     1.0  0.96734  0.14836  0.63329  1.0000
  H   H1643     1.0  0.71044  0.08159  0.71434  1.0000
  H   H1644     1.0  0.70236  0.14791  0.70207  1.0000
  H   H1645     1.0  0.69075  0.18689  0.70922  1.0000
  H   H1646     1.0  0.81988  0.28599  0.56762  1.0000
  C   C2092     1.0  0.88700  0.15589  0.54819  1.0000
  C   C2093     1.0  0.87406  0.17759  0.54850  1.0000
  C   C2094     1.0  0.84969  0.17977  0.55446  1.0000
  C   C2095     1.0  0.83810  0.16016  0.56021  1.0000
  C   C2096     1.0  0.88990  0.02720  0.51425  1.0000
  P   P70       1.0  0.80668  0.16235  0.56858  1.0000
  C   C2097     1.0  0.80045  0.14081  0.59314  1.0000
  C   C2098     1.0  0.79467  0.19089  0.57341  1.0000
  C   C2099     1.0  0.79180  0.20914  0.55580  1.0000
  C   C2100     1.0  0.78263  0.23130  0.55931  1.0000
  C   C2101     1.0  0.77631  0.23543  0.58039  1.0000
  C   C2102     1.0  0.77904  0.21739  0.59797  1.0000
  C   C2103     1.0  0.78819  0.19523  0.59450  1.0000
  C   C2104     1.0  0.81383  0.13758  0.60907  1.0000
  C   C2105     1.0  0.80993  0.12053  0.62781  1.0000
  C   C2106     1.0  0.79255  0.10658  0.63090  1.0000
  C   C2107     1.0  0.77947  0.10929  0.61494  1.0000
  C   C2108     1.0  0.78334  0.12635  0.59612  1.0000
  H   H1647     1.0  0.88575  0.11947  0.55389  1.0000
  C   C2109     1.0  0.96173  0.06479  0.57114  1.0000
  H   H1648     1.0  0.71117  0.27438  0.68697  1.0000
  C   C2110     1.0  0.61187  0.98867  0.61417  1.0000
  H   H1649     1.0  0.88300  0.19264  0.54484  1.0000
  H   H1650     1.0  0.84018  0.19668  0.55519  1.0000
  H   H1651     1.0  0.59419  0.99742  0.61569  1.0000
  H   H1652     1.0  0.79691  0.20629  0.53934  1.0000
  C   C2111     1.0  0.87171  0.27029  0.67751  1.0000
  H   H1653     1.0  0.76948  0.25264  0.58310  1.0000
  C   C2112     1.0  0.94721  0.00827  0.65189  1.0000
  C   C2113     1.0  0.96450  0.29236  0.68669  1.0000
  H   H1654     1.0  0.82761  0.14798  0.60682  1.0000
  H   H1655     1.0  0.82082  0.11777  0.63970  1.0000
  H   H1656     1.0  0.78967  0.09326  0.64541  1.0000
  H   H1657     1.0  0.76675  0.09771  0.61699  1.0000
  H   H1658     1.0  0.77323  0.12781  0.58389  1.0000
  H   H1659     1.0  0.87629  0.05238  0.57308  1.0000
  C   C2114     1.0  0.98385  0.22099  0.66527  1.0000
  H   H1660     1.0  0.78068  0.24533  0.54567  1.0000
  C   C2115     1.0  0.73226  0.09587  0.72916  1.0000
  H   H1661     1.0  0.90590  0.15415  0.54421  1.0000
  C   C2116     1.0  0.89849  0.11444  0.69214  1.0000
  C   C2117     1.0  0.91876  0.18336  0.72182  1.0000
  C   C2118     1.0  0.85042  0.02933  0.58655  1.0000
  H   H1662     1.0  0.97249  0.00447  0.50597  1.0000
  H   H1663     1.0  0.89212  0.07698  0.52974  1.0000
  C   C2119     1.0  0.97942  0.19858  0.66690  1.0000
  C   C2120     1.0  0.61446  0.98763  0.73219  1.0000
  H   H1664     1.0  0.97460  0.28501  0.67312  1.0000
  C   C2121     1.0  0.91051  0.02713  0.49836  1.0000
  C   C2122     1.0  0.54041  0.98279  0.58155  1.0000
  C   C2123     1.0  0.87792  0.01878  0.71763  1.0000
  C   C2124     1.0  0.87524  0.99122  0.49803  1.0000
  H   H1665     1.0  0.85792  0.00461  0.66172  1.0000
  C   C2125     1.0  0.88623  0.29652  0.69306  1.0000
  P   P71       1.0  0.94768  0.99922  0.69617  1.0000
  C   C2126     1.0  0.88330  0.04537  0.52548  1.0000
  C   C2127     1.0  0.91349  0.10211  0.70564  1.0000
  S   S266      1.0  0.65863  0.27433  0.70157  1.0000
  C   C2128     1.0  0.96615  0.00761  0.71085  1.0000
  H   H1666     1.0  0.82748  0.00450  0.60318  1.0000
  H   H1667     1.0  0.64594  0.26022  0.58713  1.0000
  H   H1668     1.0  0.83913  0.03793  0.57538  1.0000
  C   C2129     1.0  0.95751  0.01249  0.62980  1.0000
  C   C2130     1.0  0.87953  0.27489  0.69465  1.0000
  P   P72       1.0  0.89548  0.30344  0.71520  1.0000
  H   H1669     1.0  0.79938  0.05561  0.52643  1.0000
  C   C2131     1.0  0.57722  0.99008  0.55727  1.0000
  C   C2132     1.0  0.98446  0.05324  0.56993  1.0000
  H   H1670     1.0  0.71760  0.20556  0.72185  1.0000
  H   H1671     1.0  0.98038  0.01203  0.54363  1.0000
  H   H1672     1.0  0.65805  0.25307  0.66180  1.0000
  H   H1673     1.0  0.95657  0.07933  0.57904  1.0000
  H   H1674     1.0  0.91898  0.24112  0.71415  1.0000
  C   C2133     1.0  0.81265  0.27408  0.67387  1.0000
  C   C2134     1.0  0.98752  0.13784  0.69204  1.0000
  C   C2135     1.0  0.98337  0.07253  0.62805  1.0000
  C   C2136     1.0  0.79366  0.15758  0.54768  1.0000
  C   C2137     1.0  0.87127  0.03755  0.58533  1.0000
  C   C2138     1.0  0.70926  0.23485  0.59319  1.0000
  C   C2139     1.0  0.94192  0.17614  0.72394  1.0000
  C   C2140     1.0  0.91044  0.20685  0.71841  1.0000
  C   C2141     1.0  0.81505  0.11715  0.68408  1.0000
  C   C2142     1.0  0.87698  0.30880  0.65714  1.0000
  C   C2143     1.0  0.80726  0.14819  0.53014  1.0000
  H   H1675     1.0  0.83964  0.04238  0.50909  1.0000
  C   C2144     1.0  0.75123  0.15423  0.71760  1.0000
  H   H1676     1.0  0.76925  0.24638  0.69305  1.0000
  C   C2145     1.0  0.75521  0.28221  0.69019  1.0000
  C   C2146     1.0  0.96091  0.00506  0.66762  1.0000
  H   H1677     1.0  0.66708  0.99904  0.61161  1.0000
  C   C2147     1.0  0.95269  0.03883  0.55165  1.0000
  C   C2148     1.0  0.97582  0.29732  0.70133  1.0000
  C   C2149     1.0  0.54762  0.30833  0.72976  1.0000
  H   H1678     1.0  0.71950  0.30691  0.61975  1.0000
  C   C2150     1.0  0.80974  0.00680  0.56356  1.0000
  H   H1679     1.0  0.59543  0.05272  0.71323  1.0000
  H   H1680     1.0  0.89131  0.06891  0.68345  1.0000
  C   C2151     1.0  0.90399  0.98550  0.55046  1.0000
  C   C2152     1.0  0.82458  0.09509  0.69287  1.0000
  H   H1681     1.0  0.76786  0.14524  0.72086  1.0000
  C   C2153     1.0  0.73651  0.27077  0.73481  1.0000
  H   H1682     1.0  0.82590  0.14351  0.52869  1.0000
  C   C2154     1.0  0.87561  0.13633  0.55371  1.0000
  C   C2155     1.0  0.97516  0.02675  0.55122  1.0000
  C   C2156     1.0  0.92439  0.04480  0.49392  1.0000
  C   C2157     1.0  0.51290  0.99683  0.69606  1.0000
  C   C2158     1.0  0.89366  0.05131  0.69221  1.0000
  C   C2159     1.0  0.84361  0.01192  0.53412  1.0000
  H   H1683     1.0  0.84327  0.09017  0.68925  1.0000
  C   C2160     1.0  0.92562  0.15906  0.63656  1.0000
  H   H1684     1.0  0.72722  0.22895  0.59459  1.0000
  H   H1685     1.0  0.62539  0.24072  0.69104  1.0000
  H   H1686     1.0  0.81726  0.06171  0.71166  1.0000
  H   H1687     1.0  0.50130  0.99827  0.68502  1.0000
  H   H1688     1.0  0.52980  0.02612  0.67745  1.0000
  S   S267      1.0  0.90063  0.16273  0.72341  1.0000
  C   C2161     1.0  0.80997  0.07906  0.70547  1.0000
  Fe  Fe133     1.0  0.82873  0.22010  0.73561  1.0000
  H   H1689     1.0  0.76288  0.29097  0.62221  1.0000
  H   H1690     1.0  0.91021  0.16163  0.62965  1.0000
  C   C2162     1.0  0.71210  0.27346  0.67026  1.0000
  H   H1691     1.0  0.84276  0.12301  0.56453  1.0000
  H   H1692     1.0  0.71257  0.29035  0.55501  1.0000
  C   C2163     1.0  0.60257  0.01939  0.70466  1.0000
  C   C2164     1.0  0.74062  0.30035  0.56513  1.0000
  H   H1693     1.0  0.52150  0.98493  0.58476  1.0000
  H   H1694     1.0  0.84144  0.98363  0.56210  1.0000
  C   C2165     1.0  0.81168  0.29727  0.70680  1.0000
  H   H1695     1.0  0.88994  0.00030  0.62788  1.0000
  C   C2166     1.0  0.97070  0.10787  0.72062  1.0000
  H   H1696     1.0  0.86286  0.12584  0.68928  1.0000
  H   H1697     1.0  0.80744  0.13771  0.50047  1.0000
  H   H1698     1.0  0.97755  0.05466  0.72543  1.0000
  S   S268      1.0  0.82295  0.25780  0.73541  1.0000
  S   S269      1.0  0.76362  0.02613  0.62907  1.0000
  H   H1699     1.0  0.92878  0.07616  0.50217  1.0000
  Fe  Fe134     1.0  0.73715  0.00630  0.65460  1.0000
  C   C2167     1.0  0.79684  0.14490  0.51401  1.0000
  C   C2168     1.0  0.92531  0.22299  0.71727  1.0000
  C   C2169     1.0  0.63003  0.00083  0.61372  1.0000
  C   C2170     1.0  0.96387  0.03046  0.71340  1.0000
  H   H1700     1.0  0.77438  0.22064  0.61432  1.0000
  C   C2171     1.0  0.96851  0.98718  0.50787  1.0000
  S   S270      1.0  0.96591  0.23609  0.72066  1.0000
  C   C2172     1.0  0.90452  0.09169  0.72690  1.0000
  S   S271      1.0  0.83424  0.15552  0.73430  1.0000
  H   H1701     1.0  0.74572  0.98978  0.73008  1.0000
  C   C2173     1.0  0.88552  0.02685  0.60012  1.0000
  C   C2174     1.0  0.77759  0.30023  0.53959  1.0000
  C   C2175     1.0  0.76385  0.30501  0.55927  1.0000
  C   C2176     1.0  0.99102  0.03396  0.56035  1.0000
  H   H1702     1.0  0.72089  0.30786  0.65732  1.0000
  H   H1703     1.0  0.76482  0.14848  0.50267  1.0000
  H   H1704     1.0  0.96961  0.23402  0.66981  1.0000
  H   H1705     1.0  0.86321  0.01114  0.72848  1.0000
  H   H1706     1.0  0.79578  0.30293  0.53499  1.0000
  C   C2177     1.0  0.73264  0.29342  0.72326  1.0000
  C   C2178     1.0  0.85811  0.99924  0.61737  1.0000
  C   C2179     1.0  0.92681  0.30372  0.70856  1.0000
  H   H1707     1.0  0.91654  0.08313  0.73737  1.0000
  H   H1708     1.0  0.97441  0.18648  0.72485  1.0000
  H   H1709     1.0  0.67599  0.30908  0.61481  1.0000
  C   C2180     1.0  0.97879  0.03692  0.72413  1.0000
  H   H1710     1.0  0.90193  0.98823  0.72346  1.0000
  H   H1711     1.0  0.51112  0.30845  0.73086  1.0000
  H   H1712     1.0  0.84194  0.00867  0.49093  1.0000
  C   C2181     1.0  0.98498  0.00630  0.66087  1.0000
  C   C2182     1.0  0.84408  0.99476  0.67121  1.0000
  Fe  Fe135     1.0  0.65588  0.31094  0.70518  1.0000
  C   C2183     1.0  0.81512  0.98672  0.70436  1.0000
  C   C2184     1.0  0.98394  0.99157  0.71871  1.0000
  H   H1713     1.0  0.80648  0.99019  0.72019  1.0000
  H   H1714     1.0  0.72291  0.30684  0.73139  1.0000
  H   H1715     1.0  0.55088  0.28991  0.73556  1.0000
  H   H1716     1.0  0.55467  0.99176  0.73539  1.0000
  H   H1717     1.0  0.94832  0.15802  0.72643  1.0000
  H   H1718     1.0  0.81113  0.30629  0.71953  1.0000
  C   C2185     1.0  0.88028  0.09289  0.73458  1.0000
  C   C2186     1.0  0.80807  0.30966  0.68636  1.0000
  C   C2187     1.0  0.88855  0.28179  0.73951  1.0000
  H   H1719     1.0  0.92424  0.26533  0.73907  1.0000
  H   H1720     1.0  0.58322  0.31363  0.72717  1.0000
  S   S272      1.0  0.80753  0.31318  0.64329  1.0000
  C   C2188     1.0  0.88512  0.31335  0.67409  1.0000
  H   H1721     1.0  0.80082  0.98139  0.63597  1.0000
  S   S273      1.0  0.64190  0.20051  0.78865  1.0000
  H   H1722     1.0  0.71683  0.31227  0.76776  1.0000
  C   C2189     1.0  0.59547  0.99302  0.81392  1.0000
  S   S274      1.0  0.61464  0.99669  0.86574  1.0000
  H   H1723     1.0  0.66189  0.19601  0.74439  1.0000
  Fe  Fe136     1.0  0.66081  0.12953  0.75477  1.0000
  H   H1724     1.0  0.64273  0.27831  0.79567  1.0000
  S   S275      1.0  0.68419  0.14937  0.76433  1.0000
  C   C2190     1.0  0.66743  0.99210  0.96077  1.0000
  H   H1725     1.0  0.77024  0.15590  0.76609  1.0000
  S   S276      1.0  0.65292  0.13678  0.81399  1.0000
  C   C2191     1.0  0.56311  0.03810  0.94166  1.0000
  H   H1726     1.0  0.63033  0.06942  0.98180  1.0000
  H   H1727     1.0  0.88754  0.15161  0.77609  1.0000
  C   C2192     1.0  0.74550  0.13256  0.78460  1.0000
  H   H1728     1.0  0.54553  0.04374  0.94931  1.0000
  S   S277      1.0  0.60143  0.10170  0.82129  1.0000
  C   C2193     1.0  0.50570  0.99111  0.77566  1.0000
  C   C2194     1.0  0.73912  0.11710  0.80420  1.0000
  C   C2195     1.0  0.71681  0.01978  0.90056  1.0000
  S   S278      1.0  0.79726  0.20216  0.74169  1.0000
  C   C2196     1.0  0.60202  0.01820  0.94329  1.0000
  C   C2197     1.0  0.76015  0.27727  0.80801  1.0000
  H   H1729     1.0  0.70910  0.03509  0.95698  1.0000
  P   P73       1.0  0.62153  0.99219  0.77217  1.0000
  H   H1730     1.0  0.56942  0.06990  0.84227  1.0000
  H   H1731     1.0  0.96251  0.21855  0.76520  1.0000
  H   H1732     1.0  0.74052  0.02792  0.80457  1.0000
  C   C2198     1.0  0.66477  0.99744  0.93917  1.0000
  C   C2199     1.0  0.55492  0.98680  0.82558  1.0000
  C   C2200     1.0  0.75332  0.11188  0.81953  1.0000
  H   H1733     1.0  0.74859  0.09992  0.83456  1.0000
  C   C2201     1.0  0.61210  0.02568  0.85276  1.0000
  C   C2202     1.0  0.58971  0.03753  0.85228  1.0000
  C   C2203     1.0  0.58678  0.06089  0.84280  1.0000
  C   C2204     1.0  0.60618  0.07262  0.83375  1.0000
  C   C2205     1.0  0.62865  0.06096  0.83463  1.0000
  C   C2206     1.0  0.63163  0.03736  0.84399  1.0000
  H   H1734     1.0  0.64370  0.07004  0.82780  1.0000
  H   H1735     1.0  0.64894  0.02824  0.84446  1.0000
  C   C2207     1.0  0.72006  0.00851  0.93831  1.0000
  H   H1736     1.0  0.92548  0.28752  0.87483  1.0000
  Fe  Fe137     1.0  0.65095  0.16399  0.78409  1.0000
  H   H1737     1.0  0.72369  0.99522  0.95204  1.0000
  H   H1738     1.0  0.77352  0.28062  0.74584  1.0000
  C   C2208     1.0  0.57503  0.98516  0.78868  1.0000
  C   C2209     1.0  0.88028  0.11990  0.77081  1.0000
  C   C2210     1.0  0.96453  0.22332  0.77972  1.0000
  C   C2211     1.0  0.73654  0.98741  0.76469  1.0000
  H   H1739     1.0  0.75124  0.10627  0.74922  1.0000
  C   C2212     1.0  0.90613  0.26521  0.74718  1.0000
  H   H1740     1.0  0.61117  0.99610  0.81801  1.0000
  H   H1741     1.0  0.67108  0.05185  0.79564  1.0000
  C   C2213     1.0  0.87714  0.24586  0.77508  1.0000
  H   H1742     1.0  0.57475  0.98249  0.77280  1.0000
  H   H1743     1.0  0.65651  0.01424  0.93265  1.0000
  S   S279      1.0  0.71357  0.10398  0.81055  1.0000
  C   C2214     1.0  0.73571  0.19596  0.79388  1.0000
  C   C2215     1.0  0.71881  0.18719  0.78743  1.0000
  S   S280      1.0  0.66404  0.09935  0.78216  1.0000
  P   P74       1.0  0.96574  0.28257  0.79981  1.0000
  C   C2216     1.0  0.55935  0.98104  0.89510  1.0000
  C   C2217     1.0  0.73887  0.21915  0.78646  1.0000
  H   H1744     1.0  0.69150  0.01473  0.78696  1.0000
  H   H1745     1.0  0.97701  0.10618  0.75244  1.0000
  H   H1746     1.0  0.53957  0.98466  0.83838  1.0000
  H   H1747     1.0  0.73469  0.13652  0.77257  1.0000
  H   H1748     1.0  0.60809  0.03772  0.78331  1.0000
  H   H1749     1.0  0.53884  0.06052  0.98318  1.0000
  C   C2218     1.0  0.73249  0.07803  0.76683  1.0000
  C   C2219     1.0  0.78070  0.28511  0.79511  1.0000
  H   H1750     1.0  0.63133  0.24944  0.77989  1.0000
  H   H1751     1.0  0.88292  0.06014  0.80417  1.0000
  H   H1752     1.0  0.74634  0.18477  0.80465  1.0000
  H   H1753     1.0  0.71558  0.16953  0.79384  1.0000
  C   C2220     1.0  0.82016  0.08903  0.76726  1.0000
  C   C2221     1.0  0.98359  0.28943  0.85548  1.0000
  H   H1754     1.0  0.75210  0.22553  0.79163  1.0000
  H   H1755     1.0  0.73935  0.00489  0.76376  1.0000
  C   C2222     1.0  0.77297  0.12296  0.81608  1.0000
  H   H1756     1.0  0.78274  0.09562  0.77155  1.0000
  C   C2223     1.0  0.55491  0.98336  0.80499  1.0000
  S   S281      1.0  0.84683  0.19310  0.75860  1.0000
  H   H1757     1.0  0.61489  0.00838  0.95247  1.0000
  C   C2224     1.0  0.91575  0.02174  0.76321  1.0000
  C   C2225     1.0  0.91948  0.01646  0.78443  1.0000
  C   C2226     1.0  0.90747  0.03029  0.79914  1.0000
  C   C2227     1.0  0.89191  0.04957  0.79258  1.0000
  C   C2228     1.0  0.88837  0.05521  0.77119  1.0000
  C   C2229     1.0  0.90012  0.04090  0.75666  1.0000
  C   C2230     1.0  0.94326  0.28557  0.84209  1.0000
  H   H1758     1.0  0.96023  0.25952  0.76633  1.0000
  C   C2231     1.0  0.86675  0.10165  0.77848  1.0000
  Fe  Fe138     1.0  0.68428  0.12065  0.79341  1.0000
  H   H1759     1.0  0.96136  0.29089  0.88670  1.0000
  H   H1760     1.0  0.77852  0.05622  0.76866  1.0000
  S   S282      1.0  0.62757  0.14669  0.77216  1.0000
  H   H1761     1.0  0.72826  0.98528  0.91611  1.0000
  H   H1762     1.0  0.85903  0.14998  0.81111  1.0000
  C   C2232     1.0  0.57948  0.02565  0.95401  1.0000
  C   C2233     1.0  0.76561  0.14346  0.78091  1.0000
  C   C2234     1.0  0.84864  0.11773  0.81043  1.0000
  C   C2235     1.0  0.85111  0.10054  0.79856  1.0000
  C   C2236     1.0  0.84010  0.07271  0.76438  1.0000
  C   C2237     1.0  0.83756  0.05054  0.76263  1.0000
  C   C2238     1.0  0.81540  0.04469  0.76411  1.0000
  C   C2239     1.0  0.64638  0.22087  0.76438  1.0000
  H   H1763     1.0  0.79308  0.29027  0.80239  1.0000
  C   C2240     1.0  0.97294  0.21218  0.81577  1.0000
  H   H1764     1.0  0.84140  0.26062  0.77495  1.0000
  C   C2241     1.0  0.96222  0.28948  0.87014  1.0000
  H   H1765     1.0  0.91034  0.02619  0.81561  1.0000
  C   C2242     1.0  0.76947  0.27958  0.76321  1.0000
  C   C2243     1.0  0.70601  0.20122  0.77265  1.0000
  H   H1766     1.0  0.67107  0.98912  0.77633  1.0000
  C   C2244     1.0  0.90256  0.30617  0.78144  1.0000
  C   C2245     1.0  0.49336  0.00007  0.79378  1.0000
  C   C2246     1.0  0.71183  0.03102  0.94106  1.0000
  C   C2247     1.0  0.53566  0.98590  0.90381  1.0000
  S   S283      1.0  0.80263  0.15375  0.79460  1.0000
  C   C2248     1.0  0.67936  0.27193  0.78187  1.0000
  H   H1767     1.0  0.52955  0.00168  0.90980  1.0000
  H   H1768     1.0  0.83571  0.11746  0.82535  1.0000
  H   H1769     1.0  0.84029  0.08681  0.80474  1.0000
  C   C2249     1.0  0.59551  0.98984  0.79309  1.0000
  H   H1770     1.0  0.55695  0.05335  0.90945  1.0000
  C   C2250     1.0  0.65898  0.28562  0.78964  1.0000
  H   H1771     1.0  0.72823  0.26479  0.80862  1.0000
  C   C2251     1.0  0.66201  0.04097  0.79022  1.0000
  H   H1772     1.0  0.78330  0.11941  0.82848  1.0000
  C   C2252     1.0  0.57508  0.99202  0.82990  1.0000
  C   C2253     1.0  0.90043  0.24735  0.76485  1.0000
  C   C2254     1.0  0.87768  0.13712  0.78266  1.0000
  C   C2255     1.0  0.94053  0.30090  0.79130  1.0000
  C   C2256     1.0  0.97081  0.23534  0.81694  1.0000
  C   C2257     1.0  0.66161  0.00542  0.77935  1.0000
  C   C2258     1.0  0.56944  0.04349  0.91901  1.0000
  H   H1773     1.0  0.67830  0.25409  0.78257  1.0000
  C   C2259     1.0  0.96568  0.25273  0.79937  1.0000
  C   C2260     1.0  0.96300  0.24652  0.78056  1.0000
  C   C2261     1.0  0.71769  0.06277  0.76614  1.0000
  H   H1774     1.0  0.61248  0.04563  0.96587  1.0000
  H   H1775     1.0  0.93173  0.00171  0.78947  1.0000
  H   H1776     1.0  0.69908  0.23498  0.75357  1.0000
  P   P75       1.0  0.72746  0.26407  0.76402  1.0000
  H   H1777     1.0  0.73843  0.07695  0.78165  1.0000
  H   H1778     1.0  0.88851  0.29898  0.77833  1.0000
  H   H1779     1.0  0.57456  0.02868  0.85938  1.0000
  H   H1780     1.0  0.97198  0.18823  0.79609  1.0000
  H   H1781     1.0  0.63802  0.27879  0.74588  1.0000
  C   C2262     1.0  0.70946  0.03446  0.82840  1.0000
  C   C2263     1.0  0.73303  0.03526  0.81880  1.0000
  C   C2264     1.0  0.74702  0.04508  0.82782  1.0000
  C   C2265     1.0  0.73744  0.05411  0.84644  1.0000
  C   C2266     1.0  0.71362  0.05398  0.85580  1.0000
  C   C2267     1.0  0.69980  0.04360  0.84694  1.0000
  P   P76       1.0  0.70178  0.06461  0.88047  1.0000
  C   C2268     1.0  0.70879  0.04253  0.90312  1.0000
  C   C2269     1.0  0.71544  0.08985  0.87836  1.0000
  C   C2270     1.0  0.73555  0.08784  0.88690  1.0000
  C   C2271     1.0  0.74703  0.10702  0.88409  1.0000
  C   C2272     1.0  0.73867  0.12833  0.87257  1.0000
  C   C2273     1.0  0.71878  0.13048  0.86393  1.0000
  C   C2274     1.0  0.70725  0.11136  0.86673  1.0000
  C   C2275     1.0  0.70639  0.04803  0.92351  1.0000
  H   H1782     1.0  0.71227  0.04992  0.78037  1.0000
  H   H1783     1.0  0.92513  0.01114  0.75174  1.0000
  C   C2276     1.0  0.70935  0.22428  0.76492  1.0000
  H   H1784     1.0  0.71834  0.01480  0.88522  1.0000
  C   C2277     1.0  0.67052  0.07262  0.88339  1.0000
  C   C2278     1.0  0.65543  0.06704  0.90359  1.0000
  C   C2279     1.0  0.63139  0.07386  0.90575  1.0000
  C   C2280     1.0  0.62217  0.08615  0.88779  1.0000
  C   C2281     1.0  0.63700  0.09167  0.86767  1.0000
  C   C2282     1.0  0.66101  0.08474  0.86538  1.0000
  H   H1785     1.0  0.75651  0.27642  0.82534  1.0000
  C   C2283     1.0  0.70080  0.30454  0.77380  1.0000
  H   H1786     1.0  0.60409  0.03837  0.74947  1.0000
  H   H1787     1.0  0.74864  0.06118  0.85349  1.0000
  H   H1788     1.0  0.68167  0.04225  0.85443  1.0000
  H   H1789     1.0  0.74276  0.07136  0.89528  1.0000
  H   H1790     1.0  0.76266  0.10529  0.89049  1.0000
  H   H1791     1.0  0.74785  0.14307  0.86992  1.0000
  H   H1792     1.0  0.71267  0.14680  0.85440  1.0000
  H   H1793     1.0  0.69253  0.11343  0.85905  1.0000
  H   H1794     1.0  0.69993  0.06538  0.92592  1.0000
  C   C2284     1.0  0.92215  0.29167  0.78737  1.0000
  H   H1795     1.0  0.62555  0.01763  0.91235  1.0000
  C   C2285     1.0  0.73959  0.09468  0.74850  1.0000
  C   C2286     1.0  0.60819  0.02345  0.92065  1.0000
  H   H1796     1.0  0.66202  0.05738  0.91773  1.0000
  H   H1797     1.0  0.61989  0.06951  0.92136  1.0000
  H   H1798     1.0  0.60355  0.09135  0.88934  1.0000
  H   H1799     1.0  0.62984  0.10119  0.85373  1.0000
  H   H1800     1.0  0.67213  0.08890  0.84948  1.0000
  C   C2287     1.0  0.59200  0.03631  0.90857  1.0000
  C   C2288     1.0  0.96466  0.28559  0.82721  1.0000
  H   H1801     1.0  0.51255  0.00288  0.76110  1.0000
  H   H1802     1.0  0.91406  0.23419  0.77003  1.0000
  C   C2289     1.0  0.70966  0.06432  0.74719  1.0000
  C   C2290     1.0  0.79803  0.08304  0.76892  1.0000
  H   H1803     1.0  0.92258  0.27335  0.78914  1.0000
  C   C2291     1.0  0.74422  0.27064  0.79851  1.0000
  H   H1804     1.0  0.67162  0.98586  0.90903  1.0000
  C   C2292     1.0  0.63973  0.24423  0.76475  1.0000
  H   H1805     1.0  0.89245  0.12139  0.75542  1.0000
  Fe  Fe139     1.0  0.63255  0.11793  0.80044  1.0000
  H   H1806     1.0  0.62986  0.06413  0.79174  1.0000
  H   H1807     1.0  0.69782  0.05277  0.74670  1.0000
  C   C2293     1.0  0.86520  0.28014  0.74992  1.0000
  H   H1808     1.0  0.81345  0.02752  0.76292  1.0000
  C   C2294     1.0  0.86174  0.13614  0.80238  1.0000
  H   H1809     1.0  0.85120  0.29193  0.74377  1.0000
  H   H1810     1.0  0.87262  0.23158  0.78828  1.0000
  H   H1811     1.0  0.92750  0.28396  0.83719  1.0000
  C   C2295     1.0  0.79565  0.06089  0.76734  1.0000
  C   C2296     1.0  0.77900  0.13899  0.79697  1.0000
  H   H1812     1.0  0.82160  0.10643  0.76827  1.0000
  C   C2297     1.0  0.96972  0.20618  0.79720  1.0000
  C   C2298     1.0  0.74883  0.27164  0.77604  1.0000
  C   C2299     1.0  0.78530  0.28631  0.77274  1.0000
  S   S284      1.0  0.65702  0.01307  0.97669  1.0000
  P   P77       1.0  0.86871  0.08036  0.76236  1.0000
  C   C2300     1.0  0.63794  0.01170  0.77803  1.0000
  C   C2301     1.0  0.85956  0.26231  0.76768  1.0000
  H   H1813     1.0  0.80124  0.29228  0.76265  1.0000
  H   H1814     1.0  0.69876  0.02628  0.82172  1.0000
  C   C2302     1.0  0.63872  0.04764  0.78845  1.0000
  C   C2303     1.0  0.72506  0.23368  0.77253  1.0000
  H   H1815     1.0  0.89756  0.04483  0.74012  1.0000
  C   C2304     1.0  0.62652  0.03280  0.78309  1.0000
  H   H1816     1.0  0.76530  0.04558  0.82046  1.0000
  C   C2305     1.0  0.67346  0.01996  0.78555  1.0000
  H   H1817     1.0  0.59709  0.04083  0.89111  1.0000
  C   C2306     1.0  0.67355  0.98145  0.92572  1.0000
  C   C2307     1.0  0.60460  0.04824  0.98207  1.0000
  C   C2308     1.0  0.94205  0.28756  0.86344  1.0000
  H   H1818     1.0  0.97786  0.19884  0.82896  1.0000
  H   H1819     1.0  0.64734  0.08578  0.74802  1.0000
  H   H1820     1.0  0.85260  0.03774  0.76019  1.0000
  C   C2309     1.0  0.70046  0.28136  0.77354  1.0000
  C   C2310     1.0  0.72261  0.00292  0.91806  1.0000
  C   C2311     1.0  0.61338  0.00282  0.74599  1.0000
  S   S285      1.0  0.68356  0.98464  0.86397  1.0000
  H   H1821     1.0  0.57535  0.99413  0.84597  1.0000
  H   H1822     1.0  0.69312  0.19433  0.76752  1.0000
  C   C2312     1.0  0.64364  0.26084  0.74554  1.0000
  Fe  Fe140     1.0  0.81707  0.17347  0.76167  1.0000
  H   H1823     1.0  0.58679  0.98229  0.93268  1.0000
  H   H1824     1.0  0.57131  0.99296  0.89437  1.0000
  C   C2313     1.0  0.65690  0.21406  0.74477  1.0000
  S   S286      1.0  0.72550  0.98412  0.80852  1.0000
  P   P78       1.0  0.57222  0.01897  0.98331  1.0000
  H   H1825     1.0  0.97405  0.23952  0.83127  1.0000
  C   C2314     1.0  0.98486  0.28745  0.83414  1.0000
  C   C2315     1.0  0.65945  0.30876  0.78933  1.0000
  H   H1826     1.0  0.50324  0.00860  0.87440  1.0000
  H   H1827     1.0  0.49392  0.05042  0.86192  1.0000
  H   H1828     1.0  0.64621  0.04754  0.74053  1.0000
  Fe  Fe141     1.0  0.66257  0.35849  0.18400  1.0000
  S   S287      1.0  0.66958  0.33832  0.21607  1.0000
  S   S288      1.0  0.65208  0.34418  0.15909  1.0000
  Fe  Fe142     1.0  0.67154  0.40354  0.19225  1.0000
  H   H1829     1.0  0.50499  0.48743  0.10516  1.0000
  S   S289      1.0  0.67003  0.44182  0.18065  1.0000
  Fe  Fe143     1.0  0.69967  0.35879  0.20877  1.0000
  S   S290      1.0  0.73461  0.33969  0.21422  1.0000
  Fe  Fe144     1.0  0.49699  0.53060  0.20518  1.0000
  S   S291      1.0  0.69441  0.37658  0.17545  1.0000
  S   S292      1.0  0.63936  0.38706  0.19768  1.0000
  S   S293      1.0  0.87870  0.34273  0.18430  1.0000
  Fe  Fe145     1.0  0.88818  0.34715  0.12225  1.0000
  S   S294      1.0  0.88741  0.37774  0.13653  1.0000
  S   S295      1.0  0.88977  0.34990  0.08678  1.0000
  S   S296      1.0  0.52051  0.50257  0.22190  1.0000
  Fe  Fe146     1.0  0.85691  0.36432  0.16110  1.0000
  S   S297      1.0  0.82451  0.38882  0.16990  1.0000
  S   S298      1.0  0.85597  0.33551  0.14516  1.0000
  H   H1830     1.0  0.97023  0.40314  0.15771  1.0000
  C   C2316     1.0  0.55803  0.63663  0.19165  1.0000
  Fe  Fe147     1.0  0.53583  0.56080  0.18426  1.0000
  S   S299      1.0  0.52181  0.53440  0.17329  1.0000
  S   S300      1.0  0.54177  0.59340  0.15934  1.0000
  H   H1831     1.0  0.70636  0.34606  0.14231  1.0000
  H   H1832     1.0  0.86094  0.40356  0.19163  1.0000
  Fe  Fe148     1.0  0.54660  0.50856  0.19065  1.0000
  S   S301      1.0  0.56450  0.47803  0.17616  1.0000
  H   H1833     1.0  0.59622  0.36902  0.21194  1.0000
  S   S302      1.0  0.56297  0.53522  0.19895  1.0000
  C   C2317     1.0  0.54467  0.61807  0.16805  1.0000
  H   H1834     1.0  0.92153  0.33502  0.20368  1.0000
  C   C2318     1.0  0.86228  0.39116  0.20657  1.0000
  H   H1835     1.0  0.69152  0.31432  0.09504  1.0000
  H   H1836     1.0  0.56260  0.59986  0.19356  1.0000
  H   H1837     1.0  0.59766  0.49807  0.11911  1.0000
  C   C2319     1.0  0.59783  0.48081  0.11706  1.0000
  H   H1838     1.0  0.69040  0.34919  0.10963  1.0000
  C   C2320     1.0  0.64122  0.45316  0.17816  1.0000
  C   C2321     1.0  0.62837  0.44133  0.16982  1.0000
  C   C2322     1.0  0.60493  0.44936  0.16912  1.0000
  C   C2323     1.0  0.59423  0.46941  0.17651  1.0000
  C   C2324     1.0  0.60721  0.48174  0.18426  1.0000
  C   C2325     1.0  0.63076  0.47364  0.18502  1.0000
  H   H1839     1.0  0.63657  0.42606  0.16367  1.0000
  H   H1840     1.0  0.59511  0.44009  0.16268  1.0000
  H   H1841     1.0  0.59910  0.49724  0.18999  1.0000
  H   H1842     1.0  0.64066  0.48288  0.19145  1.0000
  C   C2326     1.0  0.75914  0.35361  0.20055  1.0000
  C   C2327     1.0  0.75704  0.37728  0.19210  1.0000
  C   C2328     1.0  0.77720  0.38807  0.18250  1.0000
  C   C2329     1.0  0.79938  0.37511  0.18089  1.0000
  C   C2330     1.0  0.80136  0.35137  0.18871  1.0000
  C   C2331     1.0  0.78130  0.34076  0.19871  1.0000
  H   H1843     1.0  0.73997  0.38733  0.19341  1.0000
  H   H1844     1.0  0.77563  0.40647  0.17638  1.0000
  H   H1845     1.0  0.81837  0.34120  0.18753  1.0000
  H   H1846     1.0  0.84672  0.32384  0.22993  1.0000
  H   H1847     1.0  0.78294  0.32245  0.20486  1.0000
  C   C2332     1.0  0.55732  0.41564  0.19786  1.0000
  H   H1848     1.0  0.56882  0.55611  0.13988  1.0000
  S   S303      1.0  0.50885  0.55921  0.21499  1.0000
  C   C2333     1.0  0.56600  0.38156  0.23360  1.0000
  C   C2334     1.0  0.76198  0.32984  0.09071  1.0000
  C   C2335     1.0  0.91539  0.35890  0.06942  1.0000
  H   H1849     1.0  0.63367  0.47146  0.12049  1.0000
  C   C2336     1.0  0.95032  0.45350  0.13076  1.0000
  H   H1850     1.0  0.89987  0.38754  0.20040  1.0000
  H   H1851     1.0  0.64383  0.52780  0.23692  1.0000
  H   H1852     1.0  0.59890  0.41222  0.23825  1.0000
  C   C2337     1.0  0.96816  0.44281  0.11666  1.0000
  C   C2338     1.0  0.50951  0.50160  0.14242  1.0000
  Fe  Fe149     1.0  0.64860  0.36852  0.22927  1.0000
  H   H1853     1.0  0.54558  0.53478  0.07909  1.0000
  C   C2339     1.0  0.95566  0.46287  0.14654  1.0000
  C   C2340     1.0  0.95077  0.31810  0.21833  1.0000
  H   H1854     1.0  0.51226  0.43998  0.17766  1.0000
  H   H1855     1.0  0.56306  0.48665  0.03625  1.0000
  S   S304      1.0  0.91282  0.32403  0.14178  1.0000
  H   H1856     1.0  0.97281  0.36027  0.06802  1.0000
  C   C2341     1.0  0.58098  0.38184  0.21345  1.0000
  H   H1857     1.0  0.50898  0.38129  0.22763  1.0000
  Fe  Fe150     1.0  0.53480  0.53135  0.22906  1.0000
  H   H1858     1.0  0.89914  0.36962  0.04164  1.0000
  H   H1859     1.0  0.54375  0.44970  0.14617  1.0000
  H   H1860     1.0  0.82542  0.39024  0.21578  1.0000
  Fe  Fe151     1.0  0.90926  0.35362  0.15834  1.0000
  H   H1861     1.0  0.93640  0.34979  0.09389  1.0000
  H   H1862     1.0  0.57498  0.44500  0.21920  1.0000
  C   C2342     1.0  0.78320  0.33615  0.09182  1.0000
  C   C2343     1.0  0.57678  0.39894  0.19560  1.0000
  H   H1863     1.0  0.74847  0.37692  0.08550  1.0000
  H   H1864     1.0  0.56121  0.58596  0.10804  1.0000
  H   H1865     1.0  0.55460  0.42949  0.18426  1.0000
  H   H1866     1.0  0.52678  0.42800  0.21933  1.0000
  C   C2344     1.0  0.64449  0.31613  0.16810  1.0000
  C   C2345     1.0  0.88417  0.38214  0.21150  1.0000
  H   H1867     1.0  0.97757  0.39653  0.12026  1.0000
  H   H1868     1.0  0.82370  0.32144  0.12418  1.0000
  C   C2346     1.0  0.95947  0.41081  0.18958  1.0000
  H   H1869     1.0  0.58897  0.39952  0.18020  1.0000
  C   C2347     1.0  0.61960  0.44308  0.11540  1.0000
  C   C2348     1.0  0.95397  0.34499  0.18374  1.0000
  C   C2349     1.0  0.55563  0.61650  0.18534  1.0000
  C   C2350     1.0  0.61858  0.46575  0.11757  1.0000
  H   H1870     1.0  0.93230  0.45440  0.12946  1.0000
  C   C2351     1.0  0.91513  0.36781  0.04747  1.0000
  S   S305      1.0  0.94094  0.36501  0.16409  1.0000
  C   C2352     1.0  0.93547  0.37445  0.03302  1.0000
  H   H1871     1.0  0.93513  0.38141  0.01609  1.0000
  C   C2353     1.0  0.55314  0.56203  0.09143  1.0000
  C   C2354     1.0  0.76749  0.32719  0.15214  1.0000
  H   H1872     1.0  0.75065  0.33732  0.15145  1.0000
  C   C2355     1.0  0.95675  0.36246  0.06227  1.0000
  H   H1873     1.0  0.63551  0.43129  0.11651  1.0000
  C   C2356     1.0  0.55963  0.56818  0.10853  1.0000
  C   C2357     1.0  0.93613  0.35660  0.07692  1.0000
  H   H1874     1.0  0.60075  0.41790  0.11075  1.0000
  H   H1875     1.0  0.82081  0.33035  0.08117  1.0000
  H   H1876     1.0  0.98895  0.35105  0.16740  1.0000
  C   C2358     1.0  0.95638  0.37146  0.04030  1.0000
  S   S306      1.0  0.67924  0.38728  0.22515  1.0000
  C   C2359     1.0  0.78705  0.33209  0.13564  1.0000
  C   C2360     1.0  0.49422  0.64114  0.20667  1.0000
  P   P79       1.0  0.78411  0.35305  0.11114  1.0000
  C   C2361     1.0  0.75904  0.37433  0.11591  1.0000
  C   C2362     1.0  0.80836  0.36954  0.10246  1.0000
  C   C2363     1.0  0.81746  0.37612  0.11790  1.0000
  C   C2364     1.0  0.83565  0.38967  0.11129  1.0000
  C   C2365     1.0  0.84512  0.39648  0.08927  1.0000
  C   C2366     1.0  0.83580  0.39045  0.07376  1.0000
  C   C2367     1.0  0.81717  0.37740  0.08029  1.0000
  C   C2368     1.0  0.74486  0.38304  0.10050  1.0000
  C   C2369     1.0  0.72607  0.40023  0.10421  1.0000
  C   C2370     1.0  0.72180  0.40932  0.12295  1.0000
  C   C2371     1.0  0.73643  0.40139  0.13788  1.0000
  C   C2372     1.0  0.75491  0.38393  0.13442  1.0000
  H   H1877     1.0  0.56421  0.44450  0.10906  1.0000
  C   C2373     1.0  0.53636  0.63974  0.15698  1.0000
  C   C2374     1.0  0.97889  0.46162  0.14820  1.0000
  H   H1878     1.0  0.56420  0.51587  0.14204  1.0000
  H   H1879     1.0  0.54982  0.57512  0.07748  1.0000
  H   H1880     1.0  0.52171  0.48284  0.03805  1.0000
  C   C2375     1.0  0.57925  0.45062  0.11154  1.0000
  C   C2376     1.0  0.59996  0.43553  0.11231  1.0000
  H   H1881     1.0  0.81054  0.37083  0.13507  1.0000
  H   H1882     1.0  0.84255  0.39472  0.12330  1.0000
  H   H1883     1.0  0.85984  0.40621  0.08427  1.0000
  H   H1884     1.0  0.84321  0.39574  0.05670  1.0000
  H   H1885     1.0  0.80980  0.37342  0.06803  1.0000
  C   C2377     1.0  0.51089  0.48496  0.07180  1.0000
  H   H1886     1.0  0.71497  0.40675  0.09245  1.0000
  H   H1887     1.0  0.70727  0.42264  0.12592  1.0000
  H   H1888     1.0  0.73332  0.40866  0.15227  1.0000
  H   H1889     1.0  0.76613  0.37803  0.14612  1.0000
  H   H1890     1.0  0.57560  0.49090  0.06875  1.0000
  H   H1891     1.0  0.94107  0.41326  0.18913  1.0000
  C   C2378     1.0  0.58264  0.44726  0.23205  1.0000
  H   H1892     1.0  0.78629  0.37256  0.22610  1.0000
  H   H1893     1.0  0.96366  0.43572  0.10446  1.0000
  C   C2379     1.0  0.54579  0.39754  0.23580  1.0000
  C   C2380     1.0  0.70718  0.33085  0.13583  1.0000
  C   C2381     1.0  0.54174  0.41487  0.21783  1.0000
  H   H1894     1.0  0.74591  0.33579  0.10082  1.0000
  C   C2382     1.0  0.52855  0.48509  0.13696  1.0000
  C   C2383     1.0  0.52921  0.46270  0.14963  1.0000
  P   P80       1.0  0.55079  0.49250  0.11295  1.0000
  C   C2384     1.0  0.54127  0.48944  0.08938  1.0000
  C   C2385     1.0  0.55499  0.52207  0.11061  1.0000
  C   C2386     1.0  0.55084  0.53906  0.09242  1.0000
  C   C2387     1.0  0.56389  0.55137  0.12655  1.0000
  C   C2388     1.0  0.56131  0.52852  0.12770  1.0000
  C   C2389     1.0  0.55749  0.48922  0.06977  1.0000
  C   C2390     1.0  0.55044  0.48685  0.05133  1.0000
  C   C2391     1.0  0.52715  0.48471  0.05234  1.0000
  C   C2392     1.0  0.51788  0.48732  0.09027  1.0000
  C   C2393     1.0  0.57784  0.47331  0.11428  1.0000
  H   H1895     1.0  0.56647  0.63540  0.20505  1.0000
  H   H1896     1.0  0.97874  0.35463  0.12900  1.0000
  H   H1897     1.0  0.63700  0.31677  0.20218  1.0000
  C   C2394     1.0  0.97828  0.34175  0.18150  1.0000
  H   H1898     1.0  0.50357  0.57009  0.12734  1.0000
  H   H1899     1.0  0.56837  0.48291  0.22966  1.0000
  H   H1900     1.0  0.75340  0.40375  0.22381  1.0000
  C   C2395     1.0  0.94025  0.33275  0.20196  1.0000
  C   C2396     1.0  0.88584  0.36532  0.23022  1.0000
  C   C2397     1.0  0.98883  0.32618  0.19735  1.0000
  C   C2398     1.0  0.96669  0.41290  0.20800  1.0000
  C   C2399     1.0  0.69820  0.33261  0.11734  1.0000
  C   C2400     1.0  0.57900  0.46868  0.23787  1.0000
  H   H1901     1.0  0.50941  0.61001  0.12655  1.0000
  C   C2401     1.0  0.80405  0.32682  0.07968  1.0000
  H   H1902     1.0  0.94179  0.47106  0.15750  1.0000
  C   C2402     1.0  0.84205  0.38344  0.22035  1.0000
  C   C2403     1.0  0.76236  0.40039  0.23722  1.0000
  C   C2404     1.0  0.78103  0.38273  0.23854  1.0000
  C   C2405     1.0  0.97599  0.40509  0.17179  1.0000
  H   H1903     1.0  0.50853  0.51898  0.13296  1.0000
  C   C2406     1.0  0.51140  0.45710  0.16766  1.0000
  S   S307      1.0  0.98182  0.37888  0.02159  1.0000
  H   H1904     1.0  0.95386  0.41716  0.22188  1.0000
  C   C2407     1.0  0.49466  0.60257  0.13757  1.0000
  H   H1905     1.0  0.98301  0.46885  0.16048  1.0000
  H   H1906     1.0  0.53455  0.58702  0.22714  1.0000
  C   C2408     1.0  0.82949  0.31868  0.23549  1.0000
  H   H1907     1.0  0.90288  0.35795  0.23374  1.0000
  H   H1908     1.0  0.52815  0.64106  0.14342  1.0000
  C   C2409     1.0  0.80854  0.31840  0.13704  1.0000
  H   H1909     1.0  0.51203  0.63468  0.20811  1.0000
  C   C2410     1.0  0.84353  0.36675  0.23933  1.0000
  H   H1910     1.0  0.98920  0.45562  0.01736  1.0000
  C   C2411     1.0  0.49275  0.47373  0.17312  1.0000
  H   H1911     1.0  0.99019  0.48462  0.03867  1.0000
  C   C2412     1.0  0.99040  0.40862  0.20885  1.0000
  H   H1912     1.0  0.96391  0.34841  0.99157  1.0000
  C   C2413     1.0  0.76148  0.31517  0.07704  1.0000
  C   C2414     1.0  0.97507  0.31487  0.21604  1.0000
  C   C2415     1.0  0.99155  0.44109  0.11843  1.0000
  Fe  Fe152     1.0  0.88045  0.31495  0.16605  1.0000
  C   C2416     1.0  0.49387  0.38691  0.23911  1.0000
  H   H1913     1.0  0.49284  0.48327  0.07260  1.0000
  C   C2417     1.0  0.49179  0.49595  0.16051  1.0000
  C   C2418     1.0  0.49754  0.51302  0.47071  1.0000
  H   H1914     1.0  0.54618  0.37875  0.43821  1.0000
  Fe  Fe153     1.0  0.60636  0.34797  0.37395  1.0000
  C   C2419     1.0  0.64128  0.43735  0.36854  1.0000
  S   S308      1.0  0.62971  0.37110  0.34900  1.0000
  Fe  Fe154     1.0  0.55831  0.33415  0.39455  1.0000
  H   H1915     1.0  0.52566  0.48050  0.28679  1.0000
  S   S309      1.0  0.51946  0.34262  0.39814  1.0000
  H   H1916     1.0  0.86740  0.34405  0.25808  1.0000
  C   C2420     1.0  0.72125  0.31949  0.30420  1.0000
  H   H1917     1.0  0.58111  0.39914  0.46841  1.0000
  S   S310      1.0  0.57903  0.35816  0.40162  1.0000
  C   C2421     1.0  0.49958  0.54397  0.27733  1.0000
  H   H1918     1.0  0.53800  0.34724  0.26080  1.0000
  H   H1919     1.0  0.49906  0.60707  0.24644  1.0000
  H   H1920     1.0  0.83962  0.37618  0.28250  1.0000
  C   C2422     1.0  0.53442  0.52527  0.37371  1.0000
  Fe  Fe155     1.0  0.59440  0.32628  0.42191  1.0000
  H   H1921     1.0  0.63105  0.40363  0.37384  1.0000
  H   H1922     1.0  0.58579  0.48849  0.25866  1.0000
  H   H1923     1.0  0.56969  0.58384  0.27860  1.0000
  H   H1924     1.0  0.57320  0.47862  0.36361  1.0000
  C   C2423     1.0  0.59506  0.40489  0.47303  1.0000
  C   C2424     1.0  0.52139  0.53375  0.28191  1.0000
  C   C2425     1.0  0.68622  0.41081  0.28967  1.0000
  H   H1925     1.0  0.60750  0.48288  0.38744  1.0000
  C   C2426     1.0  0.63744  0.48434  0.48956  1.0000
  S   S311      1.0  0.68271  0.37379  0.46018  1.0000
  S   S312      1.0  0.61714  0.36616  0.25627  1.0000
  H   H1926     1.0  0.65304  0.43906  0.25300  1.0000
  H   H1927     1.0  0.51650  0.53080  0.40546  1.0000
  P   P81       1.0  0.52504  0.39644  0.26122  1.0000
  C   C2427     1.0  0.76690  0.40940  0.27037  1.0000
  H   H1928     1.0  0.60871  0.47639  0.46084  1.0000
  H   H1929     1.0  0.83216  0.32834  0.34353  1.0000
  C   C2428     1.0  0.62381  0.48639  0.27989  1.0000
  H   H1930     1.0  0.54050  0.35731  0.33393  1.0000
  C   C2429     1.0  0.82214  0.34697  0.28424  1.0000
  S   S313      1.0  0.62370  0.31811  0.39496  1.0000
  C   C2430     1.0  0.63779  0.51952  0.25362  1.0000
  H   H1931     1.0  0.50618  0.50941  0.48426  1.0000
  H   H1932     1.0  0.64649  0.47242  0.36592  1.0000
  C   C2431     1.0  0.59435  0.43188  0.32506  1.0000
  C   C2432     1.0  0.63452  0.45968  0.37231  1.0000
  C   C2433     1.0  0.50590  0.53315  0.32019  1.0000
  C   C2434     1.0  0.59697  0.44898  0.39336  1.0000
  C   C2435     1.0  0.53947  0.49885  0.40730  1.0000
  C   C2436     1.0  0.50339  0.41339  0.35709  1.0000
  C   C2437     1.0  0.50875  0.46296  0.27043  1.0000
  C   C2438     1.0  0.51513  0.42259  0.40890  1.0000
  H   H1933     1.0  0.68756  0.33211  0.26586  1.0000
  C   C2439     1.0  0.55422  0.58400  0.25171  1.0000
  C   C2440     1.0  0.62638  0.33903  0.47711  1.0000
  C   C2441     1.0  0.70046  0.33352  0.27469  1.0000
  H   H1934     1.0  0.60111  0.31950  0.31416  1.0000
  H   H1935     1.0  0.70235  0.39938  0.29064  1.0000
  C   C2442     1.0  0.71378  0.35180  0.26702  1.0000
  C   C2443     1.0  0.54762  0.33394  0.31221  1.0000
  P   P82       1.0  0.81755  0.35586  0.25667  1.0000
  C   C2444     1.0  0.50861  0.44244  0.26394  1.0000
  H   H1936     1.0  0.51640  0.63777  0.47909  1.0000
  C   C2445     1.0  0.83717  0.35370  0.31380  1.0000
  C   C2446     1.0  0.59413  0.45313  0.31041  1.0000
  H   H1937     1.0  0.65847  0.43268  0.35929  1.0000
  C   C2447     1.0  0.64350  0.43904  0.28749  1.0000
  C   C2448     1.0  0.62072  0.34015  0.45703  1.0000
  C   C2449     1.0  0.63382  0.35198  0.43810  1.0000
  C   C2450     1.0  0.65273  0.36238  0.43926  1.0000
  C   C2451     1.0  0.65857  0.36106  0.45932  1.0000
  C   C2452     1.0  0.59616  0.42883  0.24278  1.0000
  C   C2453     1.0  0.67926  0.41881  0.26977  1.0000
  H   H1938     1.0  0.62950  0.35298  0.42256  1.0000
  H   H1939     1.0  0.66294  0.37136  0.42458  1.0000
  C   C2454     1.0  0.60620  0.43181  0.25928  1.0000
  C   C2455     1.0  0.53447  0.60125  0.28241  1.0000
  C   C2456     1.0  0.51320  0.36984  0.38243  1.0000
  C   C2457     1.0  0.53073  0.37961  0.36624  1.0000
  C   C2458     1.0  0.52557  0.40096  0.35299  1.0000
  S   S314      1.0  0.58401  0.32721  0.36456  1.0000
  H   H1940     1.0  0.67381  0.31957  0.37401  1.0000
  C   C2459     1.0  0.57357  0.46984  0.47576  1.0000
  H   H1941     1.0  0.54822  0.37053  0.36364  1.0000
  H   H1942     1.0  0.53890  0.40808  0.33987  1.0000
  H   H1943     1.0  0.76146  0.41980  0.28267  1.0000
  H   H1944     1.0  0.55442  0.51492  0.34445  1.0000
  C   C2460     1.0  0.81439  0.32668  0.29764  1.0000
  C   C2461     1.0  0.78569  0.39183  0.27165  1.0000
  C   C2462     1.0  0.52457  0.52859  0.30334  1.0000
  H   H1945     1.0  0.79444  0.38900  0.28507  1.0000
  H   H1946     1.0  0.67739  0.41088  0.32389  1.0000
  C   C2463     1.0  0.79297  0.37836  0.25567  1.0000
  H   H1947     1.0  0.54141  0.52079  0.30691  1.0000
  C   C2464     1.0  0.57129  0.46044  0.43590  1.0000
  C   C2465     1.0  0.62210  0.49809  0.29668  1.0000
  C   C2466     1.0  0.65806  0.43297  0.26863  1.0000
  C   C2467     1.0  0.62103  0.36864  0.28156  1.0000
  C   C2468     1.0  0.64318  0.36909  0.28523  1.0000
  C   C2469     1.0  0.64583  0.37001  0.30598  1.0000
  C   C2470     1.0  0.62633  0.37048  0.32299  1.0000
  C   C2471     1.0  0.60413  0.37055  0.31914  1.0000
  C   C2472     1.0  0.60150  0.36977  0.29841  1.0000
  H   H1948     1.0  0.65825  0.36833  0.27222  1.0000
  H   H1949     1.0  0.66301  0.36978  0.30898  1.0000
  H   H1950     1.0  0.58896  0.37144  0.33210  1.0000
  H   H1951     1.0  0.58437  0.36971  0.29544  1.0000
  C   C2473     1.0  0.73419  0.33802  0.29670  1.0000
  H   H1952     1.0  0.50067  0.47738  0.46877  1.0000
  C   C2474     1.0  0.55529  0.41314  0.42645  1.0000
  H   H1953     1.0  0.84598  0.36417  0.32009  1.0000
  C   C2475     1.0  0.65110  0.43169  0.30726  1.0000
  H   H1954     1.0  0.64749  0.42282  0.48829  1.0000
  H   H1955     1.0  0.49670  0.58389  0.32067  1.0000
  S   S315      1.0  0.55166  0.57011  0.48150  1.0000
  C   C2476     1.0  0.55664  0.46623  0.33153  1.0000
  C   C2477     1.0  0.52123  0.40057  0.42056  1.0000
  C   C2478     1.0  0.54657  0.33103  0.29172  1.0000
  H   H1956     1.0  0.54136  0.47897  0.33350  1.0000
  C   C2479     1.0  0.56100  0.48993  0.37294  1.0000
  C   C2480     1.0  0.54126  0.39589  0.42940  1.0000
  C   C2481     1.0  0.60343  0.45354  0.26460  1.0000
  P   P83       1.0  0.56866  0.45682  0.40965  1.0000
  C   C2482     1.0  0.51428  0.60230  0.25368  1.0000
  C   C2483     1.0  0.55208  0.45840  0.45336  1.0000
  C   C2484     1.0  0.83357  0.36042  0.29251  1.0000
  C   C2485     1.0  0.73033  0.35425  0.27818  1.0000
  H   H1957     1.0  0.74721  0.33978  0.30524  1.0000
  C   C2486     1.0  0.59295  0.47122  0.45874  1.0000
  P   P84       1.0  0.61624  0.45757  0.28593  1.0000
  C   C2487     1.0  0.63552  0.53128  0.27036  1.0000
  C   C2488     1.0  0.54002  0.35532  0.31791  1.0000
  C   C2489     1.0  0.55427  0.58918  0.27161  1.0000
  H   H1958     1.0  0.53591  0.45396  0.45140  1.0000
  C   C2490     1.0  0.53849  0.34974  0.27671  1.0000
  C   C2491     1.0  0.53248  0.37176  0.28175  1.0000
  C   C2492     1.0  0.53210  0.37411  0.30294  1.0000
  H   H1959     1.0  0.77510  0.33467  0.26308  1.0000
  C   C2493     1.0  0.52523  0.42333  0.26890  1.0000
  H   H1960     1.0  0.64065  0.43678  0.32188  1.0000
  C   C2494     1.0  0.57511  0.47032  0.31379  1.0000
  C   C2495     1.0  0.54261  0.44597  0.28585  1.0000
  C   C2496     1.0  0.54281  0.42562  0.27908  1.0000
  C   C2497     1.0  0.49439  0.49488  0.46193  1.0000
  C   C2498     1.0  0.52903  0.51947  0.39634  1.0000
  C   C2499     1.0  0.82940  0.33351  0.32701  1.0000
  S   S316      1.0  0.59749  0.32631  0.45590  1.0000
  H   H1961     1.0  0.52596  0.39037  0.30803  1.0000
  C   C2500     1.0  0.57639  0.42824  0.34330  1.0000
  H   H1962     1.0  0.55578  0.44717  0.29427  1.0000
  H   H1963     1.0  0.55667  0.41166  0.28196  1.0000
  H   H1964     1.0  0.57087  0.40916  0.43323  1.0000
  H   H1965     1.0  0.50840  0.52897  0.33671  1.0000
  C   C2501     1.0  0.61245  0.46550  0.38459  1.0000
  C   C2502     1.0  0.63215  0.49708  0.25836  1.0000
  C   C2503     1.0  0.58917  0.47180  0.25421  1.0000
  C   C2504     1.0  0.55745  0.44533  0.34642  1.0000
  C   C2505     1.0  0.60373  0.42672  0.38898  1.0000
  C   C2506     1.0  0.49411  0.59891  0.32783  1.0000
  H   H1966     1.0  0.60709  0.46807  0.42601  1.0000
  H   H1967     1.0  0.53459  0.49459  0.42479  1.0000
  S   S317      1.0  0.60519  0.52172  0.47988  1.0000
  C   C2507     1.0  0.62584  0.42095  0.37679  1.0000
  H   H1968     1.0  0.52401  0.45675  0.39674  1.0000
  C   C2508     1.0  0.61458  0.41070  0.45701  1.0000
  C   C2509     1.0  0.70386  0.31741  0.29356  1.0000
  H   H1969     1.0  0.56945  0.57446  0.24337  1.0000
  H   H1970     1.0  0.67783  0.32587  0.33448  1.0000
  H   H1971     1.0  0.49653  0.57873  0.35957  1.0000
  S   S318      1.0  0.54483  0.52689  0.26129  1.0000
  C   C2510     1.0  0.55564  0.48393  0.39569  1.0000
  C   C2511     1.0  0.64532  0.34941  0.47825  1.0000
  C   C2512     1.0  0.55322  0.46317  0.47320  1.0000
  H   H1972     1.0  0.49696  0.54790  0.26088  1.0000
  H   H1973     1.0  0.63412  0.48816  0.24519  1.0000
  H   H1974     1.0  0.57670  0.41176  0.35454  1.0000
  H   H1975     1.0  0.61551  0.40933  0.44043  1.0000
  C   C2513     1.0  0.53435  0.59081  0.24267  1.0000
  H   H1976     1.0  0.74041  0.36852  0.27227  1.0000
  H   H1977     1.0  0.71146  0.36395  0.25224  1.0000
  C   C2514     1.0  0.81803  0.32002  0.31893  1.0000
  C   C2515     1.0  0.52344  0.38337  0.48381  1.0000
  C   C2516     1.0  0.55043  0.51052  0.36201  1.0000
  H   H1978     1.0  0.55436  0.31973  0.32375  1.0000
  H   H1979     1.0  0.59218  0.41365  0.39477  1.0000
  H   H1980     1.0  0.52599  0.54106  0.36526  1.0000
  C   C2517     1.0  0.62781  0.52053  0.29188  1.0000
  H   H1981     1.0  0.49945  0.42634  0.40227  1.0000
  H   H1982     1.0  0.51049  0.38712  0.42265  1.0000
  C   C2518     1.0  0.51416  0.60764  0.27367  1.0000
  C   C2519     1.0  0.67219  0.41733  0.30839  1.0000
  C   C2520     1.0  0.49648  0.39457  0.25721  1.0000
  C   C2521     1.0  0.63337  0.41738  0.46250  1.0000
  H   H1983     1.0  0.54293  0.44207  0.35993  1.0000
  H   H1984     1.0  0.64838  0.49113  0.47430  1.0000
  H   H1985     1.0  0.64888  0.42110  0.45026  1.0000
  C   C2522     1.0  0.59187  0.46655  0.43889  1.0000
  H   H1986     1.0  0.60802  0.41784  0.32226  1.0000
  C   C2523     1.0  0.52926  0.43982  0.40571  1.0000
  C   C2524     1.0  0.52561  0.46465  0.28161  1.0000
  H   H1987     1.0  0.62621  0.52960  0.30486  1.0000
  C   C2525     1.0  0.54968  0.43510  0.41417  1.0000
  H   H1988     1.0  0.61632  0.48993  0.31344  1.0000
  H   H1989     1.0  0.57076  0.36906  0.24730  1.0000
  C   C2526     1.0  0.78920  0.32478  0.25398  1.0000
  H   H1990     1.0  0.57391  0.48640  0.30208  1.0000
  H   H1991     1.0  0.63981  0.54871  0.26662  1.0000
  H   H1992     1.0  0.61623  0.41718  0.26769  1.0000
  C   C2527     1.0  0.63264  0.41824  0.48399  1.0000
  H   H1993     1.0  0.53520  0.60565  0.29747  1.0000
  H   H1994     1.0  0.50993  0.39339  0.47552  1.0000
  C   C2528     1.0  0.81163  0.33157  0.24779  1.0000
  H   H1995     1.0  0.80560  0.31588  0.29179  1.0000
  H   H1996     1.0  0.53814  0.46233  0.48640  1.0000
  H   H1997     1.0  0.69014  0.41386  0.25522  1.0000
  H   H1998     1.0  0.49559  0.44170  0.25501  1.0000
  H   H1999     1.0  0.50377  0.32571  0.35110  1.0000
  H   H2000     1.0  0.55263  0.31440  0.28730  1.0000
  C   C2529     1.0  0.52933  0.35992  0.48363  1.0000
  H   H2001     1.0  0.49773  0.60475  0.47767  1.0000
  H   H2002     1.0  0.49582  0.47762  0.26683  1.0000
  S   S319      1.0  0.49244  0.55872  0.47321  1.0000
  H   H2003     1.0  0.52043  0.35172  0.47521  1.0000
  S   S320      1.0  0.49818  0.44115  0.34201  1.0000
  H   H2004     1.0  0.74087  0.42746  0.25199  1.0000
  H   H2005     1.0  0.49555  0.34590  0.31500  1.0000
  C   C2530     1.0  0.75530  0.41373  0.25311  1.0000
  C   C2531     1.0  0.49414  0.59594  0.34988  1.0000
  H   H2006     1.0  0.59879  0.31418  0.27790  1.0000
  C   C2532     1.0  0.86566  0.35751  0.24399  1.0000
  C   C2533     1.0  0.97042  0.34645  0.61859  1.0000
  H   H2007     1.0  0.81189  0.37094  0.51309  1.0000
  C   C2534     1.0  0.90301  0.43290  0.62143  1.0000
  C   C2535     1.0  0.60728  0.54578  0.64342  1.0000
  H   H2008     1.0  0.87556  0.32214  0.64282  1.0000
  C   C2536     1.0  0.57258  0.37632  0.55941  1.0000
  Fe  Fe156     1.0  0.65508  0.35842  0.67770  1.0000
  S   S321      1.0  0.65302  0.37543  0.70542  1.0000
  S   S322      1.0  0.65357  0.37953  0.64459  1.0000
  C   C2537     1.0  0.64041  0.51436  0.68643  1.0000
  C   C2538     1.0  0.63433  0.59746  0.54421  1.0000
  C   C2539     1.0  0.92621  0.42408  0.61437  1.0000
  C   C2540     1.0  0.69245  0.60132  0.58139  1.0000
  H   H2009     1.0  0.73593  0.43212  0.70297  1.0000
  Fe  Fe157     1.0  0.67960  0.34640  0.71572  1.0000
  C   C2541     1.0  0.98199  0.37247  0.64418  1.0000
  S   S323      1.0  0.62659  0.33690  0.69476  1.0000
  S   S324      1.0  0.68462  0.33163  0.68599  1.0000
  Fe  Fe158     1.0  0.81968  0.39400  0.60413  1.0000
  S   S325      1.0  0.84429  0.36126  0.60896  1.0000
  Fe  Fe159     1.0  0.81625  0.34923  0.63719  1.0000
  H   H2010     1.0  0.62969  0.60362  0.61294  1.0000
  Fe  Fe160     1.0  0.80655  0.39427  0.65176  1.0000
  S   S326      1.0  0.78480  0.41171  0.67798  1.0000
  S   S327      1.0  0.79039  0.38054  0.63013  1.0000
  Fe  Fe161     1.0  0.51222  0.50220  0.72647  1.0000
  C   C2542     1.0  0.73440  0.48554  0.72706  1.0000
  C   C2543     1.0  0.90966  0.39743  0.68895  1.0000
  Fe  Fe162     1.0  0.54103  0.52282  0.68351  1.0000
  S   S328      1.0  0.56873  0.52896  0.69912  1.0000
  S   S329      1.0  0.54877  0.53738  0.64764  1.0000
  Fe  Fe163     1.0  0.56471  0.49383  0.71919  1.0000
  H   H2011     1.0  0.64152  0.47891  0.70233  1.0000
  C   C2544     1.0  0.78929  0.41707  0.51955  1.0000
  S   S330      1.0  0.53943  0.48623  0.70166  1.0000
  S   S331      1.0  0.51146  0.53824  0.70680  1.0000
  H   H2012     1.0  0.93045  0.41538  0.60083  1.0000
  C   C2545     1.0  0.94358  0.42592  0.62509  1.0000
  H   H2013     1.0  0.89011  0.33020  0.67256  1.0000
  C   C2546     1.0  0.88196  0.39345  0.66807  1.0000
  C   C2547     1.0  0.83225  0.36249  0.53802  1.0000
  H   H2014     1.0  0.54369  0.54604  0.57238  1.0000
  H   H2015     1.0  0.69372  0.59807  0.56537  1.0000
  C   C2548     1.0  0.70405  0.61866  0.58354  1.0000
  C   C2549     1.0  0.98987  0.45025  0.62596  1.0000
  C   C2550     1.0  0.73550  0.44726  0.70934  1.0000
  C   C2551     1.0  0.49417  0.63081  0.56283  1.0000
  C   C2552     1.0  0.60019  0.43005  0.71575  1.0000
  C   C2553     1.0  0.84170  0.35599  0.72018  1.0000
  C   C2554     1.0  0.92654  0.38260  0.67806  1.0000
  C   C2555     1.0  0.53269  0.59539  0.63099  1.0000
  H   H2016     1.0  0.60539  0.43909  0.69925  1.0000
  H   H2017     1.0  0.60500  0.39693  0.70702  1.0000
  C   C2556     1.0  0.72808  0.36813  0.71709  1.0000
  H   H2018     1.0  0.53158  0.41251  0.49294  1.0000
  C   C2557     1.0  0.76058  0.38823  0.71536  1.0000
  C   C2558     1.0  0.76359  0.39410  0.69277  1.0000
  C   C2559     1.0  0.74894  0.38680  0.68230  1.0000
  C   C2560     1.0  0.73099  0.37396  0.69449  1.0000
  H   H2019     1.0  0.56741  0.62401  0.67195  1.0000
  C   C2561     1.0  0.60030  0.40616  0.72018  1.0000
  H   H2020     1.0  0.75108  0.39150  0.66488  1.0000
  H   H2021     1.0  0.71945  0.36862  0.68645  1.0000
  C   C2562     1.0  0.75471  0.44995  0.71707  1.0000
  H   H2022     1.0  0.67773  0.56183  0.51947  1.0000
  H   H2023     1.0  0.80386  0.32808  0.68372  1.0000
  C   C2563     1.0  0.60268  0.36065  0.53241  1.0000
  H   H2024     1.0  0.51730  0.59090  0.68552  1.0000
  C   C2564     1.0  0.59475  0.56657  0.64784  1.0000
  H   H2025     1.0  0.93426  0.36234  0.65330  1.0000
  C   C2565     1.0  0.60921  0.46691  0.52898  1.0000
  C   C2566     1.0  0.53561  0.39411  0.49391  1.0000
  Fe  Fe164     1.0  0.95405  0.40356  0.71101  1.0000
  S   S332      1.0  0.53899  0.51808  0.50675  1.0000
  H   H2026     1.0  0.67908  0.41290  0.65137  1.0000
  H   H2027     1.0  0.88146  0.38066  0.73436  1.0000
  C   C2567     1.0  0.66612  0.33868  0.59127  1.0000
  C   C2568     1.0  0.66900  0.32706  0.61210  1.0000
  C   C2569     1.0  0.66412  0.33916  0.62912  1.0000
  C   C2570     1.0  0.65622  0.36278  0.62516  1.0000
  C   C2571     1.0  0.65161  0.37374  0.60480  1.0000
  C   C2572     1.0  0.65632  0.36172  0.58795  1.0000
  C   C2573     1.0  0.49278  0.58662  0.64427  1.0000
  H   H2028     1.0  0.66741  0.33044  0.64494  1.0000
  H   H2029     1.0  0.64531  0.39180  0.60177  1.0000
  H   H2030     1.0  0.65319  0.37062  0.57213  1.0000
  C   C2574     1.0  0.52967  0.51547  0.59172  1.0000
  C   C2575     1.0  0.52505  0.50186  0.61267  1.0000
  C   C2576     1.0  0.53072  0.50826  0.63021  1.0000
  C   C2577     1.0  0.54129  0.52815  0.62667  1.0000
  C   C2578     1.0  0.54625  0.54145  0.60568  1.0000
  C   C2579     1.0  0.54032  0.53525  0.58832  1.0000
  C   C2580     1.0  0.55536  0.63518  0.72274  1.0000
  H   H2031     1.0  0.52702  0.49786  0.64637  1.0000
  H   H2032     1.0  0.55449  0.55683  0.60287  1.0000
  C   C2581     1.0  0.56780  0.38056  0.66864  1.0000
  C   C2582     1.0  0.55555  0.59979  0.70140  1.0000
  C   C2583     1.0  0.60127  0.48738  0.51591  1.0000
  C   C2584     1.0  0.67806  0.41907  0.72504  1.0000
  Fe  Fe165     1.0  0.67036  0.40589  0.52738  1.0000
  S   S333      1.0  0.81651  0.41544  0.57120  1.0000
  H   H2033     1.0  0.77193  0.39374  0.72347  1.0000
  C   C2585     1.0  0.71595  0.46406  0.70967  1.0000
  C   C2586     1.0  0.93711  0.43538  0.64382  1.0000
  H   H2034     1.0  0.52218  0.39778  0.66260  1.0000
  C   C2587     1.0  0.61297  0.34611  0.54888  1.0000
  C   C2588     1.0  0.58655  0.38629  0.65163  1.0000
  S   S334      1.0  0.96370  0.41806  0.73611  1.0000
  C   C2589     1.0  0.56629  0.60114  0.55294  1.0000
  C   C2590     1.0  0.67804  0.59315  0.62030  1.0000
  H   H2035     1.0  0.59413  0.37487  0.64041  1.0000
  H   H2036     1.0  0.61104  0.41054  0.63657  1.0000
  H   H2037     1.0  0.56075  0.36474  0.67019  1.0000
  H   H2038     1.0  0.49301  0.46943  0.70826  1.0000
  S   S335      1.0  0.97281  0.36822  0.72071  1.0000
  H   H2039     1.0  0.66205  0.52213  0.58649  1.0000
  H   H2040     1.0  0.96744  0.46295  0.54373  1.0000
  C   C2591     1.0  0.58258  0.37610  0.53750  1.0000
  C   C2592     1.0  0.79656  0.34692  0.54081  1.0000
  S   S336      1.0  0.91635  0.41033  0.70809  1.0000
  C   C2593     1.0  0.75421  0.46912  0.72587  1.0000
  C   C2594     1.0  0.97005  0.44188  0.57514  1.0000
  H   H2041     1.0  0.55023  0.59999  0.65483  1.0000
  H   H2042     1.0  0.55703  0.38790  0.56387  1.0000
  C   C2595     1.0  0.77903  0.39810  0.56399  1.0000
  C   C2596     1.0  0.59422  0.40561  0.49477  1.0000
  P   P85       1.0  0.57022  0.39565  0.51596  1.0000
  C   C2597     1.0  0.55331  0.38129  0.50451  1.0000
  C   C2598     1.0  0.55200  0.41928  0.52699  1.0000
  C   C2599     1.0  0.52823  0.41783  0.53601  1.0000
  C   C2600     1.0  0.51414  0.43585  0.54488  1.0000
  C   C2601     1.0  0.52374  0.45526  0.54522  1.0000
  C   C2602     1.0  0.54743  0.45658  0.53682  1.0000
  C   C2603     1.0  0.56154  0.43867  0.52780  1.0000
  C   C2604     1.0  0.98385  0.34851  0.65052  1.0000
  C   C2605     1.0  0.57400  0.62763  0.57289  1.0000
  H   H2043     1.0  0.66718  0.43282  0.68211  1.0000
  C   C2606     1.0  0.62823  0.54562  0.62816  1.0000
  H   H2044     1.0  0.71412  0.41895  0.57375  1.0000
  C   C2607     1.0  0.89923  0.37957  0.65641  1.0000
  C   C2608     1.0  0.87856  0.33065  0.71966  1.0000
  C   C2609     1.0  0.51566  0.59121  0.66918  1.0000
  H   H2045     1.0  0.60045  0.52984  0.65170  1.0000
  H   H2046     1.0  0.52059  0.40271  0.53630  1.0000
  P   P86       1.0  0.77627  0.31630  0.57704  1.0000
  H   H2047     1.0  0.51293  0.46925  0.55215  1.0000
  S   S337      1.0  0.51114  0.56363  0.52573  1.0000
  C   C2610     1.0  0.63673  0.56640  0.61705  1.0000
  H   H2048     1.0  0.62889  0.33469  0.54480  1.0000
  S   S338      1.0  0.75820  0.39638  0.50868  1.0000
  H   H2049     1.0  0.75121  0.38443  0.55641  1.0000
  C   C2611     1.0  0.60335  0.34693  0.57057  1.0000
  H   H2050     1.0  0.84793  0.35215  0.56607  1.0000
  C   C2612     1.0  0.74292  0.35069  0.62558  1.0000
  C   C2613     1.0  0.69106  0.44925  0.56331  1.0000
  C   C2614     1.0  0.69740  0.42926  0.57779  1.0000
  C   C2615     1.0  0.68191  0.42224  0.59716  1.0000
  C   C2616     1.0  0.66012  0.43516  0.60207  1.0000
  C   C2617     1.0  0.65356  0.45547  0.58773  1.0000
  C   C2618     1.0  0.66930  0.46233  0.56822  1.0000
  P   P87       1.0  0.62472  0.47144  0.59434  1.0000
  C   C2619     1.0  0.60277  0.45655  0.59012  1.0000
  C   C2620     1.0  0.61832  0.47382  0.62250  1.0000
  C   C2621     1.0  0.59528  0.48021  0.63278  1.0000
  C   C2622     1.0  0.59043  0.48375  0.65400  1.0000
  C   C2623     1.0  0.60840  0.48042  0.66537  1.0000
  C   C2624     1.0  0.63134  0.47397  0.65533  1.0000
  C   C2625     1.0  0.63638  0.47113  0.63388  1.0000
  C   C2626     1.0  0.58039  0.46809  0.58829  1.0000
  C   C2627     1.0  0.56327  0.45627  0.58576  1.0000
  C   C2628     1.0  0.56847  0.43309  0.58442  1.0000
  C   C2629     1.0  0.59080  0.42165  0.58571  1.0000
  C   C2630     1.0  0.60777  0.43330  0.58865  1.0000
  C   C2631     1.0  0.62159  0.50027  0.57812  1.0000
  H   H2051     1.0  0.70287  0.45432  0.54801  1.0000
  H   H2052     1.0  0.55616  0.58589  0.69329  1.0000
  H   H2053     1.0  0.68650  0.40641  0.60816  1.0000
  H   H2054     1.0  0.64820  0.42900  0.61695  1.0000
  H   H2055     1.0  0.66507  0.47758  0.55658  1.0000
  H   H2056     1.0  0.58103  0.48328  0.62432  1.0000
  H   H2057     1.0  0.57271  0.48932  0.66148  1.0000
  H   H2058     1.0  0.60453  0.48300  0.68188  1.0000
  H   H2059     1.0  0.64531  0.47126  0.66406  1.0000
  H   H2060     1.0  0.65441  0.46698  0.62634  1.0000
  H   H2061     1.0  0.57616  0.48625  0.58860  1.0000
  H   H2062     1.0  0.54608  0.46521  0.58443  1.0000
  H   H2063     1.0  0.55537  0.42419  0.58188  1.0000
  H   H2064     1.0  0.59536  0.40394  0.58383  1.0000
  H   H2065     1.0  0.62506  0.42431  0.58872  1.0000
  H   H2066     1.0  0.62957  0.48896  0.54772  1.0000
  C   C2632     1.0  0.54842  0.61410  0.73459  1.0000
  H   H2067     1.0  0.74634  0.35275  0.64072  1.0000
  C   C2633     1.0  0.67765  0.52808  0.67003  1.0000
  C   C2634     1.0  0.65328  0.53215  0.67466  1.0000
  H   H2068     1.0  0.49500  0.55110  0.57406  1.0000
  S   S339      1.0  0.83007  0.36189  0.66104  1.0000
  H   H2069     1.0  0.64432  0.54905  0.66915  1.0000
  C   C2635     1.0  0.69951  0.53550  0.61301  1.0000
  C   C2636     1.0  0.71253  0.51381  0.61732  1.0000
  H   H2070     1.0  0.73971  0.31688  0.69255  1.0000
  C   C2637     1.0  0.70001  0.44643  0.67644  1.0000
  H   H2071     1.0  0.56220  0.42632  0.69286  1.0000
  C   C2638     1.0  0.71820  0.35902  0.59921  1.0000
  C   C2639     1.0  0.98115  0.42186  0.58661  1.0000
  Fe  Fe166     1.0  0.85609  0.37645  0.63242  1.0000
  S   S340      1.0  0.83399  0.41042  0.62532  1.0000
  C   C2640     1.0  0.72206  0.36106  0.61912  1.0000
  C   C2641     1.0  0.76527  0.39483  0.55009  1.0000
  C   C2642     1.0  0.80242  0.42090  0.53336  1.0000
  H   H2072     1.0  0.77001  0.43711  0.71611  1.0000
  C   C2643     1.0  0.55756  0.61969  0.53821  1.0000
  C   C2644     1.0  0.68117  0.53882  0.60184  1.0000
  C   C2645     1.0  0.74293  0.37514  0.72748  1.0000
  C   C2646     1.0  0.89692  0.44335  0.63943  1.0000
  C   C2647     1.0  0.51180  0.64245  0.58810  1.0000
  S   S341      1.0  0.67753  0.32578  0.56875  1.0000
  C   C2648     1.0  0.62441  0.50350  0.55556  1.0000
  C   C2649     1.0  0.55926  0.35780  0.50404  1.0000
  C   C2650     1.0  0.63146  0.45536  0.52269  1.0000
  C   C2651     1.0  0.53437  0.59598  0.65195  1.0000
  C   C2652     1.0  0.50716  0.39557  0.69682  1.0000
  Fe  Fe167     1.0  0.68632  0.35525  0.54078  1.0000
  C   C2653     1.0  0.65710  0.57381  0.57005  1.0000
  S   S342      1.0  0.56644  0.54707  0.52865  1.0000
  C   C2654     1.0  0.56179  0.63899  0.70012  1.0000
  C   C2655     1.0  0.54734  0.34721  0.49359  1.0000
  C   C2656     1.0  0.91395  0.44445  0.65069  1.0000
  S   S343      1.0  0.52163  0.50795  0.57000  1.0000
  H   H2073     1.0  0.77537  0.39041  0.58109  1.0000
  C   C2657     1.0  0.59619  0.40640  0.64947  1.0000
  C   C2658     1.0  0.97522  0.38352  0.62456  1.0000
  H   H2074     1.0  0.94373  0.37830  0.68189  1.0000
  H   H2075     1.0  0.61129  0.51790  0.60527  1.0000
  S   S344      1.0  0.69626  0.38669  0.54758  1.0000
  C   C2659     1.0  0.49476  0.58706  0.66533  1.0000
  C   C2660     1.0  0.75952  0.33771  0.61245  1.0000
  H   H2076     1.0  0.50363  0.35043  0.71794  1.0000
  C   C2661     1.0  0.61430  0.51954  0.58792  1.0000
  H   H2077     1.0  0.79378  0.42397  0.50232  1.0000
  C   C2662     1.0  0.51208  0.59049  0.62720  1.0000
  C   C2663     1.0  0.55866  0.39485  0.68378  1.0000
  C   C2664     1.0  0.92125  0.37366  0.66185  1.0000
  C   C2665     1.0  0.68913  0.50631  0.67744  1.0000
  C   C2666     1.0  0.62029  0.52546  0.54296  1.0000
  H   H2078     1.0  0.68765  0.54183  0.66086  1.0000
  C   C2667     1.0  0.77092  0.40380  0.52771  1.0000
  C   C2668     1.0  0.79843  0.33398  0.56155  1.0000
  H   H2079     1.0  0.62755  0.59956  0.57760  1.0000
  H   H2080     1.0  0.97418  0.46083  0.62191  1.0000
  H   H2081     1.0  0.62218  0.52764  0.52553  1.0000
  H   H2082     1.0  0.78158  0.34698  0.53395  1.0000
  H   H2083     1.0  0.71130  0.63699  0.60560  1.0000
  H   H2084     1.0  0.88958  0.43075  0.61352  1.0000
  C   C2669     1.0  0.87401  0.36772  0.72991  1.0000
  C   C2670     1.0  0.58720  0.42071  0.66436  1.0000
  H   H2085     1.0  0.70802  0.50334  0.67365  1.0000
  H   H2086     1.0  0.70898  0.37081  0.62944  1.0000
  C   C2671     1.0  0.61010  0.54147  0.57534  1.0000
  C   C2672     1.0  0.56190  0.62127  0.68939  1.0000
  H   H2087     1.0  0.62150  0.51740  0.69001  1.0000
  H   H2088     1.0  0.77577  0.33023  0.61741  1.0000
  C   C2673     1.0  0.67613  0.52006  0.59506  1.0000
  H   H2089     1.0  0.58080  0.59084  0.58183  1.0000
  C   C2674     1.0  0.69103  0.42285  0.65441  1.0000
  H   H2090     1.0  0.66799  0.58349  0.63470  1.0000
  H   H2091     1.0  0.86481  0.39787  0.66412  1.0000
  C   C2675     1.0  0.61294  0.54442  0.55288  1.0000
  Fe  Fe168     1.0  0.53922  0.54133  0.72373  1.0000
  C   C2676     1.0  0.67628  0.48856  0.68989  1.0000
  C   C2677     1.0  0.68437  0.43413  0.67190  1.0000
  H   H2092     1.0  0.96222  0.37863  0.59756  1.0000
  C   C2678     1.0  0.55727  0.64222  0.54078  1.0000
  C   C2679     1.0  0.73472  0.34589  0.58614  1.0000
  H   H2093     1.0  0.61352  0.41222  0.51679  1.0000
  S   S345      1.0  0.65360  0.32319  0.73576  1.0000
  C   C2680     1.0  0.56840  0.41513  0.68136  1.0000
  P   P88       1.0  0.53455  0.38693  0.70581  1.0000
  H   H2094     1.0  0.59530  0.43579  0.66309  1.0000
  H   H2095     1.0  0.71761  0.47854  0.61366  1.0000
  C   C2681     1.0  0.67140  0.56362  0.55327  1.0000
  H   H2096     1.0  0.68554  0.48409  0.59390  1.0000
  H   H2097     1.0  0.56626  0.58373  0.55132  1.0000
  H   H2098     1.0  0.76914  0.47110  0.73188  1.0000
  H   H2099     1.0  0.71867  0.41462  0.62806  1.0000
  H   H2100     1.0  0.73147  0.34495  0.57061  1.0000
  H   H2101     1.0  0.70231  0.36752  0.59392  1.0000
  Fe  Fe169     1.0  0.72162  0.38753  0.51605  1.0000
  H   H2102     1.0  0.60422  0.55608  0.58312  1.0000
  C   C2682     1.0  0.53937  0.35610  0.71494  1.0000
  C   C2683     1.0  0.71327  0.42386  0.64126  1.0000
  H   H2103     1.0  0.54750  0.59855  0.61774  1.0000
  C   C2684     1.0  0.88723  0.40250  0.68422  1.0000
  H   H2104     1.0  0.57842  0.56654  0.65955  1.0000
  C   C2685     1.0  0.54846  0.59638  0.72401  1.0000
  H   H2105     1.0  0.95662  0.45306  0.58363  1.0000
  H   H2106     1.0  0.55488  0.47149  0.53748  1.0000
  H   H2107     1.0  0.63756  0.52923  0.62522  1.0000
  H   H2108     1.0  0.57984  0.44006  0.52152  1.0000
  C   C2686     1.0  0.79783  0.41101  0.55547  1.0000
  H   H2109     1.0  0.61078  0.36028  0.51566  1.0000
  H   H2110     1.0  0.57359  0.34771  0.51104  1.0000
  H   H2111     1.0  0.81809  0.32728  0.58718  1.0000
  H   H2112     1.0  0.60899  0.56133  0.54319  1.0000
  C   C2687     1.0  0.72208  0.44794  0.66273  1.0000
  C   C2688     1.0  0.56179  0.34540  0.71752  1.0000
  C   C2689     1.0  0.61532  0.49611  0.49617  1.0000
  H   H2113     1.0  0.98565  0.38230  0.65473  1.0000
  H   H2114     1.0  0.70389  0.54955  0.61842  1.0000
  H   H2115     1.0  0.52489  0.63916  0.59803  1.0000
  Fe  Fe170     1.0  0.53326  0.53109  0.53763  1.0000
  C   C2690     1.0  0.52107  0.34265  0.71979  1.0000
  P   P89       1.0  0.69139  0.46057  0.69935  1.0000
  C   C2691     1.0  0.72876  0.43644  0.64540  1.0000
  S   S346      1.0  0.71423  0.35420  0.51072  1.0000
  H   H2116     1.0  0.74623  0.43677  0.63552  1.0000
  C   C2692     1.0  0.70741  0.49530  0.61048  1.0000
  H   H2117     1.0  0.59837  0.46034  0.54432  1.0000
  H   H2118     1.0  0.51697  0.48644  0.61532  1.0000
  H   H2119     1.0  0.49527  0.55607  0.61071  1.0000
  H   H2120     1.0  0.81677  0.43098  0.52672  1.0000
  C   C2693     1.0  0.81370  0.36071  0.52894  1.0000
  C   C2694     1.0  0.60302  0.58730  0.63687  1.0000
  H   H2121     1.0  0.87880  0.44941  0.64535  1.0000
  C   C2695     1.0  0.51031  0.62629  0.57631  1.0000
  S   S347      1.0  0.89406  0.37045  0.63426  1.0000
  C   C2696     1.0  0.88792  0.34732  0.72586  1.0000
  H   H2122     1.0  0.73445  0.45746  0.66566  1.0000
  C   C2697     1.0  0.75515  0.33433  0.59311  1.0000
  C   C2698     1.0  0.83385  0.35023  0.55889  1.0000
  C   C2699     1.0  0.58303  0.36186  0.57585  1.0000
  H   H2123     1.0  0.58439  0.49660  0.52123  1.0000
  H   H2124     1.0  0.84778  0.32310  0.71137  1.0000
  C   C2700     1.0  0.96880  0.37039  0.61210  1.0000
  S   S348      1.0  0.54566  0.61532  0.51724  1.0000
  H   H2125     1.0  0.57610  0.35551  0.71403  1.0000
  C   C2701     1.0  0.62385  0.58726  0.62147  1.0000
  S   S349      1.0  0.65871  0.37447  0.52277  1.0000
  C   C2702     1.0  0.85533  0.33530  0.71674  1.0000
  C   C2703     1.0  0.64559  0.46401  0.50291  1.0000
  C   C2704     1.0  0.97826  0.33549  0.63763  1.0000
  H   H2126     1.0  0.90899  0.45117  0.66547  1.0000
  H   H2127     1.0  0.87407  0.41384  0.69273  1.0000
  C   C2705     1.0  0.64834  0.58690  0.52774  1.0000
  H   H2128     1.0  0.68626  0.55097  0.55621  1.0000
  H   H2129     1.0  0.59310  0.60352  0.63995  1.0000
  C   C2706     1.0  0.68961  0.61055  0.62237  1.0000
  C   C2707     1.0  0.81692  0.33614  0.57074  1.0000
  H   H2130     1.0  0.97953  0.31699  0.64258  1.0000
  C   C2708     1.0  0.68928  0.49845  0.59932  1.0000
  H   H2131     1.0  0.57562  0.36246  0.59270  1.0000
  S   S350      1.0  0.64145  0.43119  0.54073  1.0000
  C   C2709     1.0  0.57448  0.60515  0.57022  1.0000
  H   H2132     1.0  0.52234  0.61056  0.57689  1.0000
  H   H2133     1.0  0.61188  0.33617  0.58321  1.0000
  S   S351      1.0  0.70582  0.35245  0.73295  1.0000
  C   C2710     1.0  0.67918  0.58856  0.59974  1.0000
  Fe  Fe171     1.0  0.54480  0.57883  0.51444  1.0000
  H   H2134     1.0  0.69991  0.49567  0.72042  1.0000
  H   H2135     1.0  0.64479  0.59182  0.51148  1.0000
  C   C2711     1.0  0.67409  0.44318  0.72204  1.0000
  S   S352      1.0  0.69661  0.40986  0.49619  1.0000
  P   P90       1.0  0.66361  0.56660  0.59698  1.0000
  H   H2136     1.0  0.62000  0.61068  0.54070  1.0000
  H   H2137     1.0  0.94971  0.43524  0.65351  1.0000
  C   C2712     1.0  0.65184  0.49260  0.69378  1.0000
  H   H2138     1.0  0.90596  0.34518  0.72707  1.0000
  H   H2139     1.0  0.84488  0.37406  0.52921  1.0000
  H   H2140     1.0  0.51128  0.59014  0.61090  1.0000
  H   H2141     1.0  0.64999  0.34799  0.49369  1.0000
  Fe  Fe172     1.0  0.62712  0.35132  0.72353  1.0000
  H   H2142     1.0  0.50824  0.62702  0.70528  1.0000
  H   H2143     1.0  0.68830  0.61432  0.63821  1.0000
  C   C2713     1.0  0.53278  0.40073  0.72823  1.0000
  C   C2714     1.0  0.52530  0.42442  0.72614  1.0000
  H   H2144     1.0  0.52117  0.43458  0.71102  1.0000
  C   C2715     1.0  0.59413  0.44203  0.73272  1.0000
  C   C2716     1.0  0.63864  0.59095  0.56526  1.0000
  H   H2145     1.0  0.96518  0.33644  0.60906  1.0000
  P   P91       1.0  0.97345  0.41436  0.61580  1.0000
  H   H2146     1.0  0.49440  0.60026  0.73902  1.0000
  H   H2147     1.0  0.72672  0.51134  0.62586  1.0000
  C   C2717     1.0  0.66684  0.56996  0.53228  1.0000
  H   H2148     1.0  0.55265  0.32927  0.49257  1.0000
  H   H2149     1.0  0.82407  0.35966  0.71721  1.0000
  H   H2150     1.0  0.73386  0.50021  0.73420  1.0000
  C   C2718     1.0  0.61326  0.41227  0.50010  1.0000
  S   S353      1.0  0.59682  0.47135  0.72745  1.0000
  C   C2719     1.0  0.50637  0.39969  0.67472  1.0000
  H   H2151     1.0  0.66293  0.45532  0.49810  1.0000
  C   C2720     1.0  0.50030  0.63392  0.49040  1.0000
  C   C2721     1.0  0.65749  0.45340  0.73755  1.0000
  Fe  Fe173     1.0  0.57042  0.53691  0.49672  1.0000
  C   C2722     1.0  0.97627  0.44763  0.55251  1.0000
  H   H2152     1.0  0.69155  0.41056  0.71400  1.0000
  C   C2723     1.0  0.71525  0.48299  0.71909  1.0000
  S   S354      1.0  0.58463  0.63178  0.59466  1.0000
  C   C2724     1.0  0.56538  0.64620  0.55815  1.0000
  C   C2725     1.0  0.85100  0.37215  0.72690  1.0000
  H   H2153     1.0  0.49578  0.43476  0.55155  1.0000
  Fe  Fe174     1.0  0.51972  0.55214  0.49391  1.0000
  C   C2726     1.0  0.52524  0.31882  0.72714  1.0000
  Fe  Fe175     1.0  0.68719  0.37649  0.49315  1.0000
  H   H2154     1.0  0.49399  0.61822  0.55338  1.0000
  C   C2727     1.0  0.56587  0.32164  0.72497  1.0000
  C   C2728     1.0  0.70255  0.62334  0.60400  1.0000
  S   S355      1.0  0.98359  0.41647  0.68475  1.0000
  H   H2155     1.0  0.71402  0.62865  0.56928  1.0000
  H   H2156     1.0  0.84062  0.38841  0.72912  1.0000
  H   H2157     1.0  0.65472  0.47185  0.73624  1.0000
  H   H2158     1.0  0.98941  0.34013  0.66558  1.0000
  H   H2159     1.0  0.61640  0.32972  0.49174  1.0000
  H   H2160     1.0  0.57433  0.47433  0.49079  1.0000
  H   H2161     1.0  0.74066  0.37060  0.74496  1.0000
  C   C2729     1.0  0.90112  0.32993  0.77941  1.0000
  C   C2730     1.0  0.98515  0.44273  0.87939  1.0000
  H   H2162     1.0  0.97917  0.32267  0.76418  1.0000
  C   C2731     1.0  0.68039  0.31818  0.78148  1.0000
  C   C2732     1.0  0.58832  0.40618  0.75857  1.0000
  C   C2733     1.0  0.53531  0.39876  0.76557  1.0000
  H   H2163     1.0  0.88610  0.34117  0.77450  1.0000
  H   H2164     1.0  0.54368  0.36971  0.75037  1.0000
  H   H2165     1.0  0.91788  0.35761  0.78246  1.0000
  H   H2166     1.0  0.97400  0.45163  0.86815  1.0000
  H   H2167     1.0  0.52755  0.43099  0.77635  1.0000
  C   C2734     1.0  0.91896  0.33918  0.78391  1.0000
  C   C2735     1.0  0.58801  0.43013  0.75413  1.0000
  H   H2168     1.0  0.63631  0.40542  0.77017  1.0000
  H   H2169     1.0  0.66736  0.38699  0.74443  1.0000
  C   C2736     1.0  0.64385  0.43983  0.75479  1.0000
  S   S356      1.0  0.59633  0.36413  0.74716  1.0000
  H   H2170     1.0  0.53986  0.38887  0.78063  1.0000
  H   H2171     1.0  0.64354  0.31951  0.79478  1.0000
  H   H2172     1.0  0.96779  0.44886  0.79480  1.0000
  H   H2173     1.0  0.58368  0.43934  0.76729  1.0000
  H   H2174     1.0  0.63028  0.44791  0.76607  1.0000
  H   H2175     1.0  0.54312  0.61146  0.75206  1.0000
  H   H2176     1.0  0.98370  0.35314  0.84335  1.0000
  H   H2177     1.0  0.58421  0.39690  0.77515  1.0000
  C   C2737     1.0  0.50324  0.55630  0.78874  1.0000
  H   H2178     1.0  0.94936  0.38227  0.96594  1.0000
  H   H2179     1.0  0.51823  0.52106  0.79753  1.0000
  C   C2738     1.0  0.52852  0.42245  0.76314  1.0000
  C   C2739     1.0  0.96796  0.37726  0.96472  1.0000
  H   H2180     1.0  0.68078  0.33625  0.78076  1.0000
  C   C2740     1.0  0.53759  0.38793  0.74818  1.0000
  H   H2181     1.0  0.95163  0.33212  0.79435  1.0000
  C   C2741     1.0  0.64720  0.41593  0.75710  1.0000
  H   H2182     1.0  0.51575  0.56312  0.79452  1.0000
  H   H2183     1.0  0.51824  0.45361  0.74162  1.0000
  C   C2742     1.0  0.50469  0.53262  0.79037  1.0000
  S   S357      1.0  0.98317  0.36750  0.77890  1.0000
  C   C2743     1.0  0.93830  0.32469  0.79031  1.0000
  Fe  Fe176     1.0  0.98503  0.38396  0.74370  1.0000
  S   S358      1.0  0.53756  0.50655  0.74538  1.0000
  C   C2744     1.0  0.97611  0.35808  0.97906  1.0000
  H   H2184     1.0  0.98014  0.47079  0.89603  1.0000
  C   C2745     1.0  0.98376  0.39048  0.94945  1.0000
  H   H2185     1.0  0.97691  0.40572  0.93909  1.0000
  C   C2746     1.0  0.98871  0.45354  0.89504  1.0000
  C   C2747     1.0  0.98592  0.44204  0.79005  1.0000
  H   H2186     1.0  0.98499  0.44918  0.75599  1.0000
  C   C2748     1.0  0.52346  0.43525  0.74345  1.0000
  C   C2749     1.0  0.66453  0.40556  0.74243  1.0000
  C   C2750     1.0  0.59462  0.39418  0.74159  1.0000
  H   H2187     1.0  0.99158  0.43190  0.82268  1.0000
  S   S359      1.0  0.53898  0.57055  0.73979  1.0000
  C   C2751     1.0  0.98837  0.98060  0.16478  1.0000
  C   C2752     1.0  0.58694  0.84618  0.20962  1.0000
  H   H2188     1.0  0.65436  0.85222  0.14652  1.0000
  H   H2189     1.0  0.59092  0.86718  0.10511  1.0000
  C   C2753     1.0  0.56787  0.83453  0.18540  1.0000
  H   H2190     1.0  0.60931  0.90755  0.14728  1.0000
  C   C2754     1.0  0.62237  0.96505  0.19962  1.0000
  H   H2191     1.0  0.96881  0.95798  0.21790  1.0000
  S   S360      1.0  0.55070  0.68320  0.18998  1.0000
  C   C2755     1.0  0.57221  0.91748  0.07609  1.0000
  C   C2756     1.0  0.63703  0.87713  0.12325  1.0000
  H   H2192     1.0  0.97552  0.85136  0.14933  1.0000
  S   S361      1.0  0.53618  0.74245  0.14745  1.0000
  C   C2757     1.0  0.50729  0.77391  0.00601  1.0000
  C   C2758     1.0  0.50378  0.97095  0.23185  1.0000
  Fe  Fe177     1.0  0.54390  0.88732  0.04903  1.0000
  C   C2759     1.0  0.74415  0.97169  0.11224  1.0000
  C   C2760     1.0  0.55643  0.88688  0.15551  1.0000
  C   C2761     1.0  0.64853  0.90353  0.21228  1.0000
  H   H2193     1.0  0.49408  0.67179  0.21819  1.0000
  C   C2762     1.0  0.72427  0.96310  0.12597  1.0000
  C   C2763     1.0  0.60458  0.94334  0.00107  1.0000
  H   H2194     1.0  0.69861  0.91241  0.17113  1.0000
  C   C2764     1.0  0.53986  0.88904  0.17463  1.0000
  H   H2195     1.0  0.56119  0.96798  0.03887  1.0000
  H   H2196     1.0  0.69047  0.95386  0.12765  1.0000
  C   C2765     1.0  0.67980  0.90249  0.05371  1.0000
  H   H2197     1.0  0.62415  0.88556  0.17731  1.0000
  C   C2766     1.0  0.56604  0.93210  0.20980  1.0000
  H   H2198     1.0  0.70903  0.91857  0.03298  1.0000
  H   H2199     1.0  0.53166  0.67640  0.15504  1.0000
  H   H2200     1.0  0.61461  0.79551  0.19603  1.0000
  C   C2767     1.0  0.88398  0.90626  0.19743  1.0000
  C   C2768     1.0  0.55213  0.79890  0.00446  1.0000
  C   C2769     1.0  0.61246  0.96450  0.14015  1.0000
  S   S362      1.0  0.51224  0.73923  0.19928  1.0000
  C   C2770     1.0  0.49809  0.73322  0.03631  1.0000
  H   H2201     1.0  0.61685  0.85618  0.02945  1.0000
  H   H2202     1.0  0.55160  0.94889  0.15071  1.0000
  C   C2771     1.0  0.70704  0.96683  0.09466  1.0000
  C   C2772     1.0  0.96670  0.87671  0.23065  1.0000
  C   C2773     1.0  0.61847  0.88133  0.11225  1.0000
  C   C2774     1.0  0.64063  0.85585  0.13740  1.0000
  C   C2775     1.0  0.50095  0.78754  0.09529  1.0000
  H   H2203     1.0  0.97218  0.91064  0.23200  1.0000
  Fe  Fe178     1.0  0.50012  0.92095  0.04589  1.0000
  H   H2204     1.0  0.62940  0.82234  0.15052  1.0000
  H   H2205     1.0  0.57255  0.87538  0.15595  1.0000
  C   C2776     1.0  0.67855  0.90550  0.15026  1.0000
  H   H2206     1.0  0.55450  0.91381  0.08295  1.0000
  P   P92       1.0  0.65551  0.89928  0.11925  1.0000
  C   C2777     1.0  0.69912  0.91433  0.04941  1.0000
  C   C2778     1.0  0.62639  0.83885  0.13985  1.0000
  C   C2779     1.0  0.54905  0.65829  0.18096  1.0000
  H   H2207     1.0  0.58653  0.88555  0.01494  1.0000
  C   C2780     1.0  0.53832  0.65978  0.16355  1.0000
  H   H2208     1.0  0.60687  0.95837  0.20982  1.0000
  H   H2209     1.0  0.90200  0.94894  0.15553  1.0000
  H   H2210     1.0  0.94249  0.89612  0.19466  1.0000
  H   H2211     1.0  0.57062  0.94849  0.19991  1.0000
  H   H2212     1.0  0.65171  0.88860  0.07751  1.0000
  H   H2213     1.0  0.86866  0.96338  0.04783  1.0000
  C   C2781     1.0  0.56886  0.85021  0.19805  1.0000
  H   H2214     1.0  0.54995  0.78127  0.01230  1.0000
  C   C2782     1.0  0.57480  0.83057  0.99652  1.0000
  H   H2215     1.0  0.69712  0.91008  0.20857  1.0000
  C   C2783     1.0  0.96563  0.88709  0.15136  1.0000
  C   C2784     1.0  0.51962  0.86342  0.21824  1.0000
  H   H2216     1.0  0.94754  0.88671  0.15111  1.0000
  C   C2785     1.0  0.66658  0.89764  0.07481  1.0000
  H   H2217     1.0  0.95081  0.93427  0.20161  1.0000
  H   H2218     1.0  0.69375  0.86179  0.12246  1.0000
  C   C2786     1.0  0.70547  0.92101  0.06626  1.0000
  C   C2787     1.0  0.67252  0.90474  0.09180  1.0000
  C   C2788     1.0  0.96108  0.94725  0.19109  1.0000
  C   C2789     1.0  0.67693  0.89132  0.13637  1.0000
  H   H2219     1.0  0.61499  0.89783  0.10168  1.0000
  C   C2790     1.0  0.63744  0.92511  0.12576  1.0000
  H   H2220     1.0  0.67480  0.89742  0.04060  1.0000
  H   H2221     1.0  0.51655  0.85004  0.16700  1.0000
  C   C2791     1.0  0.97993  0.89484  0.22658  1.0000
  H   H2222     1.0  0.90743  0.97573  0.02985  1.0000
  H   H2223     1.0  0.62195  0.89737  0.04401  1.0000
  C   C2792     1.0  0.66438  0.96331  0.18866  1.0000
  H   H2224     1.0  0.86602  0.93399  0.17734  1.0000
  C   C2793     1.0  0.90546  0.89587  0.20242  1.0000
  C   C2794     1.0  0.69691  0.90071  0.16135  1.0000
  H   H2225     1.0  0.50088  0.93120  0.15241  1.0000
  C   C2795     1.0  0.71658  0.91822  0.22910  1.0000
  H   H2226     1.0  0.95819  0.91933  0.11400  1.0000
  H   H2227     1.0  0.94774  0.94027  0.07937  1.0000
  C   C2796     1.0  0.51604  0.84029  0.22158  1.0000
  H   H2228     1.0  0.50474  0.89635  0.22652  1.0000
  H   H2229     1.0  0.50630  0.84164  0.10950  1.0000
  H   H2230     1.0  0.96668  0.84240  0.22636  1.0000
  H   H2231     1.0  0.62851  0.95656  0.01408  1.0000
  C   C2797     1.0  0.60353  0.82663  0.20871  1.0000
  C   C2798     1.0  0.50229  0.87860  0.22845  1.0000
  H   H2232     1.0  0.69780  0.92118  0.10020  1.0000
  C   C2799     1.0  0.87319  0.97914  0.05018  1.0000
  C   C2800     1.0  0.55405  0.89467  0.21302  1.0000
  C   C2801     1.0  0.69406  0.87234  0.13381  1.0000
  C   C2802     1.0  0.60460  0.86414  0.11439  1.0000
  C   C2803     1.0  0.69606  0.91797  0.22218  1.0000
  C   C2804     1.0  0.69244  0.91597  0.08737  1.0000
  H   H2233     1.0  0.90621  0.88111  0.21566  1.0000
  C   C2805     1.0  0.49959  0.73418  0.01425  1.0000
  C   C2806     1.0  0.92522  0.92347  0.17317  1.0000
  H   H2234     1.0  0.72554  0.85289  0.14300  1.0000
  C   C2807     1.0  0.58737  0.90337  0.06316  1.0000
  C   C2808     1.0  0.66139  0.86303  0.21168  1.0000
  C   C2809     1.0  0.57107  0.80811  0.00699  1.0000
  C   C2810     1.0  0.61823  0.86176  0.01205  1.0000
  H   H2235     1.0  0.56530  0.89833  0.12081  1.0000
  H   H2236     1.0  0.75861  0.97343  0.11895  1.0000
  C   C2811     1.0  0.94459  0.94899  0.09283  1.0000
  S   S363      1.0  0.81405  0.95518  0.19562  1.0000
  C   C2812     1.0  0.51975  0.90511  0.17333  1.0000
  H   H2237     1.0  0.66625  0.92077  0.15212  1.0000
  C   C2813     1.0  0.56112  0.91547  0.20022  1.0000
  H   H2238     1.0  0.63547  0.93125  0.05105  1.0000
  C   C2814     1.0  0.71367  0.88163  0.15896  1.0000
  Fe  Fe179     1.0  0.74032  0.97551  0.16837  1.0000
  C   C2815     1.0  0.55254  0.90004  0.13548  1.0000
  C   C2816     1.0  0.71219  0.86736  0.14527  1.0000
  H   H2239     1.0  0.72817  0.87832  0.16724  1.0000
  C   C2817     1.0  0.92599  0.90451  0.19049  1.0000
  H   H2240     1.0  0.61714  0.82333  0.21802  1.0000
  C   C2818     1.0  0.97132  0.96059  0.20043  1.0000
  H   H2241     1.0  0.97685  0.77857  0.21613  1.0000
  S   S364      1.0  0.52905  0.80065  0.16968  1.0000
  S   S365      1.0  0.53660  0.92076  0.02634  1.0000
  C   C2819     1.0  0.88287  0.92565  0.18076  1.0000
  C   C2820     1.0  0.94651  0.94828  0.13009  1.0000
  C   C2821     1.0  0.60847  0.84294  0.12826  1.0000
  C   C2822     1.0  0.49735  0.86994  0.12611  1.0000
  C   C2823     1.0  0.97304  0.90726  0.15330  1.0000
  C   C2824     1.0  0.58431  0.81495  0.18467  1.0000
  C   C2825     1.0  0.95058  0.93715  0.11253  1.0000
  S   S366      1.0  0.57827  0.87866  0.05972  1.0000
  S   S367      1.0  0.50823  0.88937  0.07053  1.0000
  C   C2826     1.0  0.50186  0.84143  0.17638  1.0000
  H   H2242     1.0  0.68183  0.95536  0.19034  1.0000
  H   H2243     1.0  0.64827  0.84919  0.18969  1.0000
  S   S368      1.0  0.72218  0.95482  0.15414  1.0000
  C   C2827     1.0  0.64468  0.95423  0.20243  1.0000
  H   H2244     1.0  0.50709  0.90786  0.18781  1.0000
  H   H2245     1.0  0.51932  0.96815  0.05606  1.0000
  H   H2246     1.0  0.72030  0.93046  0.06291  1.0000
  Fe  Fe180     1.0  0.49960  0.87038  0.04798  1.0000
  H   H2247     1.0  0.60277  0.97970  0.14554  1.0000
  C   C2828     1.0  0.98142  0.86702  0.15029  1.0000
  S   S369      1.0  0.53589  0.86579  0.02836  1.0000
  Fe  Fe181     1.0  0.78108  0.97735  0.18841  1.0000
  H   H2248     1.0  0.51096  0.82136  0.08027  1.0000
  C   C2829     1.0  0.50486  0.77307  0.02829  1.0000
  C   C2830     1.0  0.61629  0.92372  0.14094  1.0000
  P   P93       1.0  0.95215  0.93265  0.15623  1.0000
  C   C2831     1.0  0.93620  0.97134  0.12765  1.0000
  H   H2249     1.0  0.56886  0.94594  0.09189  1.0000
  C   C2832     1.0  0.58032  0.93562  0.08109  1.0000
  C   C2833     1.0  0.61022  0.90827  0.05409  1.0000
  C   C2834     1.0  0.64559  0.94655  0.11759  1.0000
  H   H2250     1.0  0.66132  0.94826  0.10548  1.0000
  H   H2251     1.0  0.56213  0.91917  0.18293  1.0000
  H   H2252     1.0  0.59759  0.82967  0.12992  1.0000
  Fe  Fe182     1.0  0.50010  0.74126  0.14283  1.0000
  Fe  Fe183     1.0  0.52550  0.89950  0.00734  1.0000
  H   H2253     1.0  0.62452  0.92034  0.19109  1.0000
  C   C2835     1.0  0.64816  0.86424  0.19615  1.0000
  C   C2836     1.0  0.97829  0.96720  0.15534  1.0000
  C   C2837     1.0  0.53236  0.91572  0.13433  1.0000
  H   H2254     1.0  0.52946  0.92605  0.11881  1.0000
  C   C2838     1.0  0.51614  0.91843  0.15327  1.0000
  H   H2255     1.0  0.98167  0.96963  0.13784  1.0000
  C   C2839     1.0  0.60312  0.94060  0.07204  1.0000
  P   P94       1.0  0.54581  0.87395  0.20087  1.0000
  H   H2256     1.0  0.58795  0.94246  0.16001  1.0000
  C   C2840     1.0  0.61790  0.92732  0.05807  1.0000
  C   C2841     1.0  0.60402  0.94337  0.14820  1.0000
  C   C2842     1.0  0.93431  0.97191  0.09058  1.0000
  H   H2257     1.0  0.93245  0.98014  0.14108  1.0000
  C   C2843     1.0  0.70582  0.96051  0.11710  1.0000
  C   C2844     1.0  0.97694  0.85631  0.22353  1.0000
  H   H2258     1.0  0.84447  0.92777  0.22242  1.0000
  C   C2845     1.0  0.84097  0.94469  0.22613  1.0000
  H   H2259     1.0  0.58283  0.79785  0.01712  1.0000
  S   S370      1.0  0.74801  0.96150  0.20150  1.0000
  C   C2846     1.0  0.56409  0.92802  0.23225  1.0000
  S   S371      1.0  0.61309  0.96231  0.07994  1.0000
  C   C2847     1.0  0.52578  0.96994  0.16969  1.0000
  Fe  Fe184     1.0  0.52727  0.71457  0.17695  1.0000
  H   H2260     1.0  0.52878  0.82798  0.21398  1.0000
  H   H2261     1.0  0.51569  0.78200  0.10324  1.0000
  C   C2848     1.0  0.63494  0.90448  0.19695  1.0000
  H   H2262     1.0  0.64978  0.83904  0.00399  1.0000
  H   H2263     1.0  0.51530  0.87115  0.12615  1.0000
  H   H2264     1.0  0.69296  0.96473  0.08777  1.0000
  C   C2849     1.0  0.90340  0.93418  0.16856  1.0000
  C   C2850     1.0  0.55232  0.89063  0.23556  1.0000
  H   H2265     1.0  0.58274  0.80260  0.17543  1.0000
  C   C2851     1.0  0.54008  0.96489  0.15047  1.0000
  H   H2266     1.0  0.52614  0.95796  0.18501  1.0000
  H   H2267     1.0  0.61228  0.92560  0.00508  1.0000
  P   P95       1.0  0.64806  0.92867  0.22319  1.0000
  Fe  Fe185     1.0  0.51779  0.76688  0.16938  1.0000
  C   C2852     1.0  0.60116  0.87836  0.00396  1.0000
  H   H2268     1.0  0.91605  0.97326  0.18081  1.0000
  C   C2853     1.0  0.63322  0.96614  0.12485  1.0000
  H   H2269     1.0  0.88117  0.97740  0.20961  1.0000
  C   C2854     1.0  0.98483  0.97732  0.18732  1.0000
  S   S372      1.0  0.67290  0.97096  0.03241  1.0000
  C   C2855     1.0  0.82547  0.96151  0.21593  1.0000
  C   C2856     1.0  0.50357  0.81737  0.18032  1.0000
  H   H2270     1.0  0.55387  0.83699  0.17663  1.0000
  C   C2857     1.0  0.60214  0.81095  0.19634  1.0000
  H   H2271     1.0  0.86816  0.89933  0.20664  1.0000
  C   C2858     1.0  0.63467  0.88483  0.18905  1.0000
  C   C2859     1.0  0.96430  0.95061  0.16846  1.0000
  H   H2272     1.0  0.58808  0.85781  0.21964  1.0000
  H   H2273     1.0  0.83057  0.97287  0.15213  1.0000
  C   C2860     1.0  0.61360  0.96072  0.00630  1.0000
  C   C2861     1.0  0.58585  0.94892  0.99037  1.0000
  C   C2862     1.0  0.49830  0.80976  0.08233  1.0000
  C   C2863     1.0  0.97776  0.78314  0.23110  1.0000
  C   C2864     1.0  0.72674  0.97538  0.08090  1.0000
  C   C2865     1.0  0.74553  0.97745  0.08966  1.0000
  H   H2274     1.0  0.67166  0.84699  0.21739  1.0000
  C   C2866     1.0  0.49512  0.83288  0.23408  1.0000
  H   H2275     1.0  0.50636  0.78813  0.03411  1.0000
  H   H2276     1.0  0.49726  0.71916  0.00890  1.0000
  H   H2277     1.0  0.58940  0.83765  0.99857  1.0000
  C   C2867     1.0  0.63670  0.85213  0.99771  1.0000
  C   C2868     1.0  0.66133  0.88249  0.21995  1.0000
  C   C2869     1.0  0.50404  0.75449  0.99912  1.0000
  C   C2870     1.0  0.49228  0.85334  0.11666  1.0000
  C   C2871     1.0  0.50067  0.75267  0.04331  1.0000
  C   C2872     1.0  0.53653  0.81234  0.99175  1.0000
  H   H2278     1.0  0.49576  0.83753  0.01130  1.0000
  H   H2279     1.0  0.49942  0.75191  0.06044  1.0000
  H   H2280     1.0  0.73313  0.91047  0.22096  1.0000
  S   S373      1.0  0.49273  0.71132  0.17040  1.0000
  H   H2281     1.0  0.49478  0.71750  0.04809  1.0000
  H   H2282     1.0  0.94248  0.80027  0.23612  1.0000
  H   H2283     1.0  0.51712  0.95654  0.23475  1.0000
  H   H2284     1.0  0.52592  0.69114  0.23959  1.0000
  C   C2873     1.0  0.67460  0.92830  0.23245  1.0000
  H   H2285     1.0  0.55065  0.97607  0.11612  1.0000
  H   H2286     1.0  0.67119  0.88102  0.23242  1.0000
  H   H2287     1.0  0.49206  0.81531  0.23565  1.0000
  C   C2874     1.0  0.52970  0.97868  0.06046  1.0000
  C   C2875     1.0  0.53924  0.98030  0.13073  1.0000
  C   C2876     1.0  0.55327  0.97864  0.05069  1.0000
  C   C2877     1.0  0.85180  0.94959  0.24125  1.0000
  S   S374      1.0  0.91030  0.95588  0.29663  1.0000
  H   H2288     1.0  0.97181  0.72286  0.33260  1.0000
  H   H2289     1.0  0.92619  0.85462  0.36521  1.0000
  S   S375      1.0  0.89054  0.91409  0.28343  1.0000
  H   H2290     1.0  0.59272  0.89164  0.28643  1.0000
  Fe  Fe186     1.0  0.91099  0.91772  0.30725  1.0000
  S   S376      1.0  0.90142  0.89784  0.34147  1.0000
  H   H2291     1.0  0.95598  0.84662  0.28060  1.0000
  Fe  Fe187     1.0  0.94736  0.95474  0.41457  1.0000
  C   C2878     1.0  0.95970  0.80146  0.26158  1.0000
  S   S377      1.0  0.92184  0.92932  0.42114  1.0000
  H   H2292     1.0  0.55520  0.90437  0.26257  1.0000
  C   C2879     1.0  0.94376  0.80782  0.32816  1.0000
  H   H2293     1.0  0.95041  0.79150  0.33717  1.0000
  H   H2294     1.0  0.96654  0.89730  0.37938  1.0000
  C   C2880     1.0  0.95554  0.81706  0.30725  1.0000
  S   S378      1.0  0.92522  0.94691  0.24606  1.0000
  H   H2295     1.0  0.96020  0.76095  0.31089  1.0000
  H   H2296     1.0  0.57351  0.92854  0.29696  1.0000
  C   C2881     1.0  0.89709  0.96742  0.47247  1.0000
  P   P96       1.0  0.96613  0.84696  0.38690  1.0000
  C   C2882     1.0  0.97072  0.86385  0.34245  1.0000
  H   H2297     1.0  0.87375  0.82306  0.41541  1.0000
  H   H2298     1.0  0.98692  0.81480  0.44679  1.0000
  H   H2299     1.0  0.91405  0.81267  0.35387  1.0000
  C   C2883     1.0  0.89866  0.83892  0.38861  1.0000
  S   S379      1.0  0.97606  0.96317  0.26821  1.0000
  C   C2884     1.0  0.91453  0.84142  0.32690  1.0000
  H   H2300     1.0  0.52651  0.65091  0.25944  1.0000
  C   C2885     1.0  0.97556  0.90334  0.32486  1.0000
  C   C2886     1.0  0.95683  0.87026  0.42098  1.0000
  C   C2887     1.0  0.92127  0.84496  0.38157  1.0000
  C   C2888     1.0  0.58754  0.92849  0.28283  1.0000
  H   H2301     1.0  0.97645  0.87625  0.30794  1.0000
  C   C2889     1.0  0.96828  0.97870  0.32824  1.0000
  C   C2890     1.0  0.90689  0.82160  0.42418  1.0000
  P   P97       1.0  0.98261  0.80248  0.29459  1.0000
  C   C2891     1.0  0.96850  0.86935  0.36277  1.0000
  S   S380      1.0  0.97159  0.96525  0.38282  1.0000
  C   C2892     1.0  0.99094  0.77521  0.31143  1.0000
  S   S381      1.0  0.97478  0.94895  0.43469  1.0000
  H   H2302     1.0  0.61900  0.96541  0.24352  1.0000
  C   C2893     1.0  0.92954  0.82759  0.41717  1.0000
  H   H2303     1.0  0.94129  0.82325  0.42844  1.0000
  Fe  Fe188     1.0  0.92530  0.90932  0.26092  1.0000
  C   C2894     1.0  0.90558  0.90905  0.36291  1.0000
  C   C2895     1.0  0.89656  0.89841  0.38417  1.0000
  C   C2896     1.0  0.90137  0.90507  0.40180  1.0000
  C   C2897     1.0  0.91501  0.92274  0.39839  1.0000
  C   C2898     1.0  0.92309  0.93432  0.37716  1.0000
  C   C2899     1.0  0.91835  0.92749  0.35937  1.0000
  H   H2304     1.0  0.88580  0.88491  0.38703  1.0000
  H   H2305     1.0  0.89464  0.89637  0.41814  1.0000
  H   H2306     1.0  0.93303  0.94842  0.37445  1.0000
  H   H2307     1.0  0.92501  0.93610  0.34298  1.0000
  H   H2308     1.0  0.94988  0.89162  0.44472  1.0000
  C   C2900     1.0  0.93688  0.83934  0.39580  1.0000
  C   C2901     1.0  0.87933  0.97349  0.46063  1.0000
  C   C2902     1.0  0.55727  0.90728  0.24512  1.0000
  C   C2903     1.0  0.61649  0.90774  0.25864  1.0000
  C   C2904     1.0  0.59834  0.90774  0.27686  1.0000
  Fe  Fe189     1.0  0.94304  0.94784  0.27273  1.0000
  Fe  Fe190     1.0  0.89235  0.95188  0.27104  1.0000
  H   H2309     1.0  0.97308  0.92659  0.34615  1.0000
  H   H2310     1.0  0.88651  0.84404  0.37768  1.0000
  H   H2311     1.0  0.91974  0.86761  0.29789  1.0000
  H   H2312     1.0  0.54655  0.87485  0.24579  1.0000
  H   H2313     1.0  0.89876  0.85102  0.33441  1.0000
  H   H2314     1.0  0.58687  0.96536  0.27533  1.0000
  H   H2315     1.0  0.93864  0.87233  0.41992  1.0000
  C   C2905     1.0  0.62398  0.92855  0.24624  1.0000
  C   C2906     1.0  0.61319  0.94923  0.25253  1.0000
  C   C2907     1.0  0.92320  0.81989  0.33783  1.0000
  C   C2908     1.0  0.71599  0.92951  0.24580  1.0000
  C   C2909     1.0  0.94690  0.83886  0.29655  1.0000
  C   C2910     1.0  0.59500  0.94922  0.27066  1.0000
  C   C2911     1.0  0.97455  0.88072  0.32357  1.0000
  S   S382      1.0  0.94545  0.90993  0.28563  1.0000
  H   H2316     1.0  0.90121  0.81282  0.44076  1.0000
  H   H2317     1.0  0.96492  0.79660  0.40051  1.0000
  H   H2318     1.0  0.62473  0.89146  0.25448  1.0000
  C   C2912     1.0  0.98146  0.79972  0.38980  1.0000
  H   H2319     1.0  0.99148  0.89048  0.44528  1.0000
  C   C2913     1.0  0.95843  0.79533  0.24237  1.0000
  H   H2320     1.0  0.94448  0.81088  0.26996  1.0000
  H   H2321     1.0  0.69467  0.95028  0.26773  1.0000
  H   H2322     1.0  0.65834  0.94946  0.25621  1.0000
  C   C2914     1.0  0.92641  0.85087  0.30630  1.0000
  C   C2915     1.0  0.97279  0.90903  0.34505  1.0000
  C   C2916     1.0  0.96895  0.89223  0.36397  1.0000
  C   C2917     1.0  0.97648  0.75781  0.31654  1.0000
  C   C2918     1.0  0.98669  0.82224  0.38082  1.0000
  C   C2919     1.0  0.89144  0.82730  0.40990  1.0000
  H   H2323     1.0  0.95654  0.96869  0.34086  1.0000
  C   C2920     1.0  0.69489  0.94060  0.25552  1.0000
  H   H2324     1.0  0.98664  0.92007  0.48115  1.0000
  C   C2921     1.0  0.98047  0.79555  0.26954  1.0000
  C   C2922     1.0  0.51017  0.66224  0.26090  1.0000
  C   C2923     1.0  0.97402  0.85793  0.40752  1.0000
  H   H2325     1.0  0.88116  0.96685  0.44603  1.0000
  C   C2924     1.0  0.96316  0.88148  0.43493  1.0000
  C   C2925     1.0  0.67429  0.94010  0.24885  1.0000
  H   H2326     1.0  0.96959  0.84652  0.34120  1.0000
  C   C2926     1.0  0.98664  0.88086  0.43527  1.0000
  H   H2327     1.0  0.91261  0.95617  0.46696  1.0000
  H   H2328     1.0  0.97812  0.91662  0.31028  1.0000
  H   H2329     1.0  0.73203  0.93047  0.25060  1.0000
  C   C2927     1.0  0.98305  0.73620  0.32874  1.0000
  C   C2928     1.0  0.84680  0.97133  0.24656  1.0000
  S   S383      1.0  0.86194  0.97836  0.26384  1.0000
  H   H2330     1.0  0.56732  0.94117  0.23971  1.0000
  H   H2331     1.0  0.95188  0.95326  0.48047  1.0000
  C   C2929     1.0  0.50996  0.68514  0.24972  1.0000
  S   S384      1.0  0.93716  0.87937  0.24390  1.0000
  H   H2332     1.0  0.86415  0.93662  0.24866  1.0000
  C   C2930     1.0  0.55334  0.81371  0.59734  1.0000
  C   C2931     1.0  0.66629  0.93379  0.65934  1.0000
  H   H2333     1.0  0.64119  0.89589  0.72674  1.0000
  C   C2932     1.0  0.64165  0.90305  0.66851  1.0000
  C   C2933     1.0  0.99037  0.88391  0.49561  1.0000
  C   C2934     1.0  0.52295  0.83138  0.63130  1.0000
  C   C2935     1.0  0.80751  0.97056  0.69613  1.0000
  H   H2334     1.0  0.97454  0.86960  0.73239  1.0000
  C   C2936     1.0  0.94255  0.95886  0.72753  1.0000
  S   S385      1.0  0.96628  0.92955  0.55459  1.0000
  H   H2335     1.0  0.52893  0.78312  0.65489  1.0000
  S   S386      1.0  0.59698  0.90640  0.69360  1.0000
  H   H2336     1.0  0.55608  0.92048  0.63399  1.0000
  S   S387      1.0  0.97857  0.96953  0.59081  1.0000
  H   H2337     1.0  0.98760  0.92007  0.69550  1.0000
  H   H2338     1.0  0.57287  0.88167  0.73831  1.0000
  H   H2339     1.0  0.86109  0.93673  0.61064  1.0000
  S   S388      1.0  0.61413  0.82117  0.63509  1.0000
  H   H2340     1.0  0.70852  0.91905  0.70897  1.0000
  H   H2341     1.0  0.65179  0.78726  0.70757  1.0000
  S   S389      1.0  0.59341  0.67947  0.62267  1.0000
  H   H2342     1.0  0.81244  0.95329  0.66980  1.0000
  Fe  Fe191     1.0  0.52703  0.69428  0.62532  1.0000
  S   S390      1.0  0.54593  0.71222  0.64129  1.0000
  C   C2937     1.0  0.56004  0.83005  0.60605  1.0000
  Fe  Fe192     1.0  0.57298  0.71336  0.61079  1.0000
  S   S391      1.0  0.58876  0.74576  0.59324  1.0000
  Fe  Fe193     1.0  0.56430  0.67690  0.65186  1.0000
  H   H2343     1.0  0.56749  0.94237  0.72278  1.0000
  S   S392      1.0  0.55258  0.69787  0.59361  1.0000
  H   H2344     1.0  0.63068  0.86986  0.63012  1.0000
  H   H2345     1.0  0.49921  0.76192  0.61718  1.0000
  Fe  Fe194     1.0  0.58620  0.87441  0.68794  1.0000
  H   H2346     1.0  0.61456  0.86763  0.73118  1.0000
  C   C2938     1.0  0.55231  0.96980  0.59758  1.0000
  C   C2939     1.0  0.70558  0.88775  0.73310  1.0000
  H   H2347     1.0  0.62008  0.96948  0.73695  1.0000
  P   P98       1.0  0.85095  0.97297  0.63632  1.0000
  H   H2348     1.0  0.53832  0.68828  0.71779  1.0000
  C   C2940     1.0  0.57523  0.95815  0.65584  1.0000
  H   H2349     1.0  0.93544  0.90458  0.72577  1.0000
  H   H2350     1.0  0.57684  0.70236  0.70816  1.0000
  H   H2351     1.0  0.63932  0.88584  0.66787  1.0000
  C   C2941     1.0  0.89506  0.97619  0.49108  1.0000
  C   C2942     1.0  0.60647  0.79920  0.62513  1.0000
  C   C2943     1.0  0.58958  0.78487  0.63701  1.0000
  C   C2944     1.0  0.58430  0.76773  0.62785  1.0000
  C   C2945     1.0  0.59559  0.76530  0.60670  1.0000
  C   C2946     1.0  0.61219  0.77981  0.59500  1.0000
  C   C2947     1.0  0.61779  0.79638  0.60423  1.0000
  H   H2352     1.0  0.58077  0.78689  0.65320  1.0000
  H   H2353     1.0  0.57130  0.75673  0.63694  1.0000
  H   H2354     1.0  0.62090  0.77812  0.57868  1.0000
  H   H2355     1.0  0.63084  0.80727  0.59496  1.0000
  S   S393      1.0  0.55214  0.86454  0.70895  1.0000
  Fe  Fe195     1.0  0.70414  0.97044  0.66065  1.0000
  H   H2356     1.0  0.51176  0.83792  0.64487  1.0000
  H   H2357     1.0  0.56165  0.96435  0.68808  1.0000
  Fe  Fe196     1.0  0.59164  0.83531  0.66347  1.0000
  C   C2948     1.0  0.83637  0.97876  0.66270  1.0000
  H   H2358     1.0  0.61294  0.94947  0.68907  1.0000
  H   H2359     1.0  0.56506  0.66360  0.56008  1.0000
  H   H2360     1.0  0.90172  0.91403  0.67803  1.0000
  C   C2949     1.0  0.56373  0.73357  0.72037  1.0000
  C   C2950     1.0  0.91993  0.92636  0.64551  1.0000
  C   C2951     1.0  0.87936  0.93908  0.65972  1.0000
  H   H2361     1.0  0.65063  0.96451  0.67137  1.0000
  H   H2362     1.0  0.50835  0.68726  0.66676  1.0000
  C   C2952     1.0  0.52677  0.97720  0.72898  1.0000
  H   H2363     1.0  0.97337  0.88485  0.50632  1.0000
  C   C2953     1.0  0.61419  0.90484  0.62265  1.0000
  H   H2364     1.0  0.59290  0.92854  0.57668  1.0000
  C   C2954     1.0  0.62364  0.91662  0.67980  1.0000
  H   H2365     1.0  0.50615  0.71985  0.69289  1.0000
  H   H2366     1.0  0.94445  0.96306  0.67369  1.0000
  C   C2955     1.0  0.56164  0.71255  0.71586  1.0000
  H   H2367     1.0  0.52706  0.79298  0.59902  1.0000
  H   H2368     1.0  0.66727  0.92419  0.70545  1.0000
  C   C2956     1.0  0.94477  0.96898  0.70537  1.0000
  C   C2957     1.0  0.62693  0.93884  0.68062  1.0000
  C   C2958     1.0  0.91818  0.94074  0.62547  1.0000
  H   H2369     1.0  0.67555  0.95834  0.60799  1.0000
  C   C2959     1.0  0.95733  0.94277  0.51340  1.0000
  C   C2960     1.0  0.96417  0.94923  0.53019  1.0000
  H   H2370     1.0  0.93332  0.94154  0.61226  1.0000
  C   C2961     1.0  0.51509  0.77234  0.66115  1.0000
  Fe  Fe197     1.0  0.72867  0.97107  0.69658  1.0000
  H   H2371     1.0  0.95274  0.92568  0.51565  1.0000
  C   C2962     1.0  0.49931  0.81136  0.69506  1.0000
  H   H2372     1.0  0.55034  0.85096  0.63029  1.0000
  H   H2373     1.0  0.94334  0.96890  0.73912  1.0000
  S   S394      1.0  0.51192  0.87535  0.66390  1.0000
  C   C2963     1.0  0.67377  0.90950  0.71666  1.0000
  Fe  Fe198     1.0  0.57020  0.82839  0.71102  1.0000
  C   C2964     1.0  0.66281  0.91175  0.65807  1.0000
  S   S395      1.0  0.54281  0.65882  0.63867  1.0000
  H   H2374     1.0  0.53657  0.74601  0.67934  1.0000
  C   C2965     1.0  0.93919  0.93571  0.73487  1.0000
  C   C2966     1.0  0.63374  0.80090  0.73577  1.0000
  C   C2967     1.0  0.53137  0.80629  0.60551  1.0000
  C   C2968     1.0  0.81831  0.96631  0.67554  1.0000
  H   H2375     1.0  0.93928  0.92239  0.68662  1.0000
  H   H2376     1.0  0.79381  0.93407  0.59841  1.0000
  H   H2377     1.0  0.57733  0.83528  0.60016  1.0000
  Fe  Fe199     1.0  0.54333  0.85979  0.67866  1.0000
  H   H2378     1.0  0.58831  0.96950  0.65278  1.0000
  C   C2969     1.0  0.54402  0.74676  0.72999  1.0000
  H   H2379     1.0  0.49522  0.68908  0.52864  1.0000
  C   C2970     1.0  0.52015  0.71774  0.73084  1.0000
  H   H2380     1.0  0.56556  0.80612  0.58480  1.0000
  C   C2971     1.0  0.62274  0.88290  0.61835  1.0000
  H   H2381     1.0  0.54599  0.76297  0.73349  1.0000
  H   H2382     1.0  0.64396  0.93655  0.60957  1.0000
  C   C2972     1.0  0.60954  0.89398  0.58433  1.0000
  C   C2973     1.0  0.87762  0.95395  0.63975  1.0000
  C   C2974     1.0  0.93962  0.93261  0.69820  1.0000
  H   H2383     1.0  0.93645  0.91613  0.64776  1.0000
  C   C2975     1.0  0.89707  0.95431  0.62256  1.0000
  H   H2384     1.0  0.68319  0.81222  0.69842  1.0000
  S   S396      1.0  0.55836  0.82255  0.68240  1.0000
  H   H2385     1.0  0.50360  0.71106  0.73481  1.0000
  C   C2976     1.0  0.95693  0.95831  0.49351  1.0000
  C   C2977     1.0  0.52196  0.73924  0.73475  1.0000
  H   H2386     1.0  0.52993  0.91502  0.66996  1.0000
  C   C2978     1.0  0.82859  0.93353  0.60334  1.0000
  C   C2979     1.0  0.84260  0.94276  0.61295  1.0000
  C   C2980     1.0  0.57681  0.96697  0.59358  1.0000
  C   C2981     1.0  0.54488  0.83881  0.62308  1.0000
  C   C2982     1.0  0.58918  0.97709  0.57325  1.0000
  S   S397      1.0  0.74195  0.96765  0.66204  1.0000
  C   C2983     1.0  0.56012  0.95516  0.67611  1.0000
  H   H2387     1.0  0.72363  0.88574  0.73466  1.0000
  C   C2984     1.0  0.53990  0.70459  0.72128  1.0000
  C   C2985     1.0  0.91508  0.96784  0.56426  1.0000
  H   H2388     1.0  0.83626  0.92033  0.59402  1.0000
  S   S398      1.0  0.98596  0.93693  0.65058  1.0000
  H   H2389     1.0  0.89604  0.96544  0.60701  1.0000
  H   H2390     1.0  0.60755  0.88959  0.56962  1.0000
  P   P99       1.0  0.59274  0.94984  0.61371  1.0000
  H   H2391     1.0  0.60810  0.97486  0.56973  1.0000
  H   H2392     1.0  0.61559  0.90866  0.63778  1.0000
  S   S399      1.0  0.60500  0.83846  0.69232  1.0000
  C   C2986     1.0  0.54234  0.92734  0.66590  1.0000
  C   C2987     1.0  0.54377  0.93967  0.68119  1.0000
  H   H2393     1.0  0.60799  0.92842  0.72686  1.0000
  C   C2988     1.0  0.89203  0.94087  0.55935  1.0000
  H   H2394     1.0  0.55559  0.64863  0.73115  1.0000
  C   C2989     1.0  0.90903  0.94558  0.56879  1.0000
  C   C2990     1.0  0.51953  0.75129  0.67511  1.0000
  C   C2991     1.0  0.60356  0.92164  0.60768  1.0000
  H   H2395     1.0  0.67670  0.90120  0.64936  1.0000
  C   C2992     1.0  0.62027  0.87740  0.59929  1.0000
  C   C2993     1.0  0.51578  0.81540  0.62234  1.0000
  C   C2994     1.0  0.94287  0.95577  0.69084  1.0000
  C   C2995     1.0  0.63962  0.95446  0.61066  1.0000
  H   H2396     1.0  0.92891  0.97127  0.57097  1.0000
  H   H2397     1.0  0.49459  0.72992  0.51099  1.0000
  S   S400      1.0  0.69321  0.94406  0.64655  1.0000
  H   H2398     1.0  0.90920  0.97157  0.49984  1.0000
  C   C2996     1.0  0.60125  0.91607  0.58844  1.0000
  S   S401      1.0  0.57593  0.87228  0.65744  1.0000
  C   C2997     1.0  0.57378  0.94597  0.64027  1.0000
  C   C2998     1.0  0.83270  0.95966  0.62529  1.0000
  H   H2399     1.0  0.88782  0.92348  0.56248  1.0000
  C   C2999     1.0  0.49673  0.66305  0.58674  1.0000
  H   H2400     1.0  0.52259  0.78170  0.70521  1.0000
  S   S402      1.0  0.74228  0.94508  0.72321  1.0000
  C   C3000     1.0  0.50237  0.73659  0.68290  1.0000
  H   H2401     1.0  0.86456  0.93820  0.67319  1.0000
  C   C3001     1.0  0.69706  0.90660  0.71861  1.0000
  C   C3002     1.0  0.55729  0.93042  0.64554  1.0000
  S   S403      1.0  0.57001  0.66593  0.68601  1.0000
  C   C3003     1.0  0.51164  0.97938  0.71467  1.0000
  C   C3004     1.0  0.93780  0.92256  0.72018  1.0000
  C   C3005     1.0  0.90045  0.92534  0.66255  1.0000
  C   C3006     1.0  0.49335  0.77876  0.65489  1.0000
  H   H2402     1.0  0.55044  0.65661  0.52949  1.0000
  H   H2403     1.0  0.62640  0.86015  0.59635  1.0000
  H   H2404     1.0  0.53258  0.93675  0.69713  1.0000
  C   C3007     1.0  0.80471  0.94129  0.60575  1.0000
  H   H2405     1.0  0.68263  0.84025  0.72078  1.0000
  H   H2406     1.0  0.54227  0.96210  0.61298  1.0000
  Fe  Fe200     1.0  0.57050  0.66380  0.60838  1.0000
  Fe  Fe201     1.0  0.98948  0.94192  0.57114  1.0000
  H   H2407     1.0  0.58061  0.73971  0.71633  1.0000
  C   C3008     1.0  0.64820  0.94739  0.67055  1.0000
  H   H2408     1.0  0.91810  0.93183  0.57911  1.0000
  H   H2409     1.0  0.79309  0.96139  0.70569  1.0000
  C   C3009     1.0  0.66940  0.81334  0.71257  1.0000
  C   C3010     1.0  0.61646  0.96524  0.61309  1.0000
  C   C3011     1.0  0.88113  0.95841  0.54528  1.0000
  H   H2410     1.0  0.51168  0.81755  0.68060  1.0000
  C   C3012     1.0  0.50539  0.79096  0.70918  1.0000
  C   C3013     1.0  0.96969  0.97142  0.52740  1.0000
  H   H2411     1.0  0.49977  0.66078  0.50692  1.0000
  C   C3014     1.0  0.80875  0.96769  0.62725  1.0000
  H   H2412     1.0  0.86835  0.95443  0.53765  1.0000
  H   H2413     1.0  0.49807  0.67558  0.59581  1.0000
  C   C3015     1.0  0.65175  0.79924  0.71774  1.0000
  C   C3016     1.0  0.66899  0.82925  0.72534  1.0000
  C   C3017     1.0  0.79483  0.95844  0.61761  1.0000
  H   H2414     1.0  0.97464  0.97648  0.54047  1.0000
  C   C3018     1.0  0.65897  0.89344  0.72897  1.0000
  H   H2415     1.0  0.77636  0.96471  0.61929  1.0000
  C   C3019     1.0  0.65774  0.96683  0.60970  1.0000
  H   H2416     1.0  0.98700  0.97422  0.71583  1.0000
  S   S404      1.0  0.69132  0.97122  0.69571  1.0000
  H   H2417     1.0  0.49891  0.96763  0.71763  1.0000
  C   C3020     1.0  0.96259  0.98053  0.49073  1.0000
  H   H2418     1.0  0.61982  0.79024  0.73956  1.0000
  C   C3021     1.0  0.57170  0.93951  0.73864  1.0000
  C   C3022     1.0  0.61658  0.88675  0.84332  1.0000
  C   C3023     1.0  0.57607  0.97184  0.98502  1.0000
  C   C3024     1.0  0.68548  0.96020  0.93369  1.0000
  C   C3025     1.0  0.58411  0.87523  0.90026  1.0000
  C   C3026     1.0  0.70171  0.87886  0.90312  1.0000
  S   S405      1.0  0.53714  0.90776  0.97102  1.0000
  C   C3027     1.0  0.50898  0.93328  0.75123  1.0000
  P   P100      1.0  0.64884  0.85291  0.75902  1.0000
  C   C3028     1.0  0.72545  0.95084  0.78609  1.0000
  C   C3029     1.0  0.55272  0.82868  0.77015  1.0000
  H   H2419     1.0  0.67535  0.81530  0.84046  1.0000
  H   H2420     1.0  0.56487  0.84661  0.90566  1.0000
  H   H2421     1.0  0.51560  0.72760  0.78300  1.0000
  C   C3030     1.0  0.56416  0.80721  0.76628  1.0000
  C   C3031     1.0  0.62169  0.87680  0.96710  1.0000
  C   C3032     1.0  0.66912  0.84596  0.81660  1.0000
  H   H2422     1.0  0.69022  0.94175  0.74272  1.0000
  C   C3033     1.0  0.50405  0.76316  0.76990  1.0000
  C   C3034     1.0  0.67478  0.94272  0.75545  1.0000
  C   C3035     1.0  0.60030  0.85251  0.93794  1.0000
  H   H2423     1.0  0.65548  0.80524  0.78405  1.0000
  C   C3036     1.0  0.65082  0.83117  0.74339  1.0000
  H   H2424     1.0  0.51807  0.82563  0.90782  1.0000
  C   C3037     1.0  0.67885  0.97064  0.96897  1.0000
  C   C3038     1.0  0.52401  0.81235  0.92061  1.0000
  C   C3039     1.0  0.55431  0.94324  0.75680  1.0000
  H   H2425     1.0  0.58634  0.95659  0.88151  1.0000
  C   C3040     1.0  0.58220  0.87781  0.75144  1.0000
  H   H2426     1.0  0.54797  0.84188  0.75686  1.0000
  C   C3041     1.0  0.72976  0.94209  0.76708  1.0000
  H   H2427     1.0  0.56197  0.97590  0.97623  1.0000
  C   C3042     1.0  0.49749  0.87929  0.93252  1.0000
  H   H2428     1.0  0.49668  0.80026  0.76019  1.0000
  C   C3043     1.0  0.54057  0.83479  0.98108  1.0000
  C   C3044     1.0  0.59932  0.88513  0.90789  1.0000
  C   C3045     1.0  0.52141  0.89722  0.95633  1.0000
  H   H2429     1.0  0.72732  0.92450  0.76803  1.0000
  H   H2430     1.0  0.50188  0.93417  0.79693  1.0000
  C   C3046     1.0  0.61800  0.95797  0.93324  1.0000
  C   C3047     1.0  0.72923  0.97338  0.78490  1.0000
  C   C3048     1.0  0.67243  0.88807  0.93390  1.0000
  H   H2431     1.0  0.64603  0.93030  0.93406  1.0000
  C   C3049     1.0  0.60708  0.87407  0.92711  1.0000
  C   C3050     1.0  0.68802  0.95476  0.95537  1.0000
  C   C3051     1.0  0.59416  0.96445  0.93378  1.0000
  H   H2432     1.0  0.52210  0.77653  0.81917  1.0000
  H   H2433     1.0  0.49966  0.74431  0.87098  1.0000
  C   C3052     1.0  0.63322  0.81679  0.74855  1.0000
  C   C3053     1.0  0.57975  0.94782  0.93593  1.0000
  H   H2434     1.0  0.68374  0.90886  0.77361  1.0000
  H   H2435     1.0  0.68880  0.87081  0.87771  1.0000
  C   C3054     1.0  0.63839  0.85952  0.97528  1.0000
  H   H2436     1.0  0.62180  0.94759  0.80301  1.0000
  H   H2437     1.0  0.70924  0.88878  0.93037  1.0000
  H   H2438     1.0  0.56116  0.95252  0.93706  1.0000
  H   H2439     1.0  0.65281  0.85190  0.96439  1.0000
  H   H2440     1.0  0.60471  0.90158  0.89899  1.0000
  C   C3055     1.0  0.52066  0.91246  0.74582  1.0000
  S   S406      1.0  0.54035  0.81733  0.83619  1.0000
  H   H2441     1.0  0.53684  0.84885  0.79446  1.0000
  C   C3056     1.0  0.54632  0.83258  0.79150  1.0000
  C   C3057     1.0  0.49974  0.95262  0.79583  1.0000
  H   H2442     1.0  0.98079  0.88872  0.76026  1.0000
  C   C3058     1.0  0.49754  0.95910  0.97906  1.0000
  C   C3059     1.0  0.65804  0.84057  0.78443  1.0000
  C   C3060     1.0  0.54062  0.79396  0.91544  1.0000
  C   C3061     1.0  0.54860  0.77722  0.93202  1.0000
  C   C3062     1.0  0.53977  0.77877  0.95375  1.0000
  C   C3063     1.0  0.52252  0.79683  0.95906  1.0000
  H   H2443     1.0  0.62916  0.97081  0.93187  1.0000
  C   C3064     1.0  0.65908  0.96291  0.75483  1.0000
  C   C3065     1.0  0.65180  0.92594  0.78979  1.0000
  C   C3066     1.0  0.59476  0.93165  0.74085  1.0000
  Fe  Fe202     1.0  0.68737  0.94902  0.88419  1.0000
  C   C3067     1.0  0.51788  0.88910  0.92218  1.0000
  C   C3068     1.0  0.63980  0.96492  0.77195  1.0000
  S   S407      1.0  0.55418  0.92553  0.83758  1.0000
  Fe  Fe203     1.0  0.53066  0.89853  0.84577  1.0000
  H   H2444     1.0  0.52674  0.73623  0.81447  1.0000
  C   C3069     1.0  0.69580  0.88511  0.92334  1.0000
  C   C3070     1.0  0.50236  0.78596  0.77222  1.0000
  H   H2445     1.0  0.54735  0.94035  0.79173  1.0000
  H   H2446     1.0  0.53946  0.97867  0.80197  1.0000
  H   H2447     1.0  0.62734  0.93753  0.85078  1.0000
  H   H2448     1.0  0.54752  0.79293  0.89857  1.0000
  H   H2449     1.0  0.56187  0.76323  0.92799  1.0000
  H   H2450     1.0  0.54665  0.76610  0.96640  1.0000
  C   C3071     1.0  0.51948  0.75002  0.80290  1.0000
  C   C3072     1.0  0.63621  0.94628  0.78943  1.0000
  H   H2451     1.0  0.52457  0.88971  0.90506  1.0000
  C   C3073     1.0  0.52980  0.89804  0.93408  1.0000
  C   C3074     1.0  0.69088  0.87161  0.74544  1.0000
  H   H2452     1.0  0.93769  0.92798  0.75193  1.0000
  S   S408      1.0  0.56934  0.80008  0.74063  1.0000
  H   H2453     1.0  0.61858  0.92126  0.76283  1.0000
  H   H2454     1.0  0.50474  0.75502  0.98217  1.0000
  H   H2455     1.0  0.64930  0.91177  0.80351  1.0000
  C   C3075     1.0  0.58282  0.87537  0.78911  1.0000
  H   H2456     1.0  0.58721  0.94883  0.84568  1.0000
  H   H2457     1.0  0.58352  0.88086  0.83840  1.0000
  C   C3076     1.0  0.58350  0.93080  0.77934  1.0000
  H   H2458     1.0  0.55211  0.88654  0.77543  1.0000
  C   C3077     1.0  0.59525  0.93152  0.84506  1.0000
  C   C3078     1.0  0.51315  0.74523  0.78509  1.0000
  Fe  Fe204     1.0  0.69938  0.96711  0.83591  1.0000
  Fe  Fe205     1.0  0.67026  0.92793  0.85297  1.0000
  H   H2459     1.0  0.56832  0.78063  0.81802  1.0000
  H   H2460     1.0  0.66818  0.89376  0.94919  1.0000
  H   H2461     1.0  0.60635  0.84350  0.95256  1.0000
  H   H2462     1.0  0.57913  0.77361  0.78063  1.0000
  H   H2463     1.0  0.62496  0.86947  0.84241  1.0000
  C   C3079     1.0  0.50904  0.79063  0.78985  1.0000
  C   C3080     1.0  0.58516  0.84261  0.93018  1.0000
  H   H2464     1.0  0.54567  0.90535  0.92604  1.0000
  H   H2465     1.0  0.58804  0.92727  0.79516  1.0000
  H   H2466     1.0  0.57954  0.82621  0.93886  1.0000
  C   C3081     1.0  0.62907  0.90283  0.84672  1.0000
  C   C3082     1.0  0.67058  0.82229  0.82483  1.0000
  H   H2467     1.0  0.67267  0.85733  0.82588  1.0000
  H   H2468     1.0  0.61565  0.86365  0.79857  1.0000
  H   H2469     1.0  0.55896  0.92908  0.88327  1.0000
  C   C3083     1.0  0.56033  0.93831  0.77727  1.0000
  H   H2470     1.0  0.64772  0.87543  0.89620  1.0000
  C   C3084     1.0  0.58929  0.92494  0.93640  1.0000
  C   C3085     1.0  0.55144  0.81506  0.80890  1.0000
  C   C3086     1.0  0.60271  0.88564  0.98164  1.0000
  H   H2471     1.0  0.51706  0.93779  0.89777  1.0000
  H   H2472     1.0  0.57770  0.88411  0.88577  1.0000
  C   C3087     1.0  0.62753  0.93488  0.93438  1.0000
  P   P101      1.0  0.62458  0.88809  0.93830  1.0000
  C   C3088     1.0  0.66087  0.87792  0.90420  1.0000
  H   H2473     1.0  0.52012  0.96479  0.94787  1.0000
  C   C3089     1.0  0.65475  0.88439  0.92447  1.0000
  C   C3090     1.0  0.68427  0.87518  0.89361  1.0000
  C   C3091     1.0  0.61329  0.91825  0.93532  1.0000
  H   H2474     1.0  0.57777  0.91236  0.93814  1.0000
  C   C3092     1.0  0.66571  0.80772  0.81297  1.0000
  H   H2475     1.0  0.56237  0.86140  0.97555  1.0000
  H   H2476     1.0  0.52913  0.84519  0.97070  1.0000
  H   H2477     1.0  0.71974  0.87747  0.89458  1.0000
  H   H2478     1.0  0.69796  0.85688  0.75627  1.0000
  C   C3093     1.0  0.57690  0.85407  0.91147  1.0000
  C   C3094     1.0  0.60673  0.86769  0.78514  1.0000
  C   C3095     1.0  0.66279  0.85509  0.79654  1.0000
  C   C3096     1.0  0.50218  0.96483  0.95638  1.0000
  H   H2479     1.0  0.50103  0.84466  0.81710  1.0000
  C   C3097     1.0  0.59322  0.89322  0.84092  1.0000
  H   H2480     1.0  0.69730  0.93835  0.96158  1.0000
  P   P102      1.0  0.52491  0.95520  0.75347  1.0000
  Fe  Fe206     1.0  0.52248  0.85132  0.84414  1.0000
  S   S409      1.0  0.65234  0.94165  0.88266  1.0000
  C   C3098     1.0  0.56415  0.79420  0.80472  1.0000
  C   C3099     1.0  0.61853  0.86494  0.76420  1.0000
  S   S410      1.0  0.53542  0.86456  0.86829  1.0000
  S   S411      1.0  0.52096  0.88489  0.82031  1.0000
  C   C3100     1.0  0.57027  0.79021  0.78355  1.0000
  C   C3101     1.0  0.61812  0.92503  0.84799  1.0000
  C   C3102     1.0  0.58270  0.91582  0.84155  1.0000
  C   C3103     1.0  0.60072  0.92750  0.76114  1.0000
  S   S412      1.0  0.70606  0.93191  0.85636  1.0000
  C   C3104     1.0  0.67117  0.92424  0.77292  1.0000
  H   H2481     1.0  0.71976  0.93999  0.80169  1.0000
  C   C3105     1.0  0.55244  0.94501  0.88892  1.0000
  H   H2482     1.0  0.57375  0.87732  0.80528  1.0000
  C   C3106     1.0  0.57060  0.88054  0.77226  1.0000
  C   C3107     1.0  0.66739  0.87439  0.74356  1.0000
  S   S413      1.0  0.69826  0.94071  0.91658  1.0000
  P   P103      1.0  0.51308  0.80030  0.98686  1.0000
  S   S414      1.0  0.65871  0.89614  0.84801  1.0000
  H   H2483     1.0  0.66256  0.97740  0.74149  1.0000
  H   H2484     1.0  0.66132  0.87352  0.79059  1.0000
  C   C3108     1.0  0.55957  0.84390  0.98357  1.0000
  H   H2485     1.0  0.58899  0.89818  0.97590  1.0000
  C   C3109     1.0  0.52862  0.95001  0.89722  1.0000
  H   H2486     1.0  0.66668  0.78938  0.81943  1.0000
  C   C3110     1.0  0.73692  0.95617  0.74686  1.0000
  C   C3111     1.0  0.51703  0.77271  0.80548  1.0000
  H   H2487     1.0  0.49850  0.71015  0.85627  1.0000
  C   C3112     1.0  0.65938  0.81680  0.79286  1.0000
  C   C3113     1.0  0.60601  0.86998  0.74741  1.0000
  C   C3114     1.0  0.56780  0.96051  0.88781  1.0000
  H   H2488     1.0  0.61878  0.81814  0.76218  1.0000
  S   S415      1.0  0.66516  0.96188  0.83009  1.0000
  C   C3115     1.0  0.51523  0.81394  0.94228  1.0000
  C   C3116     1.0  0.50082  0.88774  0.96656  1.0000
  C   C3117     1.0  0.52009  0.97048  0.90480  1.0000
  H   H2489     1.0  0.49418  0.88705  0.98369  1.0000
  P   P104      1.0  0.49664  0.75674  0.74674  1.0000
  C   C3118     1.0  0.50907  0.96726  0.77660  1.0000
  Fe  Fe207     1.0  0.49754  0.87292  0.88249  1.0000
  H   H2490     1.0  0.50892  0.80826  0.79086  1.0000
  H   H2491     1.0  0.50305  0.82878  0.94586  1.0000
  C   C3119     1.0  0.74004  0.97892  0.74565  1.0000
  Fe  Fe208     1.0  0.64988  0.97595  0.86019  1.0000
  H   H2492     1.0  0.51181  0.95467  0.98771  1.0000
  H   H2493     1.0  0.57903  0.93553  0.98600  1.0000
  H   H2494     1.0  0.68108  0.96647  0.98560  1.0000
  H   H2495     1.0  0.53946  0.90921  0.74263  1.0000
  C   C3120     1.0  0.50799  0.89559  0.74446  1.0000
  S   S416      1.0  0.49389  0.90822  0.86198  1.0000
  H   H2496     1.0  0.51685  0.87917  0.74115  1.0000
