data_image0
_chemical_formula_structural       SFeS2FeS2Fe2S4FeS2FeS2FeSFeS3C4H2C6H4C6H4CHC2HC5H4C6H4C3H2C4HC3PC11H5C2H3CH7CH2CH2C7HC3HCHCH3CH3PH2CHC2H5C5HCPCHC4HCHCH2CHCHC4HC3PHC2H2C3H2C2HCHCH2CH5C3HC4PC14H2CH2FeCH12C3H2CHC4HC2HCHPHCHC2HC2H4C6H4C2H2C3H2CHCH2CHC4HCHC2H2SH2CHC2H3CHCSC2HCHSFeS2FeS2FeSFeS4FeSCFeS2FeSFeS2CHCHFeHC3HC7H4C6H4C6H4C3HCHCH2C3HC5PHC6H4C8SH10CH5C3H2CHC5H5C2H2C3HCH5CHCH2CHC2HCH2C5HC5HCHCH2CH2CHC3HC6PC4HC2HC2HC2H5CH3CPHCHC3HPHC3H2C2HPC16HCHC4H5C2H8C2H6C4PH2CH3C7H2CH2CSH2C3H3C2H2C3SFeS2FeS2FeSFeS3FeS2FeS2FeSCS3C3H2C5H2C6H4C6H4C6H4CH2C3H3C8H2CH2C8HC2H3C2HFeH4CH3CHC2HC2HC2HC3H2CHCH2CH4C3H4C2HCH2C3PC7HC5HC2H7CHC4FePCPC2HCHC4H2CH3CH2CHC3H2SH2C2H5PC5H2C5HCH2C2H3PCH2C7H4CHC2HC3H2C7HC5H2CHC2HCH4PCPH4CH2FeCH2SH3CHC2H2CSFeS2FeSFeS4FeS2FeS2FeSFeS4C6H4C6H4C3HC5H3C7H4C3HCHC3H3C6H2C2H3C7PC7HC8H9CHCH6PC4H2CHCH3CHCHCHC2FeHCHC2HCH2C2PC6HCHC7H3C2H2C2H9C4H2C2HCH2CHC6HC3HC2H2CHCHC2H2PHC2H3C2HCHCH3C2H5PC4HCHC11H2C2H3C2H13CHCPH5C2H2CHC2H2PCHC6HC4HCHC4HCHC2HC3SFeS2FeSFeSCSH2FeS4FeS2FeSFeSFeS4C6H4C6H6C6H3C7H7C3HCFeC4PHC9PHC2H6C2HC3H2CHC2H4C2HC3HC2H2C2H4CH2C4HC2H6C3HC2H2C3HC2PC2HC3H2CSC2HCHC2HCH2PCHC5PC14H2C3H15CHSHC2H2C2H2C4H2C2H2SCHC3HC3HC2HFeCH2C11HC2H3CH2FeH6CHCHCSHCHC2HCH3C3H2CHC2HC3SHC2H2CH3C2SFeSFeS2FeSFeS5HFeS2HFeS2FeS2FeSCS2HC6H5CHC6H4C6H4C6H4CHFeH2CHCSCH3C7HC8PC18H20CHCH2C2HC2HC2HPC7PH2C5HC2H6C2H6FeH3SHCHC2HC4H3C3HC3HFeC2H3CH2CH2CH2CH2CHC6PC18H5C2H12CHC3H5C5HC2FeC5HCHCHSH3CFeH3C5H2PHC2H2CH2CHSH4CFeS2FeS2FeSFeS2FeS2FeS2FeSFeS3CFeS2HS2HCHC6H4C6H5CHCHC6H4C6H3C9PC9H2C7H5CH6C2H8C4HC4HC3H3CHC2PC2PC3H4C7HC2H4CH7C2H2CHCH2SC5HFeCH2C5H2CH4C3H4C4HC4HC2P2H7C5HC2H2CFeH2CH2CHC2HCHCH3CHC2H2C3HCHC4HC2H2FePC3H2C3PHCHC8HCHCH2C4H5C6H3CH5SCH2C3HCHC3HSC2H2CHCSHFeS2FeS2Fe2S3FeSFeS2FeSFeS3FeS4HC2HC3HC3H2C6H5C6H4C6H4C6H5CH4C5SHC2H6FeHCHC5PC2FeC10HCH7CHC3HC3H5CHCHPC8H4CH4CH8C3H3C5HCHC3H3CHC2HC3PC4HCHCH3C2H2C3PC21HCHCH6PH6CHC3HSHC4H3C2HCHC6HCH3C2H7C4H2CH2C3PHC4H2C4H2CHSC3SHCH3C2HCH4SC2H4C5FeHSFeS2H2S2HFeS2FeS2FeSFeS3FeS2CFeSFeS3C2HC2H2CHCHC8HC2H3CPC2H2C6H5CH3C6H4C2HCH2CHC2H2PCH2CH2C5HC8HCH3CHCH10C4H2C6PC12H2CH8CH4C12H7SH2C2H2C2H2C2HC4HFeH2SHC3SPC14H3CHCH7CH6C2H7C2H2CHC3H3FeCHC3H2C2SFeS2FeS2FeSFeS3FeHSFeCSFeHSHCHCH2FeS2H4FeS3HC2SH3C2H2CH4CHC3HCSC2HC6H5CHC6H3C2H2CHCHC4HSC2HPHSCHC4H2C5HC2H6FeH4C2H2CHCHPCH3SC2HCHCH3C6H2C4HCFeHC2H4CH2CHCH2CHCHC4PC4HC13HC2PHC4H2C3HC2HCH2C2HC2HC2SHC2HC2HC6HCFeHFeS2FeHFeS3HC2SC2SHSFeSFeHSCFeS2FeS2FeSFeS4C6H4C2HCH2C7H5CHCSCH5C4H3C2HCH5CHC3H2CH4CHCHC2HFeHCHCHC7H6C7PC7HSC5HCH5CH3CHCH5CH4CHC2HC4HCH2C4PC9HC8HCH15C6PC2H2C4HCH6CHC5H3C3H2CHSH2C3HC2HC4H3SH3FeS2FeSFeHS2HFeS2FeS2FeSFeS4HSCSFeSFeS3CSCH2C6H4C6H4CHC2H2C5H4CHCH4C2HCHC2H2C6PHC8H2C2H2C3HCHCH7CHCHFeH2CHC3H2CFeCHCHC3PC3H2C7H3CH6C2HCH7CH3CHCHC2HCHC2H3CH2C4HC2HPC13H2CH7C3H5C8PC3HC13H5CHC3H2CH3CHC2HCH2SC2SH2FeC5
_chemical_formula_sum              "S256 Fe128 C1920 H1536 P64"
_cell_length_a       51.4854
_cell_length_b       51.5836
_cell_length_c       28.7421
_cell_angle_alpha    89.6999
_cell_angle_beta     89.7986
_cell_angle_gamma    88.1219

_space_group_name_H-M_alt    "P 1"
_space_group_IT_number       1

loop_
  _space_group_symop_operation_xyz
  'x, y, z'

loop_
  _atom_site_type_symbol
  _atom_site_label
  _atom_site_symmetry_multiplicity
  _atom_site_fract_x
  _atom_site_fract_y
  _atom_site_fract_z
  _atom_site_occupancy
  S   S1        1.0  0.05004  0.35113  0.40228  1.0000
  Fe  Fe1       1.0  0.15137  0.07099  0.33758  1.0000
  S   S2        1.0  0.12229  0.07976  0.39511  1.0000
  S   S3        1.0  0.15282  0.02982  0.30644  1.0000
  Fe  Fe2       1.0  0.17204  0.12658  0.34200  1.0000
  S   S4        1.0  0.14438  0.13874  0.39883  1.0000
  S   S5        1.0  0.20022  0.15504  0.31054  1.0000
  Fe  Fe3       1.0  0.15454  0.10040  0.43192  1.0000
  Fe  Fe4       1.0  0.11500  0.11744  0.35726  1.0000
  S   S6        1.0  0.07836  0.13965  0.33668  1.0000
  S   S7        1.0  0.18429  0.08889  0.37718  1.0000
  S   S8        1.0  0.14201  0.10767  0.29814  1.0000
  S   S9        1.0  0.14799  0.42320  0.01299  1.0000
  Fe  Fe5       1.0  0.20907  0.34590  0.23560  1.0000
  S   S10       1.0  0.22409  0.37507  0.28649  1.0000
  S   S11       1.0  0.20913  0.34717  0.15572  1.0000
  Fe  Fe6       1.0  0.19172  0.30940  0.31411  1.0000
  S   S12       1.0  0.20432  0.33623  0.37056  1.0000
  S   S13       1.0  0.16872  0.27441  0.33495  1.0000
  Fe  Fe7       1.0  0.18685  0.36791  0.32565  1.0000
  S   S14       1.0  0.15879  0.39907  0.35273  1.0000
  Fe  Fe8       1.0  0.24057  0.34081  0.32804  1.0000
  S   S15       1.0  0.28146  0.33307  0.35857  1.0000
  S   S16       1.0  0.17130  0.34090  0.27280  1.0000
  S   S17       1.0  0.22871  0.31198  0.27346  1.0000
  C   C1        1.0  0.01387  0.43278  0.21002  1.0000
  C   C2        1.0  0.29639  0.34001  0.41291  1.0000
  C   C3        1.0  0.32004  0.32706  0.42446  1.0000
  C   C4        1.0  0.20033  0.06514  0.14888  1.0000
  H   H1        1.0  0.17702  0.31277  0.44416  1.0000
  H   H2        1.0  0.07279  0.11826  0.43535  1.0000
  C   C5        1.0  0.16461  0.40129  0.05187  1.0000
  C   C6        1.0  0.17649  0.37794  0.03714  1.0000
  C   C7        1.0  0.18989  0.36163  0.06939  1.0000
  C   C8        1.0  0.19127  0.36817  0.11687  1.0000
  C   C9        1.0  0.17900  0.39132  0.13169  1.0000
  C   C10       1.0  0.16600  0.40781  0.09928  1.0000
  H   H3        1.0  0.17568  0.37260  0.00084  1.0000
  H   H4        1.0  0.19932  0.34383  0.05745  1.0000
  H   H5        1.0  0.18000  0.39678  0.16791  1.0000
  H   H6        1.0  0.15713  0.42589  0.11087  1.0000
  C   C11       1.0  0.19078  0.18832  0.31338  1.0000
  C   C12       1.0  0.20746  0.20736  0.29672  1.0000
  C   C13       1.0  0.20081  0.23397  0.30179  1.0000
  C   C14       1.0  0.17746  0.24160  0.32374  1.0000
  C   C15       1.0  0.16068  0.22256  0.33935  1.0000
  C   C16       1.0  0.16721  0.19613  0.33396  1.0000
  H   H7        1.0  0.22577  0.20154  0.28075  1.0000
  H   H8        1.0  0.21390  0.24852  0.28950  1.0000
  H   H9        1.0  0.14249  0.22825  0.35596  1.0000
  H   H10       1.0  0.15383  0.18187  0.34560  1.0000
  C   C17       1.0  0.00803  0.04513  0.16019  1.0000
  H   H11       1.0  0.01756  0.15761  0.42019  1.0000
  C   C18       1.0  0.07859  0.02825  0.30025  1.0000
  C   C19       1.0  0.31742  0.22397  0.31148  1.0000
  H   H12       1.0  0.13684  0.20954  0.07160  1.0000
  C   C20       1.0  0.02003  0.27924  0.22437  1.0000
  C   C21       1.0  0.02609  0.14499  0.32713  1.0000
  C   C22       1.0  0.04669  0.12782  0.33872  1.0000
  C   C23       1.0  0.04143  0.10242  0.35244  1.0000
  C   C24       1.0  0.07540  0.40913  0.01441  1.0000
  H   H13       1.0  0.11170  0.11513  0.15535  1.0000
  H   H14       1.0  0.02998  0.16474  0.31706  1.0000
  H   H15       1.0  0.05724  0.08901  0.36146  1.0000
  H   H16       1.0  0.21656  0.25732  0.38432  1.0000
  C   C25       1.0  0.07970  0.36543  0.38791  1.0000
  C   C26       1.0  0.10172  0.34913  0.38165  1.0000
  C   C27       1.0  0.12583  0.35944  0.37050  1.0000
  C   C28       1.0  0.12826  0.38623  0.36593  1.0000
  C   C29       1.0  0.10634  0.40274  0.37298  1.0000
  C   C30       1.0  0.08201  0.39234  0.38370  1.0000
  H   H17       1.0  0.10012  0.32834  0.38503  1.0000
  H   H18       1.0  0.14260  0.34653  0.36580  1.0000
  H   H19       1.0  0.10813  0.42350  0.36969  1.0000
  H   H20       1.0  0.06515  0.40506  0.38887  1.0000
  C   C31       1.0  0.15064  0.01661  0.24915  1.0000
  C   C32       1.0  0.14736  0.03194  0.20907  1.0000
  C   C33       1.0  0.14759  0.02030  0.16448  1.0000
  H   H21       1.0  0.14526  0.05279  0.21228  1.0000
  H   H22       1.0  0.14569  0.03243  0.13378  1.0000
  C   C34       1.0  0.08606  0.17177  0.10009  1.0000
  C   C35       1.0  0.10874  0.18565  0.10533  1.0000
  C   C36       1.0  0.01782  0.04656  0.20567  1.0000
  C   C37       1.0  0.02019  0.41400  0.24364  1.0000
  H   H23       1.0  0.03108  0.10186  0.19309  1.0000
  C   C38       1.0  0.05529  0.39176  0.01071  1.0000
  C   C39       1.0  0.02611  0.38161  0.18305  1.0000
  C   C40       1.0  0.02670  0.38857  0.23022  1.0000
  P   P1        1.0  0.03626  0.34929  0.16565  1.0000
  C   C41       1.0  0.02447  0.34199  0.10831  1.0000
  C   C42       1.0  0.07129  0.34853  0.16774  1.0000
  C   C43       1.0  0.08546  0.36164  0.13354  1.0000
  C   C44       1.0  0.11264  0.36108  0.13484  1.0000
  C   C45       1.0  0.12580  0.34786  0.17070  1.0000
  C   C46       1.0  0.11176  0.33550  0.20563  1.0000
  C   C47       1.0  0.08461  0.33606  0.20451  1.0000
  C   C48       1.0  0.04056  0.32916  0.07557  1.0000
  C   C49       1.0  0.00344  0.06044  0.23947  1.0000
  C   C50       1.0  0.06147  0.01376  0.37418  1.0000
  C   C51       1.0  0.01550  0.09447  0.35474  1.0000
  H   H24       1.0  0.26773  0.36844  0.43594  1.0000
  H   H25       1.0  0.32185  0.31050  0.99086  1.0000
  H   H26       1.0  0.01101  0.06296  0.27417  1.0000
  H   H27       1.0  0.00590  0.18229  0.10740  1.0000
  H   H28       1.0  0.03768  0.44961  0.35117  1.0000
  C   C52       1.0  0.03728  0.01035  0.35353  1.0000
  C   C53       1.0  0.31166  0.26970  0.32871  1.0000
  H   H29       1.0  0.04308  0.31242  0.00699  1.0000
  H   H30       1.0  0.10111  0.02480  0.36305  1.0000
  H   H31       1.0  0.30484  0.12132  0.20857  1.0000
  C   C54       1.0  0.06592  0.47391  0.38260  1.0000
  H   H32       1.0  0.03224  0.37437  0.25667  1.0000
  H   H33       1.0  0.07555  0.37214  0.10573  1.0000
  H   H34       1.0  0.12361  0.37080  0.10796  1.0000
  H   H35       1.0  0.14690  0.34729  0.17154  1.0000
  H   H36       1.0  0.12192  0.32549  0.23376  1.0000
  H   H37       1.0  0.07419  0.32687  0.23259  1.0000
  H   H38       1.0  0.06065  0.32411  0.08344  1.0000
  C   C55       1.0  0.15316  0.12802  0.07545  1.0000
  H   H39       1.0  0.07723  0.04202  0.13016  1.0000
  H   H40       1.0  0.14132  0.28294  0.43165  1.0000
  C   C56       1.0  0.00884  0.19186  0.46050  1.0000
  H   H41       1.0  0.16869  0.47412  0.10492  1.0000
  H   H42       1.0  0.02007  0.10277  0.04788  1.0000
  C   C57       1.0  0.15696  0.42566  0.47202  1.0000
  C   C58       1.0  0.16541  0.49261  0.03836  1.0000
  C   C59       1.0  0.30021  0.26354  0.37126  1.0000
  C   C60       1.0  0.09153  0.47160  0.29676  1.0000
  C   C61       1.0  0.06879  0.45798  0.30361  1.0000
  C   C62       1.0  0.20142  0.06024  0.19670  1.0000
  C   C63       1.0  0.02214  0.32462  0.20166  1.0000
  H   H43       1.0  0.14081  0.38837  0.46138  1.0000
  C   C64       1.0  0.00117  0.16020  0.99124  1.0000
  C   C65       1.0  0.11908  0.19906  0.06757  1.0000
  C   C66       1.0  0.08378  0.18520  0.01922  1.0000
  H   H44       1.0  0.08472  0.13868  0.97993  1.0000
  C   C67       1.0  0.16838  0.16440  0.00913  1.0000
  H   H45       1.0  0.10137  0.47099  0.26349  1.0000
  C   C68       1.0  0.15861  0.45233  0.26374  1.0000
  H   H46       1.0  0.00884  0.44078  0.13715  1.0000
  H   H47       1.0  0.11489  0.20879  0.99486  1.0000
  H   H48       1.0  0.19038  0.46828  0.38011  1.0000
  C   C69       1.0  0.02585  0.11942  0.17426  1.0000
  H   H49       1.0  0.09505  0.03456  0.27999  1.0000
  H   H50       1.0  0.24840  0.29169  0.39184  1.0000
  H   H51       1.0  0.14712  0.11377  0.10064  1.0000
  P   P2        1.0  0.04412  0.15352  0.04949  1.0000
  H   H52       1.0  0.05543  0.47506  0.41528  1.0000
  H   H53       1.0  0.32368  0.28327  0.15647  1.0000
  C   C70       1.0  0.00035  0.13717  0.32997  1.0000
  H   H54       1.0  0.29376  0.27898  0.39438  1.0000
  C   C71       1.0  0.30431  0.13286  0.24001  1.0000
  C   C72       1.0  0.32730  0.14235  0.25803  1.0000
  H   H55       1.0  0.28971  0.33522  0.25782  1.0000
  H   H56       1.0  0.20310  0.04928  0.12458  1.0000
  H   H57       1.0  0.16023  0.42891  0.43527  1.0000
  H   H58       1.0  0.09546  0.40225  0.01136  1.0000
  H   H59       1.0  0.11830  0.18602  0.13871  1.0000
  C   C73       1.0  0.04065  0.48164  0.10289  1.0000
  C   C74       1.0  0.06974  0.43552  0.02136  1.0000
  C   C75       1.0  0.00762  0.13696  0.19337  1.0000
  C   C76       1.0  0.05573  0.45954  0.34623  1.0000
  C   C77       1.0  0.18006  0.16373  0.05307  1.0000
  H   H60       1.0  0.19353  0.24106  0.45392  1.0000
  C   C78       1.0  0.19577  0.09046  0.13245  1.0000
  P   P3        1.0  0.03685  0.47817  0.04076  1.0000
  C   C79       1.0  0.13331  0.43926  0.19764  1.0000
  H   H61       1.0  0.02790  0.25951  0.22312  1.0000
  C   C80       1.0  0.02033  0.19980  0.01741  1.0000
  C   C81       1.0  0.16145  0.47683  0.24358  1.0000
  C   C82       1.0  0.02054  0.17253  0.01624  1.0000
  C   C83       1.0  0.09629  0.07802  0.13844  1.0000
  H   H62       1.0  0.12658  0.11526  0.02314  1.0000
  C   C84       1.0  0.10166  0.48610  0.33290  1.0000
  H   H63       1.0  0.08571  0.44863  0.02398  1.0000
  C   C85       1.0  0.00060  0.15963  0.16911  1.0000
  H   H64       1.0  0.07441  0.18516  0.98550  1.0000
  H   H65       1.0  0.20471  0.04059  0.20948  1.0000
  C   C86       1.0  0.14915  0.14691  0.99837  1.0000
  H   H66       1.0  0.07856  0.16140  0.12981  1.0000
  C   C87       1.0  0.02011  0.40072  0.14944  1.0000
  H   H67       1.0  0.32859  0.31305  0.40059  1.0000
  C   C88       1.0  0.13867  0.29904  0.45557  1.0000
  C   C89       1.0  0.01166  0.16465  0.12556  1.0000
  C   C90       1.0  0.22593  0.19332  0.41172  1.0000
  C   C91       1.0  0.22324  0.17379  0.44497  1.0000
  H   H68       1.0  0.00055  0.13926  0.99036  1.0000
  C   C92       1.0  0.26850  0.16077  0.43438  1.0000
  C   C93       1.0  0.27149  0.18069  0.40151  1.0000
  C   C94       1.0  0.24984  0.19662  0.38965  1.0000
  P   P4        1.0  0.30207  0.18404  0.37130  1.0000
  H   H69       1.0  0.02126  0.00341  0.37413  1.0000
  C   C95       1.0  0.30286  0.16350  0.32052  1.0000
  C   C96       1.0  0.23881  0.28437  0.42262  1.0000
  H   H70       1.0  0.02824  0.11532  0.46761  1.0000
  H   H71       1.0  0.03463  0.20983  0.03741  1.0000
  C   C97       1.0  0.28063  0.13843  0.26235  1.0000
  C   C98       1.0  0.27982  0.15386  0.30223  1.0000
  C   C99       1.0  0.02371  0.42708  0.02154  1.0000
  H   H72       1.0  0.20920  0.20531  0.40181  1.0000
  H   H73       1.0  0.10401  0.07784  0.10331  1.0000
  C   C100      1.0  0.30572  0.21757  0.35416  1.0000
  C   C101      1.0  0.30384  0.30859  0.20546  1.0000
  H   H74       1.0  0.27973  0.19201  0.01597  1.0000
  C   C102      1.0  0.08131  0.05753  0.15400  1.0000
  H   H75       1.0  0.20453  0.17088  0.46117  1.0000
  C   C103      1.0  0.06455  0.47185  0.17401  1.0000
  H   H76       1.0  0.06422  0.00953  0.41083  1.0000
  H   H77       1.0  0.25116  0.21123  0.36263  1.0000
  C   C104      1.0  0.15096  0.48245  0.19943  1.0000
  H   H78       1.0  0.32890  0.25478  0.26555  1.0000
  H   H79       1.0  0.09584  0.44916  0.44964  1.0000
  H   H80       1.0  0.26275  0.13110  0.24840  1.0000
  H   H81       1.0  0.26112  0.15824  0.31831  1.0000
  H   H82       1.0  0.00933  0.45259  0.22036  1.0000
  C   C105      1.0  0.04383  0.44470  0.02543  1.0000
  C   C106      1.0  0.02946  0.40074  0.01407  1.0000
  C   C107      1.0  0.19791  0.08061  0.22813  1.0000
  H   H83       1.0  0.19589  0.09398  0.09528  1.0000
  C   C108      1.0  0.03655  0.10205  0.02446  1.0000
  C   C109      1.0  0.14145  0.12882  0.03161  1.0000
  C   C110      1.0  0.19147  0.11096  0.16388  1.0000
  C   C111      1.0  0.19331  0.10592  0.21178  1.0000
  P   P5        1.0  0.18788  0.14397  0.14303  1.0000
  C   C112      1.0  0.16711  0.16396  0.17998  1.0000
  C   C113      1.0  0.22057  0.15541  0.14170  1.0000
  C   C114      1.0  0.23059  0.16868  0.17991  1.0000
  C   C115      1.0  0.25619  0.17693  0.17905  1.0000
  C   C116      1.0  0.27223  0.17110  0.14094  1.0000
  C   C117      1.0  0.26265  0.15699  0.10372  1.0000
  C   C118      1.0  0.23695  0.14915  0.10403  1.0000
  C   C119      1.0  0.14729  0.15294  0.20640  1.0000
  C   C120      1.0  0.13122  0.16852  0.23491  1.0000
  C   C121      1.0  0.13465  0.19525  0.23673  1.0000
  C   C122      1.0  0.15400  0.20647  0.20983  1.0000
  C   C123      1.0  0.16998  0.19095  0.18111  1.0000
  C   C124      1.0  0.17287  0.14517  0.08627  1.0000
  C   C125      1.0  0.28585  0.35826  0.44418  1.0000
  H   H84       1.0  0.14291  0.41437  0.25609  1.0000
  H   H85       1.0  0.12256  0.42458  0.17980  1.0000
  C   C126      1.0  0.00263  0.16881  0.43853  1.0000
  H   H86       1.0  0.11905  0.49685  0.32660  1.0000
  H   H87       1.0  0.19872  0.07677  0.26524  1.0000
  Fe  Fe9       1.0  0.01154  0.37335  0.40162  1.0000
  C   C127      1.0  0.30672  0.32553  0.24269  1.0000
  H   H88       1.0  0.33167  0.21276  0.44075  1.0000
  H   H89       1.0  0.19135  0.12155  0.23655  1.0000
  H   H90       1.0  0.21879  0.17238  0.21060  1.0000
  H   H91       1.0  0.26377  0.18745  0.20830  1.0000
  H   H92       1.0  0.29219  0.17723  0.14034  1.0000
  H   H93       1.0  0.27525  0.15198  0.07463  1.0000
  H   H94       1.0  0.23003  0.13797  0.07505  1.0000
  H   H95       1.0  0.14450  0.13229  0.20558  1.0000
  H   H96       1.0  0.11645  0.15987  0.25648  1.0000
  H   H97       1.0  0.12268  0.20719  0.25981  1.0000
  H   H98       1.0  0.15695  0.22715  0.21207  1.0000
  H   H99       1.0  0.18481  0.20001  0.16040  1.0000
  C   C128      1.0  0.05010  0.49119  0.19734  1.0000
  C   C129      1.0  0.33143  0.32999  0.26058  1.0000
  C   C130      1.0  0.03206  0.29895  0.19952  1.0000
  H   H100      1.0  0.19475  0.17761  0.06089  1.0000
  H   H101      1.0  0.07210  0.45279  0.10926  1.0000
  C   C131      1.0  0.13602  0.46380  0.17744  1.0000
  H   H102      1.0  0.12666  0.46806  0.14444  1.0000
  C   C132      1.0  0.07335  0.17150  0.05696  1.0000
  C   C133      1.0  0.00449  0.32748  0.02189  1.0000
  C   C134      1.0  0.15254  0.48392  0.39934  1.0000
  C   C135      1.0  0.17954  0.48474  0.39458  1.0000
  H   H103      1.0  0.05377  0.49529  0.23360  1.0000
  C   C136      1.0  0.15875  0.31616  0.46217  1.0000
  C   C137      1.0  0.03061  0.32217  0.03234  1.0000
  H   H104      1.0  0.01140  0.07488  0.36545  1.0000
  C   C138      1.0  0.05408  0.02585  0.27971  1.0000
  H   H105      1.0  0.05972  0.37144  0.00400  1.0000
  P   P6        1.0  0.04966  0.03272  0.21858  1.0000
  H   H106      1.0  0.16717  0.44779  0.29735  1.0000
  C   C139      1.0  0.05215  0.12365  0.01887  1.0000
  H   H107      1.0  0.01385  0.38737  0.00982  1.0000
  C   C140      1.0  0.22067  0.26506  0.41829  1.0000
  C   C141      1.0  0.29705  0.23765  0.38386  1.0000
  H   H108      1.0  0.02061  0.39615  0.11277  1.0000
  C   C142      1.0  0.24408  0.29471  0.46627  1.0000
  C   C143      1.0  0.08960  0.48632  0.37679  1.0000
  H   H109      1.0  0.06108  0.44656  0.27571  1.0000
  H   H110      1.0  0.01921  0.03542  0.13302  1.0000
  H   H111      1.0  0.14282  0.46660  0.38875  1.0000
  H   H112      1.0  0.28459  0.14766  0.44290  1.0000
  C   C144      1.0  0.07134  0.05749  0.19956  1.0000
  C   C145      1.0  0.07597  0.07860  0.22878  1.0000
  C   C146      1.0  0.09058  0.09922  0.21289  1.0000
  C   C147      1.0  0.10077  0.09893  0.16778  1.0000
  C   C148      1.0  0.06012  0.46731  0.12682  1.0000
  C   C149      1.0  0.02989  0.14697  0.10591  1.0000
  H   H113      1.0  0.28468  0.08389  0.44195  1.0000
  H   H114      1.0  0.09590  0.00534  0.18043  1.0000
  H   H115      1.0  0.28464  0.30527  0.19170  1.0000
  H   H116      1.0  0.05134  0.11067  0.11697  1.0000
  C   C150      1.0  0.03365  0.01606  0.30632  1.0000
  C   C151      1.0  0.08217  0.02251  0.34742  1.0000
  H   H117      1.0  0.07932  0.46049  0.19227  1.0000
  H   H118      1.0  0.04900  0.29415  0.17840  1.0000
  C   C152      1.0  0.16363  0.49205  0.08694  1.0000
  C   C153      1.0  0.14479  0.43346  0.24057  1.0000
  C   C154      1.0  0.03715  0.12446  0.13097  1.0000
  H   H119      1.0  0.06767  0.07957  0.26349  1.0000
  H   H120      1.0  0.09359  0.11559  0.23559  1.0000
  C   C155      1.0  0.24448  0.15749  0.45623  1.0000
  H   H121      1.0  0.28789  0.23337  0.41684  1.0000
  C   C156      1.0  0.27492  0.08924  0.47414  1.0000
  H   H122      1.0  0.23956  0.07022  0.45650  1.0000
  H   H123      1.0  0.17097  0.47507  0.01958  1.0000
  C   C157      1.0  0.00142  0.21439  0.99295  1.0000
  H   H124      1.0  0.31373  0.28983  0.31897  1.0000
  C   C158      1.0  0.32574  0.29622  0.18575  1.0000
  C   C159      1.0  0.10665  0.19875  0.02446  1.0000
  C   C160      1.0  0.01372  0.42612  0.16302  1.0000
  C   C161      1.0  0.31387  0.16828  0.00031  1.0000
  H   H125      1.0  0.02852  0.06341  0.00182  1.0000
  C   C162      1.0  0.05436  0.00215  0.18891  1.0000
  H   H126      1.0  0.20652  0.49445  0.19317  1.0000
  C   C163      1.0  0.20773  0.25596  0.45758  1.0000
  C   C164      1.0  0.99963  0.33010  0.22802  1.0000
  H   H127      1.0  0.02858  0.19849  0.45882  1.0000
  H   H128      1.0  0.01486  0.01305  0.29077  1.0000
  S   S18       1.0  0.00482  0.41209  0.43458  1.0000
  H   H129      1.0  0.02014  0.41925  0.28014  1.0000
  H   H130      1.0  0.32430  0.20912  0.28761  1.0000
  C   C165      1.0  0.00433  0.48836  0.02308  1.0000
  H   H131      1.0  0.17187  0.49130  0.26249  1.0000
  C   C166      1.0  0.04136  0.07958  0.99840  1.0000
  C   C167      1.0  0.06979  0.11763  0.47271  1.0000
  H   H132      1.0  0.00358  0.43353  0.02367  1.0000
  H   H133      1.0  0.17420  0.17843  0.98314  1.0000
  H   H134      1.0  0.25830  0.30968  0.46891  1.0000
  C   C168      1.0  0.28954  0.18022  0.98986  1.0000
  H   H135      1.0  0.00153  0.23539  0.99336  1.0000
  C   C169      1.0  0.32663  0.15745  0.29828  1.0000
  S   S19       1.0  0.32635  0.17025  0.05829  1.0000
  C   C170      1.0  0.32828  0.17464  0.41044  1.0000
  C   C171      1.0  0.32024  0.24995  0.29879  1.0000
  H   H136      1.0  0.33028  0.13434  0.38910  1.0000
  C   C172      1.0  0.07269  0.12231  0.98647  1.0000
  H   H137      1.0  0.09958  0.28962  0.47406  1.0000
  S   S20       1.0  0.06146  0.09220  0.82584  1.0000
  Fe  Fe10      1.0  0.17795  0.18264  0.83504  1.0000
  S   S21       1.0  0.17671  0.21082  0.77518  1.0000
  S   S22       1.0  0.14102  0.17860  0.87738  1.0000
  Fe  Fe11      1.0  0.23672  0.17337  0.82843  1.0000
  S   S23       1.0  0.23927  0.20022  0.76644  1.0000
  S   S24       1.0  0.27457  0.15475  0.85735  1.0000
  Fe  Fe12      1.0  0.21250  0.22677  0.80702  1.0000
  S   S25       1.0  0.22376  0.26848  0.81628  1.0000
  Fe  Fe13      1.0  0.20329  0.18179  0.73876  1.0000
  S   S26       1.0  0.19710  0.17971  0.65948  1.0000
  S   S27       1.0  0.21176  0.20105  0.86998  1.0000
  S   S28       1.0  0.20266  0.15235  0.79743  1.0000
  S   S29       1.0  0.16235  0.09537  0.51031  1.0000
  Fe  Fe14      1.0  0.13697  0.45117  0.84118  1.0000
  S   S30       1.0  0.11432  0.45446  0.90807  1.0000
  C   C173      1.0  0.06693  0.49483  0.96598  1.0000
  Fe  Fe15      1.0  0.13254  0.39212  0.84339  1.0000
  S   S31       1.0  0.10886  0.39169  0.90925  1.0000
  S   S32       1.0  0.13412  0.35498  0.80207  1.0000
  Fe  Fe16      1.0  0.08759  0.42591  0.87750  1.0000
  S   S33       1.0  0.04454  0.43545  0.87449  1.0000
  Fe  Fe17      1.0  0.13777  0.42000  0.93538  1.0000
  S   S34       1.0  0.10878  0.42433  0.80954  1.0000
  S   S35       1.0  0.16308  0.41870  0.87062  1.0000
  C   C174      1.0  0.01085  0.27235  0.70421  1.0000
  H   H138      1.0  0.22580  0.20530  0.57606  1.0000
  C   C175      1.0  0.06182  0.07843  0.96642  1.0000
  H   H139      1.0  0.23830  0.11039  0.58662  1.0000
  Fe  Fe18      1.0  0.01898  0.09252  0.84671  1.0000
  H   H140      1.0  0.06041  0.27432  0.59722  1.0000
  C   C176      1.0  0.31958  0.26612  0.59364  1.0000
  C   C177      1.0  0.28947  0.16094  0.91234  1.0000
  C   C178      1.0  0.10959  0.23102  0.70269  1.0000
  H   H141      1.0  0.32637  0.08863  0.57188  1.0000
  C   C179      1.0  0.28119  0.14707  0.68132  1.0000
  C   C180      1.0  0.19819  0.29206  0.81700  1.0000
  C   C181      1.0  0.20306  0.31763  0.83015  1.0000
  C   C182      1.0  0.18315  0.33699  0.82825  1.0000
  C   C183      1.0  0.15845  0.33087  0.81233  1.0000
  C   C184      1.0  0.15358  0.30527  0.79970  1.0000
  C   C185      1.0  0.17328  0.28589  0.80248  1.0000
  H   H142      1.0  0.22232  0.32253  0.84144  1.0000
  H   H143      1.0  0.18713  0.35676  0.83757  1.0000
  H   H144      1.0  0.13449  0.30050  0.78754  1.0000
  H   H145      1.0  0.16934  0.26627  0.79256  1.0000
  C   C186      1.0  0.17172  0.11916  0.55144  1.0000
  C   C187      1.0  0.17771  0.11141  0.59738  1.0000
  C   C188      1.0  0.18532  0.12956  0.63102  1.0000
  C   C189      1.0  0.18692  0.15582  0.61920  1.0000
  C   C190      1.0  0.18107  0.16352  0.57319  1.0000
  C   C191      1.0  0.17345  0.14538  0.53961  1.0000
  H   H146      1.0  0.17653  0.09117  0.60697  1.0000
  H   H147      1.0  0.19006  0.12323  0.66599  1.0000
  H   H148      1.0  0.18220  0.18372  0.56347  1.0000
  H   H149      1.0  0.16868  0.15170  0.50466  1.0000
  C   C192      1.0  0.08255  0.11740  0.83842  1.0000
  C   C193      1.0  0.10809  0.11565  0.82123  1.0000
  C   C194      1.0  0.12599  0.13464  0.83216  1.0000
  C   C195      1.0  0.11852  0.15540  0.86075  1.0000
  C   C196      1.0  0.09294  0.15725  0.87785  1.0000
  C   C197      1.0  0.07488  0.13842  0.86637  1.0000
  H   H150      1.0  0.11414  0.09940  0.79972  1.0000
  H   H151      1.0  0.14574  0.13290  0.81935  1.0000
  H   H152      1.0  0.08708  0.17330  0.89998  1.0000
  H   H153      1.0  0.05525  0.13984  0.87991  1.0000
  C   C198      1.0  0.04088  0.11552  0.53920  1.0000
  C   C199      1.0  0.03127  0.38661  0.90274  1.0000
  C   C200      1.0  0.02277  0.41043  0.88407  1.0000
  H   H154      1.0  0.29577  0.21330  0.49628  1.0000
  C   C201      1.0  0.29390  0.28400  0.77768  1.0000
  H   H155      1.0  0.05162  0.38311  0.91030  1.0000
  C   C202      1.0  0.06634  0.35459  0.75421  1.0000
  H   H156      1.0  0.25811  0.38741  0.61808  1.0000
  H   H157      1.0  0.27292  0.08619  0.63929  1.0000
  C   C203      1.0  0.09553  0.46071  0.48100  1.0000
  C   C204      1.0  0.07761  0.09971  0.96077  1.0000
  C   C205      1.0  0.08869  0.27201  0.72449  1.0000
  H   H158      1.0  0.21601  0.33793  0.49321  1.0000
  C   C206      1.0  0.31653  0.29041  0.57229  1.0000
  C   C207      1.0  0.29768  0.25234  0.60626  1.0000
  C   C208      1.0  0.27277  0.26290  0.59765  1.0000
  C   C209      1.0  0.26956  0.28758  0.57711  1.0000
  C   C210      1.0  0.29166  0.30104  0.56382  1.0000
  P   P7        1.0  0.23754  0.30015  0.56180  1.0000
  H   H159      1.0  0.25880  0.18600  0.93910  1.0000
  C   C211      1.0  0.21356  0.29265  0.60554  1.0000
  C   C212      1.0  0.18703  0.29317  0.59415  1.0000
  C   C213      1.0  0.16858  0.28584  0.62712  1.0000
  C   C214      1.0  0.17640  0.27884  0.67212  1.0000
  C   C215      1.0  0.20256  0.27972  0.68441  1.0000
  C   C216      1.0  0.22106  0.28690  0.65149  1.0000
  H   H160      1.0  0.05349  0.29294  0.51920  1.0000
  H   H161      1.0  0.14820  0.28579  0.61797  1.0000
  H   H162      1.0  0.31381  0.23705  0.95477  1.0000
  H   H163      1.0  0.03065  0.24272  0.74624  1.0000
  C   C217      1.0  0.25314  0.31761  0.95068  1.0000
  C   C218      1.0  0.23733  0.33512  0.55813  1.0000
  C   C219      1.0  0.24887  0.34940  0.59350  1.0000
  C   C220      1.0  0.24866  0.37650  0.59118  1.0000
  C   C221      1.0  0.23671  0.38954  0.55381  1.0000
  C   C222      1.0  0.09306  0.46235  0.56514  1.0000
  C   C223      1.0  0.22516  0.34838  0.52088  1.0000
  C   C224      1.0  0.21292  0.26623  0.50136  1.0000
  S   S36       1.0  0.00472  0.05985  0.89052  1.0000
  H   H164      1.0  0.30001  0.23332  0.62221  1.0000
  H   H165      1.0  0.25603  0.25170  0.60672  1.0000
  H   H166      1.0  0.28979  0.31970  0.54657  1.0000
  H   H167      1.0  0.18060  0.29892  0.55966  1.0000
  H   H168      1.0  0.13829  0.48126  0.63807  1.0000
  H   H169      1.0  0.16219  0.27326  0.69784  1.0000
  H   H170      1.0  0.20852  0.27481  0.71959  1.0000
  H   H171      1.0  0.24114  0.28783  0.66219  1.0000
  H   H172      1.0  0.30684  0.11074  0.49947  1.0000
  H   H173      1.0  0.08370  0.04094  0.81374  1.0000
  C   C225      1.0  0.32081  0.30604  0.83358  1.0000
  H   H174      1.0  0.25831  0.33959  0.62260  1.0000
  H   H175      1.0  0.01986  0.34954  0.92914  1.0000
  H   H176      1.0  0.04142  0.05137  0.75509  1.0000
  H   H177      1.0  0.12342  0.02883  0.68364  1.0000
  H   H178      1.0  0.22491  0.34868  0.96257  1.0000
  C   C226      1.0  0.08860  0.22581  0.67391  1.0000
  C   C227      1.0  0.09106  0.11843  0.50263  1.0000
  C   C228      1.0  0.02522  0.32099  0.76650  1.0000
  H   H179      1.0  0.27353  0.24203  0.90760  1.0000
  H   H180      1.0  0.05653  0.09294  0.72481  1.0000
  C   C229      1.0  0.04419  0.43537  0.74932  1.0000
  H   H181      1.0  0.00622  0.35479  0.57715  1.0000
  C   C230      1.0  0.11168  0.32399  0.50943  1.0000
  C   C231      1.0  0.05369  0.46779  0.69099  1.0000
  C   C232      1.0  0.26705  0.11802  0.74215  1.0000
  C   C233      1.0  0.06770  0.26723  0.69482  1.0000
  C   C234      1.0  0.28008  0.12702  0.64863  1.0000
  H   H182      1.0  0.02303  0.01920  0.70186  1.0000
  H   H183      1.0  0.33054  0.16885  0.61241  1.0000
  H   H184      1.0  0.08853  0.20777  0.65474  1.0000
  H   H185      1.0  0.04108  0.48223  0.57195  1.0000
  H   H186      1.0  0.02681  0.33326  0.50871  1.0000
  C   C235      1.0  0.09219  0.44832  0.52380  1.0000
  C   C236      1.0  0.01014  0.46535  0.72266  1.0000
  H   H187      1.0  0.26050  0.07879  0.72125  1.0000
  H   H188      1.0  0.06759  0.47625  0.66753  1.0000
  C   C237      1.0  0.06182  0.44691  0.71919  1.0000
  C   C238      1.0  0.10948  0.25395  0.72831  1.0000
  C   C239      1.0  0.02979  0.03740  0.68810  1.0000
  H   H189      1.0  0.00913  0.30832  0.77206  1.0000
  C   C240      1.0  0.27484  0.11129  0.54876  1.0000
  H   H190      1.0  0.17132  0.46273  0.49249  1.0000
  H   H191      1.0  0.28449  0.29069  0.93457  1.0000
  H   H192      1.0  0.27577  0.27496  0.76934  1.0000
  H   H193      1.0  0.03687  0.38609  0.50487  1.0000
  H   H194      1.0  0.24253  0.16346  0.60700  1.0000
  C   C241      1.0  0.06762  0.24366  0.67042  1.0000
  H   H195      1.0  0.07734  0.33084  0.69590  1.0000
  C   C242      1.0  0.24489  0.19797  0.56544  1.0000
  H   H196      1.0  0.32131  0.12340  0.77462  1.0000
  H   H197      1.0  0.14023  0.14745  0.96420  1.0000
  C   C243      1.0  0.03013  0.16363  0.61664  1.0000
  H   H198      1.0  0.08263  0.36726  0.75033  1.0000
  C   C244      1.0  0.32313  0.35137  0.49666  1.0000
  C   C245      1.0  0.29753  0.29403  0.82222  1.0000
  H   H199      1.0  0.25258  0.38247  0.92894  1.0000
  C   C246      1.0  0.09714  0.48897  0.56361  1.0000
  H   H200      1.0  0.02607  0.48113  0.83123  1.0000
  H   H201      1.0  0.04338  0.16628  0.58776  1.0000
  C   C247      1.0  0.04853  0.35875  0.79038  1.0000
  C   C248      1.0  0.29367  0.32982  0.91398  1.0000
  C   C249      1.0  0.28439  0.35573  0.91253  1.0000
  C   C250      1.0  0.25970  0.36247  0.93012  1.0000
  C   C251      1.0  0.00381  0.48892  0.60559  1.0000
  H   H202      1.0  0.01390  0.34547  0.82403  1.0000
  C   C252      1.0  0.27785  0.31083  0.93337  1.0000
  C   C253      1.0  0.31379  0.14900  0.92280  1.0000
  C   C254      1.0  0.32494  0.12954  0.58897  1.0000
  C   C255      1.0  0.01465  0.13841  0.68189  1.0000
  C   C256      1.0  0.02970  0.32512  0.54332  1.0000
  H   H203      1.0  0.12536  0.25748  0.75188  1.0000
  C   C257      1.0  0.25450  0.17431  0.58330  1.0000
  H   H204      1.0  0.28188  0.29248  0.84712  1.0000
  C   C258      1.0  0.28751  0.10421  0.50711  1.0000
  H   H205      1.0  0.26199  0.11471  0.77836  1.0000
  H   H206      1.0  0.13777  0.46475  0.71953  1.0000
  C   C259      1.0  0.27479  0.14250  0.72788  1.0000
  H   H207      1.0  0.27407  0.22971  0.82488  1.0000
  H   H208      1.0  0.29604  0.37081  0.89781  1.0000
  C   C260      1.0  0.22492  0.37548  0.51872  1.0000
  H   H209      1.0  0.17068  0.35096  0.49541  1.0000
  C   C261      1.0  0.16330  0.44464  0.50420  1.0000
  C   C262      1.0  0.14619  0.40250  0.48703  1.0000
  C   C263      1.0  0.01133  0.18309  0.62626  1.0000
  H   H210      1.0  0.01556  0.12145  0.70419  1.0000
  C   C264      1.0  0.11064  0.15209  0.71235  1.0000
  C   C265      1.0  0.13171  0.13434  0.71137  1.0000
  C   C266      1.0  0.12977  0.11100  0.68740  1.0000
  C   C267      1.0  0.10695  0.10559  0.66362  1.0000
  C   C268      1.0  0.08593  0.12364  0.66330  1.0000
  C   C269      1.0  0.08782  0.14685  0.68834  1.0000
  P   P8        1.0  0.05668  0.11632  0.63198  1.0000
  C   C270      1.0  0.06220  0.11610  0.56963  1.0000
  C   C271      1.0  0.04637  0.08515  0.65319  1.0000
  C   C272      1.0  0.04868  0.07913  0.70076  1.0000
  C   C273      1.0  0.04470  0.11609  0.49097  1.0000
  H   H211      1.0  0.32311  0.13634  0.89747  1.0000
  C   C274      1.0  0.29928  0.36407  0.48548  1.0000
  C   C275      1.0  0.03592  0.06679  0.62314  1.0000
  H   H212      1.0  0.06687  0.48815  0.78768  1.0000
  C   C276      1.0  0.02037  0.47966  0.57001  1.0000
  C   C277      1.0  0.15899  0.44043  0.55158  1.0000
  H   H213      1.0  0.11054  0.11960  0.48845  1.0000
  C   C278      1.0  0.08736  0.11770  0.55085  1.0000
  C   C279      1.0  0.03701  0.30391  0.63293  1.0000
  H   H214      1.0  0.14947  0.13860  0.72959  1.0000
  H   H215      1.0  0.14606  0.09717  0.68703  1.0000
  H   H216      1.0  0.10577  0.08744  0.64504  1.0000
  H   H217      1.0  0.05055  0.41951  0.77189  1.0000
  H   H218      1.0  0.09357  0.32628  0.52833  1.0000
  C   C280      1.0  0.06346  0.33381  0.72382  1.0000
  H   H219      1.0  0.02280  0.40512  0.58029  1.0000
  H   H220      1.0  0.03399  0.07063  0.58634  1.0000
  H   H221      1.0  0.07172  0.16080  0.69002  1.0000
  C   C281      1.0  0.24407  0.34343  0.94912  1.0000
  P   P9        1.0  0.03992  0.28976  0.69068  1.0000
  H   H222      1.0  0.10430  0.11860  0.57285  1.0000
  C   C282      1.0  0.02194  0.32689  0.62645  1.0000
  H   H223      1.0  0.20324  0.25826  0.53139  1.0000
  C   C283      1.0  0.01823  0.33730  0.58188  1.0000
  C   C284      1.0  0.14117  0.49451  0.66643  1.0000
  C   C285      1.0  0.31439  0.21679  0.82495  1.0000
  H   H224      1.0  0.08896  0.28923  0.74574  1.0000
  P   P10       1.0  0.32522  0.32070  0.89005  1.0000
  H   H225      1.0  0.32677  0.16210  0.82278  1.0000
  C   C286      1.0  0.24908  0.10399  0.55606  1.0000
  C   C287      1.0  0.25974  0.21188  0.53379  1.0000
  C   C288      1.0  0.01324  0.36761  0.91332  1.0000
  H   H226      1.0  0.29127  0.37869  0.50877  1.0000
  H   H227      1.0  0.00470  0.43521  0.77386  1.0000
  C   C289      1.0  0.26625  0.09784  0.70997  1.0000
  C   C290      1.0  0.13131  0.34206  0.51434  1.0000
  H   H228      1.0  0.09312  0.09899  0.93511  1.0000
  P   P11       1.0  0.12753  0.36862  0.55481  1.0000
  C   C291      1.0  0.09385  0.37820  0.56421  1.0000
  C   C292      1.0  0.14345  0.35782  0.60750  1.0000
  C   C293      1.0  0.17006  0.36187  0.61372  1.0000
  C   C294      1.0  0.18231  0.35423  0.65511  1.0000
  C   C295      1.0  0.16816  0.34231  0.69027  1.0000
  C   C296      1.0  0.14187  0.33745  0.68368  1.0000
  C   C297      1.0  0.12960  0.34485  0.64214  1.0000
  C   C298      1.0  0.07605  0.37745  0.52732  1.0000
  C   C299      1.0  0.27306  0.10220  0.66346  1.0000
  C   C300      1.0  0.04264  0.39770  0.57585  1.0000
  C   C301      1.0  0.06025  0.39874  0.61260  1.0000
  C   C302      1.0  0.08585  0.38929  0.60673  1.0000
  C   C303      1.0  0.14225  0.39793  0.53464  1.0000
  C   C304      1.0  0.27908  0.16449  0.56984  1.0000
  C   C305      1.0  0.03181  0.14100  0.64414  1.0000
  C   C306      1.0  0.04316  0.31657  0.73022  1.0000
  H   H229      1.0  0.21676  0.08330  0.52895  1.0000
  C   C307      1.0  0.14845  0.41721  0.56681  1.0000
  H   H230      1.0  0.05088  0.37478  0.81404  1.0000
  C   C308      1.0  0.08385  0.00192  0.78736  1.0000
  C   C309      1.0  0.02763  0.04303  0.64065  1.0000
  C   C310      1.0  0.27753  0.17677  0.94620  1.0000
  C   C311      1.0  0.04479  0.30239  0.54932  1.0000
  H   H231      1.0  0.18134  0.37112  0.58688  1.0000
  H   H232      1.0  0.20275  0.35769  0.66020  1.0000
  H   H233      1.0  0.17765  0.33663  0.72250  1.0000
  H   H234      1.0  0.13106  0.32810  0.71109  1.0000
  H   H235      1.0  0.10934  0.34072  0.63725  1.0000
  C   C312      1.0  0.32591  0.15267  0.96631  1.0000
  C   C313      1.0  0.31333  0.28599  0.74396  1.0000
  H   H236      1.0  0.11197  0.16975  0.73236  1.0000
  H   H237      1.0  0.05403  0.40703  0.64554  1.0000
  H   H238      1.0  0.09943  0.39109  0.63514  1.0000
  H   H239      1.0  0.23683  0.41053  0.55182  1.0000
  H   H240      1.0  0.08952  0.42771  0.52475  1.0000
  H   H241      1.0  0.10848  0.05827  0.74730  1.0000
  H   H242      1.0  0.16361  0.45536  0.57642  1.0000
  H   H243      1.0  0.14495  0.41443  0.60366  1.0000
  C   C314      1.0  0.02786  0.34211  0.79624  1.0000
  C   C315      1.0  0.23664  0.08891  0.52316  1.0000
  H   H244      1.0  0.01265  0.33666  0.65573  1.0000
  H   H245      1.0  0.01914  0.02908  0.61759  1.0000
  H   H246      1.0  0.31420  0.21134  0.78865  1.0000
  H   H247      1.0  0.12579  0.21710  0.70576  1.0000
  H   H248      1.0  0.27615  0.15781  0.75329  1.0000
  H   H249      1.0  0.21584  0.38559  0.48951  1.0000
  C   C316      1.0  0.24951  0.08154  0.48223  1.0000
  C   C317      1.0  0.11245  0.02128  0.71266  1.0000
  C   C318      1.0  0.10416  0.03784  0.74847  1.0000
  C   C319      1.0  0.28433  0.20235  0.52054  1.0000
  P   P12       1.0  0.28994  0.13270  0.58927  1.0000
  H   H250      1.0  0.05118  0.23895  0.64897  1.0000
  H   H251      1.0  0.05863  0.47930  0.94614  1.0000
  C   C320      1.0  0.29164  0.22724  0.84520  1.0000
  H   H252      1.0  0.09101  0.45254  0.59828  1.0000
  H   H253      1.0  0.28718  0.16620  0.67103  1.0000
  H   H254      1.0  0.00990  0.20031  0.60459  1.0000
  C   C321      1.0  0.29386  0.17853  0.53788  1.0000
  C   C322      1.0  0.04852  0.29182  0.59386  1.0000
  C   C323      1.0  0.14083  0.48506  0.71268  1.0000
  C   C324      1.0  0.23069  0.28618  0.50586  1.0000
  C   C325      1.0  0.05055  0.38702  0.53332  1.0000
  C   C326      1.0  0.09008  0.02808  0.78593  1.0000
  C   C327      1.0  0.04026  0.05546  0.71809  1.0000
  H   H255      1.0  0.02126  0.11464  0.55280  1.0000
  H   H256      1.0  0.08187  0.43983  0.71806  1.0000
  C   C328      1.0  0.29138  0.23446  0.89193  1.0000
  H   H257      1.0  0.24091  0.30284  0.96507  1.0000
  H   H258      1.0  0.08192  0.37010  0.49345  1.0000
  C   C329      1.0  0.01231  0.24978  0.73192  1.0000
  S   S37       1.0  0.14665  0.49067  0.80883  1.0000
  H   H259      1.0  0.25227  0.23005  0.51948  1.0000
  H   H260      1.0  0.32717  0.36167  0.81898  1.0000
  C   C330      1.0  0.02797  0.47770  0.69365  1.0000
  C   C331      1.0  0.15508  0.33766  0.49122  1.0000
  C   C332      1.0  0.31400  0.23162  0.91838  1.0000
  H   H261      1.0  0.06502  0.06134  0.94509  1.0000
  H   H262      1.0  0.31245  0.17088  0.52561  1.0000
  H   H263      1.0  0.31036  0.27862  0.70923  1.0000
  C   C333      1.0  0.01027  0.46674  0.53179  1.0000
  C   C334      1.0  0.01833  0.44441  0.75071  1.0000
  H   H264      1.0  0.02306  0.45956  0.50441  1.0000
  H   H265      1.0  0.24208  0.14210  0.48144  1.0000
  C   C335      1.0  0.11517  0.30288  0.47939  1.0000
  C   C336      1.0  0.09894  0.48757  0.47916  1.0000
  C   C337      1.0  0.27989  0.67136  0.31058  1.0000
  S   S38       1.0  0.15109  0.59666  0.39357  1.0000
  Fe  Fe19      1.0  0.24071  0.66045  0.07131  1.0000
  S   S39       1.0  0.22940  0.69289  0.12045  1.0000
  S   S40       1.0  0.28316  0.66153  0.04608  1.0000
  Fe  Fe20      1.0  0.18492  0.64048  0.07404  1.0000
  S   S41       1.0  0.16998  0.67183  0.12196  1.0000
  S   S42       1.0  0.15718  0.61294  0.04045  1.0000
  Fe  Fe21      1.0  0.19345  0.69837  0.07740  1.0000
  S   S43       1.0  0.17768  0.73478  0.04137  1.0000
  Fe  Fe22      1.0  0.20709  0.66331  0.16140  1.0000
  S   S44       1.0  0.21083  0.66390  0.24087  1.0000
  S   S45       1.0  0.20575  0.66755  0.02635  1.0000
  S   S46       1.0  0.22108  0.63025  0.11563  1.0000
  Fe  Fe23      1.0  0.16350  0.87909  0.08708  1.0000
  S   S47       1.0  0.13027  0.86575  0.04485  1.0000
  S   S48       1.0  0.19032  0.84850  0.11997  1.0000
  Fe  Fe24      1.0  0.14581  0.93658  0.08054  1.0000
  S   S49       1.0  0.11129  0.92684  0.03586  1.0000
  S   S50       1.0  0.15106  0.97913  0.10248  1.0000
  Fe  Fe25      1.0  0.10590  0.89400  0.08601  1.0000
  S   S51       1.0  0.07049  0.88068  0.12473  1.0000
  C   C338      1.0  0.16053  0.87821  0.42768  1.0000
  S   S52       1.0  0.13854  0.90513  0.13246  1.0000
  S   S53       1.0  0.17398  0.91132  0.03777  1.0000
  S   S54       1.0  0.04699  0.60299  0.13761  1.0000
  C   C339      1.0  0.30804  0.69601  0.18885  1.0000
  C   C340      1.0  0.15241  0.97790  0.19952  1.0000
  C   C341      1.0  0.08435  0.58033  0.39870  1.0000
  H   H266      1.0  0.15429  0.95706  0.19629  1.0000
  H   H267      1.0  0.06621  0.72074  0.14061  1.0000
  C   C342      1.0  0.03981  0.87962  0.09810  1.0000
  C   C343      1.0  0.03463  0.89121  0.05483  1.0000
  C   C344      1.0  0.22889  0.52734  0.21100  1.0000
  C   C345      1.0  0.15163  0.52684  0.43330  1.0000
  C   C346      1.0  0.01988  0.86736  0.12203  1.0000
  H   H268      1.0  0.04981  0.90110  0.03652  1.0000
  H   H269      1.0  0.20265  0.92335  0.14364  1.0000
  C   C347      1.0  0.18154  0.76598  0.06462  1.0000
  C   C348      1.0  0.17581  0.78757  0.03620  1.0000
  C   C349      1.0  0.17837  0.81283  0.05310  1.0000
  C   C350      1.0  0.18666  0.81678  0.09871  1.0000
  C   C351      1.0  0.19249  0.79519  0.12729  1.0000
  C   C352      1.0  0.18980  0.76980  0.11037  1.0000
  H   H270      1.0  0.16938  0.78476  0.00087  1.0000
  H   H271      1.0  0.17420  0.82924  0.03055  1.0000
  H   H272      1.0  0.19897  0.79810  0.16259  1.0000
  H   H273      1.0  0.19424  0.75323  0.13252  1.0000
  C   C353      1.0  0.12632  0.61104  0.06694  1.0000
  C   C354      1.0  0.12281  0.61705  0.11395  1.0000
  C   C355      1.0  0.09833  0.61455  0.13495  1.0000
  C   C356      1.0  0.07712  0.60623  0.10912  1.0000
  C   C357      1.0  0.08056  0.60020  0.06209  1.0000
  C   C358      1.0  0.10514  0.60254  0.04107  1.0000
  H   H274      1.0  0.13906  0.62317  0.13443  1.0000
  H   H275      1.0  0.09589  0.61895  0.17151  1.0000
  H   H276      1.0  0.06446  0.59323  0.04231  1.0000
  H   H277      1.0  0.10778  0.59763  0.00482  1.0000
  C   C359      1.0  0.16739  0.61603  0.35167  1.0000
  C   C360      1.0  0.18496  0.63482  0.36462  1.0000
  C   C361      1.0  0.19795  0.64928  0.33030  1.0000
  C   C362      1.0  0.19341  0.64540  0.28258  1.0000
  C   C363      1.0  0.17559  0.62683  0.26961  1.0000
  C   C364      1.0  0.16286  0.61211  0.30392  1.0000
  H   H278      1.0  0.18872  0.63808  0.40111  1.0000
  H   H279      1.0  0.21162  0.66359  0.34086  1.0000
  H   H280      1.0  0.17163  0.62378  0.23314  1.0000
  H   H281      1.0  0.14931  0.59769  0.29338  1.0000
  C   C365      1.0  0.01125  0.77022  0.15412  1.0000
  H   H282      1.0  0.09766  0.55009  0.03576  1.0000
  H   H283      1.0  0.29792  0.71390  0.10076  1.0000
  C   C366      1.0  0.29217  0.82169  0.42591  1.0000
  C   C367      1.0  0.01152  0.95904  0.44181  1.0000
  C   C368      1.0  0.15023  0.99315  0.15936  1.0000
  H   H284      1.0  0.11416  0.55306  0.37668  1.0000
  H   H285      1.0  0.24325  0.75183  0.00918  1.0000
  H   H286      1.0  0.16586  0.56906  0.19030  1.0000
  C   C369      1.0  0.09682  0.55583  0.39777  1.0000
  C   C370      1.0  0.06427  0.53950  0.45043  1.0000
  C   C371      1.0  0.26249  0.73895  0.31160  1.0000
  C   C372      1.0  0.23687  0.73323  0.30082  1.0000
  C   C373      1.0  0.22881  0.73316  0.25448  1.0000
  C   C374      1.0  0.24625  0.73904  0.21885  1.0000
  C   C375      1.0  0.27208  0.74477  0.22929  1.0000
  C   C376      1.0  0.28019  0.74414  0.27595  1.0000
  H   H287      1.0  0.28552  0.83269  0.30735  1.0000
  H   H288      1.0  0.22485  0.88283  0.36140  1.0000
  C   C377      1.0  0.27990  0.74965  0.12728  1.0000
  H   H289      1.0  0.07988  0.87737  0.98105  1.0000
  H   H290      1.0  0.07993  0.83686  0.02745  1.0000
  C   C378      1.0  0.25410  0.75160  0.04139  1.0000
  C   C379      1.0  0.24991  0.77142  0.07367  1.0000
  C   C380      1.0  0.26271  0.77050  0.11645  1.0000
  C   C381      1.0  0.00227  0.80254  0.43849  1.0000
  C   C382      1.0  0.22928  0.84659  0.99948  1.0000
  C   C383      1.0  0.31091  0.79508  0.22576  1.0000
  C   C384      1.0  0.02858  0.79549  0.43344  1.0000
  C   C385      1.0  0.03672  0.96238  0.15895  1.0000
  H   H291      1.0  0.15497  0.97735  0.27453  1.0000
  C   C386      1.0  0.07187  0.85132  0.45438  1.0000
  C   C387      1.0  0.00421  0.68593  0.10283  1.0000
  H   H292      1.0  0.22335  0.72826  0.32823  1.0000
  H   H293      1.0  0.20919  0.72777  0.24602  1.0000
  H   H294      1.0  0.23956  0.73825  0.18328  1.0000
  C   C388      1.0  0.26986  0.64670  0.31600  1.0000
  C   C389      1.0  0.25049  0.83518  0.26648  1.0000
  H   H295      1.0  0.20626  0.59004  0.21257  1.0000
  Fe  Fe26      1.0  0.00897  0.59435  0.10244  1.0000
  H   H296      1.0  0.23610  0.78713  0.06604  1.0000
  H   H297      1.0  0.25879  0.78580  0.14146  1.0000
  H   H298      1.0  0.06526  0.52327  0.07300  1.0000
  H   H299      1.0  0.29897  0.79037  0.25532  1.0000
  C   C390      1.0  0.00770  0.90042  0.26138  1.0000
  H   H300      1.0  0.04889  0.81097  0.12729  1.0000
  H   H301      1.0  0.18862  0.54473  0.43946  1.0000
  H   H302      1.0  0.21401  0.84227  0.23215  1.0000
  C   C391      1.0  0.19122  0.90640  0.25658  1.0000
  H   H303      1.0  0.24671  0.51589  0.21577  1.0000
  C   C392      1.0  0.15366  0.53840  0.03830  1.0000
  C   C393      1.0  0.20847  0.94804  0.20268  1.0000
  H   H304      1.0  0.27497  0.71577  0.02632  1.0000
  C   C394      1.0  0.04022  0.77722  0.46365  1.0000
  C   C395      1.0  0.31277  0.77884  0.18667  1.0000
  H   H305      1.0  0.04525  0.77696  0.19605  1.0000
  C   C396      1.0  0.06131  0.95468  0.14243  1.0000
  C   C397      1.0  0.30532  0.66505  0.38122  1.0000
  H   H306      1.0  0.18859  0.88634  0.19096  1.0000
  C   C398      1.0  0.32482  0.81793  0.22714  1.0000
  C   C399      1.0  0.12450  0.54420  0.23756  1.0000
  C   C400      1.0  0.17860  0.52768  0.42825  1.0000
  H   H307      1.0  0.06049  0.77171  0.45868  1.0000
  H   H308      1.0  0.05247  0.60352  0.42657  1.0000
  C   C401      1.0  0.22888  0.55426  0.21652  1.0000
  H   H309      1.0  0.01445  0.88165  0.42590  1.0000
  C   C402      1.0  0.21547  0.86264  0.29796  1.0000
  H   H310      1.0  0.21203  0.96821  0.26765  1.0000
  H   H311      1.0  0.01095  0.51211  0.10952  1.0000
  C   C403      1.0  0.03324  0.98600  0.18227  1.0000
  H   H312      1.0  0.14621  0.91963  0.31702  1.0000
  H   H313      1.0  0.10224  0.56810  0.28558  1.0000
  H   H314      1.0  0.21348  0.50743  0.40503  1.0000
  H   H315      1.0  0.03409  0.56708  0.47113  1.0000
  C   C404      1.0  0.14656  0.81439  0.24571  1.0000
  C   C405      1.0  0.12640  0.82526  0.21884  1.0000
  C   C406      1.0  0.12353  0.85220  0.21441  1.0000
  H   H316      1.0  0.14871  0.79350  0.24924  1.0000
  H   H317      1.0  0.11298  0.81280  0.20158  1.0000
  H   H318      1.0  0.10784  0.86062  0.19369  1.0000
  H   H319      1.0  0.06396  0.93655  0.12388  1.0000
  C   C407      1.0  0.01008  0.78288  0.23545  1.0000
  C   C408      1.0  0.17285  0.87166  0.38570  1.0000
  H   H320      1.0  0.08859  0.88268  0.35505  1.0000
  C   C409      1.0  0.02490  0.67190  0.12294  1.0000
  H   H321      1.0  0.31706  0.65507  0.19493  1.0000
  H   H322      1.0  0.10159  0.96413  0.13759  1.0000
  C   C410      1.0  0.07090  0.83747  0.99349  1.0000
  C   C411      1.0  0.32830  0.78614  0.14883  1.0000
  C   C412      1.0  0.01261  0.77259  0.05158  1.0000
  P   P13       1.0  0.03572  0.90633  0.34331  1.0000
  C   C413      1.0  0.05004  0.88441  0.38605  1.0000
  C   C414      1.0  0.06108  0.92054  0.30908  1.0000
  C   C415      1.0  0.07009  0.90809  0.26842  1.0000
  C   C416      1.0  0.08859  0.91963  0.24025  1.0000
  C   C417      1.0  0.09884  0.94320  0.25316  1.0000
  C   C418      1.0  0.09065  0.95537  0.29416  1.0000
  C   C419      1.0  0.07169  0.94417  0.32205  1.0000
  H   H323      1.0  0.32397  0.83013  0.25773  1.0000
  C   C420      1.0  0.01720  0.93134  0.37397  1.0000
  C   C421      1.0  0.22541  0.84620  0.26284  1.0000
  C   C422      1.0  0.02624  0.94058  0.41670  1.0000
  C   C423      1.0  0.13814  0.91447  0.38980  1.0000
  C   C424      1.0  0.03092  0.50561  0.17367  1.0000
  H   H324      1.0  0.12283  0.75833  0.06246  1.0000
  C   C425      1.0  0.07071  0.51925  0.03735  1.0000
  C   C426      1.0  0.23151  0.86906  0.33530  1.0000
  H   H325      1.0  0.06250  0.88971  0.25772  1.0000
  H   H326      1.0  0.09458  0.91051  0.20786  1.0000
  H   H327      1.0  0.11278  0.95221  0.23086  1.0000
  H   H328      1.0  0.09876  0.97371  0.30380  1.0000
  H   H329      1.0  0.06524  0.95412  0.35323  1.0000
  H   H330      1.0  0.28738  0.69316  0.18471  1.0000
  H   H331      1.0  0.22886  0.85960  0.02906  1.0000
  C   C427      1.0  0.01562  0.88879  0.30359  1.0000
  H   H332      1.0  0.31627  0.77094  0.39897  1.0000
  C   C428      1.0  0.16034  0.51573  0.01402  1.0000
  C   C429      1.0  0.11045  0.79471  0.09304  1.0000
  C   C430      1.0  0.00950  0.89038  0.03568  1.0000
  C   C431      1.0  0.20154  0.92506  0.18119  1.0000
  Fe  Fe27      1.0  0.13888  0.89920  0.99733  1.0000
  P   P14       1.0  0.15366  0.51446  0.17425  1.0000
  C   C432      1.0  0.02424  0.77682  0.19505  1.0000
  P   P15       1.0  0.02904  0.76022  0.10280  1.0000
  C   C433      1.0  0.06108  0.77338  0.09974  1.0000
  C   C434      1.0  0.24736  0.82583  0.99771  1.0000
  H   H333      1.0  0.01260  0.92021  0.25333  1.0000
  C   C435      1.0  0.32481  0.67437  0.19467  1.0000
  H   H334      1.0  0.30545  0.69947  0.33744  1.0000
  C   C436      1.0  0.07917  0.99376  0.17390  1.0000
  C   C437      1.0  0.04742  0.68444  0.13557  1.0000
  C   C438      1.0  0.06492  0.79897  0.11409  1.0000
  C   C439      1.0  0.08957  0.80945  0.11106  1.0000
  H   H335      1.0  0.24662  0.56369  0.22582  1.0000
  H   H336      1.0  0.25991  0.81960  0.47445  1.0000
  C   C440      1.0  0.08194  0.75907  0.07975  1.0000
  H   H337      1.0  0.01427  0.85374  0.34542  1.0000
  H   H338      1.0  0.02324  0.65135  0.12943  1.0000
  H   H339      1.0  0.09249  0.82917  0.12221  1.0000
  C   C441      1.0  0.03479  0.87563  0.42318  1.0000
  H   H340      1.0  0.19798  0.93132  0.31553  1.0000
  H   H341      1.0  0.10752  0.85386  0.41553  1.0000
  C   C442      1.0  0.10661  0.76961  0.07705  1.0000
  H   H342      1.0  0.04440  0.93312  0.43119  1.0000
  C   C443      1.0  0.19314  0.90425  0.20805  1.0000
  C   C444      1.0  0.28468  0.73018  0.09400  1.0000
  C   C445      1.0  0.20602  0.51524  0.19856  1.0000
  H   H343      1.0  0.26131  0.82308  0.02558  1.0000
  H   H344      1.0  0.21459  0.96429  0.18172  1.0000
  S   S55       1.0  0.33208  0.82544  0.36161  1.0000
  H   H345      1.0  0.02016  0.78822  0.26681  1.0000
  H   H346      1.0  0.30117  0.72697  0.41700  1.0000
  C   C446      1.0  0.27791  0.63093  0.35325  1.0000
  C   C447      1.0  0.13830  0.50524  0.41774  1.0000
  H   H347      1.0  0.33136  0.67720  0.00578  1.0000
  H   H348      1.0  0.07925  0.73983  0.06607  1.0000
  H   H349      1.0  0.27361  0.68338  0.28139  1.0000
  H   H350      1.0  0.14626  0.55566  0.10494  1.0000
  H   H351      1.0  0.04001  0.80432  0.40628  1.0000
  P   P16       1.0  0.29570  0.74882  0.18333  1.0000
  C   C448      1.0  0.20608  0.56911  0.20922  1.0000
  C   C449      1.0  0.00903  0.86309  0.31293  1.0000
  C   C450      1.0  0.15581  0.51449  0.11146  1.0000
  C   C451      1.0  0.26604  0.84106  0.30450  1.0000
  C   C452      1.0  0.20688  0.95026  0.25108  1.0000
  H   H352      1.0  0.03375  0.60930  0.98798  1.0000
  H   H353      1.0  0.18582  0.85471  0.38460  1.0000
  C   C453      1.0  0.12513  0.53256  0.19345  1.0000
  C   C454      1.0  0.10240  0.55848  0.25212  1.0000
  C   C455      1.0  0.08071  0.56082  0.22308  1.0000
  C   C456      1.0  0.08097  0.54856  0.17985  1.0000
  C   C457      1.0  0.10301  0.53435  0.16512  1.0000
  H   H354      1.0  0.06329  0.67340  0.15173  1.0000
  C   C458      1.0  0.08716  0.85982  0.41739  1.0000
  H   H355      1.0  0.30031  0.74723  0.28475  1.0000
  H   H356      1.0  0.15039  0.55654  0.01966  1.0000
  C   C459      1.0  0.00603  0.71251  0.09469  1.0000
  C   C460      1.0  0.27177  0.73122  0.05126  1.0000
  H   H357      1.0  0.06377  0.57241  0.23365  1.0000
  H   H358      1.0  0.06417  0.55050  0.15735  1.0000
  H   H359      1.0  0.10281  0.52502  0.13149  1.0000
  P   P17       1.0  0.18392  0.87834  0.29128  1.0000
  C   C461      1.0  0.29770  0.68049  0.34284  1.0000
  H   H360      1.0  0.25800  0.82248  0.23935  1.0000
  H   H361      1.0  0.12954  0.80289  0.09106  1.0000
  C   C462      1.0  0.02878  0.72530  0.10640  1.0000
  C   C463      1.0  0.08728  0.53544  0.42468  1.0000
  C   C464      1.0  0.19842  0.92948  0.27802  1.0000
  C   C465      1.0  0.18284  0.52996  0.19245  1.0000
  C   C466      1.0  0.06191  0.58445  0.42551  1.0000
  C   C467      1.0  0.15055  0.90807  0.34780  1.0000
  C   C468      1.0  0.00261  0.79822  0.05096  1.0000
  H   H362      1.0  0.28027  0.81773  0.39606  1.0000
  H   H363      1.0  0.02379  0.85850  0.15558  1.0000
  H   H364      1.0  0.09245  0.59622  0.37917  1.0000
  H   H365      1.0  0.03743  0.66135  0.45034  1.0000
  C   C469      1.0  0.08251  0.97031  0.15005  1.0000
  H   H366      1.0  0.25577  0.63983  0.29132  1.0000
  C   C470      1.0  0.16845  0.88695  0.34574  1.0000
  C   C471      1.0  0.25666  0.85820  0.33858  1.0000
  H   H367      1.0  0.14119  0.54263  0.26040  1.0000
  C   C472      1.0  0.18315  0.55708  0.19691  1.0000
  C   C473      1.0  0.19256  0.50670  0.40877  1.0000
  C   C474      1.0  0.31786  0.72111  0.18827  1.0000
  H   H368      1.0  0.17925  0.82169  0.28918  1.0000
  H   H369      1.0  0.13864  0.88910  0.23277  1.0000
  C   C475      1.0  0.16402  0.83044  0.26784  1.0000
  C   C476      1.0  0.07632  0.87626  0.38322  1.0000
  C   C477      1.0  0.15272  0.98951  0.24393  1.0000
  C   C478      1.0  0.01047  0.75727  0.01161  1.0000
  C   C479      1.0  0.31892  0.82568  0.41958  1.0000
  C   C480      1.0  0.15130  0.53780  0.08678  1.0000
  C   C481      1.0  0.08887  0.53491  0.01605  1.0000
  H   H370      1.0  0.26908  0.86327  0.36734  1.0000
  C   C482      1.0  0.04917  0.71118  0.12828  1.0000
  C   C483      1.0  0.29579  0.63993  0.38545  1.0000
  C   C484      1.0  0.05171  0.56396  0.45094  1.0000
  C   C485      1.0  0.14109  0.86827  0.23625  1.0000
  C   C486      1.0  0.16188  0.85748  0.26198  1.0000
  H   H371      1.0  0.26876  0.73867  0.34752  1.0000
  H   H372      1.0  0.02014  0.52103  0.19127  1.0000
  C   C487      1.0  0.32154  0.72965  0.40934  1.0000
  H   H373      1.0  0.12464  0.93101  0.39142  1.0000
  C   C488      1.0  0.04567  0.85914  0.45713  1.0000
  C   C489      1.0  0.28051  0.82260  0.47056  1.0000
  H   H374      1.0  0.27010  0.61179  0.35733  1.0000
  C   C490      1.0  0.14331  0.89968  0.42983  1.0000
  H   H375      1.0  0.01859  0.73766  0.01079  1.0000
  H   H376      1.0  0.27714  0.66057  0.46438  1.0000
  H   H377      1.0  0.00551  0.89943  0.00233  1.0000
  H   H378      1.0  0.02037  0.95007  0.15331  1.0000
  P   P18       1.0  0.32777  0.67657  0.42419  1.0000
  C   C491      1.0  0.33002  0.75458  0.39956  1.0000
  P   P19       1.0  0.10347  0.50389  0.42427  1.0000
  H   H379      1.0  0.14133  0.54314  0.44929  1.0000
  H   H380      1.0  0.00453  0.81061  0.08099  1.0000
  H   H381      1.0  0.30187  0.62743  0.41410  1.0000
  H   H382      1.0  0.33075  0.74755  0.04134  1.0000
  C   C492      1.0  0.02594  0.50064  0.12694  1.0000
  H   H383      1.0  0.01404  0.99166  0.19488  1.0000
  H   H384      1.0  0.13400  0.90472  0.46265  1.0000
  Fe  Fe28      1.0  0.15013  0.60260  0.47269  1.0000
  C   C493      1.0  0.29660  0.65715  0.98912  1.0000
  H   H385      1.0  0.05923  0.79785  0.99638  1.0000
  H   H386      1.0  0.16438  0.86674  0.45884  1.0000
  S   S56       1.0  0.99987  0.55888  0.06166  1.0000
  H   H387      1.0  0.05600  0.52381  0.47012  1.0000
  H   H388      1.0  0.01818  0.96552  0.47540  1.0000
  H   H389      1.0  0.05616  0.70297  0.47194  1.0000
  C   C494      1.0  0.32134  0.66670  0.97926  1.0000
  H   H390      1.0  0.33012  0.77395  0.11837  1.0000
  C   C495      1.0  0.00033  0.50507  0.98477  1.0000
  C   C496      1.0  0.05993  0.49877  0.01275  1.0000
  H   H391      1.0  0.16193  0.51608  0.97642  1.0000
  H   H392      1.0  0.10065  0.91442  0.67750  1.0000
  C   C497      1.0  0.02326  0.63383  0.93000  1.0000
  S   S57       1.0  0.18073  0.58679  0.52205  1.0000
  Fe  Fe29      1.0  0.11613  0.62335  0.55317  1.0000
  S   S58       1.0  0.14441  0.60980  0.60820  1.0000
  S   S59       1.0  0.08176  0.64796  0.57812  1.0000
  Fe  Fe30      1.0  0.17456  0.62490  0.55930  1.0000
  S   S60       1.0  0.20780  0.64924  0.58250  1.0000
  Fe  Fe31      1.0  0.14795  0.57286  0.56734  1.0000
  S   S61       1.0  0.14618  0.53152  0.59737  1.0000
  S   S62       1.0  0.14609  0.64145  0.50738  1.0000
  S   S63       1.0  0.11747  0.58558  0.51477  1.0000
  S   S64       1.0  0.13378  0.88909  0.92028  1.0000
  Fe  Fe32      1.0  0.24015  0.82900  0.59855  1.0000
  S   S65       1.0  0.23390  0.80920  0.66839  1.0000
  S   S66       1.0  0.28191  0.82805  0.56764  1.0000
  Fe  Fe33      1.0  0.18364  0.85066  0.59808  1.0000
  S   S67       1.0  0.17374  0.83281  0.66669  1.0000
  S   S68       1.0  0.15325  0.87583  0.56063  1.0000
  Fe  Fe34      1.0  0.21231  0.84579  0.69110  1.0000
  S   S69       1.0  0.21868  0.86506  0.76165  1.0000
  Fe  Fe35      1.0  0.19557  0.79770  0.63889  1.0000
  S   S70       1.0  0.17345  0.76139  0.65324  1.0000
  S   S71       1.0  0.22121  0.86656  0.62390  1.0000
  S   S72       1.0  0.20286  0.81464  0.56784  1.0000
  S   S73       1.0  0.03503  0.84761  0.58905  1.0000
  C   C498      1.0  0.12037  0.86818  0.56924  1.0000
  C   C499      1.0  0.10053  0.88583  0.55508  1.0000
  C   C500      1.0  0.07420  0.87998  0.56127  1.0000
  C   C501      1.0  0.06763  0.85629  0.58127  1.0000
  C   C502      1.0  0.08745  0.83869  0.59542  1.0000
  C   C503      1.0  0.11370  0.84462  0.58955  1.0000
  H   H393      1.0  0.10554  0.90414  0.53949  1.0000
  H   H394      1.0  0.05906  0.89370  0.55036  1.0000
  H   H395      1.0  0.08253  0.82029  0.61080  1.0000
  H   H396      1.0  0.12879  0.83077  0.60017  1.0000
  C   C504      1.0  0.15831  0.88113  0.87839  1.0000
  C   C505      1.0  0.15229  0.86496  0.84092  1.0000
  C   C506      1.0  0.17048  0.85965  0.80503  1.0000
  C   C507      1.0  0.19511  0.87032  0.80644  1.0000
  C   C508      1.0  0.20132  0.88599  0.84447  1.0000
  C   C509      1.0  0.18302  0.89158  0.88000  1.0000
  H   H397      1.0  0.13345  0.85639  0.83981  1.0000
  H   H398      1.0  0.16541  0.84742  0.77624  1.0000
  H   H399      1.0  0.22027  0.89425  0.84599  1.0000
  H   H400      1.0  0.18789  0.90432  0.90822  1.0000
  C   C510      1.0  0.14560  0.52080  0.65659  1.0000
  C   C511      1.0  0.14946  0.53761  0.69382  1.0000
  C   C512      1.0  0.21153  0.85046  0.96331  1.0000
  H   H401      1.0  0.15269  0.55787  0.68688  1.0000
  C   C513      1.0  0.28037  0.89297  0.86542  1.0000
  C   C514      1.0  0.05082  0.91925  0.70597  1.0000
  C   C515      1.0  0.03179  0.64857  0.60970  1.0000
  C   C516      1.0  0.05029  0.63564  0.58166  1.0000
  C   C517      1.0  0.04308  0.61403  0.55613  1.0000
  H   H402      1.0  0.11018  0.54293  0.95374  1.0000
  H   H403      1.0  0.03725  0.66527  0.62953  1.0000
  H   H404      1.0  0.05717  0.60432  0.53377  1.0000
  C   C518      1.0  0.04740  0.81649  0.93208  1.0000
  C   C519      1.0  0.19825  0.68078  0.60036  1.0000
  C   C520      1.0  0.21665  0.70021  0.60332  1.0000
  C   C521      1.0  0.20925  0.72539  0.61797  1.0000
  C   C522      1.0  0.18349  0.73095  0.63091  1.0000
  C   C523      1.0  0.16525  0.71146  0.62842  1.0000
  C   C524      1.0  0.17243  0.68658  0.61252  1.0000
  H   H405      1.0  0.23661  0.69586  0.59406  1.0000
  H   H406      1.0  0.22350  0.74027  0.62011  1.0000
  H   H407      1.0  0.14536  0.71578  0.63815  1.0000
  H   H408      1.0  0.15807  0.67179  0.61040  1.0000
  C   C525      1.0  0.32241  0.83059  0.50388  1.0000
  C   C526      1.0  0.29549  0.82719  0.51002  1.0000
  C   C527      1.0  0.11663  0.91687  0.70117  1.0000
  H   H409      1.0  0.03387  0.85264  0.48598  1.0000
  C   C528      1.0  0.32124  0.64796  0.90146  1.0000
  H   H410      1.0  0.11434  0.67896  0.96599  1.0000
  C   C529      1.0  0.08280  0.54589  0.66472  1.0000
  C   C530      1.0  0.02635  0.93160  0.63735  1.0000
  C   C531      1.0  0.03171  0.75198  0.59824  1.0000
  H   H411      1.0  0.31635  0.76793  0.50271  1.0000
  H   H412      1.0  0.02435  0.72582  0.70640  1.0000
  H   H413      1.0  0.02637  0.83042  0.75125  1.0000
  C   C532      1.0  0.31777  0.89130  0.81344  1.0000
  C   C533      1.0  0.30853  0.91435  0.79210  1.0000
  C   C534      1.0  0.28546  0.92662  0.80744  1.0000
  C   C535      1.0  0.27146  0.91600  0.84419  1.0000
  C   C536      1.0  0.22872  0.81164  0.92484  1.0000
  C   C537      1.0  0.30347  0.88066  0.85025  1.0000
  H   H414      1.0  0.30235  0.85827  0.64556  1.0000
  H   H415      1.0  0.30823  0.88127  0.71917  1.0000
  C   C538      1.0  0.02654  0.78979  0.82847  1.0000
  C   C539      1.0  0.06617  0.55180  0.58667  1.0000
  H   H416      1.0  0.31913  0.92284  0.76350  1.0000
  H   H417      1.0  0.27838  0.94435  0.79077  1.0000
  H   H418      1.0  0.08432  0.92006  0.91610  1.0000
  C   C540      1.0  0.07005  0.52765  0.81053  1.0000
  C   C541      1.0  0.18517  0.61689  0.70769  1.0000
  C   C542      1.0  0.18418  0.59616  0.73905  1.0000
  C   C543      1.0  0.17513  0.60036  0.78439  1.0000
  C   C544      1.0  0.16699  0.62529  0.79842  1.0000
  C   C545      1.0  0.16746  0.64613  0.76676  1.0000
  C   C546      1.0  0.17694  0.64177  0.72150  1.0000
  P   P20       1.0  0.16013  0.67899  0.78508  1.0000
  C   C547      1.0  0.14569  0.67953  0.84250  1.0000
  C   C548      1.0  0.19151  0.69368  0.78401  1.0000
  C   C549      1.0  0.21147  0.68345  0.81261  1.0000
  C   C550      1.0  0.22270  0.72135  0.74637  1.0000
  C   C551      1.0  0.19736  0.71269  0.75081  1.0000
  C   C552      1.0  0.15740  0.69234  0.87961  1.0000
  C   C553      1.0  0.14612  0.69202  0.92400  1.0000
  H   H419      1.0  0.26494  0.63599  0.96121  1.0000
  C   C554      1.0  0.11061  0.66740  0.89432  1.0000
  C   C555      1.0  0.12200  0.66737  0.85003  1.0000
  C   C556      1.0  0.13659  0.69487  0.74695  1.0000
  C   C557      1.0  0.12210  0.68054  0.71534  1.0000
  C   C558      1.0  0.10372  0.69302  0.68645  1.0000
  C   C559      1.0  0.09966  0.71991  0.68889  1.0000
  C   C560      1.0  0.11372  0.73427  0.72069  1.0000
  C   C561      1.0  0.13185  0.72178  0.75008  1.0000
  H   H420      1.0  0.19284  0.61385  0.67282  1.0000
  H   H421      1.0  0.19090  0.57693  0.72841  1.0000
  H   H422      1.0  0.17488  0.58431  0.80886  1.0000
  H   H423      1.0  0.16093  0.62819  0.83415  1.0000
  H   H424      1.0  0.17861  0.65774  0.69710  1.0000
  H   H425      1.0  0.20764  0.66813  0.83741  1.0000
  H   H426      1.0  0.22705  0.73563  0.71985  1.0000
  H   H427      1.0  0.18276  0.72021  0.72699  1.0000
  H   H428      1.0  0.17516  0.70263  0.87458  1.0000
  C   C562      1.0  0.03678  0.61312  0.95132  1.0000
  H   H429      1.0  0.10423  0.52205  0.52043  1.0000
  C   C563      1.0  0.00470  0.66569  0.49680  1.0000
  H   H430      1.0  0.11244  0.65779  0.82165  1.0000
  H   H431      1.0  0.12505  0.65980  0.71239  1.0000
  H   H432      1.0  0.09314  0.68191  0.66122  1.0000
  H   H433      1.0  0.08617  0.72967  0.66526  1.0000
  H   H434      1.0  0.11112  0.75518  0.72164  1.0000
  H   H435      1.0  0.14267  0.73318  0.77440  1.0000
  P   P21       1.0  0.03021  0.84206  0.85054  1.0000
  C   C564      1.0  0.05202  0.84717  0.80181  1.0000
  C   C565      1.0  0.02931  0.77830  0.60997  1.0000
  C   C566      1.0  0.05824  0.50367  0.80844  1.0000
  C   C567      1.0  0.05237  0.96321  0.67594  1.0000
  H   H436      1.0  0.05529  0.83794  0.68417  1.0000
  H   H437      1.0  0.14784  0.60825  0.94071  1.0000
  C   C568      1.0  0.01727  0.60573  0.55818  1.0000
  H   H438      1.0  0.01542  0.65414  0.86579  1.0000
  C   C569      1.0  0.29616  0.63906  0.91083  1.0000
  H   H439      1.0  0.28344  0.68550  0.60551  1.0000
  H   H440      1.0  0.33242  0.82213  0.62317  1.0000
  H   H441      1.0  0.24993  0.68804  0.95407  1.0000
  C   C570      1.0  0.02771  0.67358  0.47598  1.0000
  H   H442      1.0  0.00988  0.64590  0.95026  1.0000
  C   C571      1.0  0.08482  0.55676  0.62033  1.0000
  H   H443      1.0  0.02736  0.55811  0.88522  1.0000
  C   C572      1.0  0.06225  0.52996  0.67545  1.0000
  H   H444      1.0  0.32753  0.76586  0.65063  1.0000
  C   C573      1.0  0.03198  0.94670  0.85930  1.0000
  C   C574      1.0  0.21490  0.74158  0.91853  1.0000
  Fe  Fe36      1.0  0.00027  0.87139  0.56287  1.0000
  H   H445      1.0  0.02713  0.89326  0.66728  1.0000
  C   C575      1.0  0.14939  0.52813  0.74006  1.0000
  H   H446      1.0  0.11025  0.87325  0.77357  1.0000
  C   C576      1.0  0.24708  0.80837  0.96061  1.0000
  C   C577      1.0  0.04546  0.53594  0.59732  1.0000
  H   H447      1.0  0.01190  0.95288  0.86526  1.0000
  C   C578      1.0  0.04669  0.93564  0.89548  1.0000
  H   H448      1.0  0.03349  0.71275  0.62543  1.0000
  H   H449      1.0  0.00642  0.51637  0.87911  1.0000
  C   C579      1.0  0.05982  0.54739  0.83949  1.0000
  C   C580      1.0  0.03655  0.54319  0.86391  1.0000
  P   P22       1.0  0.07579  0.57809  0.84298  1.0000
  C   C581      1.0  0.05588  0.60070  0.87685  1.0000
  C   C582      1.0  0.10755  0.57482  0.87013  1.0000
  C   C583      1.0  0.11654  0.59482  0.89832  1.0000
  C   C584      1.0  0.14879  0.55122  0.88194  1.0000
  C   C585      1.0  0.12410  0.55311  0.86178  1.0000
  C   C586      1.0  0.04267  0.62198  0.85587  1.0000
  H   H450      1.0  0.01305  0.92684  0.61001  1.0000
  C   C587      1.0  0.00608  0.64040  0.61153  1.0000
  H   H451      1.0  0.09002  0.50798  0.90832  1.0000
  C   C588      1.0  0.05306  0.59663  0.92499  1.0000
  C   C589      1.0  0.07909  0.58961  0.78391  1.0000
  C   C590      1.0  0.05741  0.59070  0.75428  1.0000
  C   C591      1.0  0.05966  0.60059  0.70907  1.0000
  C   C592      1.0  0.08371  0.60868  0.69280  1.0000
  C   C593      1.0  0.10553  0.60676  0.72151  1.0000
  C   C594      1.0  0.10322  0.59746  0.76702  1.0000
  H   H452      1.0  0.11321  0.98234  0.68633  1.0000
  H   H453      1.0  0.17636  0.56950  0.92645  1.0000
  H   H454      1.0  0.15064  0.74471  0.54874  1.0000
  C   C595      1.0  0.15731  0.57104  0.91046  1.0000
  C   C596      1.0  0.04380  0.52433  0.64148  1.0000
  H   H455      1.0  0.11828  0.53740  0.84009  1.0000
  H   H456      1.0  0.04446  0.62590  0.81909  1.0000
  C   C597      1.0  0.03520  0.95682  0.64058  1.0000
  C   C598      1.0  0.04336  0.95066  0.81573  1.0000
  H   H457      1.0  0.05666  0.90460  0.73125  1.0000
  H   H458      1.0  0.06283  0.58024  0.94195  1.0000
  H   H459      1.0  0.03869  0.58430  0.76635  1.0000
  H   H460      1.0  0.03074  0.53298  0.57125  1.0000
  H   H461      1.0  0.08110  0.70140  0.54465  1.0000
  H   H462      1.0  0.12430  0.61230  0.70834  1.0000
  H   H463      1.0  0.12031  0.59626  0.78866  1.0000
  H   H464      1.0  0.26231  0.71675  0.76992  1.0000
  H   H465      1.0  0.25221  0.68377  0.82971  1.0000
  C   C599      1.0  0.12965  0.74429  0.54595  1.0000
  C   C600      1.0  0.02298  0.76680  0.69082  1.0000
  C   C601      1.0  0.02632  0.63835  0.88238  1.0000
  C   C602      1.0  0.11730  0.72056  0.54530  1.0000
  H   H466      1.0  0.18001  0.89705  0.71185  1.0000
  H   H467      1.0  0.03798  0.93298  0.92950  1.0000
  C   C603      1.0  0.22031  0.71697  0.93730  1.0000
  C   C604      1.0  0.16171  0.90709  0.71978  1.0000
  H   H468      1.0  0.02403  0.74902  0.81339  1.0000
  C   C605      1.0  0.06104  0.84369  0.71875  1.0000
  H   H469      1.0  0.03085  0.79316  0.58348  1.0000
  H   H470      1.0  0.26930  0.88463  0.89361  1.0000
  C   C606      1.0  0.31900  0.76724  0.57740  1.0000
  H   H471      1.0  0.09231  0.65806  0.90004  1.0000
  C   C607      1.0  0.04704  0.83956  0.90570  1.0000
  C   C608      1.0  0.05842  0.86155  0.92424  1.0000
  C   C609      1.0  0.13617  0.93664  0.76827  1.0000
  C   C610      1.0  0.03065  0.73313  0.63351  1.0000
  C   C611      1.0  0.07586  0.85935  0.80754  1.0000
  C   C612      1.0  0.21155  0.83336  0.92569  1.0000
  H   H472      1.0  0.06776  0.56033  0.55238  1.0000
  C   C613      1.0  0.24247  0.71084  0.77461  1.0000
  C   C614      1.0  0.23680  0.69214  0.80815  1.0000
  C   C615      1.0  0.11490  0.76749  0.54445  1.0000
  H   H473      1.0  0.09707  0.55005  0.69097  1.0000
  C   C616      1.0  0.31537  0.69523  0.56065  1.0000
  C   C617      1.0  0.09203  0.86360  0.76914  1.0000
  H   H474      1.0  0.03186  0.96012  0.78861  1.0000
  H   H475      1.0  0.10421  0.92574  0.83945  1.0000
  C   C618      1.0  0.12286  0.67938  0.93142  1.0000
  H   H476      1.0  0.08714  0.53065  0.78936  1.0000
  C   C619      1.0  0.15969  0.92346  0.75828  1.0000
  H   H477      1.0  0.29820  0.77006  0.58248  1.0000
  C   C620      1.0  0.31829  0.85254  0.66843  1.0000
  C   C621      1.0  0.27784  0.67202  0.53557  1.0000
  H   H478      1.0  0.05759  0.87968  0.90537  1.0000
  H   H479      1.0  0.17489  0.79382  0.91524  1.0000
  P   P23       1.0  0.08426  0.95118  0.75245  1.0000
  H   H480      1.0  0.14202  0.89153  0.66077  1.0000
  C   C622      1.0  0.01333  0.76679  0.82212  1.0000
  C   C623      1.0  0.24584  0.70705  0.93902  1.0000
  H   H481      1.0  0.07665  0.78516  0.54135  1.0000
  H   H482      1.0  0.09730  0.85891  0.69515  1.0000
  H   H483      1.0  0.03821  0.79934  0.91972  1.0000
  C   C624      1.0  0.02672  0.71236  0.52379  1.0000
  C   C625      1.0  0.09589  0.53084  0.96970  1.0000
  H   H484      1.0  0.17646  0.92594  0.78032  1.0000
  C   C626      1.0  0.02479  0.78568  0.65603  1.0000
  H   H485      1.0  0.12450  0.78586  0.54645  1.0000
  C   C627      1.0  0.06959  0.94343  0.80784  1.0000
  H   H486      1.0  0.08220  0.86570  0.84128  1.0000
  H   H487      1.0  0.33207  0.75711  0.95672  1.0000
  H   H488      1.0  0.04751  0.78960  0.82481  1.0000
  C   C628      1.0  0.14122  0.59287  0.91847  1.0000
  C   C629      1.0  0.07529  0.74319  0.53946  1.0000
  H   H489      1.0  0.28636  0.62806  0.88460  1.0000
  H   H490      1.0  0.20468  0.70579  0.95142  1.0000
  H   H491      1.0  0.13519  0.94974  0.79761  1.0000
  H   H492      1.0  0.19498  0.74885  0.91853  1.0000
  H   H493      1.0  0.25362  0.92560  0.85609  1.0000
  P   P24       1.0  0.22806  0.78869  0.87748  1.0000
  C   C630      1.0  0.25183  0.79715  0.83407  1.0000
  C   C631      1.0  0.23507  0.75661  0.90122  1.0000
  C   C632      1.0  0.26085  0.74675  0.90425  1.0000
  C   C633      1.0  0.26614  0.72193  0.92253  1.0000
  H   H494      1.0  0.10086  0.56907  0.61217  1.0000
  C   C634      1.0  0.07275  0.92834  0.88790  1.0000
  H   H495      1.0  0.19790  0.83701  0.89769  1.0000
  C   C635      1.0  0.26316  0.77792  0.80539  1.0000
  C   C636      1.0  0.28039  0.78451  0.76990  1.0000
  C   C637      1.0  0.28604  0.81046  0.76216  1.0000
  C   C638      1.0  0.27457  0.82979  0.79005  1.0000
  C   C639      1.0  0.25759  0.82319  0.82602  1.0000
  C   C640      1.0  0.19624  0.78920  0.85051  1.0000
  C   C641      1.0  0.19382  0.78695  0.80199  1.0000
  C   C642      1.0  0.16928  0.78791  0.78123  1.0000
  C   C643      1.0  0.14695  0.79126  0.80856  1.0000
  C   C644      1.0  0.14912  0.79328  0.85684  1.0000
  C   C645      1.0  0.17361  0.79209  0.87778  1.0000
  H   H496      1.0  0.02839  0.97145  0.61587  1.0000
  H   H497      1.0  0.10456  0.61195  0.90512  1.0000
  C   C646      1.0  0.11425  0.93308  0.74036  1.0000
  C   C647      1.0  0.09021  0.71999  0.54288  1.0000
  H   H498      1.0  0.19747  0.86654  0.96476  1.0000
  H   H499      1.0  0.27691  0.75822  0.89275  1.0000
  H   H500      1.0  0.28598  0.71420  0.92447  1.0000
  C   C648      1.0  0.08409  0.93182  0.84412  1.0000
  C   C649      1.0  0.06061  0.94431  0.70847  1.0000
  H   H501      1.0  0.30993  0.86284  0.86722  1.0000
  H   H502      1.0  0.25817  0.75790  0.80981  1.0000
  H   H503      1.0  0.28881  0.76959  0.74757  1.0000
  H   H504      1.0  0.29867  0.81563  0.73365  1.0000
  H   H505      1.0  0.27781  0.85002  0.78247  1.0000
  H   H506      1.0  0.24809  0.83856  0.84598  1.0000
  H   H507      1.0  0.21075  0.78480  0.77977  1.0000
  H   H508      1.0  0.16765  0.78648  0.74372  1.0000
  H   H509      1.0  0.12804  0.79257  0.79219  1.0000
  H   H510      1.0  0.13186  0.79618  0.87810  1.0000
  H   H511      1.0  0.01158  0.58932  0.53780  1.0000
  H   H512      1.0  0.16126  0.53422  0.87537  1.0000
  H   H513      1.0  0.01646  0.51197  0.96466  1.0000
  C   C650      1.0  0.03407  0.91281  0.67005  1.0000
  H   H514      1.0  0.15289  0.54125  0.76839  1.0000
  C   C651      1.0  0.14023  0.90387  0.69117  1.0000
  P   P25       1.0  0.01717  0.50407  0.65617  1.0000
  H   H515      1.0  0.04289  0.60169  0.68627  1.0000
  H   H516      1.0  0.26105  0.79225  0.96020  1.0000
  H   H517      1.0  0.08554  0.61589  0.65756  1.0000
  H   H518      1.0  0.15539  0.70157  0.95285  1.0000
  H   H519      1.0  0.02242  0.80607  0.66430  1.0000
  C   C652      1.0  0.02567  0.76628  0.49976  1.0000
  C   C653      1.0  0.04476  0.83946  0.75693  1.0000
  H   H520      1.0  0.25923  0.66362  0.54332  1.0000
  H   H521      1.0  0.06074  0.52208  0.71026  1.0000
  C   C654      1.0  0.03850  0.69701  0.48890  1.0000
  H   H522      1.0  0.00053  0.86528  0.92834  1.0000
  C   C655      1.0  0.08472  0.85562  0.72486  1.0000
  C   C656      1.0  0.32588  0.69331  0.51584  1.0000
  H   H523      1.0  0.05895  0.98286  0.67766  1.0000
  H   H524      1.0  0.01915  0.77256  0.72633  1.0000
  P   P26       1.0  0.04023  0.74293  0.53965  1.0000
  C   C657      1.0  0.08781  0.76698  0.54139  1.0000
  H   H525      1.0  0.12871  0.70254  0.54763  1.0000
  C   C658      1.0  0.02439  0.51944  0.86051  1.0000
  C   C659      1.0  0.02589  0.74053  0.67958  1.0000
  C   C660      1.0  0.28390  0.64361  0.95428  1.0000
  C   C661      1.0  0.29144  0.68441  0.57060  1.0000
  C   C662      1.0  0.01278  0.81281  0.84015  1.0000
  C   C663      1.0  0.09201  0.98513  0.75141  1.0000
  H   H526      1.0  0.32592  0.70482  0.58782  1.0000
  C   C664      1.0  0.07067  0.86040  0.96750  1.0000
  C   C665      1.0  0.32924  0.76605  0.53237  1.0000
  C   C666      1.0  0.14531  0.50175  0.74986  1.0000
  C   C667      1.0  0.32168  0.86551  0.71049  1.0000
  H   H527      1.0  0.08038  0.83896  0.48132  1.0000
  C   C668      1.0  0.31255  0.68046  0.48062  1.0000
  H   H528      1.0  0.00799  0.87834  0.78010  1.0000
  C   C669      1.0  0.10659  0.99497  0.71427  1.0000
  C   C670      1.0  0.28822  0.67018  0.49065  1.0000
  C   C671      1.0  0.10027  0.50153  0.52083  1.0000
  C   C672      1.0  0.00719  0.86927  0.85393  1.0000
  H   H529      1.0  0.07272  0.99509  0.81667  1.0000
  C   C673      1.0  0.00323  0.70459  0.54370  1.0000
  H   H530      1.0  0.09843  0.49992  0.59556  1.0000
  C   C674      1.0  0.08466  0.51106  0.94442  1.0000
  C   C675      1.0  0.03540  0.49961  0.83332  1.0000
  H   H531      1.0  0.00746  0.51728  0.75436  1.0000
  C   C676      1.0  0.99969  0.88315  0.81368  1.0000
  C   C677      1.0  0.05925  0.81553  0.97586  1.0000
  C   C678      1.0  0.55437  0.46929  0.44566  1.0000
  S   S74       1.0  0.45216  0.40146  0.03762  1.0000
  Fe  Fe37      1.0  0.52599  0.41457  0.03051  1.0000
  S   S75       1.0  0.50601  0.40769  0.09835  1.0000
  S   S76       1.0  0.56835  0.42437  0.03483  1.0000
  Fe  Fe38      1.0  0.48626  0.37598  0.06031  1.0000
  S   S77       1.0  0.48882  0.33600  0.09249  1.0000
  Fe  Fe39      1.0  0.47418  0.43403  0.07093  1.0000
  S   S78       1.0  0.45557  0.46696  0.11460  1.0000
  C   C679      1.0  0.37697  0.36312  0.38464  1.0000
  S   S79       1.0  0.49535  0.44286  0.00422  1.0000
  H   H532      1.0  0.60044  0.08647  0.36204  1.0000
  H   H533      1.0  0.44759  0.27223  0.34444  1.0000
  Fe  Fe40      1.0  0.59318  0.09184  0.06016  1.0000
  S   S80       1.0  0.61726  0.09443  0.12460  1.0000
  S   S81       1.0  0.55140  0.08137  0.07308  1.0000
  S   S82       1.0  0.62171  0.06489  0.02409  1.0000
  S   S83       1.0  0.60892  0.12749  0.02673  1.0000
  Fe  Fe41      1.0  0.42639  0.17468  0.09126  1.0000
  S   S84       1.0  0.42873  0.20102  0.15307  1.0000
  S   S85       1.0  0.46293  0.16871  0.04788  1.0000
  Fe  Fe42      1.0  0.36681  0.17544  0.09032  1.0000
  S   S86       1.0  0.36536  0.20108  0.15370  1.0000
  Fe  Fe43      1.0  0.39623  0.22357  0.11855  1.0000
  S   S87       1.0  0.39020  0.26689  0.11169  1.0000
  Fe  Fe44      1.0  0.39790  0.17625  0.18459  1.0000
  S   S88       1.0  0.39682  0.17293  0.26484  1.0000
  S   S89       1.0  0.39613  0.19954  0.05423  1.0000
  S   S90       1.0  0.39708  0.14813  0.12393  1.0000
  S   S91       1.0  0.44410  0.09051  0.41270  1.0000
  C   C680      1.0  0.41149  0.15037  0.30512  1.0000
  C   C681      1.0  0.42379  0.12713  0.29088  1.0000
  C   C682      1.0  0.43396  0.10932  0.32423  1.0000
  C   C683      1.0  0.43263  0.11468  0.37223  1.0000
  C   C684      1.0  0.42090  0.13821  0.38644  1.0000
  C   C685      1.0  0.41009  0.15572  0.35315  1.0000
  H   H534      1.0  0.42486  0.12255  0.25422  1.0000
  H   H535      1.0  0.44270  0.09110  0.31271  1.0000
  H   H536      1.0  0.41951  0.14260  0.42312  1.0000
  H   H537      1.0  0.40040  0.17344  0.36481  1.0000
  C   C686      1.0  0.52715  0.10611  0.06742  1.0000
  C   C687      1.0  0.50323  0.10367  0.09043  1.0000
  C   C688      1.0  0.48338  0.12292  0.08550  1.0000
  C   C689      1.0  0.48724  0.14437  0.05666  1.0000
  C   C690      1.0  0.51110  0.14668  0.03341  1.0000
  C   C691      1.0  0.53111  0.12778  0.03920  1.0000
  H   H538      1.0  0.50006  0.08689  0.11219  1.0000
  H   H539      1.0  0.46500  0.12095  0.10333  1.0000
  H   H540      1.0  0.51412  0.16318  0.01091  1.0000
  H   H541      1.0  0.54934  0.12963  0.02095  1.0000
  H   H542      1.0  0.58940  0.13379  0.17856  1.0000
  H   H543      1.0  0.49464  0.15449  0.17944  1.0000
  C   C692      1.0  0.59013  0.39743  0.03884  1.0000
  C   C693      1.0  0.61503  0.40043  0.05736  1.0000
  C   C694      1.0  0.63293  0.37925  0.05925  1.0000
  C   C695      1.0  0.62612  0.35521  0.04156  1.0000
  C   C696      1.0  0.60128  0.35228  0.02299  1.0000
  C   C697      1.0  0.58323  0.37324  0.02207  1.0000
  H   H544      1.0  0.62051  0.41916  0.07016  1.0000
  H   H545      1.0  0.65215  0.38167  0.07334  1.0000
  H   H546      1.0  0.61602  0.07622  0.27233  1.0000
  C   C698      1.0  0.51833  0.01830  0.10125  1.0000
  C   C699      1.0  0.46130  0.31682  0.09523  1.0000
  C   C700      1.0  0.46446  0.29051  0.10711  1.0000
  C   C701      1.0  0.44280  0.27480  0.11093  1.0000
  C   C702      1.0  0.41784  0.28554  0.10397  1.0000
  C   C703      1.0  0.41469  0.31180  0.09170  1.0000
  C   C704      1.0  0.43641  0.32741  0.08702  1.0000
  H   H547      1.0  0.48372  0.28220  0.11317  1.0000
  H   H548      1.0  0.44536  0.25453  0.12008  1.0000
  H   H549      1.0  0.39540  0.32008  0.08577  1.0000
  H   H550      1.0  0.43388  0.34767  0.07771  1.0000
  H   H551      1.0  0.53608  0.45951  0.44765  1.0000
  H   H552      1.0  0.34759  0.28174  0.04323  1.0000
  H   H553      1.0  0.35095  0.32189  0.47492  1.0000
  C   C705      1.0  0.62986  0.22541  0.99215  1.0000
  C   C706      1.0  0.48851  0.28449  0.43419  1.0000
  C   C707      1.0  0.51853  0.23472  0.05577  1.0000
  H   H554      1.0  0.62307  0.02704  0.27802  1.0000
  C   C708      1.0  0.42233  0.39105  0.22370  1.0000
  Fe  Fe45      1.0  0.64666  0.06931  0.08761  1.0000
  C   C709      1.0  0.40100  0.37526  0.15512  1.0000
  C   C710      1.0  0.39763  0.32147  0.40235  1.0000
  C   C711      1.0  0.39736  0.35187  0.22846  1.0000
  C   C712      1.0  0.41341  0.36999  0.24937  1.0000
  P   P27       1.0  0.38596  0.32438  0.26117  1.0000
  H   H555      1.0  0.51982  0.38007  0.42032  1.0000
  C   C713      1.0  0.52550  0.09932  0.31965  1.0000
  C   C714      1.0  0.56837  0.02832  0.26381  1.0000
  C   C715      1.0  0.40767  0.29671  0.25078  1.0000
  C   C716      1.0  0.39928  0.27146  0.25928  1.0000
  C   C717      1.0  0.41593  0.25001  0.25089  1.0000
  C   C718      1.0  0.44120  0.25361  0.23483  1.0000
  C   C719      1.0  0.44979  0.27866  0.22674  1.0000
  C   C720      1.0  0.43307  0.30014  0.23438  1.0000
  C   C721      1.0  0.52040  0.11801  0.39634  1.0000
  P   P28       1.0  0.56416  0.25608  0.08866  1.0000
  H   H556      1.0  0.41901  0.36803  0.28549  1.0000
  C   C722      1.0  0.56994  0.48848  0.25837  1.0000
  C   C723      1.0  0.35358  0.31765  0.24094  1.0000
  H   H557      1.0  0.37974  0.26835  0.27168  1.0000
  H   H558      1.0  0.40910  0.23050  0.25590  1.0000
  H   H559      1.0  0.45389  0.23693  0.22765  1.0000
  H   H560      1.0  0.46913  0.28142  0.21301  1.0000
  H   H561      1.0  0.43996  0.31930  0.22666  1.0000
  H   H562      1.0  0.50990  0.24019  0.36885  1.0000
  C   C724      1.0  0.57762  0.45492  0.43966  1.0000
  C   C725      1.0  0.35808  0.14162  0.44248  1.0000
  H   H563      1.0  0.52129  0.24542  0.15290  1.0000
  C   C726      1.0  0.63353  0.14867  0.27751  1.0000
  C   C727      1.0  0.55476  0.49629  0.44912  1.0000
  C   C728      1.0  0.57187  0.28791  0.10944  1.0000
  H   H564      1.0  0.50868  0.03039  0.41131  1.0000
  H   H565      1.0  0.49749  0.27580  0.46473  1.0000
  C   C729      1.0  0.53841  0.23446  0.16447  1.0000
  H   H566      1.0  0.50949  0.12017  0.42851  1.0000
  C   C730      1.0  0.38970  0.23186  0.36326  1.0000
  C   C731      1.0  0.58244  0.20671  0.19654  1.0000
  H   H567      1.0  0.53915  0.29482  0.02627  1.0000
  H   H568      1.0  0.38191  0.22470  0.33091  1.0000
  H   H569      1.0  0.57009  0.16138  0.11729  1.0000
  H   H570      1.0  0.36915  0.38178  0.39623  1.0000
  C   C732      1.0  0.60771  0.14212  0.27039  1.0000
  C   C733      1.0  0.58448  0.33840  0.13490  1.0000
  H   H571      1.0  0.59304  0.15741  0.26602  1.0000
  C   C734      1.0  0.56131  0.37788  0.42901  1.0000
  C   C735      1.0  0.50146  0.99941  0.03116  1.0000
  C   C736      1.0  0.64620  0.10315  0.28178  1.0000
  H   H572      1.0  0.56028  0.37282  0.46555  1.0000
  C   C737      1.0  0.55784  0.15411  0.14485  1.0000
  C   C738      1.0  0.54369  0.13081  0.39046  1.0000
  H   H573      1.0  0.57744  0.43397  0.43745  1.0000
  H   H574      1.0  0.62002  0.18737  0.01662  1.0000
  C   C739      1.0  0.37563  0.35633  0.33770  1.0000
  C   C740      1.0  0.50698  0.02128  0.05742  1.0000
  H   H575      1.0  0.49680  0.29646  0.98662  1.0000
  H   H576      1.0  0.51837  0.21714  0.22218  1.0000
  H   H577      1.0  0.66113  0.08800  0.28590  1.0000
  H   H578      1.0  0.60274  0.22400  0.13978  1.0000
  C   C741      1.0  0.41621  0.39367  0.17655  1.0000
  H   H579      1.0  0.58358  0.20331  0.06540  1.0000
  H   H580      1.0  0.34468  0.16474  0.31152  1.0000
  C   C742      1.0  0.66244  0.18574  0.12402  1.0000
  C   C743      1.0  0.56906  0.04135  0.18281  1.0000
  C   C744      1.0  0.59822  0.05782  0.41638  1.0000
  C   C745      1.0  0.52693  0.27817  0.02845  1.0000
  H   H581      1.0  0.51455  0.47715  0.24868  1.0000
  C   C746      1.0  0.51129  0.10232  0.36091  1.0000
  C   C747      1.0  0.56192  0.23574  0.13975  1.0000
  H   H582      1.0  0.55732  0.19191  0.24973  1.0000
  H   H583      1.0  0.58947  0.35817  0.14241  1.0000
  H   H584      1.0  0.52425  0.21723  0.07460  1.0000
  H   H585      1.0  0.53285  0.20798  0.31947  1.0000
  H   H586      1.0  0.56944  0.01314  0.29006  1.0000
  H   H587      1.0  0.51343  0.12636  0.24085  1.0000
  C   C748      1.0  0.56873  0.13829  0.17975  1.0000
  C   C749      1.0  0.53437  0.25639  0.05545  1.0000
  C   C750      1.0  0.55307  0.12833  0.21532  1.0000
  H   H588      1.0  0.65641  0.34895  0.19615  1.0000
  C   C751      1.0  0.58413  0.22249  0.15706  1.0000
  C   C752      1.0  0.46908  0.48354  0.16298  1.0000
  H   H589      1.0  0.58617  0.04554  0.39582  1.0000
  H   H590      1.0  0.49227  0.00173  0.99744  1.0000
  C   C753      1.0  0.41642  0.22977  0.37169  1.0000
  C   C754      1.0  0.60093  0.11598  0.26875  1.0000
  C   C755      1.0  0.62047  0.09653  0.27399  1.0000
  H   H591      1.0  0.49928  0.45493  0.17761  1.0000
  C   C756      1.0  0.55797  0.12788  0.34927  1.0000
  C   C757      1.0  0.53124  0.16032  0.14532  1.0000
  P   P29       1.0  0.46146  0.23849  0.42318  1.0000
  C   C758      1.0  0.59466  0.21715  0.04579  1.0000
  C   C759      1.0  0.55872  0.20463  0.21984  1.0000
  H   H592      1.0  0.36717  0.29159  0.18674  1.0000
  C   C760      1.0  0.51542  0.15032  0.18018  1.0000
  C   C761      1.0  0.38301  0.25188  0.43844  1.0000
  C   C762      1.0  0.49018  0.47313  0.18828  1.0000
  H   H593      1.0  0.52274  0.17244  0.11812  1.0000
  H   H594      1.0  0.54355  0.34757  0.12860  1.0000
  C   C763      1.0  0.60666  0.08090  0.39659  1.0000
  S   S92       1.0  0.50897  0.38081  0.99415  1.0000
  C   C764      1.0  0.56613  0.07414  0.24313  1.0000
  C   C765      1.0  0.52522  0.01742  0.41847  1.0000
  H   H595      1.0  0.56679  0.05907  0.31371  1.0000
  C   C766      1.0  0.39163  0.35443  0.18089  1.0000
  H   H596      1.0  0.42328  0.40994  0.15656  1.0000
  C   C767      1.0  0.33874  0.19285  0.44067  1.0000
  C   C768      1.0  0.54898  0.11208  0.31347  1.0000
  H   H597      1.0  0.56691  0.08223  0.16920  1.0000
  C   C769      1.0  0.55863  0.33243  0.12708  1.0000
  H   H598      1.0  0.59925  0.28194  0.02376  1.0000
  H   H599      1.0  0.57050  0.03647  0.14619  1.0000
  P   P30       1.0  0.56739  0.10772  0.26022  1.0000
  C   C770      1.0  0.65273  0.12920  0.28357  1.0000
  H   H600      1.0  0.38007  0.34028  0.16347  1.0000
  C   C771      1.0  0.58547  0.38063  0.40766  1.0000
  C   C772      1.0  0.53852  0.38191  0.40336  1.0000
  C   C773      1.0  0.53989  0.38838  0.35606  1.0000
  C   C774      1.0  0.56416  0.39069  0.33409  1.0000
  C   C775      1.0  0.58694  0.38738  0.36058  1.0000
  P   P31       1.0  0.56610  0.39949  0.27318  1.0000
  C   C776      1.0  0.59418  0.38311  0.24713  1.0000
  C   C777      1.0  0.53698  0.38900  0.24471  1.0000
  C   C778      1.0  0.53502  0.36320  0.23004  1.0000
  C   C779      1.0  0.51230  0.35514  0.20855  1.0000
  C   C780      1.0  0.49153  0.37276  0.20121  1.0000
  C   C781      1.0  0.49320  0.39836  0.21627  1.0000
  C   C782      1.0  0.51564  0.40637  0.23851  1.0000
  C   C783      1.0  0.60855  0.39512  0.21184  1.0000
  C   C784      1.0  0.63074  0.38270  0.19318  1.0000
  C   C785      1.0  0.63884  0.35827  0.20967  1.0000
  C   C786      1.0  0.62461  0.34603  0.24434  1.0000
  C   C787      1.0  0.60227  0.35827  0.26279  1.0000
  C   C788      1.0  0.56838  0.43428  0.26721  1.0000
  C   C789      1.0  0.57386  0.44963  0.30595  1.0000
  H   H601      1.0  0.37017  0.26062  0.46439  1.0000
  H   H602      1.0  0.43396  0.40543  0.24038  1.0000
  C   C790      1.0  0.56497  0.47332  0.21943  1.0000
  C   C791      1.0  0.56392  0.44636  0.22386  1.0000
  C   C792      1.0  0.40965  0.24942  0.44728  1.0000
  H   H603      1.0  0.52202  0.39162  0.33687  1.0000
  H   H604      1.0  0.60591  0.38995  0.34501  1.0000
  H   H605      1.0  0.55100  0.34932  0.23474  1.0000
  H   H606      1.0  0.51102  0.33541  0.19617  1.0000
  H   H607      1.0  0.47437  0.36668  0.18291  1.0000
  H   H608      1.0  0.47736  0.41224  0.20967  1.0000
  H   H609      1.0  0.51626  0.42621  0.25047  1.0000
  H   H610      1.0  0.60298  0.41412  0.19868  1.0000
  H   H611      1.0  0.64187  0.39213  0.16625  1.0000
  H   H612      1.0  0.52233  0.03539  0.12152  1.0000
  H   H613      1.0  0.63135  0.32728  0.25760  1.0000
  H   H614      1.0  0.59164  0.34848  0.28990  1.0000
  H   H615      1.0  0.57741  0.44097  0.33976  1.0000
  H   H616      1.0  0.55080  0.14279  0.41825  1.0000
  H   H617      1.0  0.57163  0.00166  0.20664  1.0000
  C   C793      1.0  0.35045  0.30085  0.20323  1.0000
  H   H618      1.0  0.55927  0.43498  0.19355  1.0000
  S   S93       1.0  0.63595  0.16522  0.12994  1.0000
  H   H619      1.0  0.42892  0.22168  0.34472  1.0000
  C   C794      1.0  0.55225  0.30709  0.11587  1.0000
  C   C795      1.0  0.46059  0.28259  0.36667  1.0000
  H   H620      1.0  0.39650  0.37711  0.11841  1.0000
  H   H621      1.0  0.63537  0.01056  0.41889  1.0000
  C   C796      1.0  0.60395  0.31898  0.13177  1.0000
  C   C797      1.0  0.59773  0.29380  0.11911  1.0000
  H   H622      1.0  0.51811  0.08701  0.29261  1.0000
  H   H623      1.0  0.38353  0.25404  0.01215  1.0000
  C   C798      1.0  0.60125  0.46748  0.43696  1.0000
  C   C799      1.0  0.37196  0.26615  0.98863  1.0000
  C   C800      1.0  0.37309  0.24329  0.39631  1.0000
  C   C801      1.0  0.60343  0.26123  0.02238  1.0000
  H   H624      1.0  0.50725  0.32072  0.44463  1.0000
  H   H625      1.0  0.36603  0.12187  0.44252  1.0000
  C   C802      1.0  0.50307  0.27906  0.00529  1.0000
  C   C803      1.0  0.36836  0.15993  0.47236  1.0000
  H   H626      1.0  0.63872  0.16887  0.27799  1.0000
  H   H627      1.0  0.36726  0.37021  0.31313  1.0000
  S   S94       1.0  0.64837  0.32866  0.04016  1.0000
  C   C804      1.0  0.38832  0.34588  0.41680  1.0000
  H   H628      1.0  0.53206  0.30272  0.11103  1.0000
  C   C805      1.0  0.61518  0.20799  0.01772  1.0000
  C   C806      1.0  0.35860  0.18551  0.47154  1.0000
  C   C807      1.0  0.56686  0.05438  0.27705  1.0000
  H   H629      1.0  0.59955  0.19580  0.20837  1.0000
  C   C808      1.0  0.54584  0.02602  0.44525  1.0000
  C   C809      1.0  0.62374  0.25199  0.99396  1.0000
  C   C810      1.0  0.63505  0.01719  0.25227  1.0000
  H   H630      1.0  0.40329  0.29544  0.34535  1.0000
  C   C811      1.0  0.56966  0.02181  0.21671  1.0000
  C   C812      1.0  0.42667  0.23845  0.41397  1.0000
  H   H631      1.0  0.57785  0.48829  0.33192  1.0000
  Fe  Fe46      1.0  0.63996  0.10107  0.99512  1.0000
  C   C813      1.0  0.52622  0.13427  0.21494  1.0000
  H   H632      1.0  0.57605  0.13779  0.34605  1.0000
  H   H633      1.0  0.64561  0.21420  0.17077  1.0000
  C   C814      1.0  0.38540  0.33202  0.32260  1.0000
  C   C815      1.0  0.56716  0.06740  0.19596  1.0000
  C   C816      1.0  0.51460  0.20319  0.33561  1.0000
  C   C817      1.0  0.50437  0.17870  0.32905  1.0000
  C   C818      1.0  0.48119  0.17234  0.35111  1.0000
  C   C819      1.0  0.46815  0.19049  0.37947  1.0000
  C   C820      1.0  0.47791  0.21539  0.38521  1.0000
  C   C821      1.0  0.64029  0.02971  0.20948  1.0000
  C   C822      1.0  0.39600  0.31445  0.35553  1.0000
  C   C823      1.0  0.57440  0.47661  0.30156  1.0000
  C   C824      1.0  0.47092  0.27083  0.40710  1.0000
  H   H634      1.0  0.60314  0.37774  0.42774  1.0000
  C   C825      1.0  0.46683  0.30797  0.35475  1.0000
  C   C826      1.0  0.48358  0.32174  0.38287  1.0000
  H   H635      1.0  0.54532  0.04583  0.45768  1.0000
  H   H636      1.0  0.59584  0.33360  0.01001  1.0000
  H   H637      1.0  0.62960  0.11467  0.40620  1.0000
  C   C827      1.0  0.56724  0.00934  0.45524  1.0000
  H   H638      1.0  0.40616  0.30803  0.42754  1.0000
  H   H639      1.0  0.49321  0.09240  0.36555  1.0000
  Fe  Fe47      1.0  0.63539  0.12806  0.08860  1.0000
  H   H640      1.0  0.62406  0.32366  0.13717  1.0000
  H   H641      1.0  0.45844  0.31708  0.32400  1.0000
  H   H642      1.0  0.56094  0.48253  0.18615  1.0000
  H   H643      1.0  0.51453  0.16448  0.30749  1.0000
  H   H644      1.0  0.47341  0.15323  0.34661  1.0000
  H   H645      1.0  0.45054  0.18507  0.39724  1.0000
  C   C828      1.0  0.58921  0.24393  0.04954  1.0000
  H   H646      1.0  0.61324  0.27922  0.11564  1.0000
  C   C829      1.0  0.53676  0.21869  0.20408  1.0000
  H   H647      1.0  0.48807  0.34157  0.37419  1.0000
  C   C830      1.0  0.49449  0.30996  0.42242  1.0000
  S   S95       1.0  0.64999  0.40681  0.42978  1.0000
  H   H648      1.0  0.35255  0.24547  0.38931  1.0000
  C   C831      1.0  0.62310  0.09675  0.42141  1.0000
  H   H649      1.0  0.48226  0.21912  0.03369  1.0000
  C   C832      1.0  0.66190  0.20919  0.14839  1.0000
  C   C833      1.0  0.60550  0.05078  0.46197  1.0000
  H   H650      1.0  0.56414  0.37075  0.00777  1.0000
  C   C834      1.0  0.50147  0.22147  0.36366  1.0000
  H   H651      1.0  0.50244  0.04060  0.04395  1.0000
  H   H652      1.0  0.53830  0.47290  0.06732  1.0000
  H   H653      1.0  0.63215  0.04892  0.20247  1.0000
  C   C835      1.0  0.66374  0.38595  0.38578  1.0000
  C   C836      1.0  0.49903  0.48593  0.22830  1.0000
  C   C837      1.0  0.48688  0.25786  0.00755  1.0000
  H   H654      1.0  0.38939  0.35130  0.45316  1.0000
  H   H655      1.0  0.49367  0.49200  0.05999  1.0000
  C   C838      1.0  0.63126  0.08940  0.46596  1.0000
  H   H656      1.0  0.65612  0.41391  0.33104  1.0000
  C   C839      1.0  0.65641  0.01752  0.17629  1.0000
  C   C840      1.0  0.33801  0.14886  0.41185  1.0000
  H   H657      1.0  0.61897  0.45587  0.43242  1.0000
  C   C841      1.0  0.35157  0.28176  0.00614  1.0000
  C   C842      1.0  0.49478  0.23559  0.03223  1.0000
  C   C843      1.0  0.60183  0.49455  0.44121  1.0000
  S   S96       1.0  0.66485  0.03279  0.12254  1.0000
  H   H658      1.0  0.34572  0.13821  0.24066  1.0000
  C   C844      1.0  0.66397  0.39472  0.33921  1.0000
  C   C845      1.0  0.53437  0.49303  0.07652  1.0000
  H   H659      1.0  0.33287  0.34308  0.28959  1.0000
  H   H660      1.0  0.65883  0.47679  0.37318  1.0000
  C   C846      1.0  0.65921  0.48816  0.44566  1.0000
  H   H661      1.0  0.46811  0.25875  0.99058  1.0000
  H   H662      1.0  0.48454  0.19178  0.46948  1.0000
  H   H663      1.0  0.47066  0.46488  0.46902  1.0000
  C   C847      1.0  0.33301  0.33228  0.46642  1.0000
  C   C848      1.0  0.33686  0.29780  0.97618  1.0000
  S   S97       1.0  0.46297  0.41147  0.89629  1.0000
  Fe  Fe48      1.0  0.37735  0.34187  0.57909  1.0000
  S   S98       1.0  0.37382  0.31324  0.63787  1.0000
  Fe  Fe49      1.0  0.43671  0.33388  0.57664  1.0000
  S   S99       1.0  0.43691  0.30399  0.63365  1.0000
  S   S100      1.0  0.47455  0.33795  0.53731  1.0000
  Fe  Fe50      1.0  0.40231  0.28832  0.59748  1.0000
  S   S101      1.0  0.39369  0.24804  0.57225  1.0000
  Fe  Fe51      1.0  0.40881  0.33177  0.67006  1.0000
  S   S102      1.0  0.41204  0.33420  0.75003  1.0000
  S   S103      1.0  0.40417  0.31605  0.53753  1.0000
  S   S104      1.0  0.41029  0.36273  0.61419  1.0000
  S   S105      1.0  0.62145  0.43920  0.53982  1.0000
  S   S106      1.0  0.62289  0.37579  0.54972  1.0000
  H   H664      1.0  0.54404  0.03163  0.53732  1.0000
  Fe  Fe52      1.0  0.60139  0.40962  0.58304  1.0000
  S   S107      1.0  0.55887  0.41739  0.60016  1.0000
  S   S108      1.0  0.62894  0.41277  0.64284  1.0000
  H   H665      1.0  0.66189  0.28545  0.53054  1.0000
  Fe  Fe53      1.0  0.46107  0.11390  0.58616  1.0000
  S   S109      1.0  0.47551  0.12892  0.51800  1.0000
  S   S110      1.0  0.44461  0.14163  0.64013  1.0000
  Fe  Fe54      1.0  0.48084  0.05840  0.56988  1.0000
  S   S111      1.0  0.49730  0.06963  0.49958  1.0000
  S   S112      1.0  0.48609  0.01556  0.59359  1.0000
  Fe  Fe55      1.0  0.51161  0.10518  0.53455  1.0000
  S   S113      1.0  0.54686  0.12768  0.51420  1.0000
  C   C849      1.0  0.47156  0.00436  0.73297  1.0000
  S   S114      1.0  0.49835  0.09258  0.60534  1.0000
  S   S115      1.0  0.44230  0.07908  0.55480  1.0000
  H   H666      1.0  0.63248  0.27633  0.83143  1.0000
  C   C850      1.0  0.62810  0.11710  0.57692  1.0000
  C   C851      1.0  0.60885  0.09944  0.58802  1.0000
  C   C852      1.0  0.58347  0.10292  0.57059  1.0000
  C   C853      1.0  0.57741  0.12396  0.54135  1.0000
  C   C854      1.0  0.59637  0.14223  0.53188  1.0000
  C   C855      1.0  0.62159  0.13899  0.55006  1.0000
  H   H667      1.0  0.61382  0.08273  0.60930  1.0000
  H   H668      1.0  0.56889  0.08895  0.57847  1.0000
  H   H669      1.0  0.54033  0.47572  0.74225  1.0000
  H   H670      1.0  0.63632  0.15270  0.54128  1.0000
  H   H671      1.0  0.55772  0.49654  0.55785  1.0000
  C   C856      1.0  0.33709  0.21330  0.85154  1.0000
  H   H672      1.0  0.56819  0.04175  0.67799  1.0000
  C   C857      1.0  0.41206  0.22027  0.58965  1.0000
  C   C858      1.0  0.42125  0.21734  0.63514  1.0000
  C   C859      1.0  0.43174  0.19325  0.65022  1.0000
  C   C860      1.0  0.43408  0.17233  0.61932  1.0000
  C   C861      1.0  0.42648  0.17579  0.57299  1.0000
  C   C862      1.0  0.41521  0.19960  0.55840  1.0000
  H   H673      1.0  0.41960  0.23335  0.65907  1.0000
  H   H674      1.0  0.43784  0.19074  0.68599  1.0000
  H   H675      1.0  0.42831  0.15984  0.54885  1.0000
  H   H676      1.0  0.40890  0.20199  0.52280  1.0000
  C   C863      1.0  0.49795  0.35940  0.55739  1.0000
  C   C864      1.0  0.49078  0.38139  0.58320  1.0000
  C   C865      1.0  0.50974  0.39882  0.59676  1.0000
  C   C866      1.0  0.53592  0.39435  0.58471  1.0000
  C   C867      1.0  0.54318  0.37210  0.55972  1.0000
  C   C868      1.0  0.52419  0.35483  0.54563  1.0000
  H   H677      1.0  0.47057  0.38518  0.59201  1.0000
  H   H678      1.0  0.50410  0.41584  0.61646  1.0000
  H   H679      1.0  0.56337  0.36834  0.55087  1.0000
  H   H680      1.0  0.59271  0.47345  0.60098  1.0000
  C   C869      1.0  0.44974  0.38918  0.85594  1.0000
  C   C870      1.0  0.44412  0.36364  0.86809  1.0000
  C   C871      1.0  0.43280  0.34713  0.83519  1.0000
  C   C872      1.0  0.42732  0.35567  0.78947  1.0000
  C   C873      1.0  0.43307  0.38116  0.77732  1.0000
  C   C874      1.0  0.44418  0.39775  0.81030  1.0000
  H   H681      1.0  0.44800  0.35675  0.90306  1.0000
  H   H682      1.0  0.42810  0.32762  0.84538  1.0000
  H   H683      1.0  0.42851  0.38824  0.74273  1.0000
  H   H684      1.0  0.44823  0.41749  0.80049  1.0000
  C   C875      1.0  0.58764  0.49630  0.66274  1.0000
  H   H685      1.0  0.65765  0.09711  0.68713  1.0000
  Fe  Fe56      1.0  0.64534  0.40567  0.50982  1.0000
  H   H686      1.0  0.36752  0.34171  0.94651  1.0000
  H   H687      1.0  0.47088  0.03691  0.68490  1.0000
  C   C876      1.0  0.37772  0.26657  0.94114  1.0000
  H   H688      1.0  0.39384  0.25473  0.92802  1.0000
  C   C877      1.0  0.38109  0.37461  0.90909  1.0000
  S   S116      1.0  0.33967  0.35995  0.54864  1.0000
  C   C878      1.0  0.35867  0.38575  0.83755  1.0000
  H   H689      1.0  0.43421  0.47584  0.91734  1.0000
  H   H690      1.0  0.34414  0.14260  0.97416  1.0000
  H   H691      1.0  0.36781  0.28278  0.87434  1.0000
  C   C879      1.0  0.33652  0.29781  0.75499  1.0000
  C   C880      1.0  0.61716  0.23916  0.84599  1.0000
  C   C881      1.0  0.58176  0.48919  0.61736  1.0000
  C   C882      1.0  0.33750  0.13581  0.76789  1.0000
  C   C883      1.0  0.36461  0.10306  0.58101  1.0000
  C   C884      1.0  0.35542  0.12959  0.73268  1.0000
  C   C885      1.0  0.65379  0.46216  0.89826  1.0000
  H   H692      1.0  0.45911  0.48773  0.77649  1.0000
  C   C886      1.0  0.64542  0.49033  0.76439  1.0000
  C   C887      1.0  0.50069  0.48290  0.76515  1.0000
  C   C888      1.0  0.57105  0.33648  0.90359  1.0000
  C   C889      1.0  0.54590  0.33661  0.92206  1.0000
  C   C890      1.0  0.52468  0.34373  0.89399  1.0000
  C   C891      1.0  0.52856  0.35080  0.84752  1.0000
  C   C892      1.0  0.55379  0.35070  0.82864  1.0000
  C   C893      1.0  0.57498  0.34347  0.85709  1.0000
  P   P32       1.0  0.55931  0.36080  0.76912  1.0000
  C   C894      1.0  0.52889  0.36171  0.73787  1.0000
  C   C895      1.0  0.57222  0.39303  0.76736  1.0000
  C   C896      1.0  0.56961  0.40805  0.72667  1.0000
  C   C897      1.0  0.57896  0.43312  0.72480  1.0000
  C   C898      1.0  0.59077  0.44365  0.76374  1.0000
  C   C899      1.0  0.59356  0.42890  0.80443  1.0000
  C   C900      1.0  0.58441  0.40365  0.80628  1.0000
  C   C901      1.0  0.52176  0.34070  0.71029  1.0000
  C   C902      1.0  0.49792  0.34146  0.68704  1.0000
  C   C903      1.0  0.48106  0.36309  0.69127  1.0000
  C   C904      1.0  0.48822  0.38423  0.71794  1.0000
  C   C905      1.0  0.51188  0.38347  0.74158  1.0000
  C   C906      1.0  0.58141  0.33820  0.73985  1.0000
  C   C907      1.0  0.59325  0.34532  0.69780  1.0000
  C   C908      1.0  0.60942  0.32760  0.67395  1.0000
  C   C909      1.0  0.61423  0.30272  0.69196  1.0000
  C   C910      1.0  0.60232  0.29530  0.73348  1.0000
  C   C911      1.0  0.58570  0.31283  0.75708  1.0000
  H   H693      1.0  0.58751  0.33114  0.92541  1.0000
  H   H694      1.0  0.60313  0.48609  0.68107  1.0000
  H   H695      1.0  0.50515  0.34413  0.90836  1.0000
  H   H696      1.0  0.51174  0.35649  0.82686  1.0000
  H   H697      1.0  0.59457  0.34338  0.84330  1.0000
  H   H698      1.0  0.56022  0.40042  0.69619  1.0000
  H   H699      1.0  0.57701  0.44425  0.69285  1.0000
  H   H700      1.0  0.59769  0.46323  0.76238  1.0000
  H   H701      1.0  0.60264  0.43714  0.83469  1.0000
  H   H702      1.0  0.58651  0.39286  0.83839  1.0000
  H   H703      1.0  0.53446  0.32371  0.70661  1.0000
  H   H704      1.0  0.49250  0.32535  0.66545  1.0000
  H   H705      1.0  0.46249  0.36350  0.67357  1.0000
  H   H706      1.0  0.47526  0.40112  0.72070  1.0000
  H   H707      1.0  0.51679  0.39980  0.76293  1.0000
  H   H708      1.0  0.58981  0.36436  0.68269  1.0000
  H   H709      1.0  0.61830  0.33320  0.64129  1.0000
  H   H710      1.0  0.62699  0.28921  0.67327  1.0000
  H   H711      1.0  0.60567  0.27582  0.74690  1.0000
  H   H712      1.0  0.57593  0.30635  0.78820  1.0000
  C   C912      1.0  0.46463  0.24923  0.51861  1.0000
  H   H713      1.0  0.46714  0.25755  0.59174  1.0000
  C   C913      1.0  0.51306  0.46337  0.69114  1.0000
  H   H714      1.0  0.39139  0.40612  0.86396  1.0000
  H   H715      1.0  0.52803  0.45634  0.66721  1.0000
  C   C914      1.0  0.49206  0.47037  0.53237  1.0000
  C   C915      1.0  0.59895  0.03287  0.62899  1.0000
  H   H716      1.0  0.62555  0.02514  0.57296  1.0000
  C   C916      1.0  0.64763  0.20613  0.87415  1.0000
  C   C917      1.0  0.62240  0.21386  0.86152  1.0000
  H   H717      1.0  0.45668  0.18610  0.88202  1.0000
  C   C918      1.0  0.34206  0.29784  0.92812  1.0000
  C   C919      1.0  0.34047  0.30741  0.79968  1.0000
  H   H718      1.0  0.44265  0.16390  0.95416  1.0000
  P   P33       1.0  0.36683  0.20149  0.82404  1.0000
  C   C920      1.0  0.36176  0.17378  0.78755  1.0000
  C   C921      1.0  0.37809  0.22797  0.78905  1.0000
  C   C922      1.0  0.37047  0.23046  0.74232  1.0000
  C   C923      1.0  0.37987  0.25049  0.71477  1.0000
  C   C924      1.0  0.39670  0.26825  0.73382  1.0000
  C   C925      1.0  0.40338  0.26662  0.78080  1.0000
  C   C926      1.0  0.39399  0.24662  0.80847  1.0000
  P   P34       1.0  0.51015  0.49607  0.82041  1.0000
  H   H719      1.0  0.56154  0.16563  0.94132  1.0000
  H   H720      1.0  0.35874  0.31636  0.80724  1.0000
  C   C927      1.0  0.37681  0.14514  0.72539  1.0000
  C   C928      1.0  0.38007  0.16706  0.75290  1.0000
  C   C929      1.0  0.39101  0.19008  0.86546  1.0000
  C   C930      1.0  0.38344  0.17640  0.90529  1.0000
  C   C931      1.0  0.41763  0.19295  0.85661  1.0000
  H   H721      1.0  0.63999  0.05753  0.72238  1.0000
  C   C932      1.0  0.66447  0.31687  0.81565  1.0000
  C   C933      1.0  0.48250  0.00150  0.65037  1.0000
  H   H722      1.0  0.51284  0.48148  0.59310  1.0000
  H   H723      1.0  0.35748  0.21684  0.72696  1.0000
  H   H724      1.0  0.37440  0.25210  0.67842  1.0000
  H   H725      1.0  0.40426  0.28358  0.71241  1.0000
  H   H726      1.0  0.41584  0.28098  0.79558  1.0000
  H   H727      1.0  0.39935  0.24558  0.84478  1.0000
  C   C934      1.0  0.64956  0.47895  0.72027  1.0000
  C   C935      1.0  0.66256  0.24941  0.85686  1.0000
  H   H728      1.0  0.39643  0.37822  0.93377  1.0000
  H   H729      1.0  0.64553  0.35063  0.78497  1.0000
  H   H730      1.0  0.39702  0.17861  0.74732  1.0000
  H   H731      1.0  0.44723  0.46876  0.70147  1.0000
  H   H732      1.0  0.42416  0.20203  0.82481  1.0000
  H   H733      1.0  0.65915  0.33004  0.56185  1.0000
  Fe  Fe57      1.0  0.65009  0.44089  0.59853  1.0000
  H   H734      1.0  0.46543  0.01611  0.76235  1.0000
  H   H735      1.0  0.60700  0.20009  0.86330  1.0000
  H   H736      1.0  0.53348  0.04095  0.61876  1.0000
  S   S117      1.0  0.66068  0.10951  0.59162  1.0000
  H   H737      1.0  0.65386  0.23910  0.71188  1.0000
  C   C936      1.0  0.60529  0.02816  0.58237  1.0000
  H   H738      1.0  0.59760  0.24500  0.83571  1.0000
  C   C937      1.0  0.47440  0.48102  0.75313  1.0000
  C   C938      1.0  0.36466  0.35385  0.91603  1.0000
  H   H739      1.0  0.49213  0.45002  0.54215  1.0000
  C   C939      1.0  0.65219  0.34146  0.81706  1.0000
  C   C940      1.0  0.48701  0.20075  0.54161  1.0000
  C   C941      1.0  0.48219  0.21912  0.57632  1.0000
  C   C942      1.0  0.47108  0.24336  0.56478  1.0000
  H   H740      1.0  0.64732  0.45834  0.71578  1.0000
  H   H741      1.0  0.49557  0.18191  0.55056  1.0000
  H   H742      1.0  0.48674  0.21444  0.61223  1.0000
  C   C943      1.0  0.36283  0.28233  0.91091  1.0000
  C   C944      1.0  0.53494  0.42550  0.87254  1.0000
  C   C945      1.0  0.54780  0.43218  0.91322  1.0000
  H   H743      1.0  0.37433  0.08462  0.57328  1.0000
  C   C946      1.0  0.55974  0.03205  0.56202  1.0000
  C   C947      1.0  0.52710  0.47118  0.85416  1.0000
  C   C948      1.0  0.52468  0.44486  0.84305  1.0000
  H   H744      1.0  0.60519  0.43457  0.95982  1.0000
  Fe  Fe58      1.0  0.46009  0.09286  0.48707  1.0000
  C   C949      1.0  0.33748  0.10551  0.57977  1.0000
  C   C950      1.0  0.46756  0.47030  0.71047  1.0000
  H   H745      1.0  0.52986  0.33780  0.52576  1.0000
  H   H746      1.0  0.61420  0.03346  0.65477  1.0000
  H   H747      1.0  0.36318  0.17280  0.91153  1.0000
  C   C951      1.0  0.62976  0.45969  0.92043  1.0000
  H   H748      1.0  0.53209  0.40531  0.86469  1.0000
  H   H749      1.0  0.38404  0.15433  0.49583  1.0000
  C   C952      1.0  0.54991  0.45827  0.92501  1.0000
  H   H750      1.0  0.51382  0.43913  0.81288  1.0000
  H   H751      1.0  0.39116  0.14001  0.69895  1.0000
  C   C953      1.0  0.55355  0.03726  0.60857  1.0000
  H   H752      1.0  0.35409  0.21971  0.91936  1.0000
  H   H753      1.0  0.59173  0.15867  0.50956  1.0000
  C   C954      1.0  0.34208  0.36513  0.84450  1.0000
  H   H754      1.0  0.63652  0.39719  0.95772  1.0000
  H   H755      1.0  0.48140  0.45309  0.64664  1.0000
  C   C955      1.0  0.44529  0.49129  0.90212  1.0000
  H   H756      1.0  0.35299  0.11249  0.71159  1.0000
  C   C956      1.0  0.58674  0.14679  0.89104  1.0000
  C   C957      1.0  0.56654  0.16384  0.90476  1.0000
  C   C958      1.0  0.55293  0.17860  0.87132  1.0000
  C   C959      1.0  0.55921  0.17596  0.82408  1.0000
  C   C960      1.0  0.57871  0.15800  0.80989  1.0000
  C   C961      1.0  0.59302  0.14407  0.84391  1.0000
  P   P35       1.0  0.58734  0.15513  0.74904  1.0000
  C   C962      1.0  0.60809  0.18196  0.73679  1.0000
  C   C963      1.0  0.60393  0.12426  0.73947  1.0000
  C   C964      1.0  0.62677  0.12240  0.71277  1.0000
  C   C965      1.0  0.63970  0.09836  0.70690  1.0000
  C   C966      1.0  0.62967  0.07600  0.72667  1.0000
  C   C967      1.0  0.60647  0.07758  0.75199  1.0000
  C   C968      1.0  0.59354  0.10159  0.75813  1.0000
  C   C969      1.0  0.60005  0.20248  0.70722  1.0000
  C   C970      1.0  0.61656  0.22296  0.69817  1.0000
  C   C971      1.0  0.64083  0.22355  0.71966  1.0000
  C   C972      1.0  0.64853  0.20371  0.75036  1.0000
  C   C973      1.0  0.63230  0.18298  0.75885  1.0000
  C   C974      1.0  0.55952  0.15463  0.71087  1.0000
  C   C975      1.0  0.53451  0.15000  0.72819  1.0000
  C   C976      1.0  0.51326  0.14976  0.69793  1.0000
  C   C977      1.0  0.51687  0.15377  0.65028  1.0000
  C   C978      1.0  0.54180  0.15738  0.63264  1.0000
  C   C979      1.0  0.56312  0.15730  0.66261  1.0000
  H   H757      1.0  0.59758  0.13549  0.91686  1.0000
  H   H758      1.0  0.53745  0.19202  0.88208  1.0000
  H   H759      1.0  0.54876  0.18777  0.79861  1.0000
  H   H760      1.0  0.60907  0.13103  0.83442  1.0000
  H   H761      1.0  0.63475  0.13935  0.69650  1.0000
  C   C980      1.0  0.33981  0.15053  0.60260  1.0000
  C   C981      1.0  0.42832  0.17107  0.92924  1.0000
  H   H762      1.0  0.59866  0.06025  0.76734  1.0000
  H   H763      1.0  0.57561  0.10253  0.77798  1.0000
  H   H764      1.0  0.58120  0.20276  0.69077  1.0000
  H   H765      1.0  0.61073  0.23815  0.67379  1.0000
  H   H766      1.0  0.45614  0.26823  0.51068  1.0000
  H   H767      1.0  0.35144  0.29988  0.72881  1.0000
  H   H768      1.0  0.63872  0.16765  0.78241  1.0000
  H   H769      1.0  0.53134  0.14612  0.76474  1.0000
  H   H770      1.0  0.49394  0.14610  0.71110  1.0000
  H   H771      1.0  0.50041  0.15343  0.62689  1.0000
  H   H772      1.0  0.54466  0.15987  0.59555  1.0000
  H   H773      1.0  0.58242  0.15930  0.64803  1.0000
  C   C982      1.0  0.48684  0.46144  0.67957  1.0000
  H   H774      1.0  0.33347  0.30106  0.56199  1.0000
  C   C983      1.0  0.36688  0.14798  0.60403  1.0000
  C   C984      1.0  0.64848  0.35407  0.85965  1.0000
  C   C985      1.0  0.51997  0.47424  0.73366  1.0000
  H   H775      1.0  0.62902  0.06153  0.52090  1.0000
  H   H776      1.0  0.40030  0.12233  0.59410  1.0000
  H   H777      1.0  0.47229  0.46493  0.86873  1.0000
  H   H778      1.0  0.55892  0.46336  0.95762  1.0000
  H   H779      1.0  0.55530  0.41712  0.93647  1.0000
  C   C986      1.0  0.37822  0.39043  0.86974  1.0000
  C   C987      1.0  0.58575  0.02756  0.54835  1.0000
  C   C988      1.0  0.37930  0.12433  0.59285  1.0000
  C   C989      1.0  0.62245  0.06660  0.48627  1.0000
  C   C990      1.0  0.57310  0.03760  0.64204  1.0000
  H   H780      1.0  0.63885  0.37306  0.86080  1.0000
  C   C991      1.0  0.66532  0.41754  0.91822  1.0000
  C   C992      1.0  0.63712  0.25688  0.84358  1.0000
  Fe  Fe59      1.0  0.65265  0.38172  0.60594  1.0000
  C   C993      1.0  0.53919  0.47768  0.89607  1.0000
  C   C994      1.0  0.40196  0.16727  0.93738  1.0000
  C   C995      1.0  0.47467  0.01626  0.68895  1.0000
  C   C996      1.0  0.46935  0.23085  0.48332  1.0000
  C   C997      1.0  0.65641  0.49426  0.68205  1.0000
  H   H781      1.0  0.37826  0.16427  0.61446  1.0000
  C   C998      1.0  0.48059  0.20651  0.49538  1.0000
  H   H782      1.0  0.40418  0.01868  0.62822  1.0000
  C   C999      1.0  0.43618  0.18371  0.88868  1.0000
  H   H783      1.0  0.64035  0.47818  0.79362  1.0000
  S   S118      1.0  0.64791  0.10310  0.91599  1.0000
  H   H784      1.0  0.61604  0.47609  0.92140  1.0000
  H   H785      1.0  0.35666  0.39788  0.80680  1.0000
  H   H786      1.0  0.54283  0.33148  0.95826  1.0000
  C   C1000     1.0  0.65698  0.34205  0.90084  1.0000
  Fe  Fe60      1.0  0.47621  0.40813  0.97276  1.0000
  H   H787      1.0  0.65157  0.18637  0.88565  1.0000
  H   H788      1.0  0.65295  0.10094  0.81641  1.0000
  H   H789      1.0  0.39825  0.00834  0.54475  1.0000
  C   C1001     1.0  0.33683  0.22136  0.89819  1.0000
  C   C1002     1.0  0.34063  0.15782  0.79524  1.0000
  C   C1003     1.0  0.34519  0.34875  0.88345  1.0000
  C   C1004     1.0  0.48007  0.47869  0.49112  1.0000
  C   C1005     1.0  0.46701  0.48516  0.87453  1.0000
  H   H790      1.0  0.39589  0.15716  0.96857  1.0000
  H   H791      1.0  0.41678  0.25658  0.47989  1.0000
  P   P36       1.0  0.59436  0.02110  0.48809  1.0000
  H   H792      1.0  0.65808  0.48051  0.88195  1.0000
  C   C1006     1.0  0.64132  0.41521  0.94064  1.0000
  C   C1007     1.0  0.62360  0.43630  0.94187  1.0000
  H   H793      1.0  0.36649  0.19977  0.49468  1.0000
  H   H794      1.0  0.53968  0.49772  0.90706  1.0000
  C   C1008     1.0  0.66504  0.11638  0.82804  1.0000
  H   H795      1.0  0.66275  0.39470  0.74016  1.0000
  H   H796      1.0  0.64426  0.10149  0.48519  1.0000
  C   C1009     1.0  0.50393  0.48828  0.56110  1.0000
  H   H797      1.0  0.33893  0.25794  0.59996  1.0000
  S   S119      1.0  0.66116  0.48101  0.62516  1.0000
  H   H798      1.0  0.65388  0.35154  0.93413  1.0000
  H   H799      1.0  0.64607  0.21825  0.97128  1.0000
  H   H800      1.0  0.63497  0.26563  0.97417  1.0000
  H   H801      1.0  0.66501  0.49403  0.51974  1.0000
  C   C1010     1.0  0.40925  0.99944  0.61541  1.0000
  Fe  Fe61      1.0  0.48769  0.56302  0.32992  1.0000
  S   S120      1.0  0.50773  0.57375  0.39710  1.0000
  S   S121      1.0  0.50018  0.52493  0.29359  1.0000
  Fe  Fe62      1.0  0.45653  0.61423  0.32781  1.0000
  S   S122      1.0  0.47385  0.62894  0.39378  1.0000
  S   S123      1.0  0.42769  0.63871  0.28615  1.0000
  Fe  Fe63      1.0  0.51174  0.61314  0.36439  1.0000
  S   S124      1.0  0.54484  0.64114  0.36257  1.0000
  Fe  Fe64      1.0  0.46831  0.58902  0.42190  1.0000
  S   S125      1.0  0.49460  0.60162  0.29618  1.0000
  S   S126      1.0  0.44801  0.57494  0.35743  1.0000
  Fe  Fe65      1.0  0.42160  0.78961  0.31942  1.0000
  S   S127      1.0  0.40956  0.81884  0.37338  1.0000
  S   S128      1.0  0.44442  0.75453  0.34478  1.0000
  Fe  Fe66      1.0  0.40560  0.82498  0.23757  1.0000
  S   S129      1.0  0.39135  0.85685  0.28616  1.0000
  S   S130      1.0  0.40697  0.82295  0.15752  1.0000
  Fe  Fe67      1.0  0.42837  0.84752  0.32589  1.0000
  S   S131      1.0  0.45499  0.87672  0.35834  1.0000
  Fe  Fe68      1.0  0.37362  0.82532  0.33056  1.0000
  S   S132      1.0  0.44313  0.81758  0.27538  1.0000
  S   S133      1.0  0.38483  0.79401  0.27845  1.0000
  S   S134      1.0  0.45256  0.89921  0.00168  1.0000
  C   C1011     1.0  0.43320  0.67871  0.00128  1.0000
  Fe  Fe69      1.0  0.60715  0.88660  0.34045  1.0000
  S   S135      1.0  0.63878  0.90071  0.29350  1.0000
  S   S136      1.0  0.57439  0.86787  0.30209  1.0000
  H   H802      1.0  0.39352  0.68421  0.27973  1.0000
  S   S137      1.0  0.60704  0.92140  0.38686  1.0000
  S   S138      1.0  0.63416  0.86319  0.38652  1.0000
  H   H803      1.0  0.63658  0.70174  0.19026  1.0000
  C   C1012     1.0  0.34529  0.73797  0.01957  1.0000
  H   H804      1.0  0.50030  0.75578  0.35653  1.0000
  C   C1013     1.0  0.42074  0.84410  0.11513  1.0000
  C   C1014     1.0  0.42277  0.83593  0.06846  1.0000
  C   C1015     1.0  0.43286  0.85224  0.03350  1.0000
  C   C1016     1.0  0.44077  0.87719  0.04458  1.0000
  C   C1017     1.0  0.43888  0.88528  0.09129  1.0000
  C   C1018     1.0  0.42903  0.86887  0.12630  1.0000
  H   H805      1.0  0.41640  0.81687  0.05923  1.0000
  H   H806      1.0  0.43422  0.84562  0.99791  1.0000
  H   H807      1.0  0.44482  0.90452  0.10042  1.0000
  H   H808      1.0  0.42735  0.87559  0.16176  1.0000
  C   C1019     1.0  0.48809  0.87558  0.34128  1.0000
  C   C1020     1.0  0.50639  0.88930  0.36669  1.0000
  C   C1021     1.0  0.53303  0.88745  0.35502  1.0000
  C   C1022     1.0  0.54135  0.87205  0.31749  1.0000
  C   C1023     1.0  0.52297  0.85901  0.29142  1.0000
  C   C1024     1.0  0.49653  0.86079  0.30323  1.0000
  H   H809      1.0  0.49994  0.90119  0.39558  1.0000
  H   H810      1.0  0.54708  0.89772  0.37514  1.0000
  H   H811      1.0  0.52922  0.84719  0.26224  1.0000
  H   H812      1.0  0.48273  0.85080  0.28258  1.0000
  H   H813      1.0  0.54834  0.95633  0.39495  1.0000
  C   C1025     1.0  0.34464  0.72426  0.19411  1.0000
  H   H814      1.0  0.53673  0.50749  0.45304  1.0000
  C   C1026     1.0  0.34033  0.82490  0.18944  1.0000
  H   H815      1.0  0.48414  0.53712  0.08173  1.0000
  C   C1027     1.0  0.57834  0.63267  0.36372  1.0000
  C   C1028     1.0  0.58759  0.60794  0.37700  1.0000
  C   C1029     1.0  0.61456  0.60248  0.37881  1.0000
  C   C1030     1.0  0.63239  0.62145  0.36667  1.0000
  C   C1031     1.0  0.62303  0.64610  0.35341  1.0000
  C   C1032     1.0  0.59618  0.65164  0.35191  1.0000
  H   H816      1.0  0.57404  0.59316  0.38621  1.0000
  H   H817      1.0  0.62165  0.58351  0.38949  1.0000
  H   H818      1.0  0.63646  0.66109  0.34497  1.0000
  H   H819      1.0  0.58932  0.67086  0.34187  1.0000
  C   C1033     1.0  0.43227  0.67146  0.29886  1.0000
  C   C1034     1.0  0.45616  0.67897  0.31602  1.0000
  C   C1035     1.0  0.45967  0.70470  0.32883  1.0000
  C   C1036     1.0  0.43957  0.72333  0.32326  1.0000
  C   C1037     1.0  0.41588  0.71619  0.30411  1.0000
  C   C1038     1.0  0.41212  0.69009  0.29253  1.0000
  H   H820      1.0  0.47210  0.66495  0.31942  1.0000
  H   H821      1.0  0.47808  0.71012  0.34335  1.0000
  H   H822      1.0  0.40025  0.73052  0.29977  1.0000
  C   C1039     1.0  0.63418  0.69139  0.11727  1.0000
  C   C1040     1.0  0.56134  0.59515  0.25167  1.0000
  C   C1041     1.0  0.36833  0.64543  0.38882  1.0000
  C   C1042     1.0  0.58672  0.79561  0.22820  1.0000
  C   C1043     1.0  0.60970  0.78222  0.21595  1.0000
  C   C1044     1.0  0.61558  0.75786  0.23550  1.0000
  C   C1045     1.0  0.59871  0.74717  0.26808  1.0000
  C   C1046     1.0  0.57637  0.76129  0.28263  1.0000
  C   C1047     1.0  0.57002  0.78517  0.26115  1.0000
  P   P37       1.0  0.55463  0.74798  0.32521  1.0000
  C   C1048     1.0  0.57170  0.72962  0.36995  1.0000
  C   C1049     1.0  0.53753  0.77419  0.35500  1.0000
  C   C1050     1.0  0.51089  0.77293  0.36488  1.0000
  C   C1051     1.0  0.49748  0.79415  0.38485  1.0000
  C   C1052     1.0  0.51070  0.81648  0.39612  1.0000
  C   C1053     1.0  0.53747  0.81740  0.38836  1.0000
  C   C1054     1.0  0.55089  0.79630  0.36811  1.0000
  C   C1055     1.0  0.55859  0.71105  0.39618  1.0000
  C   C1056     1.0  0.56352  0.90616  0.99776  1.0000
  H   H823      1.0  0.62786  0.76756  0.03576  1.0000
  H   H824      1.0  0.33751  0.62720  0.10386  1.0000
  C   C1057     1.0  0.54474  0.88928  0.98235  1.0000
  C   C1058     1.0  0.53297  0.72848  0.29191  1.0000
  C   C1059     1.0  0.53673  0.70143  0.28967  1.0000
  C   C1060     1.0  0.52031  0.68658  0.26273  1.0000
  C   C1061     1.0  0.50046  0.69870  0.23674  1.0000
  C   C1062     1.0  0.49702  0.72570  0.23775  1.0000
  C   C1063     1.0  0.51323  0.74055  0.26512  1.0000
  H   H825      1.0  0.58197  0.81433  0.21293  1.0000
  H   H826      1.0  0.62298  0.79091  0.19176  1.0000
  H   H827      1.0  0.63365  0.74759  0.22686  1.0000
  H   H828      1.0  0.60362  0.72830  0.28297  1.0000
  H   H829      1.0  0.55236  0.79601  0.27030  1.0000
  C   C1064     1.0  0.48430  0.94363  0.16864  1.0000
  H   H830      1.0  0.40864  0.59863  0.43557  1.0000
  H   H831      1.0  0.50015  0.83319  0.41026  1.0000
  H   H832      1.0  0.54776  0.83475  0.39686  1.0000
  H   H833      1.0  0.57157  0.79756  0.36163  1.0000
  H   H834      1.0  0.53822  0.70765  0.39006  1.0000
  H   H835      1.0  0.36198  0.71562  0.07589  1.0000
  C   C1065     1.0  0.33924  0.70833  0.40942  1.0000
  C   C1066     1.0  0.55436  0.50821  0.09273  1.0000
  H   H836      1.0  0.57697  0.96876  0.10299  1.0000
  H   H837      1.0  0.55219  0.69161  0.30882  1.0000
  H   H838      1.0  0.52277  0.66561  0.26281  1.0000
  H   H839      1.0  0.48746  0.68708  0.21665  1.0000
  H   H840      1.0  0.48146  0.73519  0.21817  1.0000
  H   H841      1.0  0.51017  0.76143  0.26575  1.0000
  H   H842      1.0  0.47044  0.51152  0.44687  1.0000
  H   H843      1.0  0.48366  0.87004  0.19733  1.0000
  C   C1067     1.0  0.35891  0.63906  0.47069  1.0000
  C   C1068     1.0  0.51678  0.90232  0.04665  1.0000
  C   C1069     1.0  0.54918  0.53411  0.10488  1.0000
  C   C1070     1.0  0.48765  0.50972  0.24290  1.0000
  H   H844      1.0  0.51013  0.98567  0.37958  1.0000
  C   C1071     1.0  0.64512  0.99203  0.26206  1.0000
  C   C1072     1.0  0.50391  0.52959  0.08459  1.0000
  C   C1073     1.0  0.47270  0.58704  0.16936  1.0000
  C   C1074     1.0  0.44616  0.59256  0.17579  1.0000
  H   H845      1.0  0.56493  0.54566  0.11719  1.0000
  C   C1075     1.0  0.36707  0.61693  0.99936  1.0000
  C   C1076     1.0  0.46693  0.52046  0.21701  1.0000
  C   C1077     1.0  0.53535  0.58521  0.16821  1.0000
  H   H846      1.0  0.44123  0.51560  0.15853  1.0000
  H   H847      1.0  0.44717  0.84759  0.46435  1.0000
  H   H848      1.0  0.43862  0.90446  0.45855  1.0000
  C   C1078     1.0  0.65905  0.71889  0.03971  1.0000
  H   H849      1.0  0.45777  0.53863  0.22778  1.0000
  C   C1079     1.0  0.56793  0.98407  0.43705  1.0000
  C   C1080     1.0  0.61126  0.71880  0.41277  1.0000
  P   P38       1.0  0.51770  0.57876  0.11546  1.0000
  C   C1081     1.0  0.38509  0.65405  0.03810  1.0000
  C   C1082     1.0  0.36823  0.65014  0.07584  1.0000
  P   P39       1.0  0.40382  0.68297  0.03538  1.0000
  C   C1083     1.0  0.41475  0.69199  0.09245  1.0000
  C   C1084     1.0  0.54746  0.97567  0.40961  1.0000
  C   C1085     1.0  0.66359  0.76478  0.14267  1.0000
  H   H850      1.0  0.35962  0.88638  0.43062  1.0000
  H   H851      1.0  0.48410  0.96423  0.16131  1.0000
  H   H852      1.0  0.48480  0.58423  0.19972  1.0000
  H   H853      1.0  0.61502  0.62362  0.16388  1.0000
  C   C1086     1.0  0.41727  0.71823  0.10390  1.0000
  C   C1087     1.0  0.42648  0.72513  0.14773  1.0000
  C   C1088     1.0  0.43364  0.70586  0.18004  1.0000
  C   C1089     1.0  0.43160  0.67970  0.16861  1.0000
  C   C1090     1.0  0.42235  0.67276  0.12485  1.0000
  C   C1091     1.0  0.38193  0.70739  0.01085  1.0000
  C   C1092     1.0  0.36313  0.72000  0.03905  1.0000
  H   H854      1.0  0.40919  0.59965  0.14250  1.0000
  C   C1093     1.0  0.65071  0.94561  0.08231  1.0000
  C   C1094     1.0  0.50271  0.90014  0.15905  1.0000
  H   H855      1.0  0.53436  0.93211  0.47027  1.0000
  H   H856      1.0  0.60831  0.74895  0.36154  1.0000
  H   H857      1.0  0.51708  0.88676  0.14436  1.0000
  H   H858      1.0  0.36745  0.66356  0.10465  1.0000
  C   C1095     1.0  0.43034  0.70678  0.45189  1.0000
  H   H859      1.0  0.57838  0.52978  0.45006  1.0000
  H   H860      1.0  0.55487  0.75287  0.14508  1.0000
  H   H861      1.0  0.41227  0.73341  0.07898  1.0000
  H   H862      1.0  0.42802  0.74545  0.15667  1.0000
  H   H863      1.0  0.44051  0.71120  0.21416  1.0000
  H   H864      1.0  0.43708  0.66478  0.19382  1.0000
  H   H865      1.0  0.42121  0.65241  0.11631  1.0000
  C   C1096     1.0  0.66315  0.55042  0.32972  1.0000
  C   C1097     1.0  0.39334  0.61354  0.43363  1.0000
  H   H866      1.0  0.62466  0.65875  0.21934  1.0000
  H   H867      1.0  0.65989  0.91378  0.18854  1.0000
  C   C1098     1.0  0.55703  0.71453  0.00928  1.0000
  H   H868      1.0  0.43825  0.59417  0.21078  1.0000
  C   C1099     1.0  0.62120  0.64723  0.10310  1.0000
  H   H869      1.0  0.60237  0.89276  0.07386  1.0000
  H   H870      1.0  0.57387  0.49986  0.09574  1.0000
  S   S139      1.0  0.63762  0.97714  0.31672  1.0000
  C   C1100     1.0  0.61362  0.74314  0.09134  1.0000
  C   C1101     1.0  0.52603  0.99226  0.40063  1.0000
  C   C1102     1.0  0.48322  0.58502  0.12431  1.0000
  C   C1103     1.0  0.56027  0.92763  0.19077  1.0000
  C   C1104     1.0  0.46552  0.90752  0.20965  1.0000
  H   H871      1.0  0.54810  0.55791  0.27442  1.0000
  Fe  Fe70      1.0  0.63714  0.89895  0.42997  1.0000
  C   C1105     1.0  0.63785  0.99680  0.44727  1.0000
  H   H872      1.0  0.56195  0.68090  0.44807  1.0000
  H   H873      1.0  0.50639  0.87500  0.99401  1.0000
  C   C1106     1.0  0.35064  0.61295  0.03733  1.0000
  C   C1107     1.0  0.58370  0.87627  0.13315  1.0000
  C   C1108     1.0  0.58694  0.86544  0.17746  1.0000
  C   C1109     1.0  0.50923  0.50378  0.07231  1.0000
  C   C1110     1.0  0.48396  0.89059  0.18939  1.0000
  H   H874      1.0  0.63621  0.78470  0.31380  1.0000
  H   H875      1.0  0.58128  0.90812  0.97788  1.0000
  C   C1111     1.0  0.54868  0.57183  0.24605  1.0000
  H   H876      1.0  0.38185  0.70515  0.20508  1.0000
  H   H877      1.0  0.63177  0.72163  0.41859  1.0000
  H   H878      1.0  0.58382  0.91900  0.25101  1.0000
  H   H879      1.0  0.57357  0.93443  0.04836  1.0000
  C   C1112     1.0  0.60531  0.88412  0.10780  1.0000
  C   C1113     1.0  0.52390  0.54506  0.10067  1.0000
  C   C1114     1.0  0.61190  0.86135  0.19557  1.0000
  H   H880      1.0  0.56438  0.87914  0.11890  1.0000
  H   H881      1.0  0.57012  0.86050  0.19812  1.0000
  H   H882      1.0  0.43767  0.63728  0.01338  1.0000
  H   H883      1.0  0.36445  0.66090  0.20563  1.0000
  C   C1115     1.0  0.52011  0.97144  0.09159  1.0000
  C   C1116     1.0  0.59834  0.69963  0.43741  1.0000
  C   C1117     1.0  0.55903  0.92103  0.03784  1.0000
  C   C1118     1.0  0.44558  0.65415  0.99676  1.0000
  H   H884      1.0  0.54506  0.71888  0.03951  1.0000
  C   C1119     1.0  0.64802  0.92108  0.06223  1.0000
  C   C1120     1.0  0.51829  0.62507  0.06488  1.0000
  C   C1121     1.0  0.52812  0.59938  0.06820  1.0000
  C   C1122     1.0  0.54605  0.59019  0.03464  1.0000
  H   H885      1.0  0.35276  0.74334  0.19492  1.0000
  C   C1123     1.0  0.54824  0.60856  0.17402  1.0000
  C   C1124     1.0  0.66316  0.84070  0.06304  1.0000
  P   P40       1.0  0.63218  0.51120  0.43976  1.0000
  P   P41       1.0  0.64294  0.72289  0.09538  1.0000
  H   H886      1.0  0.50463  0.63267  0.09056  1.0000
  H   H887      1.0  0.55417  0.57062  0.03622  1.0000
  H   H888      1.0  0.57070  0.63168  0.22060  1.0000
  H   H889      1.0  0.54822  0.62309  0.14677  1.0000
  H   H890      1.0  0.60885  0.68742  0.46220  1.0000
  H   H891      1.0  0.52543  0.54892  0.20133  1.0000
  H   H892      1.0  0.35148  0.84237  0.19079  1.0000
  C   C1125     1.0  0.60234  0.94560  0.20452  1.0000
  C   C1126     1.0  0.66485  0.73786  0.13535  1.0000
  C   C1127     1.0  0.53573  0.91897  0.06307  1.0000
  C   C1128     1.0  0.45759  0.50733  0.17763  1.0000
  C   C1129     1.0  0.57068  0.75576  0.12074  1.0000
  H   H893      1.0  0.59518  0.52662  0.36456  1.0000
  C   C1130     1.0  0.57194  0.69599  0.42952  1.0000
  C   C1131     1.0  0.62853  0.67141  0.08624  1.0000
  H   H894      1.0  0.57276  0.67851  0.03750  1.0000
  H   H895      1.0  0.58842  0.79591  0.03294  1.0000
  C   C1132     1.0  0.50315  0.92679  0.14861  1.0000
  Fe  Fe71      1.0  0.64042  0.93460  0.34194  1.0000
  H   H896      1.0  0.39458  0.74073  0.38650  1.0000
  H   H897      1.0  0.45115  0.90008  0.23351  1.0000
  C   C1133     1.0  0.59286  0.73939  0.12229  1.0000
  H   H898      1.0  0.61767  0.63163  0.07897  1.0000
  H   H899      1.0  0.65272  0.86506  0.18457  1.0000
  C   C1134     1.0  0.63571  0.52793  0.38472  1.0000
  H   H900      1.0  0.65227  0.83534  0.09369  1.0000
  C   C1135     1.0  0.55808  0.94133  0.14841  1.0000
  C   C1136     1.0  0.56113  0.61349  0.21572  1.0000
  H   H901      1.0  0.61917  0.94737  0.22660  1.0000
  C   C1137     1.0  0.61749  0.54605  0.31312  1.0000
  H   H902      1.0  0.40526  0.89048  0.40437  1.0000
  C   C1138     1.0  0.60033  0.95955  0.16283  1.0000
  H   H903      1.0  0.55523  0.61733  0.46382  1.0000
  H   H904      1.0  0.64545  0.98701  0.07340  1.0000
  H   H905      1.0  0.42726  0.59572  0.06258  1.0000
  C   C1139     1.0  0.63360  0.86865  0.16987  1.0000
  H   H906      1.0  0.64927  0.83028  0.31084  1.0000
  C   C1140     1.0  0.63039  0.88097  0.12640  1.0000
  C   C1141     1.0  0.56902  0.77602  0.08834  1.0000
  H   H907      1.0  0.55182  0.78872  0.08722  1.0000
  H   H908      1.0  0.47670  0.79341  0.39073  1.0000
  C   C1142     1.0  0.52576  0.64104  0.02800  1.0000
  C   C1143     1.0  0.61435  0.53271  0.35518  1.0000
  C   C1144     1.0  0.38798  0.62610  0.39146  1.0000
  H   H909      1.0  0.63019  0.67418  0.04902  1.0000
  C   C1145     1.0  0.64295  0.96808  0.05796  1.0000
  H   H910      1.0  0.61437  0.85298  0.23009  1.0000
  C   C1146     1.0  0.61193  0.76380  0.05929  1.0000
  C   C1147     1.0  0.63712  0.91942  0.01757  1.0000
  C   C1148     1.0  0.65659  0.78905  0.31546  1.0000
  C   C1149     1.0  0.38399  0.63759  0.99944  1.0000
  H   H911      1.0  0.54508  0.91535  0.20311  1.0000
  C   C1150     1.0  0.46557  0.93398  0.19899  1.0000
  C   C1151     1.0  0.58234  0.92967  0.21843  1.0000
  H   H912      1.0  0.45110  0.94704  0.21445  1.0000
  H   H913      1.0  0.44193  0.70691  0.42039  1.0000
  Fe  Fe72      1.0  0.66580  0.88002  0.34344  1.0000
  P   P42       1.0  0.65809  0.89205  0.09387  1.0000
  C   C1152     1.0  0.50782  0.97456  0.04825  1.0000
  C   C1153     1.0  0.53573  0.56685  0.20453  1.0000
  C   C1154     1.0  0.34194  0.80909  0.15021  1.0000
  H   H914      1.0  0.63467  0.90079  0.00118  1.0000
  H   H915      1.0  0.39901  0.62067  0.36073  1.0000
  C   C1155     1.0  0.35380  0.65228  0.42857  1.0000
  C   C1156     1.0  0.46665  0.58837  0.08580  1.0000
  C   C1157     1.0  0.37413  0.73753  0.39227  1.0000
  P   P43       1.0  0.52905  0.93939  0.11314  1.0000
  H   H916      1.0  0.57089  0.59923  0.28421  1.0000
  C   C1158     1.0  0.58965  0.78005  0.05771  1.0000
  H   H917      1.0  0.36447  0.65492  0.35571  1.0000
  C   C1159     1.0  0.36565  0.71246  0.40091  1.0000
  C   C1160     1.0  0.64469  0.71959  0.99826  1.0000
  C   C1161     1.0  0.63239  0.96627  0.01344  1.0000
  C   C1162     1.0  0.63235  0.68674  0.16544  1.0000
  C   C1163     1.0  0.62531  0.66243  0.18215  1.0000
  C   C1164     1.0  0.61976  0.64268  0.15099  1.0000
  C   C1165     1.0  0.57839  0.50885  0.44733  1.0000
  C   C1166     1.0  0.35118  0.62958  0.07551  1.0000
  H   H918      1.0  0.65888  0.94757  0.11666  1.0000
  C   C1167     1.0  0.36130  0.70256  0.20004  1.0000
  H   H919      1.0  0.59380  0.72411  0.14822  1.0000
  C   C1168     1.0  0.59791  0.73404  0.37972  1.0000
  H   H920      1.0  0.62675  0.98379  0.99446  1.0000
  H   H921      1.0  0.49798  0.90137  0.06350  1.0000
  C   C1169     1.0  0.42981  0.59575  0.13734  1.0000
  C   C1170     1.0  0.57266  0.69187  0.00825  1.0000
  C   C1171     1.0  0.52140  0.88739  0.00681  1.0000
  C   C1172     1.0  0.57835  0.95741  0.13477  1.0000
  H   H922      1.0  0.53323  0.99157  0.15276  1.0000
  H   H923      1.0  0.60093  0.55001  0.29078  1.0000
  H   H924      1.0  0.47426  0.58661  0.05071  1.0000
  H   H925      1.0  0.35428  0.81445  0.12129  1.0000
  H   H926      1.0  0.51783  0.66070  0.02522  1.0000
  C   C1173     1.0  0.35145  0.67764  0.20047  1.0000
  C   C1174     1.0  0.55345  0.60624  0.99783  1.0000
  C   C1175     1.0  0.39996  0.89492  0.44011  1.0000
  C   C1176     1.0  0.44457  0.70032  0.98059  1.0000
  C   C1177     1.0  0.44004  0.59361  0.09235  1.0000
  C   C1178     1.0  0.35632  0.75852  0.39109  1.0000
  H   H927      1.0  0.66464  0.59633  0.13070  1.0000
  H   H928      1.0  0.35461  0.83279  0.45511  1.0000
  H   H929      1.0  0.50316  0.95788  0.02743  1.0000
  C   C1179     1.0  0.37423  0.89271  0.45484  1.0000
  H   H930      1.0  0.42241  0.66610  0.44713  1.0000
  H   H931      1.0  0.37985  0.69656  0.40131  1.0000
  H   H932      1.0  0.58438  0.97090  0.44320  1.0000
  H   H933      1.0  0.62386  0.72289  0.99899  1.0000
  H   H934      1.0  0.36294  0.77789  0.38402  1.0000
  S   S140      1.0  0.66490  0.73679  0.32194  1.0000
  C   C1180     1.0  0.64186  0.55502  0.30052  1.0000
  H   H935      1.0  0.33673  0.59764  0.03632  1.0000
  H   H936      1.0  0.61560  0.97248  0.15282  1.0000
  C   C1181     1.0  0.66394  0.81496  0.31444  1.0000
  C   C1182     1.0  0.62948  0.94195  0.99324  1.0000
  C   C1183     1.0  0.52468  0.99349  0.11854  1.0000
  H   H937      1.0  0.64946  0.77704  0.12465  1.0000
  C   C1184     1.0  0.66109  0.97980  0.22871  1.0000
  H   H938      1.0  0.64781  0.56578  0.44952  1.0000
  C   C1185     1.0  0.54315  0.63154  0.99424  1.0000
  C   C1186     1.0  0.33404  0.82986  0.45911  1.0000
  C   C1187     1.0  0.41895  0.90276  0.47131  1.0000
  H   H939      1.0  0.43562  0.71953  0.98391  1.0000
  S   S141      1.0  0.65906  0.59777  0.03144  1.0000
  C   C1188     1.0  0.41922  0.68383  0.46678  1.0000
  C   C1189     1.0  0.65794  0.97795  0.44460  1.0000
  H   H940      1.0  0.56978  0.50942  0.25523  1.0000
  H   H941      1.0  0.43516  0.74705  0.46450  1.0000
  C   C1190     1.0  0.37882  0.61998  0.47321  1.0000
  H   H942      1.0  0.64420  0.56604  0.26866  1.0000
  C   C1191     1.0  0.66015  0.53691  0.37159  1.0000
  S   S142      1.0  0.66617  0.61408  0.36849  1.0000
  H   H943      1.0  0.42272  0.98535  0.68200  1.0000
  Fe  Fe73      1.0  0.41772  0.69095  0.82371  1.0000
  S   S143      1.0  0.40971  0.65723  0.87072  1.0000
  S   S144      1.0  0.42618  0.72641  0.86613  1.0000
  Fe  Fe74      1.0  0.41267  0.65837  0.73470  1.0000
  S   S145      1.0  0.40309  0.62273  0.77626  1.0000
  S   S146      1.0  0.41977  0.66258  0.65585  1.0000
  Fe  Fe75      1.0  0.37750  0.64938  0.82120  1.0000
  Fe  Fe76      1.0  0.43596  0.63424  0.82278  1.0000
  S   S147      1.0  0.46664  0.60518  0.84965  1.0000
  S   S148      1.0  0.38437  0.68432  0.77567  1.0000
  S   S149      1.0  0.44658  0.66860  0.77954  1.0000
  Fe  Fe77      1.0  0.46262  0.89390  0.92415  1.0000
  S   S150      1.0  0.43678  0.90601  0.86384  1.0000
  Fe  Fe78      1.0  0.50658  0.87633  0.85827  1.0000
  S   S151      1.0  0.48402  0.88630  0.79358  1.0000
  S   S152      1.0  0.54345  0.85183  0.85244  1.0000
  Fe  Fe79      1.0  0.47226  0.92316  0.83029  1.0000
  S   S153      1.0  0.47125  0.96384  0.79621  1.0000
  Fe  Fe80      1.0  0.45065  0.86841  0.83118  1.0000
  S   S154      1.0  0.42546  0.84161  0.78972  1.0000
  S   S155      1.0  0.49721  0.91418  0.89366  1.0000
  S   S156      1.0  0.47421  0.85550  0.89309  1.0000
  Fe  Fe81      1.0  0.61693  0.62127  0.87820  1.0000
  S   S157      1.0  0.64205  0.60821  0.81799  1.0000
  S   S158      1.0  0.58086  0.64674  0.86821  1.0000
  S   S159      1.0  0.64929  0.63930  0.91764  1.0000
  S   S160      1.0  0.62044  0.58349  0.91664  1.0000
  H   H944      1.0  0.42997  0.57489  0.58658  1.0000
  C   C1192     1.0  0.59323  0.81845  0.94475  1.0000
  C   C1193     1.0  0.38622  0.90688  0.53188  1.0000
  H   H945      1.0  0.38047  0.91195  0.56707  1.0000
  C   C1194     1.0  0.56178  0.50226  0.59323  1.0000
  C   C1195     1.0  0.43053  0.85935  0.65214  1.0000
  C   C1196     1.0  0.51564  0.92991  0.48686  1.0000
  H   H946      1.0  0.64216  0.71807  0.83296  1.0000
  C   C1197     1.0  0.47615  0.97749  0.73944  1.0000
  C   C1198     1.0  0.48416  0.96266  0.70091  1.0000
  C   C1199     1.0  0.41968  0.98063  0.64575  1.0000
  H   H947      1.0  0.48790  0.94204  0.70512  1.0000
  H   H948      1.0  0.43616  0.94233  0.65298  1.0000
  C   C1200     1.0  0.57527  0.86313  0.85274  1.0000
  C   C1201     1.0  0.58099  0.88864  0.86431  1.0000
  C   C1202     1.0  0.60710  0.89589  0.86706  1.0000
  C   C1203     1.0  0.62736  0.87766  0.85809  1.0000
  C   C1204     1.0  0.62143  0.85234  0.84631  1.0000
  C   C1205     1.0  0.59554  0.84518  0.84337  1.0000
  H   H949      1.0  0.56540  0.90262  0.87152  1.0000
  H   H950      1.0  0.61160  0.91560  0.87589  1.0000
  H   H951      1.0  0.63679  0.83792  0.84097  1.0000
  H   H952      1.0  0.59128  0.82537  0.83492  1.0000
  H   H953      1.0  0.34773  0.64329  0.50181  1.0000
  C   C1206     1.0  0.42326  0.75834  0.84485  1.0000
  C   C1207     1.0  0.43059  0.77845  0.87406  1.0000
  C   C1208     1.0  0.43077  0.80405  0.85757  1.0000
  C   C1209     1.0  0.42329  0.80984  0.81197  1.0000
  C   C1210     1.0  0.41458  0.78991  0.78342  1.0000
  C   C1211     1.0  0.41483  0.76409  0.79964  1.0000
  H   H954      1.0  0.43683  0.77415  0.90926  1.0000
  H   H955      1.0  0.43651  0.81929  0.88043  1.0000
  H   H956      1.0  0.40821  0.79432  0.74842  1.0000
  H   H957      1.0  0.40887  0.74865  0.77710  1.0000
  C   C1212     1.0  0.49848  0.61654  0.85522  1.0000
  C   C1213     1.0  0.51901  0.59944  0.86834  1.0000
  C   C1214     1.0  0.54454  0.60826  0.87195  1.0000
  C   C1215     1.0  0.54954  0.63432  0.86307  1.0000
  C   C1216     1.0  0.52895  0.65143  0.85094  1.0000
  C   C1217     1.0  0.50361  0.64257  0.84687  1.0000
  H   H958      1.0  0.51526  0.57930  0.87534  1.0000
  H   H959      1.0  0.56027  0.59493  0.88162  1.0000
  H   H960      1.0  0.53254  0.67167  0.84448  1.0000
  H   H961      1.0  0.48798  0.65607  0.83804  1.0000
  C   C1218     1.0  0.44409  0.60428  0.54017  1.0000
  C   C1219     1.0  0.44871  0.63075  0.53554  1.0000
  C   C1220     1.0  0.44209  0.64804  0.57203  1.0000
  C   C1221     1.0  0.43064  0.63927  0.61357  1.0000
  C   C1222     1.0  0.42670  0.61268  0.61871  1.0000
  C   C1223     1.0  0.43342  0.59534  0.58228  1.0000
  H   H962      1.0  0.57854  0.52217  0.71930  1.0000
  H   H963      1.0  0.44563  0.66847  0.56781  1.0000
  H   H964      1.0  0.41787  0.60554  0.65027  1.0000
  H   H965      1.0  0.47376  0.51602  0.62933  1.0000
  H   H966      1.0  0.62764  0.87185  0.60164  1.0000
  C   C1224     1.0  0.38461  0.84713  0.91004  1.0000
  H   H967      1.0  0.48806  0.88261  0.68844  1.0000
  H   H968      1.0  0.60943  0.95940  0.75813  1.0000
  H   H969      1.0  0.47891  0.91345  0.62434  1.0000
  H   H970      1.0  0.54788  0.87820  0.95071  1.0000
  C   C1225     1.0  0.37143  0.90016  0.78179  1.0000
  C   C1226     1.0  0.39082  0.89591  0.74792  1.0000
  C   C1227     1.0  0.40911  0.91476  0.73898  1.0000
  C   C1228     1.0  0.40810  0.93808  0.76345  1.0000
  C   C1229     1.0  0.38914  0.94235  0.79768  1.0000
  S   S161      1.0  0.66007  0.88629  0.86205  1.0000
  H   H971      1.0  0.64631  0.94494  0.54476  1.0000
  C   C1230     1.0  0.43968  0.83083  0.48233  1.0000
  C   C1231     1.0  0.35917  0.83750  0.72739  1.0000
  H   H972      1.0  0.39744  0.85441  0.93648  1.0000
  H   H973      1.0  0.47695  0.81078  0.48684  1.0000
  H   H974      1.0  0.37535  0.83175  0.74952  1.0000
  H   H975      1.0  0.39233  0.87785  0.72912  1.0000
  H   H976      1.0  0.42444  0.91103  0.71382  1.0000
  H   H977      1.0  0.42240  0.95259  0.75676  1.0000
  Fe  Fe82      1.0  0.65503  0.60065  0.95218  1.0000
  H   H978      1.0  0.56552  0.50814  0.83781  1.0000
  C   C1232     1.0  0.62101  0.99748  0.48581  1.0000
  H   H979      1.0  0.56958  0.54532  0.53614  1.0000
  C   C1233     1.0  0.64835  0.51709  0.77132  1.0000
  C   C1234     1.0  0.50605  0.90515  0.49361  1.0000
  C   C1235     1.0  0.55608  0.52418  0.81958  1.0000
  C   C1236     1.0  0.35607  0.76308  0.52561  1.0000
  C   C1237     1.0  0.50448  0.51459  0.54821  1.0000
  P   P44       1.0  0.51991  0.53786  0.58513  1.0000
  C   C1238     1.0  0.53182  0.56367  0.54867  1.0000
  C   C1239     1.0  0.55678  0.56182  0.52885  1.0000
  Fe  Fe83      1.0  0.64791  0.57103  0.85852  1.0000
  C   C1240     1.0  0.62842  0.91931  0.69894  1.0000
  C   C1241     1.0  0.52401  0.60447  0.50737  1.0000
  C   C1242     1.0  0.51556  0.58519  0.53768  1.0000
  C   C1243     1.0  0.49687  0.55039  0.62787  1.0000
  C   C1244     1.0  0.47642  0.53515  0.64342  1.0000
  C   C1245     1.0  0.45903  0.54462  0.67731  1.0000
  C   C1246     1.0  0.46188  0.56934  0.69590  1.0000
  C   C1247     1.0  0.48223  0.58457  0.68082  1.0000
  C   C1248     1.0  0.49981  0.57509  0.64728  1.0000
  C   C1249     1.0  0.57361  0.51651  0.68426  1.0000
  H   H980      1.0  0.61058  0.97773  0.54967  1.0000
  C   C1250     1.0  0.45257  0.53700  0.89088  1.0000
  H   H981      1.0  0.49609  0.58685  0.55181  1.0000
  H   H982      1.0  0.44310  0.53293  0.68880  1.0000
  H   H983      1.0  0.44819  0.57687  0.72170  1.0000
  H   H984      1.0  0.48415  0.60389  0.69491  1.0000
  H   H985      1.0  0.51560  0.58711  0.63642  1.0000
  H   H986      1.0  0.47459  0.88287  0.51967  1.0000
  H   H987      1.0  0.63929  0.79622  0.69568  1.0000
  C   C1251     1.0  0.64150  0.91461  0.74117  1.0000
  H   H988      1.0  0.63155  0.58063  0.59342  1.0000
  C   C1252     1.0  0.58505  0.92267  0.60087  1.0000
  C   C1253     1.0  0.41317  0.82981  0.49249  1.0000
  C   C1254     1.0  0.55385  0.96777  0.60870  1.0000
  H   H989      1.0  0.39530  0.64129  0.96844  1.0000
  C   C1255     1.0  0.64806  0.87151  0.59300  1.0000
  C   C1256     1.0  0.54104  0.93886  0.79784  1.0000
  C   C1257     1.0  0.62388  0.97834  0.52054  1.0000
  H   H990      1.0  0.45971  0.77216  0.52590  1.0000
  H   H991      1.0  0.47533  0.71392  0.93687  1.0000
  H   H992      1.0  0.40775  0.87441  0.59548  1.0000
  H   H993      1.0  0.51103  0.62070  0.49841  1.0000
  H   H994      1.0  0.45716  0.63798  0.50372  1.0000
  C   C1258     1.0  0.33557  0.76511  0.61576  1.0000
  H   H995      1.0  0.48542  0.54671  0.84983  1.0000
  C   C1259     1.0  0.41207  0.72943  0.51906  1.0000
  H   H996      1.0  0.38306  0.61010  0.50588  1.0000
  P   P45       1.0  0.40753  0.75822  0.55427  1.0000
  C   C1260     1.0  0.37291  0.76167  0.56393  1.0000
  C   C1261     1.0  0.42467  0.75533  0.60905  1.0000
  C   C1262     1.0  0.43045  0.77785  0.63384  1.0000
  C   C1263     1.0  0.44330  0.77601  0.67661  1.0000
  C   C1264     1.0  0.45007  0.75169  0.69540  1.0000
  C   C1265     1.0  0.44433  0.72922  0.67110  1.0000
  C   C1266     1.0  0.43186  0.73099  0.62800  1.0000
  C   C1267     1.0  0.36247  0.76231  0.60914  1.0000
  H   H997      1.0  0.51729  0.88826  0.48192  1.0000
  H   H998      1.0  0.54310  0.96957  0.84788  1.0000
  H   H999      1.0  0.64682  0.59550  0.51583  1.0000
  H   H1000     1.0  0.63145  0.83356  0.95357  1.0000
  C   C1268     1.0  0.41973  0.78659  0.52525  1.0000
  H   H1001     1.0  0.54251  0.54482  0.67803  1.0000
  H   H1002     1.0  0.54862  0.64369  0.96509  1.0000
  H   H1003     1.0  0.35688  0.92682  0.83464  1.0000
  H   H1004     1.0  0.57047  0.58401  0.77812  1.0000
  C   C1269     1.0  0.55317  0.95913  0.82018  1.0000
  H   H1005     1.0  0.57985  0.92695  0.52695  1.0000
  H   H1006     1.0  0.42497  0.79685  0.62022  1.0000
  H   H1007     1.0  0.44772  0.79342  0.69563  1.0000
  H   H1008     1.0  0.45955  0.75020  0.72900  1.0000
  H   H1009     1.0  0.44936  0.71028  0.68576  1.0000
  H   H1010     1.0  0.42785  0.71320  0.61014  1.0000
  H   H1011     1.0  0.35272  0.66934  0.92907  1.0000
  H   H1012     1.0  0.55224  0.96736  0.53403  1.0000
  C   C1270     1.0  0.42666  0.72957  0.47760  1.0000
  C   C1271     1.0  0.54887  0.60250  0.48782  1.0000
  C   C1272     1.0  0.42444  0.95023  0.58171  1.0000
  H   H1013     1.0  0.38445  0.80852  0.93884  1.0000
  H   H1014     1.0  0.38897  0.96013  0.81763  1.0000
  H   H1015     1.0  0.49178  0.54295  0.49653  1.0000
  C   C1273     1.0  0.54700  0.52215  0.61502  1.0000
  C   C1274     1.0  0.42733  0.95614  0.62902  1.0000
  C   C1275     1.0  0.46818  0.65112  0.96988  1.0000
  C   C1276     1.0  0.37098  0.92341  0.80713  1.0000
  C   C1277     1.0  0.37595  0.86351  0.87400  1.0000
  H   H1016     1.0  0.38259  0.80771  0.52125  1.0000
  C   C1278     1.0  0.36428  0.73046  0.94348  1.0000
  H   H1017     1.0  0.65653  0.67222  0.83672  1.0000
  C   C1279     1.0  0.55969  0.95760  0.56485  1.0000
  C   C1280     1.0  0.64010  0.57594  0.52038  1.0000
  C   C1281     1.0  0.66252  0.71303  0.82863  1.0000
  H   H1018     1.0  0.36901  0.80878  0.67556  1.0000
  H   H1019     1.0  0.37493  0.76055  0.63933  1.0000
  H   H1020     1.0  0.54376  0.90995  0.74487  1.0000
  C   C1282     1.0  0.41342  0.96906  0.55160  1.0000
  H   H1021     1.0  0.33434  0.83395  0.53400  1.0000
  C   C1283     1.0  0.57519  0.93497  0.56092  1.0000
  C   C1284     1.0  0.49211  0.52278  0.50700  1.0000
  H   H1022     1.0  0.39598  0.66588  0.51956  1.0000
  C   C1285     1.0  0.37718  0.82133  0.91149  1.0000
  C   C1286     1.0  0.56207  0.87613  0.67358  1.0000
  C   C1287     1.0  0.58479  0.88365  0.69616  1.0000
  P   P46       1.0  0.59333  0.91741  0.69668  1.0000
  C   C1288     1.0  0.57856  0.93249  0.74726  1.0000
  C   C1289     1.0  0.55370  0.92543  0.76182  1.0000
  C   C1290     1.0  0.40043  0.70640  0.53310  1.0000
  C   C1291     1.0  0.43801  0.51721  0.91021  1.0000
  H   H1023     1.0  0.36375  0.76232  0.49049  1.0000
  C   C1292     1.0  0.59058  0.95310  0.76951  1.0000
  H   H1024     1.0  0.63079  0.91071  0.77283  1.0000
  C   C1293     1.0  0.63147  0.56760  0.56397  1.0000
  H   H1025     1.0  0.49342  0.96292  0.62734  1.0000
  H   H1026     1.0  0.35567  0.79176  0.87768  1.0000
  H   H1027     1.0  0.58734  0.98203  0.82329  1.0000
  C   C1294     1.0  0.56528  0.58122  0.49866  1.0000
  C   C1295     1.0  0.40407  0.68376  0.50716  1.0000
  H   H1028     1.0  0.54118  0.98488  0.61181  1.0000
  H   H1029     1.0  0.59061  0.54673  0.82074  1.0000
  C   C1296     1.0  0.58837  0.70367  0.93169  1.0000
  C   C1297     1.0  0.57229  0.72620  0.93199  1.0000
  C   C1298     1.0  0.34206  0.85796  0.74058  1.0000
  P   P47       1.0  0.57338  0.74974  0.88535  1.0000
  C   C1299     1.0  0.54110  0.75949  0.86706  1.0000
  C   C1300     1.0  0.59157  0.77626  0.90778  1.0000
  C   C1301     1.0  0.57884  0.79800  0.92779  1.0000
  C   C1302     1.0  0.47905  0.67269  0.94872  1.0000
  C   C1303     1.0  0.62038  0.81717  0.94251  1.0000
  C   C1304     1.0  0.63315  0.79528  0.92376  1.0000
  C   C1305     1.0  0.61882  0.77479  0.90695  1.0000
  C   C1306     1.0  0.52084  0.74195  0.86967  1.0000
  C   C1307     1.0  0.49656  0.74852  0.85044  1.0000
  C   C1308     1.0  0.49241  0.77255  0.82852  1.0000
  C   C1309     1.0  0.64411  0.95968  0.51794  1.0000
  C   C1310     1.0  0.53686  0.78337  0.84427  1.0000
  C   C1311     1.0  0.58741  0.73692  0.83230  1.0000
  C   C1312     1.0  0.58165  0.71183  0.81780  1.0000
  C   C1313     1.0  0.59188  0.70196  0.77617  1.0000
  C   C1314     1.0  0.60720  0.71743  0.74783  1.0000
  C   C1315     1.0  0.61199  0.74289  0.76091  1.0000
  C   C1316     1.0  0.60197  0.75272  0.80280  1.0000
  C   C1317     1.0  0.36097  0.81190  0.87698  1.0000
  C   C1318     1.0  0.55327  0.52936  0.66060  1.0000
  C   C1319     1.0  0.51247  0.79006  0.82584  1.0000
  H   H1030     1.0  0.60113  0.69924  0.90259  1.0000
  C   C1320     1.0  0.65538  0.53240  0.73323  1.0000
  H   H1031     1.0  0.55782  0.79957  0.92921  1.0000
  C   C1321     1.0  0.62311  0.54228  0.56974  1.0000
  H   H1032     1.0  0.60015  0.66867  0.96812  1.0000
  H   H1033     1.0  0.36477  0.73420  0.90631  1.0000
  H   H1034     1.0  0.62905  0.75815  0.89195  1.0000
  H   H1035     1.0  0.52394  0.72293  0.88519  1.0000
  H   H1036     1.0  0.48101  0.73487  0.85189  1.0000
  H   H1037     1.0  0.47374  0.77755  0.81319  1.0000
  P   P48       1.0  0.43626  0.91955  0.55850  1.0000
  H   H1038     1.0  0.47712  0.63200  0.96476  1.0000
  H   H1039     1.0  0.56933  0.69979  0.83872  1.0000
  H   H1040     1.0  0.58796  0.68223  0.76620  1.0000
  H   H1041     1.0  0.61538  0.70968  0.71584  1.0000
  H   H1042     1.0  0.62402  0.75485  0.73923  1.0000
  H   H1043     1.0  0.60593  0.77250  0.81219  1.0000
  C   C1322     1.0  0.33527  0.83208  0.65583  1.0000
  H   H1044     1.0  0.44697  0.55716  0.89703  1.0000
  C   C1323     1.0  0.51902  0.54418  0.78006  1.0000
  C   C1324     1.0  0.53359  0.56595  0.77010  1.0000
  C   C1325     1.0  0.48185  0.90219  0.51487  1.0000
  H   H1045     1.0  0.65782  0.55298  0.73787  1.0000
  S   S162      1.0  0.63254  0.89354  0.50912  1.0000
  H   H1046     1.0  0.65415  0.79450  0.92052  1.0000
  C   C1326     1.0  0.57060  0.54596  0.80936  1.0000
  C   C1327     1.0  0.46730  0.69727  0.95418  1.0000
  C   C1328     1.0  0.47446  0.53092  0.86357  1.0000
  C   C1329     1.0  0.57801  0.96617  0.80620  1.0000
  H   H1047     1.0  0.49904  0.54385  0.76839  1.0000
  H   H1048     1.0  0.52469  0.58240  0.75191  1.0000
  H   H1049     1.0  0.42113  0.52196  0.93152  1.0000
  C   C1330     1.0  0.64307  0.92444  0.65877  1.0000
  C   C1331     1.0  0.35204  0.82832  0.84114  1.0000
  H   H1050     1.0  0.49647  0.67033  0.92779  1.0000
  C   C1332     1.0  0.41227  0.90860  0.51768  1.0000
  H   H1051     1.0  0.54997  0.89023  0.65495  1.0000
  C   C1333     1.0  0.44261  0.89636  0.60489  1.0000
  C   C1334     1.0  0.46535  0.89825  0.63142  1.0000
  C   C1335     1.0  0.47061  0.88085  0.66786  1.0000
  C   C1336     1.0  0.45317  0.86148  0.67835  1.0000
  C   C1337     1.0  0.65938  0.52103  0.68896  1.0000
  C   C1338     1.0  0.52986  0.52346  0.80624  1.0000
  H   H1052     1.0  0.64600  0.71586  0.92357  1.0000
  C   C1339     1.0  0.33355  0.66223  0.93576  1.0000
  H   H1053     1.0  0.52158  0.93384  0.80797  1.0000
  H   H1054     1.0  0.41135  0.96506  0.51485  1.0000
  H   H1055     1.0  0.45706  0.84831  0.70724  1.0000
  C   C1340     1.0  0.65611  0.88004  0.54872  1.0000
  C   C1341     1.0  0.35975  0.85420  0.83906  1.0000
  H   H1056     1.0  0.61657  0.87013  0.74052  1.0000
  H   H1057     1.0  0.60309  0.82514  0.74369  1.0000
  H   H1058     1.0  0.59676  0.90502  0.59710  1.0000
  H   H1059     1.0  0.50923  0.80879  0.80914  1.0000
  H   H1060     1.0  0.55249  0.79671  0.84004  1.0000
  H   H1061     1.0  0.56320  0.81206  0.70300  1.0000
  H   H1062     1.0  0.55954  0.96444  0.68209  1.0000
  C   C1342     1.0  0.44650  0.78811  0.51641  1.0000
  C   C1343     1.0  0.59179  0.83925  0.72352  1.0000
  C   C1344     1.0  0.62303  0.52542  0.53182  1.0000
  C   C1345     1.0  0.42530  0.87660  0.61531  1.0000
  H   H1063     1.0  0.46662  0.96611  0.53547  1.0000
  H   H1064     1.0  0.58325  0.83578  0.95777  1.0000
  C   C1346     1.0  0.55934  0.56689  0.78493  1.0000
  H   H1065     1.0  0.38208  0.88336  0.87346  1.0000
  H   H1066     1.0  0.63883  0.81212  0.61405  1.0000
  C   C1347     1.0  0.50115  0.95174  0.50174  1.0000
  C   C1348     1.0  0.65714  0.71560  0.95544  1.0000
  C   C1349     1.0  0.46708  0.92402  0.52968  1.0000
  P   P49       1.0  0.34777  0.87574  0.79355  1.0000
  H   H1067     1.0  0.41691  0.84449  0.66091  1.0000
  C   C1350     1.0  0.48735  0.97461  0.65679  1.0000
  C   C1351     1.0  0.48000  0.50491  0.47857  1.0000
  C   C1352     1.0  0.40318  0.80785  0.51384  1.0000
  C   C1353     1.0  0.55445  0.85036  0.67572  1.0000
  H   H1068     1.0  0.38902  0.70571  0.56484  1.0000
  H   H1069     1.0  0.53685  0.84474  0.65848  1.0000
  C   C1354     1.0  0.58018  0.93331  0.64508  1.0000
  C   C1355     1.0  0.56930  0.83193  0.70072  1.0000
  C   C1356     1.0  0.56424  0.95591  0.64866  1.0000
  C   C1357     1.0  0.45638  0.81004  0.49461  1.0000
  H   H1070     1.0  0.63389  0.92814  0.62564  1.0000
  H   H1071     1.0  0.66474  0.53309  0.65977  1.0000
  C   C1358     1.0  0.59944  0.86499  0.72152  1.0000
  H   H1072     1.0  0.61707  0.53553  0.60377  1.0000
  S   S163      1.0  0.64372  0.52996  0.82850  1.0000
  C   C1359     1.0  0.35573  0.82456  0.68531  1.0000
  C   C1360     1.0  0.38198  0.71237  0.96280  1.0000
  C   C1361     1.0  0.47706  0.94884  0.52341  1.0000
  S   S164      1.0  0.45141  0.58161  0.49473  1.0000
  H   H1073     1.0  0.39540  0.70201  0.93990  1.0000
  C   C1362     1.0  0.48177  0.50490  0.85487  1.0000
  H   H1074     1.0  0.61685  0.50572  0.53705  1.0000
  H   H1075     1.0  0.36573  0.60483  0.96875  1.0000
  H   H1076     1.0  0.50855  0.97102  0.49692  1.0000
  C   C1363     1.0  0.65421  0.79881  0.62577  1.0000
  C   C1364     1.0  0.58817  0.68637  0.96933  1.0000
  H   H1077     1.0  0.40020  0.84585  0.48296  1.0000
  C   C1365     1.0  0.65446  0.78987  0.67171  1.0000
  H   H1078     1.0  0.65971  0.85653  0.66068  1.0000
  H   H1079     1.0  0.34464  0.70144  0.50886  1.0000
  H   H1080     1.0  0.34735  0.89706  0.51200  1.0000
  H   H1081     1.0  0.54476  0.74924  0.97266  1.0000
  S   S165      1.0  0.33635  0.64046  0.84683  1.0000
  C   C1366     1.0  0.55683  0.73164  0.97131  1.0000
  C   C1367     1.0  0.34594  0.74329  0.97183  1.0000
  H   H1082     1.0  0.62165  0.94059  0.95839  1.0000
  H   H1083     1.0  0.58449  0.57968  0.48318  1.0000
  H   H1084     1.0  0.33921  0.82079  0.81510  1.0000
  H   H1085     1.0  0.56706  0.59898  0.97172  1.0000
  C   C1368     1.0  0.36737  0.89866  0.50073  1.0000
  C   C1369     1.0  0.63175  0.53362  0.48791  1.0000
  C   C1370     1.0  0.66121  0.95955  0.48015  1.0000
  C   C1371     1.0  0.64046  0.55898  0.48255  1.0000
  C   C1372     1.0  0.40598  0.99362  0.56840  1.0000
  Fe  Fe84      1.0  0.97748  0.42078  0.37456  1.0000
  H   H1086     1.0  0.67443  0.38619  0.26762  1.0000
  S   S166      1.0  0.98194  0.46102  0.34074  1.0000
  Fe  Fe85      1.0  0.95406  0.36735  0.38318  1.0000
  S   S167      1.0  0.97987  0.35444  0.44206  1.0000
  S   S168      1.0  0.92260  0.34203  0.35489  1.0000
  H   H1087     1.0  0.75461  0.25809  0.01263  1.0000
  H   H1088     1.0  0.92661  0.22013  0.41761  1.0000
  S   S169      1.0  0.94318  0.40613  0.41530  1.0000
  S   S170      1.0  0.98657  0.38260  0.33917  1.0000
  H   H1089     1.0  0.91603  0.27184  0.99133  1.0000
  Fe  Fe86      1.0  0.92547  0.18948  0.30509  1.0000
  S   S171      1.0  0.91586  0.16323  0.36491  1.0000
  S   S172      1.0  0.95111  0.22336  0.31979  1.0000
  Fe  Fe87      1.0  0.90506  0.15176  0.23172  1.0000
  S   S173      1.0  0.89379  0.12307  0.28714  1.0000
  S   S174      1.0  0.89773  0.14513  0.15397  1.0000
  Fe  Fe88      1.0  0.87783  0.15737  0.32852  1.0000
  S   S175      1.0  0.83616  0.16033  0.35936  1.0000
  Fe  Fe89      1.0  0.93259  0.13172  0.31909  1.0000
  S   S176      1.0  0.96236  0.10200  0.34630  1.0000
  S   S177      1.0  0.88669  0.18587  0.27051  1.0000
  S   S178      1.0  0.94437  0.15814  0.26120  1.0000
  Fe  Fe90      1.0  0.73972  0.33672  0.10300  1.0000
  S   S179      1.0  0.74236  0.31021  0.16549  1.0000
  S   S180      1.0  0.77692  0.35453  0.07631  1.0000
  C   C1373     1.0  0.77966  0.11855  0.34059  1.0000
  Fe  Fe91      1.0  0.70420  0.32901  0.18908  1.0000
  S   S181      1.0  0.69727  0.33263  0.26839  1.0000
  Fe  Fe92      1.0  0.71857  0.28332  0.12340  1.0000
  S   S182      1.0  0.72992  0.24103  0.11145  1.0000
  S   S183      1.0  0.70331  0.35795  0.12934  1.0000
  S   S184      1.0  0.71854  0.30858  0.05990  1.0000
  C   C1374     1.0  0.70692  0.13429  0.20763  1.0000
  C   C1375     1.0  0.66822  0.47423  0.40662  1.0000
  H   H1090     1.0  0.87978  0.23766  0.00949  1.0000
  C   C1376     1.0  0.73222  0.21643  0.24005  1.0000
  C   C1377     1.0  0.78326  0.10801  0.38512  1.0000
  H   H1091     1.0  0.85608  0.41799  0.01834  1.0000
  H   H1092     1.0  0.94119  0.48385  0.05786  1.0000
  C   C1378     1.0  0.70391  0.21981  0.11630  1.0000
  H   H1093     1.0  0.96178  0.26840  0.11597  1.0000
  C   C1379     1.0  0.73934  0.19016  0.23538  1.0000
  H   H1094     1.0  0.73761  0.08469  0.26687  1.0000
  C   C1380     1.0  0.68399  0.17910  0.09615  1.0000
  C   C1381     1.0  0.70483  0.19604  0.09267  1.0000
  C   C1382     1.0  0.71582  0.25524  0.98598  1.0000
  C   C1383     1.0  0.88673  0.40121  0.97587  1.0000
  C   C1384     1.0  0.68435  0.35393  0.31261  1.0000
  C   C1385     1.0  0.81842  0.35365  0.01591  1.0000
  C   C1386     1.0  0.73981  0.17364  0.27444  1.0000
  C   C1387     1.0  0.68907  0.45631  0.41070  1.0000
  H   H1095     1.0  0.96791  0.08208  0.25472  1.0000
  C   C1388     1.0  0.84741  0.30992  0.42763  1.0000
  C   C1389     1.0  0.72386  0.09482  0.24418  1.0000
  H   H1096     1.0  0.76300  0.16936  0.47067  1.0000
  H   H1097     1.0  0.97618  0.05523  0.11416  1.0000
  H   H1098     1.0  0.97024  0.31471  0.27299  1.0000
  C   C1390     1.0  0.82232  0.15966  0.41684  1.0000
  P   P50       1.0  0.74933  0.13972  0.26776  1.0000
  C   C1391     1.0  0.79558  0.16572  0.42274  1.0000
  C   C1392     1.0  0.68244  0.22625  0.14425  1.0000
  H   H1099     1.0  0.78388  0.17061  0.39265  1.0000
  H   H1100     1.0  0.70688  0.15500  0.20184  1.0000
  C   C1393     1.0  0.95263  0.10887  0.04187  1.0000
  C   C1394     1.0  0.92713  0.11682  0.03093  1.0000
  C   C1395     1.0  0.91068  0.12795  0.06544  1.0000
  C   C1396     1.0  0.91955  0.13171  0.11122  1.0000
  C   C1397     1.0  0.94534  0.12465  0.12165  1.0000
  C   C1398     1.0  0.96165  0.11314  0.08735  1.0000
  H   H1101     1.0  0.70554  0.05953  0.22373  1.0000
  H   H1102     1.0  0.89084  0.13318  0.05665  1.0000
  H   H1103     1.0  0.95258  0.12753  0.15645  1.0000
  H   H1104     1.0  0.72203  0.15775  0.97749  1.0000
  H   H1105     1.0  0.75790  0.33498  0.98708  1.0000
  C   C1399     1.0  0.79206  0.34806  0.02169  1.0000
  H   H1106     1.0  0.72151  0.19086  0.07129  1.0000
  H   H1107     1.0  0.82916  0.36058  0.04529  1.0000
  H   H1108     1.0  0.86519  0.15663  0.98088  1.0000
  C   C1400     1.0  0.92958  0.30846  0.34960  1.0000
  C   C1401     1.0  0.95403  0.29791  0.36141  1.0000
  C   C1402     1.0  0.95986  0.27150  0.35381  1.0000
  C   C1403     1.0  0.94139  0.25541  0.33427  1.0000
  C   C1404     1.0  0.91662  0.26570  0.32388  1.0000
  C   C1405     1.0  0.91073  0.29220  0.33154  1.0000
  H   H1109     1.0  0.96873  0.31023  0.37516  1.0000
  H   H1110     1.0  0.97907  0.26364  0.36197  1.0000
  H   H1111     1.0  0.90244  0.25347  0.30840  1.0000
  H   H1112     1.0  0.89176  0.30028  0.32241  1.0000
  C   C1406     1.0  0.97299  0.47609  0.28661  1.0000
  C   C1407     1.0  0.95969  0.46318  0.25166  1.0000
  H   H1113     1.0  0.80278  0.10382  0.39781  1.0000
  C   C1408     1.0  0.95781  0.17496  0.46294  1.0000
  H   H1114     1.0  0.79704  0.28945  0.01302  1.0000
  H   H1115     1.0  0.70794  0.24864  0.01887  1.0000
  C   C1409     1.0  0.90862  0.21775  0.43669  1.0000
  H   H1116     1.0  0.94434  0.46530  0.18172  1.0000
  C   C1410     1.0  0.79201  0.17233  0.03851  1.0000
  C   C1411     1.0  0.80348  0.14749  0.04220  1.0000
  H   H1117     1.0  0.79617  0.21292  0.04953  1.0000
  H   H1118     1.0  0.88200  0.33242  0.42921  1.0000
  P   P51       1.0  0.80319  0.28003  0.42390  1.0000
  C   C1412     1.0  0.78602  0.30693  0.39595  1.0000
  H   H1119     1.0  0.91977  0.11339  0.99641  1.0000
  H   H1120     1.0  0.96808  0.34391  0.04614  1.0000
  C   C1413     1.0  0.88534  0.21680  0.41200  1.0000
  H   H1121     1.0  0.71352  0.12476  0.34148  1.0000
  H   H1122     1.0  0.72025  0.10655  0.42044  1.0000
  C   C1414     1.0  0.83277  0.29101  0.45016  1.0000
  C   C1415     1.0  0.77249  0.30329  0.35425  1.0000
  C   C1416     1.0  0.75819  0.32386  0.33401  1.0000
  C   C1417     1.0  0.75693  0.34810  0.35542  1.0000
  C   C1418     1.0  0.77037  0.35194  0.39686  1.0000
  H   H1123     1.0  0.75530  0.29925  0.47202  1.0000
  C   C1419     1.0  0.81133  0.25621  0.37991  1.0000
  C   C1420     1.0  0.79393  0.23663  0.36957  1.0000
  C   C1421     1.0  0.80032  0.21804  0.33594  1.0000
  C   C1422     1.0  0.82396  0.21890  0.31220  1.0000
  C   C1423     1.0  0.84098  0.23876  0.32110  1.0000
  C   C1424     1.0  0.83476  0.25737  0.35485  1.0000
  C   C1425     1.0  0.87069  0.31796  0.44697  1.0000
  C   C1426     1.0  0.92135  0.28010  0.02447  1.0000
  H   H1124     1.0  0.93815  0.16807  0.46358  1.0000
  C   C1427     1.0  0.92303  0.19217  0.06350  1.0000
  H   H1125     1.0  0.79287  0.13074  0.03144  1.0000
  H   H1126     1.0  0.84103  0.31833  0.39482  1.0000
  H   H1127     1.0  0.67410  0.35392  0.43097  1.0000
  C   C1428     1.0  0.70587  0.08045  0.21968  1.0000
  H   H1128     1.0  0.93758  0.35768  0.25763  1.0000
  C   C1429     1.0  0.68424  0.34525  0.35923  1.0000
  H   H1129     1.0  0.77254  0.28458  0.33748  1.0000
  H   H1130     1.0  0.74767  0.32091  0.30199  1.0000
  H   H1131     1.0  0.74523  0.36378  0.34005  1.0000
  H   H1132     1.0  0.67270  0.13430  0.28908  1.0000
  H   H1133     1.0  0.98476  0.15110  0.32313  1.0000
  H   H1134     1.0  0.77550  0.23554  0.38766  1.0000
  H   H1135     1.0  0.78722  0.20255  0.32902  1.0000
  H   H1136     1.0  0.82919  0.20404  0.28708  1.0000
  H   H1137     1.0  0.85915  0.23945  0.30219  1.0000
  H   H1138     1.0  0.84848  0.27233  0.36153  1.0000
  C   C1430     1.0  0.94729  0.27827  0.09442  1.0000
  C   C1431     1.0  0.72442  0.12192  0.23866  1.0000
  C   C1432     1.0  0.78358  0.16490  0.46712  1.0000
  C   C1433     1.0  0.96912  0.06935  0.18359  1.0000
  H   H1139     1.0  0.79486  0.33462  0.44963  1.0000
  H   H1140     1.0  0.68463  0.16094  0.07750  1.0000
  C   C1434     1.0  0.83594  0.35128  0.17993  1.0000
  C   C1435     1.0  0.81992  0.33318  0.15980  1.0000
  C   C1436     1.0  0.82901  0.31818  0.12252  1.0000
  C   C1437     1.0  0.85422  0.32108  0.10540  1.0000
  C   C1438     1.0  0.87058  0.33915  0.12556  1.0000
  C   C1439     1.0  0.86104  0.35450  0.16260  1.0000
  P   P52       1.0  0.90191  0.34536  0.09973  1.0000
  C   C1440     1.0  0.92193  0.36105  0.14225  1.0000
  C   C1441     1.0  0.91705  0.31485  0.08127  1.0000
  C   C1442     1.0  0.93600  0.30196  0.10883  1.0000
  C   C1443     1.0  0.90970  0.30356  0.03910  1.0000
  C   C1444     1.0  0.92319  0.35164  0.18823  1.0000
  C   C1445     1.0  0.93716  0.36473  0.22195  1.0000
  C   C1446     1.0  0.95015  0.38719  0.21004  1.0000
  C   C1447     1.0  0.94918  0.39659  0.16438  1.0000
  C   C1448     1.0  0.93519  0.38357  0.13052  1.0000
  C   C1449     1.0  0.89614  0.36712  0.05098  1.0000
  C   C1450     1.0  0.87646  0.38658  0.05379  1.0000
  C   C1451     1.0  0.81498  0.27787  0.01241  1.0000
  H   H1141     1.0  0.77237  0.17486  0.02565  1.0000
  H   H1142     1.0  0.69538  0.44500  0.38082  1.0000
  C   C1452     1.0  0.91156  0.36543  0.01058  1.0000
  H   H1143     1.0  0.82856  0.36343  0.20797  1.0000
  H   H1144     1.0  0.80006  0.33148  0.17185  1.0000
  H   H1145     1.0  0.81600  0.30509  0.10576  1.0000
  H   H1146     1.0  0.86035  0.30989  0.07539  1.0000
  H   H1147     1.0  0.87256  0.36956  0.17740  1.0000
  H   H1148     1.0  0.94221  0.30998  0.14144  1.0000
  H   H1149     1.0  0.89506  0.31295  0.01723  1.0000
  H   H1150     1.0  0.91288  0.33449  0.19838  1.0000
  C   C1453     1.0  0.99487  0.11186  0.34329  1.0000
  H   H1151     1.0  0.95888  0.41428  0.15547  1.0000
  H   H1152     1.0  0.93448  0.39142  0.09551  1.0000
  H   H1153     1.0  0.86450  0.38864  0.08468  1.0000
  H   H1154     1.0  0.97224  0.14261  0.42214  1.0000
  C   C1454     1.0  0.98831  0.33993  0.05448  1.0000
  C   C1455     1.0  0.73678  0.10975  0.39790  1.0000
  C   C1456     1.0  0.98273  0.48056  0.04898  1.0000
  C   C1457     1.0  0.73374  0.18411  0.31842  1.0000
  C   C1458     1.0  0.72680  0.21044  0.32294  1.0000
  C   C1459     1.0  0.72593  0.22658  0.28375  1.0000
  C   C1460     1.0  0.77882  0.13831  0.23348  1.0000
  C   C1461     1.0  0.78155  0.12148  0.19535  1.0000
  C   C1462     1.0  0.80488  0.12001  0.17025  1.0000
  C   C1463     1.0  0.82557  0.13530  0.18296  1.0000
  C   C1464     1.0  0.82288  0.15233  0.22036  1.0000
  C   C1465     1.0  0.79957  0.15395  0.24544  1.0000
  H   H1155     1.0  0.83912  0.16381  0.23057  1.0000
  H   H1156     1.0  0.73454  0.17226  0.34954  1.0000
  H   H1157     1.0  0.72203  0.21834  0.35693  1.0000
  H   H1158     1.0  0.72034  0.24695  0.28717  1.0000
  H   H1159     1.0  0.76594  0.10921  0.18512  1.0000
  H   H1160     1.0  0.80709  0.10669  0.14139  1.0000
  H   H1161     1.0  0.84387  0.13366  0.16429  1.0000
  S   S185      1.0  0.66759  0.10346  0.05605  1.0000
  H   H1162     1.0  0.95017  0.07790  0.17528  1.0000
  H   H1163     1.0  0.76922  0.37071  0.41360  1.0000
  C   C1466     1.0  0.95765  0.48928  0.03675  1.0000
  C   C1467     1.0  0.98756  0.31033  0.25257  1.0000
  H   H1164     1.0  0.88663  0.19306  0.02758  1.0000
  H   H1165     1.0  0.68186  0.24416  0.16357  1.0000
  C   C1468     1.0  0.83693  0.15305  0.45640  1.0000
  C   C1469     1.0  0.75452  0.12500  0.32446  1.0000
  H   H1166     1.0  0.76485  0.09639  0.44894  1.0000
  H   H1167     1.0  0.79807  0.16666  0.27523  1.0000
  C   C1470     1.0  0.93998  0.26736  0.05224  1.0000
  C   C1471     1.0  0.68844  0.09295  0.18925  1.0000
  H   H1168     1.0  0.73158  0.22899  0.20967  1.0000
  C   C1472     1.0  0.78493  0.33146  0.41706  1.0000
  C   C1473     1.0  0.73308  0.12009  0.35322  1.0000
  C   C1474     1.0  0.95438  0.47562  0.20854  1.0000
  C   C1475     1.0  0.68898  0.11980  0.18326  1.0000
  H   H1169     1.0  0.95373  0.44356  0.25771  1.0000
  Fe  Fe93      1.0  0.68234  0.32718  0.08991  1.0000
  H   H1170     1.0  0.84416  0.21120  0.41619  1.0000
  H   H1171     1.0  0.96078  0.39742  0.23637  1.0000
  S   S186      1.0  0.97320  0.09157  0.00169  1.0000
  H   H1172     1.0  0.98528  0.35605  0.12308  1.0000
  C   C1476     1.0  0.82845  0.14426  0.06061  1.0000
  C   C1477     1.0  0.84196  0.16586  0.07508  1.0000
  C   C1478     1.0  0.83103  0.19094  0.06985  1.0000
  S   S187      1.0  0.68069  0.29973  0.15070  1.0000
  P   P53       1.0  0.84833  0.21882  0.08943  1.0000
  C   C1479     1.0  0.83421  0.23078  0.14308  1.0000
  C   C1480     1.0  0.88279  0.21091  0.09550  1.0000
  C   C1481     1.0  0.89607  0.21654  0.13673  1.0000
  C   C1482     1.0  0.92257  0.21007  0.14114  1.0000
  C   C1483     1.0  0.93603  0.19791  0.10455  1.0000
  C   C1484     1.0  0.98371  0.05637  0.14931  1.0000
  C   C1485     1.0  0.89650  0.19836  0.05916  1.0000
  C   C1486     1.0  0.84116  0.25510  0.15989  1.0000
  C   C1487     1.0  0.82851  0.26588  0.19870  1.0000
  C   C1488     1.0  0.80858  0.25264  0.22053  1.0000
  C   C1489     1.0  0.80192  0.22820  0.20457  1.0000
  C   C1490     1.0  0.81473  0.21719  0.16614  1.0000
  C   C1491     1.0  0.84319  0.24415  0.04644  1.0000
  C   C1492     1.0  0.81998  0.25933  0.04712  1.0000
  H   H1173     1.0  0.69204  0.32604  0.36741  1.0000
  H   H1174     1.0  0.74436  0.18278  0.20113  1.0000
  H   H1175     1.0  0.88559  0.21823  0.37441  1.0000
  C   C1493     1.0  0.76189  0.10388  0.41396  1.0000
  H   H1176     1.0  0.94877  0.24907  0.04091  1.0000
  C   C1494     1.0  0.80570  0.19398  0.05211  1.0000
  H   H1177     1.0  0.83730  0.12500  0.06436  1.0000
  H   H1178     1.0  0.86083  0.16291  0.09073  1.0000
  H   H1179     1.0  0.93332  0.18203  0.03571  1.0000
  H   H1180     1.0  0.88604  0.22521  0.16611  1.0000
  H   H1181     1.0  0.93246  0.21375  0.17357  1.0000
  H   H1182     1.0  0.95630  0.19214  0.10851  1.0000
  H   H1183     1.0  0.98130  0.10716  0.09648  1.0000
  C   C1495     1.0  0.86157  0.24850  0.01127  1.0000
  H   H1184     1.0  0.85611  0.26588  0.14248  1.0000
  H   H1185     1.0  0.83389  0.28469  0.21145  1.0000
  H   H1186     1.0  0.79847  0.26118  0.25014  1.0000
  H   H1187     1.0  0.78673  0.21780  0.22191  1.0000
  H   H1188     1.0  0.80901  0.19836  0.15419  1.0000
  H   H1189     1.0  0.80552  0.25670  0.07410  1.0000
  C   C1496     1.0  0.87168  0.40341  0.01627  1.0000
  C   C1497     1.0  0.86200  0.21301  0.43557  1.0000
  H   H1190     1.0  0.79670  0.12191  0.31960  1.0000
  H   H1191     1.0  0.98523  0.46840  0.07950  1.0000
  H   H1192     1.0  0.67458  0.08178  0.17013  1.0000
  H   H1193     1.0  0.92720  0.35102  0.00742  1.0000
  H   H1194     1.0  0.93014  0.26268  0.45717  1.0000
  H   H1195     1.0  0.85747  0.14833  0.45281  1.0000
  H   H1196     1.0  0.74959  0.40600  0.00285  1.0000
  C   C1498     1.0  0.97909  0.07158  0.22847  1.0000
  C   C1499     1.0  0.97713  0.16037  0.43970  1.0000
  H   H1197     1.0  0.99672  0.32182  0.98856  1.0000
  H   H1198     1.0  0.98839  0.26957  0.26986  1.0000
  C   C1500     1.0  0.67429  0.37895  0.30297  1.0000
  H   H1199     1.0  0.67550  0.12938  0.15946  1.0000
  C   C1501     1.0  0.67406  0.36107  0.39551  1.0000
  C   C1502     1.0  0.78205  0.26587  0.46698  1.0000
  C   C1503     1.0  0.99776  0.28491  0.25082  1.0000
  H   H1200     1.0  0.99118  0.34951  0.22939  1.0000
  H   H1201     1.0  0.80408  0.22938  0.47107  1.0000
  H   H1202     1.0  0.98642  0.17319  0.18407  1.0000
  Fe  Fe94      1.0  0.97137  0.39372  0.47187  1.0000
  C   C1504     1.0  0.77825  0.33918  0.98334  1.0000
  H   H1203     1.0  0.94531  0.30704  0.46205  1.0000
  C   C1505     1.0  0.99818  0.34699  0.09769  1.0000
  C   C1506     1.0  0.70093  0.45198  0.45381  1.0000
  C   C1507     1.0  0.74218  0.26061  0.98243  1.0000
  H   H1204     1.0  0.71655  0.43751  0.45718  1.0000
  H   H1205     1.0  0.99892  0.13294  0.22696  1.0000
  C   C1508     1.0  0.83309  0.28140  0.97691  1.0000
  C   C1509     1.0  0.85650  0.26713  0.97691  1.0000
  S   S188      1.0  0.96856  0.39874  0.55090  1.0000
  Fe  Fe95      1.0  0.91272  0.32326  0.77884  1.0000
  S   S189      1.0  0.90421  0.35761  0.82582  1.0000
  S   S190      1.0  0.91702  0.32238  0.69917  1.0000
  Fe  Fe96      1.0  0.90944  0.28412  0.86045  1.0000
  S   S191      1.0  0.90112  0.31571  0.91191  1.0000
  S   S192      1.0  0.91073  0.24528  0.89769  1.0000
  Fe  Fe97      1.0  0.87361  0.33291  0.85962  1.0000
  S   S193      1.0  0.83080  0.34217  0.87690  1.0000
  Fe  Fe98      1.0  0.93241  0.33686  0.87468  1.0000
  S   S194      1.0  0.96441  0.34916  0.92258  1.0000
  S   S195      1.0  0.88017  0.30000  0.80933  1.0000
  S   S196      1.0  0.94260  0.30407  0.82622  1.0000
  Fe  Fe99      1.0  0.96391  0.11208  0.82712  1.0000
  H   H1206     1.0  0.98281  0.15579  0.72073  1.0000
  S   S197      1.0  0.94240  0.14356  0.78617  1.0000
  Fe  Fe100     1.0  0.97586  0.05355  0.83311  1.0000
  C   C1510     1.0  0.95053  0.29311  0.48914  1.0000
  S   S198      1.0  0.97374  0.01126  0.80767  1.0000
  Fe  Fe101     1.0  0.97602  0.08911  0.92169  1.0000
  H   H1207     1.0  0.67574  0.30870  0.93200  1.0000
  S   S199      1.0  0.94553  0.08003  0.86824  1.0000
  H   H1208     1.0  0.90913  0.21592  0.68088  1.0000
  C   C1511     1.0  0.70372  0.49603  0.83900  1.0000
  H   H1209     1.0  0.67874  0.40093  0.91727  1.0000
  C   C1512     1.0  0.72803  0.42081  0.94346  1.0000
  H   H1210     1.0  0.78687  0.39510  0.87034  1.0000
  H   H1211     1.0  0.88285  0.41404  0.94654  1.0000
  Fe  Fe102     1.0  0.74272  0.16284  0.59419  1.0000
  S   S200      1.0  0.73303  0.19638  0.64238  1.0000
  S   S201      1.0  0.78431  0.15711  0.56413  1.0000
  H   H1212     1.0  0.67782  0.12617  0.75829  1.0000
  H   H1213     1.0  0.97023  0.24332  0.58537  1.0000
  H   H1214     1.0  0.84698  0.21807  0.88399  1.0000
  H   H1215     1.0  0.84898  0.15454  0.81095  1.0000
  Fe  Fe103     1.0  0.71138  0.16815  0.68817  1.0000
  S   S202      1.0  0.71240  0.16995  0.76842  1.0000
  S   S203      1.0  0.70638  0.16833  0.55178  1.0000
  S   S204      1.0  0.72447  0.13425  0.64390  1.0000
  H   H1216     1.0  0.91803  0.23673  0.60513  1.0000
  C   C1513     1.0  0.69483  0.15075  0.80902  1.0000
  C   C1514     1.0  0.69653  0.15604  0.85693  1.0000
  S   S205      1.0  0.67357  0.17507  0.65068  1.0000
  H   H1217     1.0  0.72647  0.27901  0.52921  1.0000
  H   H1218     1.0  0.75210  0.25652  0.69475  1.0000
  H   H1219     1.0  0.82913  0.19631  0.76618  1.0000
  C   C1515     1.0  0.72913  0.23857  0.74796  1.0000
  C   C1516     1.0  0.98985  0.23630  0.74231  1.0000
  H   H1220     1.0  0.98424  0.29971  0.66965  1.0000
  H   H1221     1.0  0.94005  0.14321  0.62948  1.0000
  C   C1517     1.0  0.96702  0.00298  0.66606  1.0000
  H   H1222     1.0  0.73318  0.21905  0.73557  1.0000
  H   H1223     1.0  0.83658  0.14714  0.53097  1.0000
  H   H1224     1.0  0.99481  0.22435  0.50043  1.0000
  H   H1225     1.0  0.69265  0.25703  0.66049  1.0000
  C   C1518     1.0  0.96712  0.47118  0.56511  1.0000
  H   H1226     1.0  0.72903  0.45855  0.78046  1.0000
  C   C1519     1.0  0.67197  0.44124  0.89768  1.0000
  C   C1520     1.0  0.97352  0.99859  0.74987  1.0000
  C   C1521     1.0  0.69951  0.25886  0.94757  1.0000
  H   H1227     1.0  0.91975  0.16889  0.69278  1.0000
  C   C1522     1.0  0.81673  0.34335  0.93346  1.0000
  S   S206      1.0  0.67126  0.35068  0.65245  1.0000
  C   C1523     1.0  0.79047  0.33714  0.93935  1.0000
  C   C1524     1.0  0.96842  0.01419  0.71076  1.0000
  H   H1228     1.0  0.77937  0.33120  0.90958  1.0000
  C   C1525     1.0  0.91963  0.21725  0.86629  1.0000
  C   C1526     1.0  0.92540  0.19408  0.89043  1.0000
  C   C1527     1.0  0.93306  0.17152  0.86613  1.0000
  C   C1528     1.0  0.93408  0.17185  0.81756  1.0000
  C   C1529     1.0  0.92780  0.19490  0.79349  1.0000
  C   C1530     1.0  0.92082  0.21765  0.81777  1.0000
  H   H1229     1.0  0.92402  0.19359  0.92798  1.0000
  H   H1230     1.0  0.93753  0.15368  0.88480  1.0000
  H   H1231     1.0  0.92852  0.19520  0.75607  1.0000
  H   H1232     1.0  0.91605  0.23542  0.79907  1.0000
  H   H1233     1.0  0.75056  0.12319  0.94322  1.0000
  C   C1531     1.0  0.66768  0.22377  0.87185  1.0000
  H   H1234     1.0  0.95797  0.39896  0.87595  1.0000
  C   C1532     1.0  0.95423  0.37722  0.59167  1.0000
  C   C1533     1.0  0.94003  0.35601  0.57751  1.0000
  C   C1534     1.0  0.92906  0.33939  0.61089  1.0000
  C   C1535     1.0  0.93177  0.34391  0.65890  1.0000
  C   C1536     1.0  0.94611  0.36505  0.67311  1.0000
  C   C1537     1.0  0.95729  0.38155  0.63967  1.0000
  H   H1235     1.0  0.93715  0.35265  0.54081  1.0000
  H   H1236     1.0  0.91802  0.32314  0.59942  1.0000
  H   H1237     1.0  0.94844  0.36878  0.70984  1.0000
  C   C1538     1.0  0.74001  0.25965  0.72532  1.0000
  C   C1539     1.0  0.75222  0.26983  0.94044  1.0000
  H   H1238     1.0  0.66673  0.30723  0.78237  1.0000
  H   H1239     1.0  0.68926  0.30195  0.69239  1.0000
  C   C1540     1.0  0.98678  0.37195  0.90356  1.0000
  H   H1240     1.0  0.98540  0.28816  0.58889  1.0000
  C   C1541     1.0  0.94177  0.26781  0.48674  1.0000
  H   H1241     1.0  0.88433  0.20960  0.54626  1.0000
  C   C1542     1.0  0.67700  0.40881  0.74937  1.0000
  C   C1543     1.0  0.70946  0.26777  0.90508  1.0000
  C   C1544     1.0  0.71270  0.47747  0.87146  1.0000
  C   C1545     1.0  0.68529  0.27293  0.63909  1.0000
  H   H1242     1.0  0.71684  0.30825  0.79468  1.0000
  S   S207      1.0  0.67624  0.41010  0.56493  1.0000
  C   C1546     1.0  0.72790  0.42431  0.89488  1.0000
  C   C1547     1.0  0.83084  0.35090  0.97232  1.0000
  H   H1243     1.0  0.96516  0.03488  0.71501  1.0000
  P   P54       1.0  0.70266  0.44419  0.86754  1.0000
  H   H1244     1.0  0.72938  0.20386  0.95861  1.0000
  S   S208      1.0  0.67874  0.23696  0.56878  1.0000
  C   C1548     1.0  0.77068  0.39984  0.93895  1.0000
  H   H1245     1.0  0.78615  0.15220  0.66834  1.0000
  C   C1549     1.0  0.73592  0.27349  0.90196  1.0000
  C   C1550     1.0  0.92337  0.21642  0.61019  1.0000
  C   C1551     1.0  0.92409  0.17826  0.65988  1.0000
  C   C1552     1.0  0.73783  0.16284  0.95450  1.0000
  H   H1246     1.0  0.67912  0.25500  0.95135  1.0000
  H   H1247     1.0  0.69102  0.49060  0.81117  1.0000
  C   C1553     1.0  0.74366  0.26845  0.51665  1.0000
  C   C1554     1.0  0.71428  0.44483  0.77227  1.0000
  C   C1555     1.0  0.98957  0.20649  0.48391  1.0000
  C   C1556     1.0  0.77037  0.40239  0.89058  1.0000
  C   C1557     1.0  0.74910  0.41466  0.86853  1.0000
  H   H1248     1.0  0.98994  0.47190  0.72371  1.0000
  C   C1558     1.0  0.69860  0.43457  0.80753  1.0000
  C   C1559     1.0  0.71102  0.43741  0.72594  1.0000
  H   H1249     1.0  0.87197  0.28027  0.54438  1.0000
  H   H1250     1.0  0.89677  0.13442  0.92797  1.0000
  H   H1251     1.0  0.96742  0.16502  0.94788  1.0000
  H   H1252     1.0  0.91844  0.38071  0.94182  1.0000
  H   H1253     1.0  0.77245  0.22547  0.81539  1.0000
  H   H1254     1.0  0.96785  0.21320  0.94840  1.0000
  Fe  Fe104     1.0  0.68738  0.14264  0.60441  1.0000
  H   H1255     1.0  0.82538  0.17819  0.94926  1.0000
  H   H1256     1.0  0.70525  0.22573  0.80376  1.0000
  H   H1257     1.0  0.81839  0.29240  0.83636  1.0000
  H   H1258     1.0  0.73620  0.23452  0.55784  1.0000
  C   C1560     1.0  0.94834  0.24963  0.52177  1.0000
  C   C1561     1.0  0.79818  0.15816  0.50669  1.0000
  H   H1259     1.0  0.96414  0.49019  0.63120  1.0000
  H   H1260     1.0  0.70871  0.17142  0.86825  1.0000
  C   C1562     1.0  0.93547  0.16368  0.62402  1.0000
  H   H1261     1.0  0.78755  0.39121  0.95610  1.0000
  C   C1563     1.0  0.99634  0.41472  0.87392  1.0000
  H   H1262     1.0  0.74963  0.41714  0.83114  1.0000
  P   P55       1.0  0.93897  0.21630  0.51685  1.0000
  C   C1564     1.0  0.71960  0.28873  0.78151  1.0000
  H   H1263     1.0  0.83120  0.26558  0.51042  1.0000
  H   H1264     1.0  0.74399  0.28107  0.87008  1.0000
  H   H1265     1.0  0.82101  0.18267  0.68526  1.0000
  S   S209      1.0  0.99142  0.08517  0.78835  1.0000
  C   C1565     1.0  0.87922  0.14368  0.91413  1.0000
  C   C1566     1.0  0.68346  0.29833  0.65700  1.0000
  H   H1266     1.0  0.77853  0.27262  0.80657  1.0000
  C   C1567     1.0  0.97840  0.39536  0.88301  1.0000
  H   H1267     1.0  0.96819  0.39791  0.65111  1.0000
  C   C1568     1.0  0.66656  0.12174  0.87598  1.0000
  H   H1268     1.0  0.66739  0.20401  0.76680  1.0000
  H   H1269     1.0  0.85255  0.26476  0.87407  1.0000
  H   H1270     1.0  0.94661  0.46713  0.56366  1.0000
  C   C1569     1.0  0.67350  0.30484  0.85684  1.0000
  C   C1570     1.0  0.96411  0.26790  0.69856  1.0000
  C   C1571     1.0  0.96581  0.24528  0.72532  1.0000
  C   C1572     1.0  0.93455  0.20178  0.57370  1.0000
  C   C1573     1.0  0.73536  0.28472  0.74226  1.0000
  C   C1574     1.0  0.69216  0.46581  0.49278  1.0000
  H   H1271     1.0  0.72286  0.44565  0.69871  1.0000
  H   H1272     1.0  0.71220  0.42846  0.96476  1.0000
  C   C1575     1.0  0.98642  0.28163  0.68862  1.0000
  C   C1576     1.0  0.88504  0.21185  0.50889  1.0000
  C   C1577     1.0  0.67141  0.48383  0.48881  1.0000
  C   C1578     1.0  0.68251  0.14168  0.89021  1.0000
  H   H1273     1.0  0.87069  0.27034  0.94983  1.0000
  C   C1579     1.0  0.86184  0.21062  0.48399  1.0000
  Fe  Fe105     1.0  0.69583  0.20042  0.60212  1.0000
  H   H1274     1.0  0.94906  0.16339  0.55377  1.0000
  C   C1580     1.0  0.75400  0.14338  0.93539  1.0000
  C   C1581     1.0  0.71311  0.24251  0.78677  1.0000
  H   H1275     1.0  0.94531  0.27519  0.68649  1.0000
  H   H1276     1.0  0.94838  0.23510  0.73370  1.0000
  H   H1277     1.0  0.75885  0.13567  0.73258  1.0000
  H   H1278     1.0  0.88857  0.13372  0.84320  1.0000
  C   C1582     1.0  0.70772  0.26769  0.80333  1.0000
  H   H1279     1.0  0.68714  0.21733  0.88172  1.0000
  H   H1280     1.0  0.74392  0.30108  0.72481  1.0000
  C   C1583     1.0  0.94068  0.17532  0.58111  1.0000
  H   H1281     1.0  0.84382  0.20704  0.50217  1.0000
  C   C1584     1.0  0.97308  0.28242  0.56068  1.0000
  H   H1282     1.0  0.96268  0.01529  0.63631  1.0000
  H   H1283     1.0  0.77520  0.20999  0.52950  1.0000
  C   C1585     1.0  0.86143  0.15626  0.94387  1.0000
  H   H1284     1.0  0.76493  0.21566  0.90598  1.0000
  C   C1586     1.0  0.86511  0.28846  0.51169  1.0000
  H   H1285     1.0  0.77257  0.27445  0.93779  1.0000
  C   C1587     1.0  0.91817  0.20467  0.65310  1.0000
  C   C1588     1.0  0.76214  0.19541  0.91357  1.0000
  C   C1589     1.0  0.77840  0.17592  0.89395  1.0000
  C   C1590     1.0  0.77433  0.14988  0.90556  1.0000
  P   P56       1.0  0.80479  0.18369  0.85499  1.0000
  C   C1591     1.0  0.80882  0.21830  0.85160  1.0000
  C   C1592     1.0  0.83399  0.16790  0.87773  1.0000
  C   C1593     1.0  0.83889  0.16836  0.92580  1.0000
  C   C1594     1.0  0.96617  0.30040  0.52606  1.0000
  H   H1286     1.0  0.76604  0.14925  0.81283  1.0000
  C   C1595     1.0  0.87454  0.14322  0.86631  1.0000
  C   C1596     1.0  0.85203  0.15524  0.84809  1.0000
  C   C1597     1.0  0.83147  0.22962  0.86798  1.0000
  C   C1598     1.0  0.83477  0.25625  0.86247  1.0000
  C   C1599     1.0  0.81557  0.27179  0.84092  1.0000
  C   C1600     1.0  0.79310  0.26064  0.82423  1.0000
  C   C1601     1.0  0.78975  0.23398  0.82932  1.0000
  C   C1602     1.0  0.79862  0.17342  0.79604  1.0000
  C   C1603     1.0  0.77870  0.15638  0.78593  1.0000
  C   C1604     1.0  0.77441  0.14867  0.74009  1.0000
  C   C1605     1.0  0.78966  0.15811  0.70389  1.0000
  C   C1606     1.0  0.80929  0.17533  0.71350  1.0000
  C   C1607     1.0  0.81376  0.18300  0.75933  1.0000
  H   H1287     1.0  0.89730  0.31389  0.50439  1.0000
  C   C1608     1.0  0.72878  0.48536  0.90789  1.0000
  C   C1609     1.0  0.99432  0.18029  0.66379  1.0000
  P   P57       1.0  0.68834  0.27252  0.85540  1.0000
  H   H1288     1.0  0.78670  0.13455  0.89095  1.0000
  C   C1610     1.0  0.67910  0.13068  0.79487  1.0000
  C   C1611     1.0  0.82497  0.15238  0.50084  1.0000
  C   C1612     1.0  0.96430  0.25710  0.55859  1.0000
  C   C1613     1.0  0.74933  0.40850  0.96532  1.0000
  H   H1289     1.0  0.82910  0.29504  0.94906  1.0000
  H   H1290     1.0  0.70115  0.46231  0.52638  1.0000
  C   C1614     1.0  0.74912  0.24332  0.53289  1.0000
  C   C1615     1.0  0.98219  0.17483  0.96716  1.0000
  C   C1616     1.0  0.87945  0.30736  0.48913  1.0000
  H   H1291     1.0  0.97303  0.31999  0.52775  1.0000
  C   C1617     1.0  0.74195  0.18884  0.94371  1.0000
  C   C1618     1.0  0.67996  0.41642  0.79568  1.0000
  H   H1292     1.0  0.97576  0.45221  0.50010  1.0000
  C   C1619     1.0  0.66796  0.28896  0.56591  1.0000
  H   H1293     1.0  0.68391  0.14608  0.92681  1.0000
  H   H1294     1.0  0.73583  0.47179  0.93403  1.0000
  C   C1620     1.0  0.84189  0.28025  0.49230  1.0000
  C   C1621     1.0  0.78743  0.24061  0.48377  1.0000
  H   H1295     1.0  0.69008  0.41346  0.67864  1.0000
  C   C1622     1.0  0.90673  0.38234  0.97316  1.0000
  C   C1623     1.0  0.69247  0.41935  0.71453  1.0000
  H   H1296     1.0  0.99097  0.21904  0.76408  1.0000
  C   C1624     1.0  0.98362  0.46262  0.52926  1.0000
  C   C1625     1.0  0.77106  0.22947  0.51669  1.0000
  S   S210      1.0  0.99296  0.12235  0.88164  1.0000
  H   H1297     1.0  0.98966  0.43320  0.85970  1.0000
  C   C1626     1.0  0.67745  0.26822  0.59339  1.0000
  C   C1627     1.0  0.66947  0.31758  0.89950  1.0000
  H   H1298     1.0  0.97968  0.19527  0.67127  1.0000
  C   C1628     1.0  0.67401  0.31906  0.62924  1.0000
  C   C1629     1.0  0.66632  0.31426  0.58364  1.0000
  H   H1299     1.0  0.85108  0.35550  0.96841  1.0000
  C   C1630     1.0  0.90868  0.21529  0.48537  1.0000
  C   C1631     1.0  0.76010  0.27979  0.48404  1.0000
  C   C1632     1.0  0.99601  0.15800  0.69157  1.0000
  C   C1633     1.0  0.98239  0.20190  0.96770  1.0000
  C   C1634     1.0  0.97715  0.48423  0.60327  1.0000
  C   C1635     1.0  0.96388  0.19811  0.48534  1.0000
  H   H1300     1.0  0.66778  0.40800  0.82201  1.0000
  C   C1636     1.0  0.81841  0.83542  0.00165  1.0000
  Fe  Fe106     1.0  0.69215  0.64506  0.33961  1.0000
  H   H1301     1.0  0.77084  0.71135  0.12889  1.0000
  Fe  Fe107     1.0  0.74347  0.67276  0.35078  1.0000
  S   S211      1.0  0.73337  0.69966  0.29044  1.0000
  S   S212      1.0  0.78353  0.67945  0.38458  1.0000
  Fe  Fe108     1.0  0.69333  0.70257  0.32093  1.0000
  H   H1302     1.0  0.79939  0.79024  0.05975  1.0000
  Fe  Fe109     1.0  0.71930  0.66475  0.25209  1.0000
  S   S213      1.0  0.72627  0.66377  0.17320  1.0000
  S   S214      1.0  0.70387  0.67853  0.38393  1.0000
  S   S215      1.0  0.73244  0.63737  0.30976  1.0000
  H   H1303     1.0  0.68730  0.89293  0.00586  1.0000
  C   C1637     1.0  0.73161  0.81883  0.12370  1.0000
  C   C1638     1.0  0.96186  0.50126  0.19987  1.0000
  S   S216      1.0  0.69926  0.85352  0.32071  1.0000
  C   C1639     1.0  0.82523  0.79610  0.45254  1.0000
  C   C1640     1.0  0.95761  0.70688  0.23649  1.0000
  S   S217      1.0  0.97655  0.58923  0.15391  1.0000
  H   H1304     1.0  0.93456  0.51344  0.99037  1.0000
  S   S218      1.0  0.93881  0.57869  0.06454  1.0000
  Fe  Fe110     1.0  0.95239  0.61335  0.10403  1.0000
  S   S219      1.0  0.92603  0.64532  0.13363  1.0000
  Fe  Fe111     1.0  0.96605  0.55495  0.11141  1.0000
  H   H1305     1.0  0.99020  0.51217  0.30492  1.0000
  S   S220      1.0  0.98570  0.62145  0.05613  1.0000
  C   C1641     1.0  0.68399  0.72271  0.15835  1.0000
  Fe  Fe112     1.0  0.87460  0.83200  0.07931  1.0000
  S   S221      1.0  0.88657  0.79794  0.12515  1.0000
  S   S222      1.0  0.83170  0.83808  0.05876  1.0000
  Fe  Fe113     1.0  0.93059  0.84994  0.07179  1.0000
  S   S223      1.0  0.94630  0.81710  0.11542  1.0000
  S   S224      1.0  0.95805  0.87715  0.03572  1.0000
  Fe  Fe114     1.0  0.91970  0.79242  0.07493  1.0000
  S   S225      1.0  0.93469  0.75598  0.03942  1.0000
  Fe  Fe115     1.0  0.91244  0.82554  0.16319  1.0000
  S   S226      1.0  0.91972  0.81896  0.24169  1.0000
  S   S227      1.0  0.90636  0.82463  0.02714  1.0000
  S   S228      1.0  0.89784  0.86031  0.12139  1.0000
  S   S229      1.0  0.95840  0.89386  0.40339  1.0000
  C   C1642     1.0  0.92961  0.84032  0.28660  1.0000
  C   C1643     1.0  0.93041  0.86718  0.28013  1.0000
  C   C1644     1.0  0.93911  0.88318  0.31630  1.0000
  C   C1645     1.0  0.94671  0.87269  0.35972  1.0000
  C   C1646     1.0  0.94550  0.84586  0.36644  1.0000
  C   C1647     1.0  0.93707  0.82982  0.33013  1.0000
  H   H1306     1.0  0.92482  0.87564  0.24699  1.0000
  H   H1307     1.0  0.94011  0.90386  0.31048  1.0000
  H   H1308     1.0  0.95099  0.83751  0.39967  1.0000
  H   H1309     1.0  0.93664  0.80913  0.33581  1.0000
  C   C1648     1.0  0.67535  0.76886  0.31936  1.0000
  C   C1649     1.0  0.97435  0.51443  0.23542  1.0000
  H   H1310     1.0  0.83161  0.72131  0.29350  1.0000
  C   C1650     1.0  0.87963  0.62688  0.42310  1.0000
  H   H1311     1.0  0.97976  0.53431  0.22990  1.0000
  H   H1312     1.0  0.95435  0.72429  0.41760  1.0000
  C   C1651     1.0  0.82875  0.74148  0.12844  1.0000
  C   C1652     1.0  0.92799  0.67607  0.10714  1.0000
  C   C1653     1.0  0.92032  0.69844  0.13196  1.0000
  C   C1654     1.0  0.92208  0.72314  0.11152  1.0000
  C   C1655     1.0  0.93141  0.72551  0.06601  1.0000
  C   C1656     1.0  0.93881  0.70317  0.04105  1.0000
  C   C1657     1.0  0.93701  0.67851  0.06146  1.0000
  H   H1313     1.0  0.91354  0.69674  0.16738  1.0000
  H   H1314     1.0  0.91651  0.74031  0.13105  1.0000
  H   H1315     1.0  0.94597  0.70494  0.00577  1.0000
  H   H1316     1.0  0.94255  0.66139  0.04177  1.0000
  H   H1317     1.0  0.71173  0.76945  0.22288  1.0000
  C   C1658     1.0  0.67737  0.61711  0.06996  1.0000
  H   H1318     1.0  0.81036  0.66486  0.99813  1.0000
  C   C1659     1.0  0.68661  0.82752  0.99337  1.0000
  S   S230      1.0  0.95518  0.51575  0.14422  1.0000
  C   C1660     1.0  0.82371  0.76947  0.01093  1.0000
  H   H1319     1.0  0.67071  0.97742  0.41450  1.0000
  H   H1320     1.0  0.71571  0.72218  0.20647  1.0000
  H   H1321     1.0  0.72778  0.81779  0.08671  1.0000
  H   H1322     1.0  0.81511  0.70736  0.09447  1.0000
  H   H1323     1.0  0.71612  0.83840  0.42156  1.0000
  C   C1661     1.0  0.79879  0.67287  0.43956  1.0000
  C   C1662     1.0  0.69837  0.70983  0.99470  1.0000
  C   C1663     1.0  0.82463  0.68029  0.44631  1.0000
  C   C1664     1.0  0.70440  0.80136  0.44765  1.0000
  H   H1324     1.0  0.83494  0.68918  0.41786  1.0000
  H   H1325     1.0  0.76634  0.65472  0.47205  1.0000
  H   H1326     1.0  0.83690  0.77625  0.16533  1.0000
  C   C1665     1.0  0.69264  0.63739  0.05425  1.0000
  C   C1666     1.0  0.98748  0.79108  0.47340  1.0000
  H   H1327     1.0  0.83632  0.73779  0.37258  1.0000
  C   C1667     1.0  0.70165  0.77471  0.32191  1.0000
  H   H1328     1.0  0.92887  0.60589  0.32964  1.0000
  H   H1329     1.0  0.87320  0.86653  0.35732  1.0000
  H   H1330     1.0  0.94749  0.64225  0.23972  1.0000
  H   H1331     1.0  0.71623  0.75924  0.32520  1.0000
  H   H1332     1.0  0.84508  0.73242  0.45857  1.0000
  C   C1668     1.0  0.68281  0.87299  0.01378  1.0000
  H   H1333     1.0  0.66938  0.96072  0.23591  1.0000
  C   C1669     1.0  0.70657  0.64613  0.13425  1.0000
  C   C1670     1.0  0.70748  0.65151  0.08614  1.0000
  C   C1671     1.0  0.68463  0.89942  0.13234  1.0000
  H   H1334     1.0  0.66837  0.80103  0.04036  1.0000
  H   H1335     1.0  0.71980  0.66657  0.07344  1.0000
  C   C1672     1.0  0.94403  0.66268  0.24672  1.0000
  H   H1336     1.0  0.86143  0.82058  0.35223  1.0000
  H   H1337     1.0  0.73631  0.63014  0.98650  1.0000
  H   H1338     1.0  0.77966  0.63201  0.02309  1.0000
  H   H1339     1.0  0.97184  0.78684  0.26643  1.0000
  C   C1673     1.0  0.71778  0.82442  0.44987  1.0000
  H   H1340     1.0  0.97593  0.98217  0.44458  1.0000
  C   C1674     1.0  0.70107  0.73416  0.18910  1.0000
  H   H1341     1.0  0.89763  0.88198  0.42545  1.0000
  C   C1675     1.0  0.90711  0.66380  0.42960  1.0000
  C   C1676     1.0  0.89264  0.64449  0.45060  1.0000
  H   H1342     1.0  0.67977  0.98308  0.16152  1.0000
  Fe  Fe116     1.0  0.97355  0.58560  0.01848  1.0000
  H   H1343     1.0  0.97136  0.72040  0.22259  1.0000
  C   C1677     1.0  0.77417  0.64586  0.99606  1.0000
  H   H1344     1.0  0.93203  0.73659  0.26508  1.0000
  C   C1678     1.0  0.91776  0.74592  0.41571  1.0000
  H   H1345     1.0  0.94900  0.77394  0.19509  1.0000
  C   C1679     1.0  0.66689  0.99255  0.18643  1.0000
  C   C1680     1.0  0.70006  0.91340  0.20782  1.0000
  C   C1681     1.0  0.72572  0.90851  0.19366  1.0000
  C   C1682     1.0  0.73097  0.89969  0.14861  1.0000
  C   C1683     1.0  0.71055  0.89524  0.11799  1.0000
  C   C1684     1.0  0.96186  0.68029  0.22964  1.0000
  C   C1685     1.0  0.69010  0.82094  0.31838  1.0000
  H   H1346     1.0  0.68969  0.62204  0.18682  1.0000
  H   H1347     1.0  0.69605  0.92032  0.24278  1.0000
  H   H1348     1.0  0.74152  0.91173  0.21755  1.0000
  H   H1349     1.0  0.75092  0.89620  0.13748  1.0000
  H   H1350     1.0  0.71519  0.88833  0.08340  1.0000
  H   H1351     1.0  0.77909  0.84306  0.02513  1.0000
  C   C1686     1.0  0.97003  0.77465  0.19519  1.0000
  C   C1687     1.0  0.81995  0.66836  0.27170  1.0000
  C   C1688     1.0  0.81917  0.67660  0.22535  1.0000
  C   C1689     1.0  0.84210  0.67704  0.19927  1.0000
  C   C1690     1.0  0.86574  0.66908  0.21940  1.0000
  C   C1691     1.0  0.86674  0.66061  0.26589  1.0000
  C   C1692     1.0  0.84360  0.66051  0.29207  1.0000
  P   P58       1.0  0.89751  0.64917  0.29011  1.0000
  C   C1693     1.0  0.89559  0.64789  0.35306  1.0000
  C   C1694     1.0  0.90598  0.61692  0.26903  1.0000
  C   C1695     1.0  0.92199  0.60006  0.29585  1.0000
  C   C1696     1.0  0.90608  0.58457  0.20766  1.0000
  C   C1697     1.0  0.89819  0.60895  0.22467  1.0000
  C   C1698     1.0  0.90867  0.66552  0.38103  1.0000
  C   C1699     1.0  0.98960  0.80800  0.01170  1.0000
  H   H1352     1.0  0.69751  0.71220  0.06890  1.0000
  S   S231      1.0  0.67058  0.91497  0.38900  1.0000
  C   C1700     1.0  0.88123  0.62843  0.37459  1.0000
  C   C1701     1.0  0.92166  0.67158  0.27069  1.0000
  C   C1702     1.0  0.91741  0.69838  0.27710  1.0000
  C   C1703     1.0  0.93543  0.71594  0.26031  1.0000
  C   C1704     1.0  0.89654  0.75582  0.44173  1.0000
  H   H1353     1.0  0.89704  0.78745  0.32470  1.0000
  C   C1705     1.0  0.92964  0.57558  0.27884  1.0000
  H   H1354     1.0  0.80212  0.66773  0.29182  1.0000
  H   H1355     1.0  0.80071  0.68221  0.20955  1.0000
  H   H1356     1.0  0.84160  0.68291  0.16308  1.0000
  H   H1357     1.0  0.88319  0.66883  0.19823  1.0000
  H   H1358     1.0  0.84344  0.65429  0.32803  1.0000
  C   C1706     1.0  0.81018  0.72326  0.11773  1.0000
  H   H1359     1.0  0.90044  0.57879  0.17302  1.0000
  H   H1360     1.0  0.88659  0.62160  0.20240  1.0000
  H   H1361     1.0  0.92031  0.68041  0.36579  1.0000
  C   C1707     1.0  0.84115  0.77377  0.44568  1.0000
  H   H1362     1.0  0.98657  0.67621  0.09426  1.0000
  C   C1708     1.0  0.68020  0.77605  0.17469  1.0000
  H   H1363     1.0  0.87115  0.61448  0.35380  1.0000
  H   H1364     1.0  0.90007  0.70562  0.29483  1.0000
  H   H1365     1.0  0.94199  0.56262  0.29955  1.0000
  H   H1366     1.0  0.91904  0.74948  0.37867  1.0000
  H   H1367     1.0  0.96005  0.96659  0.36867  1.0000
  C   C1709     1.0  0.70896  0.80076  0.32148  1.0000
  H   H1368     1.0  0.97949  0.85813  0.12285  1.0000
  H   H1369     1.0  0.68569  0.70197  0.15267  1.0000
  H   H1370     1.0  0.69318  0.64200  0.01753  1.0000
  H   H1371     1.0  0.69773  0.84299  0.13842  1.0000
  C   C1710     1.0  0.98770  0.96845  0.42446  1.0000
  H   H1372     1.0  0.98939  0.72313  0.08026  1.0000
  C   C1711     1.0  0.69897  0.76075  0.19786  1.0000
  C   C1712     1.0  0.67961  0.90935  0.17708  1.0000
  H   H1373     1.0  0.72911  0.80533  0.32514  1.0000
  C   C1713     1.0  0.78521  0.72562  0.13682  1.0000
  C   C1714     1.0  0.80055  0.77439  0.03518  1.0000
  C   C1715     1.0  0.79133  0.83849  0.99545  1.0000
  C   C1716     1.0  0.69062  0.62646  0.15002  1.0000
  H   H1374     1.0  0.84807  0.73978  0.11330  1.0000
  C   C1717     1.0  0.87283  0.82682  0.38135  1.0000
  H   H1375     1.0  0.74006  0.69535  0.46068  1.0000
  H   H1376     1.0  0.83084  0.81485  0.43965  1.0000
  C   C1718     1.0  0.77901  0.75926  0.02702  1.0000
  C   C1719     1.0  0.77868  0.74644  0.16606  1.0000
  C   C1720     1.0  0.79719  0.76488  0.17694  1.0000
  C   C1721     1.0  0.82232  0.76221  0.15799  1.0000
  P   P59       1.0  0.78819  0.79213  0.21367  1.0000
  C   C1722     1.0  0.75905  0.80777  0.19020  1.0000
  C   C1723     1.0  0.78329  0.78198  0.27343  1.0000
  C   C1724     1.0  0.78303  0.80047  0.30924  1.0000
  C   C1725     1.0  0.77965  0.79287  0.35559  1.0000
  C   C1726     1.0  0.77665  0.76675  0.36663  1.0000
  C   C1727     1.0  0.77730  0.74822  0.33144  1.0000
  C   C1728     1.0  0.78054  0.75572  0.28503  1.0000
  C   C1729     1.0  0.74218  0.82260  0.21876  1.0000
  C   C1730     1.0  0.72011  0.83515  0.20001  1.0000
  H   H1377     1.0  0.76098  0.76334  0.04544  1.0000
  C   C1731     1.0  0.82538  0.74954  0.97828  1.0000
  C   C1732     1.0  0.75369  0.80623  0.14237  1.0000
  C   C1733     1.0  0.81356  0.81551  0.21275  1.0000
  C   C1734     1.0  0.81383  0.83505  0.17855  1.0000
  C   C1735     1.0  0.83330  0.85333  0.17856  1.0000
  C   C1736     1.0  0.85264  0.85221  0.21253  1.0000
  C   C1737     1.0  0.85276  0.83257  0.24610  1.0000
  C   C1738     1.0  0.83348  0.81414  0.24605  1.0000
  H   H1378     1.0  0.75916  0.74819  0.18018  1.0000
  C   C1739     1.0  0.71478  0.83317  0.15263  1.0000
  H   H1379     1.0  0.78523  0.82085  0.30137  1.0000
  H   H1380     1.0  0.77887  0.80732  0.38281  1.0000
  H   H1381     1.0  0.77367  0.76077  0.40236  1.0000
  H   H1382     1.0  0.77515  0.72797  0.34021  1.0000
  H   H1383     1.0  0.78103  0.74082  0.25877  1.0000
  H   H1384     1.0  0.74601  0.82492  0.25537  1.0000
  H   H1385     1.0  0.70728  0.84669  0.22231  1.0000
  H   H1386     1.0  0.89156  0.77092  0.24522  1.0000
  H   H1387     1.0  0.67682  0.53394  0.39414  1.0000
  H   H1388     1.0  0.76681  0.79572  0.11925  1.0000
  H   H1389     1.0  0.79932  0.83612  0.15139  1.0000
  H   H1390     1.0  0.83363  0.86810  0.15158  1.0000
  H   H1391     1.0  0.86783  0.86628  0.21244  1.0000
  H   H1392     1.0  0.86812  0.83152  0.27170  1.0000
  H   H1393     1.0  0.83417  0.79887  0.27200  1.0000
  C   C1740     1.0  0.87958  0.76372  0.27328  1.0000
  C   C1741     1.0  0.86122  0.74507  0.26421  1.0000
  C   C1742     1.0  0.84575  0.73592  0.30032  1.0000
  C   C1743     1.0  0.84850  0.74545  0.34544  1.0000
  C   C1744     1.0  0.86674  0.76444  0.35492  1.0000
  C   C1745     1.0  0.88250  0.77321  0.31844  1.0000
  P   P60       1.0  0.87143  0.77566  0.41397  1.0000
  C   C1746     1.0  0.78074  0.73898  0.99488  1.0000
  C   C1747     1.0  0.88099  0.80908  0.41599  1.0000
  H   H1394     1.0  0.86825  0.61203  0.43948  1.0000
  H   H1395     1.0  0.85914  0.73756  0.22930  1.0000
  C   C1748     1.0  0.89263  0.86174  0.42308  1.0000
  C   C1749     1.0  0.87894  0.85298  0.38463  1.0000
  C   C1750     1.0  0.68599  0.71373  0.03758  1.0000
  C   C1751     1.0  0.83309  0.74987  0.46324  1.0000
  H   H1396     1.0  0.92783  0.54903  0.22127  1.0000
  C   C1752     1.0  0.89463  0.81811  0.45467  1.0000
  H   H1397     1.0  0.97867  0.67326  0.21002  1.0000
  H   H1398     1.0  0.97681  0.84986  0.21300  1.0000
  H   H1399     1.0  0.76385  0.72756  0.98872  1.0000
  H   H1400     1.0  0.84026  0.78149  0.01692  1.0000
  H   H1401     1.0  0.68187  0.55809  0.32059  1.0000
  H   H1402     1.0  0.98776  0.89546  0.19633  1.0000
  C   C1753     1.0  0.69171  0.85343  0.98366  1.0000
  H   H1403     1.0  0.84295  0.69596  0.00556  1.0000
  C   C1754     1.0  0.93788  0.73170  0.43765  1.0000
  C   C1755     1.0  0.67231  0.82115  0.03300  1.0000
  C   C1756     1.0  0.67644  0.61186  0.11804  1.0000
  C   C1757     1.0  0.99348  0.94130  0.35637  1.0000
  C   C1758     1.0  0.95392  0.50606  0.99892  1.0000
  H   H1404     1.0  0.97369  0.76293  0.12390  1.0000
  H   H1405     1.0  0.69233  0.79755  0.41774  1.0000
  H   H1406     1.0  0.98982  0.82955  0.28795  1.0000
  C   C1759     1.0  0.99533  0.84911  0.28011  1.0000
  C   C1760     1.0  0.90035  0.84434  0.45815  1.0000
  C   C1761     1.0  0.92168  0.56786  0.23476  1.0000
  H   H1407     1.0  0.71909  0.70562  0.99345  1.0000
  H   H1408     1.0  0.88843  0.67962  0.00747  1.0000
  C   C1762     1.0  0.99482  0.86682  0.10323  1.0000
  H   H1409     1.0  0.98559  0.93412  0.32432  1.0000
  S   S232      1.0  0.67872  0.66954  0.27921  1.0000
  H   H1410     1.0  0.67832  0.79657  0.18221  1.0000
  H   H1411     1.0  0.98141  0.82761  0.01187  1.0000
  C   C1763     1.0  0.98951  0.87815  0.05989  1.0000
  C   C1764     1.0  0.98786  0.86066  0.23798  1.0000
  C   C1765     1.0  0.98409  0.76868  0.15475  1.0000
  H   H1412     1.0  0.99339  0.81696  0.41548  1.0000
  C   C1766     1.0  0.97880  0.95975  0.38160  1.0000
  C   C1767     1.0  0.98296  0.78192  0.23542  1.0000
  H   H1413     1.0  0.91721  0.67735  0.45116  1.0000
  C   C1768     1.0  0.99382  0.88641  0.22882  1.0000
  C   C1769     1.0  0.98012  0.50184  0.27814  1.0000
  C   C1770     1.0  0.79156  0.66462  0.98171  1.0000
  C   C1771     1.0  0.66833  0.86682  0.05362  1.0000
  H   H1414     1.0  0.70453  0.57272  0.67636  1.0000
  H   H1415     1.0  0.73563  0.64361  0.74442  1.0000
  H   H1416     1.0  0.91870  0.92374  0.80048  1.0000
  S   S233      1.0  0.70719  0.64719  0.83248  1.0000
  H   H1417     1.0  0.88460  0.91334  0.92410  1.0000
  H   H1418     1.0  0.78728  0.69723  0.63695  1.0000
  H   H1419     1.0  0.69593  0.71963  0.60868  1.0000
  Fe  Fe117     1.0  0.74093  0.83006  0.82698  1.0000
  S   S234      1.0  0.73034  0.80448  0.76652  1.0000
  S   S235      1.0  0.78239  0.82524  0.85559  1.0000
  Fe  Fe118     1.0  0.71108  0.84035  0.73432  1.0000
  S   S236      1.0  0.71682  0.85112  0.65747  1.0000
  Fe  Fe119     1.0  0.69268  0.79979  0.80475  1.0000
  H   H1420     1.0  0.92986  0.84001  0.84363  1.0000
  S   S237      1.0  0.72462  0.86629  0.79179  1.0000
  S   S238      1.0  0.70428  0.82277  0.86685  1.0000
  H   H1421     1.0  0.93429  0.84504  0.92855  1.0000
  Fe  Fe120     1.0  0.88010  0.66043  0.61461  1.0000
  S   S239      1.0  0.88707  0.68493  0.67834  1.0000
  S   S240      1.0  0.83892  0.65968  0.58275  1.0000
  Fe  Fe121     1.0  0.93602  0.63718  0.61861  1.0000
  S   S241      1.0  0.94637  0.65973  0.68182  1.0000
  S   S242      1.0  0.96572  0.61010  0.58380  1.0000
  Fe  Fe122     1.0  0.90749  0.64947  0.70992  1.0000
  S   S243      1.0  0.90025  0.63770  0.78606  1.0000
  Fe  Fe123     1.0  0.92563  0.69289  0.64506  1.0000
  S   S244      1.0  0.94984  0.72853  0.64033  1.0000
  S   S245      1.0  0.89797  0.62436  0.64864  1.0000
  S   S246      1.0  0.91758  0.67091  0.57962  1.0000
  S   S247      1.0  0.97639  0.58479  0.93854  1.0000
  H   H1422     1.0  0.83779  0.83357  0.66652  1.0000
  S   S248      1.0  0.97211  0.88502  0.61820  1.0000
  C   C1772     1.0  0.75115  0.69434  0.67481  1.0000
  S   S249      1.0  0.93454  0.90549  0.53248  1.0000
  Fe  Fe124     1.0  0.96755  0.92115  0.57464  1.0000
  S   S250      1.0  0.96713  0.96298  0.60242  1.0000
  Fe  Fe125     1.0  0.94203  0.86824  0.57185  1.0000
  S   S251      1.0  0.90960  0.84348  0.59787  1.0000
  S   S252      1.0  0.67259  0.83332  0.76761  1.0000
  S   S253      1.0  0.97037  0.85168  0.51971  1.0000
  C   C1773     1.0  0.97050  0.97602  0.65965  1.0000
  S   S254      1.0  0.68293  0.58481  0.89778  1.0000
  C   C1774     1.0  0.97611  0.96046  0.69869  1.0000
  H   H1423     1.0  0.71043  0.75327  0.66961  1.0000
  H   H1424     1.0  0.75321  0.69580  0.90098  1.0000
  C   C1775     1.0  0.93740  0.75986  0.62725  1.0000
  C   C1776     1.0  0.91084  0.76650  0.62945  1.0000
  C   C1777     1.0  0.90225  0.79224  0.62024  1.0000
  C   C1778     1.0  0.92018  0.81122  0.60871  1.0000
  C   C1779     1.0  0.94661  0.80436  0.60624  1.0000
  C   C1780     1.0  0.95511  0.77880  0.61542  1.0000
  H   H1425     1.0  0.89706  0.75195  0.63880  1.0000
  H   H1426     1.0  0.88177  0.79750  0.62232  1.0000
  H   H1427     1.0  0.96065  0.81887  0.59848  1.0000
  H   H1428     1.0  0.97558  0.77374  0.61404  1.0000
  C   C1781     1.0  0.92231  0.62394  0.82818  1.0000
  C   C1782     1.0  0.94812  0.61678  0.81737  1.0000
  C   C1783     1.0  0.96444  0.60505  0.85156  1.0000
  C   C1784     1.0  0.95550  0.60099  0.89736  1.0000
  C   C1785     1.0  0.92991  0.60873  0.90842  1.0000
  C   C1786     1.0  0.91340  0.61976  0.87393  1.0000
  H   H1429     1.0  0.95540  0.61998  0.78254  1.0000
  H   H1430     1.0  0.74332  0.71296  0.66303  1.0000
  H   H1431     1.0  0.92260  0.60552  0.94324  1.0000
  H   H1432     1.0  0.89347  0.62485  0.88280  1.0000
  C   C1787     1.0  0.66864  0.91419  0.74281  1.0000
  H   H1433     1.0  0.96705  0.79644  0.47732  1.0000
  C   C1788     1.0  0.78452  0.68269  0.94682  1.0000
  C   C1789     1.0  0.80745  0.60481  0.63936  1.0000
  H   H1434     1.0  0.83481  0.82194  0.88896  1.0000
  H   H1435     1.0  0.89139  0.64319  0.48824  1.0000
  C   C1790     1.0  0.82255  0.82656  0.91861  1.0000
  C   C1791     1.0  0.69285  0.86190  0.61636  1.0000
  C   C1792     1.0  0.70088  0.86998  0.57186  1.0000
  C   C1793     1.0  0.68269  0.87891  0.53820  1.0000
  C   C1794     1.0  0.89588  0.75138  0.49002  1.0000
  H   H1436     1.0  0.73550  0.60827  0.67586  1.0000
  H   H1437     1.0  0.86611  0.56522  0.69050  1.0000
  H   H1438     1.0  0.72138  0.86973  0.56363  1.0000
  H   H1439     1.0  0.68930  0.88541  0.50447  1.0000
  C   C1795     1.0  0.67024  0.92396  0.66055  1.0000
  H   H1440     1.0  0.70243  0.53631  0.81886  1.0000
  C   C1796     1.0  0.82437  0.66472  0.52676  1.0000
  H   H1441     1.0  0.84461  0.69271  0.85526  1.0000
  H   H1442     1.0  0.78825  0.64830  0.54835  1.0000
  H   H1443     1.0  0.90187  0.81441  0.76734  1.0000
  H   H1444     1.0  0.97519  0.79525  0.70356  1.0000
  C   C1797     1.0  0.79549  0.82957  0.91238  1.0000
  C   C1798     1.0  0.69700  0.67997  0.82685  1.0000
  H   H1445     1.0  0.85700  0.68248  0.49417  1.0000
  C   C1799     1.0  0.71040  0.52197  0.84303  1.0000
  H   H1446     1.0  0.68144  0.92693  0.62907  1.0000
  C   C1800     1.0  0.70680  0.72563  0.81563  1.0000
  C   C1801     1.0  0.71507  0.69932  0.81872  1.0000
  H   H1447     1.0  0.72078  0.74052  0.80966  1.0000
  H   H1448     1.0  0.73544  0.69395  0.81511  1.0000
  C   C1802     1.0  0.74687  0.65503  0.72036  1.0000
  C   C1803     1.0  0.89467  0.89752  0.90618  1.0000
  C   C1804     1.0  0.72658  0.52957  0.87900  1.0000
  C   C1805     1.0  0.96996  0.91022  0.85931  1.0000
  C   C1806     1.0  0.67461  0.77320  0.68700  1.0000
  C   C1807     1.0  0.67071  0.68695  0.83137  1.0000
  P   P61       1.0  0.72167  0.76609  0.57240  1.0000
  H   H1449     1.0  0.95247  0.71637  0.50278  1.0000
  C   C1808     1.0  0.75146  0.76803  0.60537  1.0000
  C   C1809     1.0  0.75397  0.78769  0.63843  1.0000
  C   C1810     1.0  0.77676  0.78941  0.66433  1.0000
  C   C1811     1.0  0.79743  0.77165  0.65716  1.0000
  C   C1812     1.0  0.79514  0.75192  0.62443  1.0000
  C   C1813     1.0  0.77213  0.74988  0.59903  1.0000
  C   C1814     1.0  0.83731  0.67633  0.48953  1.0000
  C   C1815     1.0  0.97250  0.78954  0.83846  1.0000
  H   H1450     1.0  0.90050  0.80519  0.48279  1.0000
  H   H1451     1.0  0.80311  0.72961  0.49943  1.0000
  C   C1816     1.0  0.74236  0.66286  0.94126  1.0000
  C   C1817     1.0  0.72103  0.78861  0.52387  1.0000
  H   H1452     1.0  0.97465  0.82986  0.85478  1.0000
  H   H1453     1.0  0.80573  0.65594  0.66570  1.0000
  C   C1818     1.0  0.90730  0.92518  0.66740  1.0000
  C   C1819     1.0  0.82660  0.59427  0.60978  1.0000
  C   C1820     1.0  0.96089  0.56297  0.72746  1.0000
  H   H1454     1.0  0.88183  0.84496  0.68968  1.0000
  C   C1821     1.0  0.75957  0.68183  0.92714  1.0000
  H   H1455     1.0  0.67496  0.76643  0.72265  1.0000
  C   C1822     1.0  0.73409  0.81204  0.52621  1.0000
  H   H1456     1.0  0.97233  0.52743  0.94424  1.0000
  H   H1457     1.0  0.73823  0.80170  0.64434  1.0000
  H   H1458     1.0  0.77830  0.80465  0.68989  1.0000
  H   H1459     1.0  0.81519  0.77317  0.67700  1.0000
  H   H1460     1.0  0.81124  0.73818  0.61878  1.0000
  H   H1461     1.0  0.77076  0.73425  0.57431  1.0000
  H   H1462     1.0  0.99200  0.65109  0.63222  1.0000
  C   C1823     1.0  0.77135  0.64586  0.70476  1.0000
  H   H1463     1.0  0.67855  0.91006  0.77536  1.0000
  C   C1824     1.0  0.97719  0.89643  0.89944  1.0000
  H   H1464     1.0  0.73158  0.54972  0.88222  1.0000
  Fe  Fe126     1.0  0.67487  0.62290  0.86100  1.0000
  H   H1465     1.0  0.95435  0.87494  0.73065  1.0000
  H   H1466     1.0  0.80030  0.84243  0.71979  1.0000
  C   C1825     1.0  0.89199  0.67699  0.93302  1.0000
  H   H1467     1.0  0.74486  0.81705  0.55700  1.0000
  C   C1826     1.0  0.84778  0.58010  0.62819  1.0000
  C   C1827     1.0  0.68039  0.73248  0.82077  1.0000
  C   C1828     1.0  0.71698  0.68225  0.51837  1.0000
  H   H1468     1.0  0.97873  0.93972  0.69463  1.0000
  H   H1469     1.0  0.80748  0.86217  0.79660  1.0000
  C   C1829     1.0  0.71891  0.73344  0.55077  1.0000
  Fe  Fe127     1.0  0.68700  0.85671  0.82720  1.0000
  C   C1830     1.0  0.70465  0.68923  0.56009  1.0000
  H   H1470     1.0  0.91598  0.96563  0.67172  1.0000
  C   C1831     1.0  0.69471  0.76571  0.65667  1.0000
  H   H1471     1.0  0.70408  0.91743  0.70345  1.0000
  C   C1832     1.0  0.68397  0.71082  0.95361  1.0000
  C   C1833     1.0  0.97801  0.54260  0.65750  1.0000
  C   C1834     1.0  0.66626  0.86260  0.62665  1.0000
  P   P62       1.0  0.80657  0.70765  0.92917  1.0000
  C   C1835     1.0  0.79790  0.71935  0.87162  1.0000
  C   C1836     1.0  0.83982  0.69490  0.93032  1.0000
  C   C1837     1.0  0.70592  0.78356  0.48446  1.0000
  H   H1472     1.0  0.67669  0.94484  0.47812  1.0000
  H   H1473     1.0  0.89003  0.67685  0.85824  1.0000
  C   C1838     1.0  0.78616  0.66181  0.67605  1.0000
  C   C1839     1.0  0.85357  0.68974  0.88888  1.0000
  C   C1840     1.0  0.79499  0.74606  0.86218  1.0000
  C   C1841     1.0  0.78774  0.75470  0.81769  1.0000
  C   C1842     1.0  0.78349  0.73686  0.78232  1.0000
  C   C1843     1.0  0.78656  0.71030  0.79133  1.0000
  C   C1844     1.0  0.79359  0.70157  0.83580  1.0000
  H   H1474     1.0  0.97854  0.54179  0.61983  1.0000
  H   H1475     1.0  0.82525  0.59757  0.57257  1.0000
  H   H1476     1.0  0.95154  0.78941  0.84234  1.0000
  C   C1845     1.0  0.92020  0.85633  0.86037  1.0000
  H   H1477     1.0  0.95574  0.92616  0.86152  1.0000
  H   H1478     1.0  0.69352  0.70759  0.92036  1.0000
  H   H1479     1.0  0.94790  0.57714  0.74396  1.0000
  H   H1480     1.0  0.72329  0.66204  0.92547  1.0000
  H   H1481     1.0  0.79112  0.61556  0.62427  1.0000
  H   H1482     1.0  0.77521  0.76952  0.51078  1.0000
  C   C1846     1.0  0.73260  0.82976  0.48913  1.0000
  C   C1847     1.0  0.83395  0.82952  0.96281  1.0000
  H   H1483     1.0  0.74230  0.84804  0.49141  1.0000
  C   C1848     1.0  0.80409  0.73372  0.97082  1.0000
  H   H1484     1.0  0.85108  0.87372  0.82060  1.0000
  H   H1485     1.0  0.82323  0.63376  0.90783  1.0000
  H   H1486     1.0  0.79812  0.76037  0.88888  1.0000
  H   H1487     1.0  0.78537  0.77532  0.81074  1.0000
  H   H1488     1.0  0.77774  0.74365  0.74801  1.0000
  H   H1489     1.0  0.78327  0.69641  0.76403  1.0000
  H   H1490     1.0  0.79554  0.68091  0.84228  1.0000
  C   C1849     1.0  0.98659  0.79234  0.97276  1.0000
  H   H1491     1.0  0.97533  0.91407  0.78526  1.0000
  H   H1492     1.0  0.75911  0.83801  0.94700  1.0000
  H   H1493     1.0  0.96837  0.90145  0.93272  1.0000
  C   C1850     1.0  0.77991  0.83559  0.95116  1.0000
  H   H1494     1.0  0.93342  0.78171  0.73633  1.0000
  C   C1851     1.0  0.73044  0.70071  0.49303  1.0000
  H   H1495     1.0  0.88022  0.75944  0.51128  1.0000
  C   C1852     1.0  0.73579  0.51126  0.91140  1.0000
  C   C1853     1.0  0.98630  0.76670  0.82681  1.0000
  H   H1496     1.0  0.98561  0.84192  0.70027  1.0000
  C   C1854     1.0  0.97765  0.97172  0.74334  1.0000
  H   H1497     1.0  0.69476  0.76616  0.48245  1.0000
  C   C1855     1.0  0.96130  0.56084  0.67902  1.0000
  C   C1856     1.0  0.90997  0.87961  0.93145  1.0000
  H   H1498     1.0  0.71782  0.68599  0.71750  1.0000
  H   H1499     1.0  0.97602  0.74893  0.82152  1.0000
  H   H1500     1.0  0.91208  0.66996  0.93400  1.0000
  C   C1857     1.0  0.73895  0.59185  0.69884  1.0000
  H   H1501     1.0  0.99326  0.71638  0.56973  1.0000
  H   H1502     1.0  0.98415  0.59911  0.84247  1.0000
  C   C1858     1.0  0.70563  0.71471  0.57635  1.0000
  C   C1859     1.0  0.91352  0.94772  0.69094  1.0000
  C   C1860     1.0  0.80971  0.60187  0.68781  1.0000
  C   C1861     1.0  0.99912  0.77304  0.50398  1.0000
  H   H1503     1.0  0.98161  0.95951  0.77329  1.0000
  C   C1862     1.0  0.91589  0.73694  0.51167  1.0000
  C   C1863     1.0  0.98567  0.81250  0.84527  1.0000
  H   H1504     1.0  0.97475  0.67493  0.54699  1.0000
  P   P63       1.0  0.78476  0.61529  0.72592  1.0000
  C   C1864     1.0  0.79687  0.62164  0.78340  1.0000
  C   C1865     1.0  0.82247  0.62951  0.78972  1.0000
  C   C1866     1.0  0.83194  0.63360  0.83452  1.0000
  C   C1867     1.0  0.81575  0.63067  0.87318  1.0000
  C   C1868     1.0  0.78991  0.62396  0.86696  1.0000
  C   C1869     1.0  0.78041  0.61964  0.82223  1.0000
  C   C1870     1.0  0.83061  0.58685  0.70594  1.0000
  C   C1871     1.0  0.84968  0.57623  0.67623  1.0000
  C   C1872     1.0  0.76086  0.59048  0.72785  1.0000
  C   C1873     1.0  0.72148  0.57161  0.69864  1.0000
  C   C1874     1.0  0.72606  0.54968  0.72656  1.0000
  C   C1875     1.0  0.74807  0.54800  0.75487  1.0000
  C   C1876     1.0  0.76540  0.56831  0.75557  1.0000
  H   H1505     1.0  0.83533  0.63220  0.76022  1.0000
  H   H1506     1.0  0.85197  0.63887  0.83912  1.0000
  C   C1877     1.0  0.99559  0.87594  0.89680  1.0000
  H   H1507     1.0  0.77717  0.62203  0.89673  1.0000
  H   H1508     1.0  0.76022  0.61475  0.81805  1.0000
  H   H1509     1.0  0.83232  0.58332  0.74297  1.0000
  H   H1510     1.0  0.97573  0.79972  0.94312  1.0000
  H   H1511     1.0  0.99473  0.75487  0.94240  1.0000
  H   H1512     1.0  0.75186  0.53082  0.77592  1.0000
  H   H1513     1.0  0.78260  0.56653  0.77712  1.0000
  C   C1878     1.0  0.79855  0.65729  0.51997  1.0000
  C   C1879     1.0  0.92264  0.85898  0.90859  1.0000
  C   C1880     1.0  0.73155  0.72611  0.50922  1.0000
  H   H1514     1.0  0.89943  0.88488  0.67285  1.0000
  H   H1515     1.0  0.90506  0.92563  0.62991  1.0000
  H   H1516     1.0  0.74220  0.73997  0.48898  1.0000
  H   H1517     1.0  0.88001  0.90889  0.83909  1.0000
  H   H1518     1.0  0.91529  0.73347  0.54890  1.0000
  C   C1881     1.0  0.79365  0.77059  0.49310  1.0000
  C   C1882     1.0  0.97750  0.54712  0.75446  1.0000
  C   C1883     1.0  0.82382  0.85842  0.77340  1.0000
  C   C1884     1.0  0.81979  0.84713  0.73011  1.0000
  C   C1885     1.0  0.84084  0.84220  0.70027  1.0000
  C   C1886     1.0  0.86586  0.84885  0.71355  1.0000
  C   C1887     1.0  0.87009  0.86051  0.75691  1.0000
  C   C1888     1.0  0.84879  0.86506  0.78685  1.0000
  P   P64       1.0  0.90221  0.87117  0.77182  1.0000
  C   C1889     1.0  0.92579  0.84712  0.75136  1.0000
  C   C1890     1.0  0.90719  0.90126  0.74065  1.0000
  C   C1891     1.0  0.90408  0.90208  0.69207  1.0000
  H   H1519     1.0  0.92273  0.96447  0.75697  1.0000
  C   C1892     1.0  0.68303  0.91856  0.70242  1.0000
  C   C1893     1.0  0.91733  0.94700  0.73902  1.0000
  C   C1894     1.0  0.91469  0.92379  0.76370  1.0000
  C   C1895     1.0  0.94973  0.85464  0.73301  1.0000
  C   C1896     1.0  0.96764  0.83596  0.71617  1.0000
  C   C1897     1.0  0.96182  0.80970  0.71794  1.0000
  C   C1898     1.0  0.93815  0.80205  0.73642  1.0000
  C   C1899     1.0  0.92024  0.82065  0.75342  1.0000
  C   C1900     1.0  0.90520  0.87447  0.83445  1.0000
  C   C1901     1.0  0.89220  0.89494  0.85797  1.0000
  C   C1902     1.0  0.87952  0.68083  0.89034  1.0000
  C   C1903     1.0  0.73675  0.67912  0.70522  1.0000
  C   C1904     1.0  0.98109  0.90348  0.81643  1.0000
  H   H1520     1.0  0.71269  0.53387  0.72587  1.0000
  H   H1521     1.0  0.91073  0.85121  0.48821  1.0000
  H   H1522     1.0  0.67384  0.79916  0.56022  1.0000
  H   H1523     1.0  0.94895  0.57366  0.65799  1.0000
  H   H1524     1.0  0.70259  0.85847  0.95265  1.0000
  C   C1905     1.0  0.77586  0.68563  0.66030  1.0000
  H   H1525     1.0  0.86281  0.57231  0.60525  1.0000
  C   C1906     1.0  0.69473  0.77472  0.61047  1.0000
  C   C1907     1.0  0.99855  0.61921  0.58525  1.0000
  C   C1908     1.0  0.99724  0.76706  0.97250  1.0000
  H   H1526     1.0  0.69372  0.81242  0.97002  1.0000
  H   H1527     1.0  0.91190  0.88163  0.96885  1.0000
  C   C1909     1.0  0.99237  0.68130  0.53032  1.0000
  H   H1528     1.0  0.98744  0.76449  0.53109  1.0000
  H   H1529     1.0  0.69427  0.67486  0.57977  1.0000
  H   H1530     1.0  0.78956  0.81180  0.48183  1.0000
  C   C1910     1.0  0.80932  0.74825  0.48659  1.0000
  H   H1531     1.0  0.71611  0.66256  0.50554  1.0000
  C   C1911     1.0  0.99423  0.52609  0.68442  1.0000
  C   C1912     1.0  0.67425  0.79134  0.59522  1.0000
  H   H1532     1.0  0.74801  0.51722  0.93977  1.0000
  C   C1913     1.0  0.99427  0.52887  0.73302  1.0000
  H   H1533     1.0  0.97748  0.54918  0.79201  1.0000
  H   H1534     1.0  0.85476  0.82707  0.96681  1.0000
  S   S255      1.0  0.66841  0.76485  0.81819  1.0000
  C   C1914     1.0  0.97523  0.51390  0.97290  1.0000
  C   C1915     1.0  0.80167  0.79448  0.47642  1.0000
  S   S256      1.0  0.99752  0.90827  0.52093  1.0000
  H   H1535     1.0  0.99662  0.64724  0.48771  1.0000
  H   H1536     1.0  0.84332  0.74657  0.95893  1.0000
  Fe  Fe128     1.0  0.96472  0.88959  0.48227  1.0000
  C   C1916     1.0  0.85272  0.69135  0.97309  1.0000
  C   C1917     1.0  0.93692  0.72723  0.48560  1.0000
  C   C1918     1.0  0.78595  0.66107  0.47669  1.0000
  C   C1919     1.0  0.87861  0.68230  0.97439  1.0000
  C   C1920     1.0  0.74965  0.64489  0.97568  1.0000
