data_image0
_chemical_formula_structural       FeS2FeS2FeSFeS3HSCSHFeS2H2CH2CHCH2C5HC3H2C6H4CHCPC3HC2H4CH2CHC2SH2CH2C4H2CH2CH2CH2C3HCHC6H5CH2C2H6C2SHC2FeC3HCH3C7H2CHC6PC18H20PC4HC5HC4HCHC2HPC2HCPC2H2CHC2H7C2H2CHC9HCH3CHSH2SCH3CHCH2CHSCH3FeCHCHC2H2C4SFeS2FeS2FeCFeS3FeS2FeS2FeSFeCS2FeS2CHFeSCHFeS2HC3HC7H4SH3C2SC6H5C7H6CH2C6H3C3HC2PC4HCFeC13H3C2H12CHC3PC3HSH3C10H2CH2CH4C5H5CH3C8PC8H3C7HCH4C2H3C2H3CHC2HCH2CHFeHC6SHCHC2H3SC2FeHCHCH2C2HCHCH2C2SC2H2PH4CH2CH2CH2CH2CH2C3PHC2HCH2SH2C2HCH2PHCHC6FeSCFeS2FeSFeS3FeS2FeS2FeSFeS3FeS2CHSCHC3HC2H4CH2C2HC6H4C2HC3HC7H5CH6CHC3H2C3PC8H3C7HCH5CH2CH8C3H5C4PC10HC4HC3H11FeCH2C2H2CPCHC3H4C4PCSC7HCSH3C2H2CHCPCHCHCHC3H4C2H2CSH3C2HC2PC12H4CHCH4C2HC9H2CH3CHC6H2C6HCH3CHCHCHCSHC6H2CH2C6HCH2C3H2SH7C6HCHCHFeS2FeSHFeSFeS3HSFeS2C2HFeS2CHSH2CFeSHC2H4SHSHCH2CHC7HSC6H4PHC3HCH3CPCFeC2H3CHCH2C7PC3HC3SH3C3H2CH6CHCH2C3H3C3HCHC4HCHC2SCH2CHC2H7FeHC2H3SC4HC2H2C2H2CHC2H3C4HCH2C2FeSHC7PC8HC5HCHCH10C3H3CHC12H3CH2SFeC3H2SC4HPH2PC3HC4H3CH3CH2CFeS2FeCFeS3CSFeSC3HCHCHC4H2CH2C4H3FeC4H4C4H3C3HC2HC4H2C2HCH2CH2C2HPH2CHCH3C4HCHC2HC2H5C7HC3H3CHCHC2H3CPCHCSC4H3C2HCSC8HPC5H3CPHSCH2C5H2CHCH6CH3C2HCH2CH5C2HC2H2C5HCHCHC3HC2FeS2FeS2FeSFeS3HFeS2FeS2FeSFeS3FeS2CHC2H3C2H2C3H3C6H4C6H4C6H4C5H4CHCHC4H2CHC4H3C2H4CHC3HC2HCFeH2C4HC6PC8H2C9H19C6PC10H7CH3C2HC6PC15H11C2H2C2H2C2H3CHPC7H5CHC2HPH3C6HSCHC3HC3HCH2CH4C2H2C3HCPH3SCHCHC2H2CS2CHCHCHC8H3C2H3CHC3HCHCH2PFeS2FeS2FeSFeS3FeS2FeS2FeSFeS3HS2H2C3H3PC9H4C6H4C6H3PH2C2H2C6H2CH4C4H3C2H3CHC3H3C7PC3HC2HC2HCHC4HCH5C2H3C4H2CH3CH2CH3CHCHCHC2HC7PC6HCHC9H7CH8CHCH3C3HCH2FeH2C2HCHC2FeCH2C4H4CH2C2H2C2HC3HC2HC2HSCSC4HC2H3C2HC4H4C3HC2H2CH3C2HCHC2H3C2H2CHCH2C5HC6HCH2CPC3H5CHCH2C3HFeSCHFeCFeS3HSH3FeSH2CH3C3HFeHCH2CHC8SH2C2H2CHC3HFeH2FeC7PC15HC2SCH3CH9CHC3H3CHC4HC2H2CPC2PCHCSH2C4HC2HS2HCH2FeHC2HFeCH4C4HC4H5CH2CH6CH2CHC2H4C3H2C4HCHC2PC2HCSC2H2C3HSHSC2H2C4FeS2H2SH2S2H2C2FeCHC2HCPH2CHC2H2CFeCH2CSC2H4C4HC5HCH3C4H3C3HPCH4CH4C4HC2HC2H5CH2C2HCHCFeHC4HCHCHC10HCH4CHC2HC3H2CH2C4H3CH3CPC3H4FeC2HCHC2HCSC4HC3HC2HCFeC3H2CH4SH3SC3HCH2C3HCH2C7HCHC2H2SCHSFeS2FeS2FeSFeS3FeS2FeS2FeSFeS3FeS2H3CHCH3CHCH2C6H4C6H4C2H3C6H4C4H5CHCHPCH3C2HC2H6C4PH2CH4C5H2CH3C14H5CH2C2HC3PC18H2CH9CH7C6PC14HC3H10C2H4C2HC3H2CHSCH2C2HC2HCH3C2H2CHCHC2HCHC5HPC5HC4HC4H5C2H4CH3CHCH4C7PCHCHC2H2C7H4C3PHC2H2CH3C3HCHC3H2CH3C2HCHC2H2CFeS2FeS2FeCFeS3H2CFeS2FeS2FeSFeS3FeS2CHC6H4C5H2C3H2CHC3H2C6H4C6H5C2H2C4SHCHC3HC4H4CHCHCH2C2H5C3HCHCHC2HC2HSH2CHCPH3CHCH3CHPHC3H4CH7C3H2CHC2HCHCH2C8HC3HCHC4HCHC7HCHC2HCSHC2HC5HPH4CHCPCH4C3FeCH6C8H2C3H2CHPC2H2C3HC5H2CHC2PCHCHC2HCHFeSCH2C3HSC3HPCHCFeHSCSH2C2HSHCHC3H2CHC4H3C2HC2HC3HCH3C2HC2HSHCH5C2HCHC4HCH2C3H2C3H3SH4C2HCPHC3HCHCH2C3H2CHCH2CHC2H3C4HCH2CHC3H2C4HC3HCH2CPH2C2HSHC3H3FeCFeHC3HC2H2CH2SHFeHCH2C3HCHC3H2C2SC3HCH2C2HC2FeS2FeCFeSHCFeS2FeS2FeSFeS3FeS2FeHSHFeCSHSHFeS2FeSCH3SC3HC4HCHC8H4C4HCH3C2HC2SC2H4C3HCH2CHCH2CSH2C4H2C6H2PCHFeH2C5H2C2HCH6CH2CH4C2PHC2HC2HC2HCHCSC2HCSH2C3HC3H5C8PC18H20C3HCSC3HCHPCHC2HSHC2HCHC4H2C3H3CH2C3HC2SH4C2H3C2FeS2FeSCFe2S3FeS2FePFeS3C3H2CFeS2FeS2CHC2SH3C2HCHC6SHCHC2HC6H4C3HC7H5C2FeC5HSHC3H2CHCH2C2H4C3HC2H2PHCHC5HC3PC6PC15HC2H18CH4CH2C2HC6HC2HSHC5HCH2CH4SH2C6PC16HCH21C7HSH2CH8CSH2CPHC3FeHCH2CHC2HC2HFeCH2C2HSC2H3CHCH3CH3S2CHFeCFeS2FeS2FeSFeS2FeS2FeSFeS3FeS2FeS2HCHC3FeC4HCH4CHC2HC6H4C7H2C7H4SC3PH4CH3CH2CH2CH2C2HC6H4CHC2H6CHCHC4H4C2HCHCHC7PC2H2C2HCHC6HC3H3CHCH2SC3H3CH5C4H4C2SC3HC2H3C2H2CHC2H4CHC8PC18H2CH2C2H3C2H11CH4CFeHC2H2C2HCHC3HCHCHC4HC3HC2HFeS2PCHC2FeHFeS2FeS2FeSFeCS2FeS2FeSHFeHSFeSCHC2FeS2HCHCH3SHCHCHCHCH2C2H5CH3CH3CHC6H4CH3C2H2C2HCH2C2H2C4SH2C2HFeC2HC3HPC2S2C3SC11SHCSCH6CH7SHC6SC2H4SC3HCSCH4C6PC2HCHC4HCHC7H4C3H2CHCHFeH2C2H2C10H2C2HC7FeCH6CH5CH5CHC2HCHCHPHC6H2CSC2HSPC2SC6H3C7HC3HSHCH2FeCHSH2CFe2C
_chemical_formula_sum              "Fe160 S320 H1920 C2400 P80"
_cell_length_a       60.6892
_cell_length_b       57.9052
_cell_length_c       62.4615
_cell_angle_alpha    90.862
_cell_angle_beta     91.1229
_cell_angle_gamma    121.475

_space_group_name_H-M_alt    "P 1"
_space_group_IT_number       1

loop_
  _space_group_symop_operation_xyz
  'x, y, z'

loop_
  _atom_site_type_symbol
  _atom_site_label
  _atom_site_symmetry_multiplicity
  _atom_site_fract_x
  _atom_site_fract_y
  _atom_site_fract_z
  _atom_site_occupancy
  Fe  Fe1       1.0  0.33598  0.37054  0.19131  1.0000
  S   S1        1.0  0.35729  0.38338  0.16009  1.0000
  S   S2        1.0  0.30601  0.38249  0.19844  1.0000
  Fe  Fe2       1.0  0.36004  0.33721  0.20349  1.0000
  S   S3        1.0  0.38215  0.34741  0.17332  1.0000
  S   S4        1.0  0.35887  0.31012  0.23069  1.0000
  Fe  Fe3       1.0  0.39245  0.39053  0.17927  1.0000
  S   S5        1.0  0.43420  0.42218  0.16963  1.0000
  Fe  Fe4       1.0  0.34606  0.33985  0.15554  1.0000
  S   S6        1.0  0.33840  0.31812  0.12223  1.0000
  S   S7        1.0  0.37190  0.38078  0.21075  1.0000
  S   S8        1.0  0.32303  0.32663  0.18564  1.0000
  H   H1        1.0  0.30078  0.21926  0.20604  1.0000
  S   S9        1.0  0.35429  0.03483  0.20231  1.0000
  C   C1        1.0  0.48166  0.46855  0.16339  1.0000
  S   S10       1.0  0.01290  0.37473  0.18392  1.0000
  H   H2        1.0  0.23983  0.36014  0.00428  1.0000
  Fe  Fe5       1.0  0.23876  0.23764  0.01418  1.0000
  S   S11       1.0  0.20353  0.19529  0.01064  1.0000
  S   S12       1.0  0.24863  0.25719  0.04857  1.0000
  H   H3        1.0  0.47975  0.44037  0.23262  1.0000
  H   H4        1.0  0.19231  0.01659  0.03602  1.0000
  C   C2        1.0  0.20730  0.01557  0.04491  1.0000
  H   H5        1.0  0.00388  0.30214  0.05931  1.0000
  H   H6        1.0  0.04897  0.30392  0.07903  1.0000
  C   C3        1.0  0.08510  0.40559  0.13968  1.0000
  H   H7        1.0  0.47749  0.28637  0.18580  1.0000
  C   C4        1.0  0.48388  0.49436  0.20202  1.0000
  H   H8        1.0  0.31394  0.37265  0.24325  1.0000
  H   H9        1.0  0.38273  0.30665  0.12280  1.0000
  C   C5        1.0  0.25254  0.03112  0.05067  1.0000
  C   C6        1.0  0.47784  0.08323  0.09993  1.0000
  C   C7        1.0  0.29824  0.42809  0.02651  1.0000
  C   C8        1.0  0.43670  0.35963  0.14700  1.0000
  C   C9        1.0  0.46078  0.45531  0.17724  1.0000
  H   H10       1.0  0.34253  0.37305  0.08524  1.0000
  C   C10       1.0  0.21655  0.43206  0.24015  1.0000
  C   C11       1.0  0.41637  0.34520  0.13194  1.0000
  C   C12       1.0  0.46209  0.46846  0.19664  1.0000
  H   H11       1.0  0.28439  0.44704  0.00520  1.0000
  H   H12       1.0  0.44630  0.45868  0.20750  1.0000
  C   C13       1.0  0.31290  0.30079  0.10217  1.0000
  C   C14       1.0  0.28812  0.29640  0.10459  1.0000
  C   C15       1.0  0.26886  0.28307  0.08811  1.0000
  C   C16       1.0  0.27382  0.27351  0.06900  1.0000
  C   C17       1.0  0.29854  0.27763  0.06667  1.0000
  C   C18       1.0  0.31785  0.29115  0.08309  1.0000
  H   H13       1.0  0.28396  0.30366  0.11907  1.0000
  H   H14       1.0  0.24996  0.28024  0.09011  1.0000
  H   H15       1.0  0.30280  0.27041  0.05220  1.0000
  H   H16       1.0  0.33684  0.29426  0.08094  1.0000
  C   C19       1.0  0.36498  0.05687  0.22558  1.0000
  H   H17       1.0  0.44277  0.04477  0.21497  1.0000
  C   C20       1.0  0.12663  0.30860  0.17520  1.0000
  P   P1        1.0  0.06805  0.32086  0.15718  1.0000
  C   C21       1.0  0.36203  0.07947  0.22578  1.0000
  C   C22       1.0  0.99908  0.27814  0.20199  1.0000
  C   C23       1.0  0.47450  0.32187  0.18535  1.0000
  H   H18       1.0  0.35338  0.08304  0.21191  1.0000
  C   C24       1.0  0.40081  0.27287  0.22926  1.0000
  C   C25       1.0  0.39000  0.28845  0.22339  1.0000
  H   H19       1.0  0.43623  0.99663  0.14146  1.0000
  H   H20       1.0  0.29134  0.31425  0.04098  1.0000
  H   H21       1.0  0.41509  0.27273  0.21927  1.0000
  H   H22       1.0  0.39578  0.29990  0.20899  1.0000
  C   C26       1.0  0.29062  0.31770  0.02413  1.0000
  H   H23       1.0  0.26290  0.38880  0.20698  1.0000
  H   H24       1.0  0.03611  0.34524  0.15643  1.0000
  C   C27       1.0  0.29792  0.37587  0.24245  1.0000
  H   H25       1.0  0.28855  0.01704  0.13787  1.0000
  C   C28       1.0  0.07294  0.36839  0.23021  1.0000
  C   C29       1.0  0.09884  0.37594  0.23468  1.0000
  S   S13       1.0  0.99151  0.33074  0.13078  1.0000
  H   H26       1.0  0.06744  0.37248  0.21480  1.0000
  H   H27       1.0  0.11315  0.38608  0.22267  1.0000
  C   C30       1.0  0.29001  0.38066  0.22268  1.0000
  H   H28       1.0  0.04488  0.38987  0.14557  1.0000
  H   H29       1.0  0.24875  0.33929  0.07988  1.0000
  C   C31       1.0  0.07498  0.35439  0.15134  1.0000
  C   C32       1.0  0.99976  0.39759  0.11365  1.0000
  C   C33       1.0  0.10518  0.30645  0.16439  1.0000
  C   C34       1.0  0.26915  0.38493  0.22212  1.0000
  H   H30       1.0  0.38783  0.28287  0.15344  1.0000
  H   H31       1.0  0.08891  0.42532  0.13518  1.0000
  C   C35       1.0  0.47019  0.31681  0.22975  1.0000
  H   H32       1.0  0.31739  0.36374  0.11802  1.0000
  H   H33       1.0  0.41538  0.06493  0.21333  1.0000
  C   C36       1.0  0.42485  0.06389  0.19914  1.0000
  H   H34       1.0  0.16448  0.00127  0.13047  1.0000
  H   H35       1.0  0.41812  0.34620  0.20652  1.0000
  C   C37       1.0  0.01575  0.28936  0.16629  1.0000
  H   H36       1.0  0.09555  0.29122  0.15173  1.0000
  H   H37       1.0  0.31165  0.01637  0.07385  1.0000
  C   C38       1.0  0.42459  0.37836  0.22809  1.0000
  C   C39       1.0  0.46655  0.41958  0.22723  1.0000
  C   C40       1.0  0.43363  0.02695  0.12382  1.0000
  H   H38       1.0  0.14072  0.36040  0.21036  1.0000
  C   C41       1.0  0.47412  0.40762  0.21173  1.0000
  H   H39       1.0  0.04613  0.26293  0.14888  1.0000
  C   C42       1.0  0.10985  0.34369  0.18634  1.0000
  C   C43       1.0  0.23334  0.32347  0.03723  1.0000
  C   C44       1.0  0.41857  0.03128  0.10894  1.0000
  C   C45       1.0  0.30107  0.47766  0.22826  1.0000
  C   C46       1.0  0.29915  0.30567  0.00962  1.0000
  C   C47       1.0  0.25616  0.37900  0.01069  1.0000
  H   H40       1.0  0.15897  0.27296  0.03878  1.0000
  H   H41       1.0  0.14835  0.24576  0.99953  1.0000
  H   H42       1.0  0.40781  0.08055  0.17895  1.0000
  H   H43       1.0  0.25255  0.01226  0.11499  1.0000
  H   H44       1.0  0.06653  0.33317  0.11151  1.0000
  C   C48       1.0  0.42207  0.31854  0.16653  1.0000
  H   H45       1.0  0.46318  0.04104  0.18259  1.0000
  H   H46       1.0  0.18762  0.25705  0.02655  1.0000
  C   C49       1.0  0.42580  0.00034  0.12914  1.0000
  C   C50       1.0  0.42073  0.07288  0.17970  1.0000
  H   H47       1.0  0.38486  0.01253  0.08761  1.0000
  H   H48       1.0  0.47530  0.01785  0.11835  1.0000
  H   H49       1.0  0.32138  0.36648  0.04959  1.0000
  H   H50       1.0  0.47537  0.32306  0.16805  1.0000
  H   H51       1.0  0.31459  0.44711  0.03262  1.0000
  H   H52       1.0  0.42330  0.05158  0.10540  1.0000
  C   C51       1.0  0.09975  0.37431  0.14500  1.0000
  C   C52       1.0  0.28161  0.35162  0.10084  1.0000
  S   S14       1.0  0.38079  0.00304  0.16166  1.0000
  H   H53       1.0  0.34214  0.25885  0.19507  1.0000
  C   C53       1.0  0.13105  0.34556  0.19731  1.0000
  C   C54       1.0  0.44821  0.05990  0.16205  1.0000
  Fe  Fe6       1.0  0.99832  0.34892  0.21284  1.0000
  C   C55       1.0  0.45202  0.05069  0.18162  1.0000
  C   C56       1.0  0.44006  0.34639  0.16431  1.0000
  C   C57       1.0  0.26927  0.34706  0.08069  1.0000
  H   H54       1.0  0.01196  0.28813  0.14916  1.0000
  C   C58       1.0  0.10482  0.39991  0.13937  1.0000
  H   H55       1.0  0.27069  0.34736  0.11526  1.0000
  H   H56       1.0  0.41349  0.35571  0.11899  1.0000
  H   H57       1.0  0.48284  0.99917  0.20458  1.0000
  C   C59       1.0  0.39894  0.31752  0.13413  1.0000
  C   C60       1.0  0.40176  0.30420  0.15145  1.0000
  C   C61       1.0  0.21709  0.33231  0.04443  1.0000
  C   C62       1.0  0.99836  0.31405  0.09093  1.0000
  C   C63       1.0  0.43185  0.36664  0.21218  1.0000
  C   C64       1.0  0.45657  0.38120  0.20371  1.0000
  C   C65       1.0  0.31103  0.46575  0.21506  1.0000
  H   H58       1.0  0.10354  0.35741  0.19089  1.0000
  H   H59       1.0  0.40540  0.36683  0.23450  1.0000
  C   C66       1.0  0.32309  0.45307  0.22410  1.0000
  H   H60       1.0  0.06422  0.31909  0.20459  1.0000
  C   C67       1.0  0.30082  0.23149  0.19306  1.0000
  C   C68       1.0  0.32420  0.25378  0.18685  1.0000
  C   C69       1.0  0.32436  0.26981  0.17031  1.0000
  C   C70       1.0  0.30113  0.26392  0.16028  1.0000
  C   C71       1.0  0.27757  0.24156  0.16632  1.0000
  C   C72       1.0  0.27756  0.22525  0.18277  1.0000
  P   P2        1.0  0.24780  0.23497  0.15342  1.0000
  C   C73       1.0  0.24716  0.26584  0.15516  1.0000
  C   C74       1.0  0.24519  0.22363  0.12579  1.0000
  C   C75       1.0  0.26679  0.22690  0.11513  1.0000
  C   C76       1.0  0.26433  0.21809  0.09376  1.0000
  C   C77       1.0  0.24043  0.20615  0.08281  1.0000
  C   C78       1.0  0.21883  0.20266  0.09329  1.0000
  C   C79       1.0  0.22112  0.21116  0.11473  1.0000
  C   C80       1.0  0.23557  0.27265  0.13877  1.0000
  C   C81       1.0  0.23554  0.29678  0.14027  1.0000
  C   C82       1.0  0.24697  0.31422  0.15817  1.0000
  C   C83       1.0  0.25818  0.30740  0.17468  1.0000
  C   C84       1.0  0.25822  0.28330  0.17325  1.0000
  C   C85       1.0  0.22061  0.20873  0.16731  1.0000
  C   C86       1.0  0.20856  0.21525  0.18325  1.0000
  C   C87       1.0  0.18775  0.19468  0.19406  1.0000
  C   C88       1.0  0.17888  0.16752  0.18911  1.0000
  C   C89       1.0  0.19087  0.16089  0.17337  1.0000
  C   C90       1.0  0.21171  0.18139  0.16255  1.0000
  H   H61       1.0  0.32984  0.44282  0.21388  1.0000
  H   H62       1.0  0.17783  0.32106  0.05040  1.0000
  H   H63       1.0  0.34241  0.28718  0.16550  1.0000
  H   H64       1.0  0.30145  0.27697  0.14791  1.0000
  H   H65       1.0  0.25973  0.20803  0.18799  1.0000
  H   H66       1.0  0.28566  0.23654  0.12296  1.0000
  H   H67       1.0  0.28117  0.22134  0.08543  1.0000
  H   H68       1.0  0.23881  0.20030  0.06599  1.0000
  H   H69       1.0  0.20045  0.19384  0.08457  1.0000
  H   H70       1.0  0.20418  0.20842  0.12255  1.0000
  H   H71       1.0  0.22695  0.25975  0.12463  1.0000
  H   H72       1.0  0.22689  0.30206  0.12740  1.0000
  H   H73       1.0  0.24732  0.33312  0.15929  1.0000
  H   H74       1.0  0.26719  0.32106  0.18852  1.0000
  H   H75       1.0  0.26708  0.27843  0.18623  1.0000
  H   H76       1.0  0.21518  0.23612  0.18746  1.0000
  H   H77       1.0  0.17854  0.19985  0.20636  1.0000
  H   H78       1.0  0.16276  0.15162  0.19753  1.0000
  H   H79       1.0  0.18408  0.13984  0.16958  1.0000
  H   H80       1.0  0.22097  0.17593  0.15052  1.0000
  P   P3        1.0  0.46613  0.36494  0.18418  1.0000
  C   C91       1.0  0.48889  0.10645  0.08765  1.0000
  C   C92       1.0  0.13944  0.32801  0.19175  1.0000
  C   C93       1.0  0.23315  0.03309  0.04002  1.0000
  C   C94       1.0  0.06036  0.38573  0.14570  1.0000
  H   H81       1.0  0.42810  0.07695  0.14609  1.0000
  C   C95       1.0  0.28335  0.35212  0.06195  1.0000
  C   C96       1.0  0.47457  0.08509  0.12195  1.0000
  C   C97       1.0  0.28048  0.33321  0.01688  1.0000
  C   C98       1.0  0.47120  0.34041  0.19752  1.0000
  C   C99       1.0  0.43225  0.07079  0.16117  1.0000
  H   H82       1.0  0.13322  0.29504  0.17089  1.0000
  C   C100      1.0  0.02416  0.29386  0.21071  1.0000
  C   C101      1.0  0.00352  0.48275  0.18794  1.0000
  C   C102      1.0  0.99519  0.29515  0.07465  1.0000
  C   C103      1.0  0.27313  0.37885  0.02624  1.0000
  H   H83       1.0  0.30858  0.46540  0.19781  1.0000
  C   C104      1.0  0.22245  0.29621  0.03090  1.0000
  H   H84       1.0  0.29054  0.48609  0.22099  1.0000
  C   C105      1.0  0.24614  0.01170  0.06628  1.0000
  C   C106      1.0  0.05537  0.36032  0.15174  1.0000
  H   H85       1.0  0.01790  0.41456  0.11994  1.0000
  P   P4        1.0  0.26780  0.34706  0.03577  1.0000
  C   C107      1.0  0.17969  0.28707  0.03848  1.0000
  C   C108      1.0  0.28124  0.42805  0.01107  1.0000
  H   H86       1.0  0.23802  0.04760  0.02747  1.0000
  C   C109      1.0  0.99933  0.38260  0.09574  1.0000
  P   P5        1.0  0.46114  0.05515  0.13773  1.0000
  C   C110      1.0  0.32217  0.36627  0.08391  1.0000
  C   C111      1.0  0.30800  0.36106  0.10243  1.0000
  H   H87       1.0  0.01722  0.38784  0.08821  1.0000
  H   H88       1.0  0.18071  0.43141  0.23985  1.0000
  C   C112      1.0  0.19035  0.31416  0.04498  1.0000
  H   H89       1.0  0.12398  0.41526  0.13461  1.0000
  C   C113      1.0  0.48368  0.11064  0.13171  1.0000
  C   C114      1.0  0.44039  0.05270  0.20008  1.0000
  H   H90       1.0  0.00755  0.42494  0.23496  1.0000
  H   H91       1.0  0.23448  0.28881  0.02542  1.0000
  H   H92       1.0  0.27250  0.04391  0.04624  1.0000
  H   H93       1.0  0.44909  0.38116  0.14522  1.0000
  H   H94       1.0  0.15581  0.32940  0.20036  1.0000
  H   H95       1.0  0.22507  0.35322  0.04954  1.0000
  H   H96       1.0  0.20813  0.41247  0.23200  1.0000
  C   C115      1.0  0.20105  0.44270  0.24463  1.0000
  C   C116      1.0  0.19577  0.27810  0.03152  1.0000
  H   H97       1.0  0.11508  0.37002  0.14422  1.0000
  H   H98       1.0  0.48083  0.45881  0.14822  1.0000
  C   C117      1.0  0.29424  0.40361  0.03408  1.0000
  H   H99       1.0  0.26142  0.00978  0.07353  1.0000
  C   C118      1.0  0.04116  0.30442  0.17490  1.0000
  C   C119      1.0  0.05840  0.30037  0.13267  1.0000
  C   C120      1.0  0.04753  0.27223  0.13364  1.0000
  C   C121      1.0  0.03751  0.25578  0.11505  1.0000
  C   C122      1.0  0.03814  0.26725  0.09538  1.0000
  C   C123      1.0  0.04903  0.29520  0.09425  1.0000
  C   C124      1.0  0.05906  0.31173  0.11278  1.0000
  C   C125      1.0  0.09643  0.32382  0.17006  1.0000
  C   C126      1.0  0.31002  0.36218  0.06376  1.0000
  H   H100      1.0  0.30635  0.29321  0.01541  1.0000
  C   C127      1.0  0.04513  0.30694  0.19727  1.0000
  H   H101      1.0  0.02874  0.23405  0.11591  1.0000
  H   H102      1.0  0.02972  0.25445  0.08104  1.0000
  H   H103      1.0  0.02732  0.29648  0.22795  1.0000
  C   C128      1.0  0.37168  0.28912  0.23621  1.0000
  H   H104      1.0  0.30770  0.40417  0.04599  1.0000
  S   S15       1.0  0.01675  0.25894  0.00160  1.0000
  H   H105      1.0  0.42337  0.30778  0.18001  1.0000
  H   H106      1.0  0.19421  0.00428  0.10288  1.0000
  S   S16       1.0  0.02109  0.34509  0.24110  1.0000
  C   C129      1.0  0.44174  0.40499  0.23534  1.0000
  H   H107      1.0  0.00976  0.33546  0.08790  1.0000
  H   H108      1.0  0.02331  0.49054  0.19323  1.0000
  H   H109      1.0  0.11355  0.25549  0.00625  1.0000
  C   C130      1.0  0.39672  0.00924  0.09886  1.0000
  H   H110      1.0  0.48232  0.11272  0.14881  1.0000
  C   C131      1.0  0.25621  0.38414  0.24096  1.0000
  H   H111      1.0  0.24010  0.38719  0.24019  1.0000
  H   H112      1.0  0.33049  0.00353  0.10377  1.0000
  C   C132      1.0  0.48728  0.04938  0.14297  1.0000
  H   H113      1.0  0.03613  0.47760  0.23698  1.0000
  S   S17       1.0  0.99892  0.43258  0.18888  1.0000
  C   C133      1.0  0.99487  0.27590  0.17978  1.0000
  H   H114      1.0  0.47177  0.06380  0.09227  1.0000
  H   H115      1.0  0.36809  0.11500  0.24344  1.0000
  H   H116      1.0  0.48055  0.41667  0.16491  1.0000
  Fe  Fe7       1.0  0.35745  0.99863  0.19084  1.0000
  C   C134      1.0  0.47558  0.30099  0.19533  1.0000
  H   H117      1.0  0.46634  0.35143  0.22963  1.0000
  C   C135      1.0  0.46933  0.33784  0.21985  1.0000
  H   H118      1.0  0.47306  0.28155  0.22515  1.0000
  C   C136      1.0  0.47321  0.29833  0.21750  1.0000
  C   C137      1.0  0.26021  0.40351  0.00316  1.0000
  H   H119      1.0  0.25369  0.43664  0.24434  1.0000
  H   H120      1.0  0.37851  0.03530  0.24393  1.0000
  C   C138      1.0  0.37617  0.05258  0.24372  1.0000
  C   C139      1.0  0.37038  0.09769  0.24366  1.0000
  C   C140      1.0  0.10890  0.23712  0.99756  1.0000
  C   C141      1.0  0.27544  0.99795  0.12952  1.0000
  S   S18       1.0  0.05846  0.22703  0.99567  1.0000
  Fe  Fe8       1.0  0.19897  0.41159  0.32645  1.0000
  S   S19       1.0  0.15613  0.38060  0.32338  1.0000
  S   S20       1.0  0.21670  0.44644  0.35136  1.0000
  Fe  Fe9       1.0  0.21326  0.37922  0.29590  1.0000
  S   S21       1.0  0.17155  0.34571  0.29115  1.0000
  S   S22       1.0  0.24936  0.37901  0.28533  1.0000
  Fe  Fe10      1.0  0.16271  0.37896  0.28808  1.0000
  C   C142      1.0  0.03626  0.14146  0.47767  1.0000
  Fe  Fe11      1.0  0.16775  0.34957  0.32685  1.0000
  S   S23       1.0  0.14681  0.31145  0.34692  1.0000
  S   S24       1.0  0.20497  0.41245  0.29108  1.0000
  S   S25       1.0  0.20979  0.38035  0.33179  1.0000
  Fe  Fe12      1.0  0.36977  0.17923  0.32179  1.0000
  S   S26       1.0  0.40248  0.22225  0.31763  1.0000
  S   S27       1.0  0.33464  0.17085  0.34107  1.0000
  Fe  Fe13      1.0  0.39504  0.15572  0.29378  1.0000
  S   S28       1.0  0.42994  0.19721  0.28834  1.0000
  S   S29       1.0  0.39274  0.11572  0.28487  1.0000
  Fe  Fe14      1.0  0.42887  0.20622  0.32335  1.0000
  S   S30       1.0  0.46117  0.22906  0.34903  1.0000
  Fe  Fe15      1.0  0.40119  0.21063  0.28295  1.0000
  C   C143      1.0  0.00790  0.30511  0.32787  1.0000
  S   S31       1.0  0.39604  0.16394  0.32948  1.0000
  S   S32       1.0  0.36644  0.16849  0.28634  1.0000
  Fe  Fe16      1.0  0.12538  0.26667  0.47045  1.0000
  S   S33       1.0  0.10154  0.22257  0.46062  1.0000
  S   S34       1.0  0.14772  0.30311  0.44905  1.0000
  C   C144      1.0  0.48137  0.29940  0.34888  1.0000
  H   H121      1.0  0.31702  0.46296  0.27674  1.0000
  Fe  Fe17      1.0  0.07151  0.22053  0.48275  1.0000
  S   S35       1.0  0.02917  0.19678  0.47029  1.0000
  C   C145      1.0  0.00031  0.18851  0.48368  1.0000
  H   H122      1.0  0.46119  0.24806  0.26128  1.0000
  Fe  Fe18      1.0  0.27521  0.12043  0.46025  1.0000
  S   S36       1.0  0.23186  0.10179  0.45747  1.0000
  S   S37       1.0  0.30407  0.12362  0.43529  1.0000
  H   H123      1.0  0.02700  0.25398  0.37204  1.0000
  C   C146      1.0  0.09144  0.34406  0.36954  1.0000
  C   C147      1.0  0.31262  0.06502  0.38390  1.0000
  C   C148      1.0  0.47306  0.29234  0.36980  1.0000
  H   H124      1.0  0.32777  0.01870  0.31557  1.0000
  C   C149      1.0  0.28525  0.37551  0.26131  1.0000
  C   C150      1.0  0.46061  0.30373  0.38013  1.0000
  C   C151      1.0  0.14791  0.20712  0.43288  1.0000
  C   C152      1.0  0.06377  0.28730  0.38442  1.0000
  C   C153      1.0  0.17959  0.19985  0.48020  1.0000
  C   C154      1.0  0.27329  0.99989  0.34335  1.0000
  C   C155      1.0  0.37424  0.25728  0.26027  1.0000
  H   H125      1.0  0.40928  0.11143  0.33091  1.0000
  H   H126      1.0  0.02673  0.24825  0.46694  1.0000
  H   H127      1.0  0.04794  0.29431  0.45217  1.0000
  H   H128      1.0  0.35866  0.16066  0.44073  1.0000
  S   S38       1.0  0.40854  0.23921  0.25506  1.0000
  H   H129      1.0  0.26898  0.05671  0.34464  1.0000
  H   H130      1.0  0.31570  0.07041  0.26304  1.0000
  H   H131      1.0  0.36796  0.24530  0.27448  1.0000
  C   C156      1.0  0.41646  0.31263  0.28987  1.0000
  C   C157      1.0  0.23748  0.48135  0.26301  1.0000
  S   S39       1.0  0.27370  0.09743  0.48979  1.0000
  C   C158      1.0  0.32641  0.15763  0.36726  1.0000
  C   C159      1.0  0.30587  0.15747  0.37752  1.0000
  C   C160      1.0  0.29888  0.14746  0.39837  1.0000
  C   C161      1.0  0.31223  0.13718  0.40915  1.0000
  C   C162      1.0  0.33264  0.13716  0.39879  1.0000
  C   C163      1.0  0.33970  0.14731  0.37802  1.0000
  H   H132      1.0  0.29533  0.16525  0.36931  1.0000
  H   H133      1.0  0.28305  0.14749  0.40601  1.0000
  H   H134      1.0  0.34298  0.12906  0.40682  1.0000
  H   H135      1.0  0.35531  0.14702  0.37025  1.0000
  H   H136      1.0  0.09336  0.35443  0.28564  1.0000
  C   C164      1.0  0.28799  0.47954  0.29486  1.0000
  C   C165      1.0  0.14766  0.30949  0.37534  1.0000
  C   C166      1.0  0.13283  0.28412  0.38480  1.0000
  C   C167      1.0  0.13297  0.28164  0.40725  1.0000
  C   C168      1.0  0.14764  0.30466  0.42057  1.0000
  C   C169      1.0  0.16249  0.33000  0.41110  1.0000
  C   C170      1.0  0.16260  0.33242  0.38865  1.0000
  H   H137      1.0  0.12119  0.26624  0.37467  1.0000
  H   H138      1.0  0.12146  0.26199  0.41424  1.0000
  H   H139      1.0  0.17400  0.34794  0.42119  1.0000
  H   H140      1.0  0.17420  0.35205  0.38163  1.0000
  H   H141      1.0  0.03551  0.14786  0.46160  1.0000
  H   H142      1.0  0.21896  0.21324  0.47238  1.0000
  C   C171      1.0  0.27316  0.44466  0.32137  1.0000
  H   H143      1.0  0.39632  0.29785  0.29256  1.0000
  H   H144      1.0  0.26150  0.42355  0.32539  1.0000
  C   C172      1.0  0.38171  0.09349  0.26173  1.0000
  C   C173      1.0  0.12822  0.39870  0.37957  1.0000
  C   C174      1.0  0.13624  0.38062  0.37483  1.0000
  C   C175      1.0  0.11795  0.35348  0.36974  1.0000
  C   C176      1.0  0.01408  0.28633  0.43375  1.0000
  C   C177      1.0  0.08783  0.35821  0.27016  1.0000
  H   H145      1.0  0.14254  0.41987  0.38302  1.0000
  H   H146      1.0  0.15672  0.38778  0.37460  1.0000
  H   H147      1.0  0.12451  0.33989  0.36563  1.0000
  C   C178      1.0  0.10648  0.37078  0.25461  1.0000
  C   C179      1.0  0.10185  0.38953  0.37947  1.0000
  C   C180      1.0  0.45665  0.32244  0.36960  1.0000
  H   H148      1.0  0.45488  0.28229  0.27870  1.0000
  C   C181      1.0  0.21844  0.23193  0.41001  1.0000
  C   C182      1.0  0.23858  0.24573  0.39573  1.0000
  P   P6        1.0  0.19600  0.24277  0.41538  1.0000
  C   C183      1.0  0.19691  0.26513  0.39502  1.0000
  C   C184      1.0  0.16442  0.21222  0.41580  1.0000
  C   C185      1.0  0.15687  0.19240  0.39939  1.0000
  C   C186      1.0  0.13308  0.16800  0.39993  1.0000
  H   H149      1.0  0.46137  0.34382  0.34064  1.0000
  C   C187      1.0  0.01988  0.30140  0.37065  1.0000
  Fe  Fe19      1.0  0.23071  0.08072  0.48815  1.0000
  C   C188      1.0  0.21719  0.29240  0.39558  1.0000
  C   C189      1.0  0.21790  0.31023  0.38037  1.0000
  C   C190      1.0  0.19841  0.30101  0.36447  1.0000
  C   C191      1.0  0.17815  0.27398  0.36381  1.0000
  C   C192      1.0  0.17726  0.25609  0.37907  1.0000
  C   C193      1.0  0.20451  0.26152  0.44063  1.0000
  C   C194      1.0  0.22335  0.26246  0.45467  1.0000
  C   C195      1.0  0.22960  0.27698  0.47421  1.0000
  C   C196      1.0  0.21754  0.29116  0.47962  1.0000
  C   C197      1.0  0.19932  0.29092  0.46546  1.0000
  C   C198      1.0  0.19269  0.27606  0.44609  1.0000
  C   C199      1.0  0.15560  0.17792  0.48579  1.0000
  C   C200      1.0  0.25375  0.21524  0.40326  1.0000
  H   H150      1.0  0.24079  0.26285  0.38713  1.0000
  H   H151      1.0  0.16952  0.19573  0.38626  1.0000
  H   H152      1.0  0.12746  0.15274  0.38730  1.0000
  C   C201      1.0  0.37083  0.18940  0.49064  1.0000
  C   C202      1.0  0.46838  0.35049  0.28261  1.0000
  H   H153      1.0  0.20077  0.19872  0.43191  1.0000
  H   H154      1.0  0.23234  0.29996  0.40793  1.0000
  H   H155      1.0  0.23335  0.33133  0.38101  1.0000
  H   H156      1.0  0.10657  0.28039  0.29043  1.0000
  H   H157      1.0  0.26944  0.07330  0.41183  1.0000
  H   H158      1.0  0.16099  0.23550  0.37847  1.0000
  H   H159      1.0  0.23317  0.25196  0.45072  1.0000
  H   H160      1.0  0.14405  0.33760  0.48305  1.0000
  H   H161      1.0  0.28762  0.45823  0.35369  1.0000
  H   H162      1.0  0.19015  0.30214  0.46952  1.0000
  H   H163      1.0  0.17833  0.27595  0.43538  1.0000
  H   H164      1.0  0.38341  0.09425  0.39374  1.0000
  C   C203      1.0  0.39415  0.09403  0.33898  1.0000
  H   H165      1.0  0.07335  0.14543  0.47411  1.0000
  C   C204      1.0  0.20055  0.19620  0.47670  1.0000
  C   C205      1.0  0.34854  0.06396  0.34571  1.0000
  C   C206      1.0  0.36846  0.08697  0.33606  1.0000
  P   P7        1.0  0.31509  0.05331  0.34057  1.0000
  C   C207      1.0  0.01614  0.25353  0.45587  1.0000
  C   C208      1.0  0.30117  0.06027  0.36328  1.0000
  C   C209      1.0  0.35480  0.04848  0.35873  1.0000
  H   H166      1.0  0.26413  0.00777  0.35320  1.0000
  S   S40       1.0  0.13937  0.38005  0.25890  1.0000
  H   H167      1.0  0.31418  0.11206  0.26848  1.0000
  H   H168      1.0  0.33724  0.15572  0.47484  1.0000
  H   H169      1.0  0.46749  0.31416  0.24682  1.0000
  C   C210      1.0  0.30099  0.06938  0.40136  1.0000
  C   C211      1.0  0.08020  0.29959  0.33953  1.0000
  C   C212      1.0  0.47745  0.31816  0.33811  1.0000
  C   C213      1.0  0.30888  0.00587  0.32221  1.0000
  C   C214      1.0  0.31341  0.07107  0.31760  1.0000
  C   C215      1.0  0.31414  0.06220  0.29670  1.0000
  C   C216      1.0  0.31434  0.07691  0.27907  1.0000
  C   C217      1.0  0.31363  0.10045  0.28213  1.0000
  C   C218      1.0  0.31310  0.10954  0.30285  1.0000
  C   C219      1.0  0.31348  0.09524  0.32053  1.0000
  H   H170      1.0  0.14838  0.38263  0.48375  1.0000
  H   H171      1.0  0.09847  0.14406  0.41759  1.0000
  C   C220      1.0  0.40024  0.07847  0.35184  1.0000
  H   H172      1.0  0.18200  0.21961  0.47874  1.0000
  H   H173      1.0  0.36433  0.09927  0.32580  1.0000
  C   C221      1.0  0.30339  0.47729  0.25067  1.0000
  H   H174      1.0  0.45355  0.29758  0.39611  1.0000
  H   H175      1.0  0.40770  0.33482  0.26742  1.0000
  H   H176      1.0  0.24932  0.06554  0.37551  1.0000
  H   H177      1.0  0.34935  0.27326  0.26451  1.0000
  C   C222      1.0  0.99639  0.29923  0.36512  1.0000
  C   C223      1.0  0.04145  0.26128  0.38495  1.0000
  C   C224      1.0  0.36370  0.27318  0.25454  1.0000
  C   C225      1.0  0.06193  0.35059  0.26570  1.0000
  C   C226      1.0  0.27811  0.06022  0.36041  1.0000
  H   H178      1.0  0.31530  0.04444  0.29385  1.0000
  H   H179      1.0  0.44657  0.33092  0.37747  1.0000
  H   H180      1.0  0.45376  0.36874  0.26122  1.0000
  H   H181      1.0  0.31316  0.12816  0.30531  1.0000
  H   H182      1.0  0.31436  0.10354  0.33642  1.0000
  C   C227      1.0  0.27808  0.06929  0.39833  1.0000
  H   H183      1.0  0.33389  0.44173  0.25327  1.0000
  H   H184      1.0  0.22355  0.47801  0.31307  1.0000
  H   H185      1.0  0.17144  0.12895  0.48544  1.0000
  C   C228      1.0  0.03137  0.30726  0.33334  1.0000
  C   C229      1.0  0.12418  0.18263  0.43339  1.0000
  C   C230      1.0  0.38910  0.11873  0.42204  1.0000
  C   C231      1.0  0.38875  0.11410  0.39998  1.0000
  C   C232      1.0  0.39548  0.13518  0.38596  1.0000
  C   C233      1.0  0.40220  0.16080  0.39391  1.0000
  C   C234      1.0  0.40186  0.16544  0.41600  1.0000
  C   C235      1.0  0.39592  0.14438  0.43006  1.0000
  P   P8        1.0  0.41072  0.19864  0.42624  1.0000
  C   C236      1.0  0.39535  0.19540  0.45156  1.0000
  C   C237      1.0  0.44555  0.21994  0.42880  1.0000
  C   C238      1.0  0.46124  0.20887  0.42683  1.0000
  C   C239      1.0  0.47575  0.26258  0.27269  1.0000
  C   C240      1.0  0.23382  0.20152  0.41755  1.0000
  C   C241      1.0  0.42291  0.33358  0.27576  1.0000
  C   C242      1.0  0.45724  0.24814  0.43145  1.0000
  C   C243      1.0  0.40893  0.21301  0.46912  1.0000
  H   H186      1.0  0.33057  0.06568  0.38659  1.0000
  H   H187      1.0  0.39540  0.13178  0.36887  1.0000
  H   H188      1.0  0.29169  0.37191  0.27648  1.0000
  C   C244      1.0  0.08240  0.29599  0.40122  1.0000
  C   C245      1.0  0.39939  0.21326  0.40678  1.0000
  C   C246      1.0  0.37441  0.20901  0.40755  1.0000
  C   C247      1.0  0.36535  0.21881  0.39147  1.0000
  C   C248      1.0  0.38103  0.23281  0.37447  1.0000
  C   C249      1.0  0.40599  0.23743  0.37373  1.0000
  C   C250      1.0  0.41510  0.22761  0.38971  1.0000
  H   H189      1.0  0.38403  0.10244  0.43295  1.0000
  C   C251      1.0  0.27291  0.45228  0.30031  1.0000
  H   H190      1.0  0.27149  0.24783  0.38116  1.0000
  H   H191      1.0  0.40738  0.17678  0.38266  1.0000
  H   H192      1.0  0.39631  0.14762  0.44722  1.0000
  H   H193      1.0  0.11129  0.32545  0.29292  1.0000
  C   C252      1.0  0.30408  0.49125  0.33184  1.0000
  C   C253      1.0  0.26424  0.37949  0.26076  1.0000
  H   H194      1.0  0.43565  0.41436  0.24705  1.0000
  H   H195      1.0  0.44543  0.25706  0.43270  1.0000
  H   H196      1.0  0.42893  0.22894  0.46798  1.0000
  C   C254      1.0  0.38440  0.07073  0.26164  1.0000
  C   C255      1.0  0.26675  0.06492  0.37785  1.0000
  H   H197      1.0  0.36141  0.19735  0.42000  1.0000
  H   H198      1.0  0.34569  0.21447  0.39169  1.0000
  H   H199      1.0  0.37348  0.23924  0.36152  1.0000
  C   C256      1.0  0.05647  0.25316  0.41861  1.0000
  H   H200      1.0  0.43404  0.23028  0.38817  1.0000
  C   C257      1.0  0.47222  0.28212  0.28271  1.0000
  C   C258      1.0  0.09881  0.28551  0.30391  1.0000
  H   H201      1.0  0.19866  0.31493  0.35288  1.0000
  C   C259      1.0  0.46504  0.32967  0.34869  1.0000
  H   H202      1.0  0.20218  0.47721  0.49038  1.0000
  H   H203      1.0  0.09570  0.40366  0.38295  1.0000
  C   C260      1.0  0.17399  0.14880  0.48424  1.0000
  H   H204      1.0  0.31007  0.07373  0.41723  1.0000
  Fe  Fe20      1.0  0.11987  0.21561  0.48971  1.0000
  H   H205      1.0  0.06321  0.35573  0.37430  1.0000
  C   C261      1.0  0.18880  0.00327  0.48898  1.0000
  C   C262      1.0  0.07748  0.27399  0.33791  1.0000
  C   C263      1.0  0.36949  0.17467  0.45392  1.0000
  C   C264      1.0  0.08675  0.26702  0.32015  1.0000
  C   C265      1.0  0.03744  0.30510  0.35477  1.0000
  C   C266      1.0  0.07861  0.27904  0.41829  1.0000
  S   S41       1.0  0.28147  0.15640  0.47967  1.0000
  H   H206      1.0  0.09316  0.28579  0.43112  1.0000
  C   C267      1.0  0.38057  0.05574  0.36177  1.0000
  H   H207      1.0  0.41803  0.24776  0.36034  1.0000
  C   C268      1.0  0.43584  0.31034  0.30018  1.0000
  C   C269      1.0  0.08348  0.36229  0.37452  1.0000
  H   H208      1.0  0.43037  0.29348  0.31060  1.0000
  H   H209      1.0  0.45282  0.18727  0.42444  1.0000
  H   H210      1.0  0.16274  0.26722  0.35176  1.0000
  S   S42       1.0  0.22528  0.16760  0.47342  1.0000
  C   C270      1.0  0.09241  0.31806  0.32313  1.0000
  C   C271      1.0  0.19802  0.17072  0.47871  1.0000
  Fe  Fe21      1.0  0.23802  0.13672  0.47908  1.0000
  H   H211      1.0  0.26113  0.43678  0.28825  1.0000
  C   C272      1.0  0.28825  0.46418  0.33724  1.0000
  H   H212      1.0  0.23928  0.01028  0.39617  1.0000
  C   C273      1.0  0.44887  0.35257  0.27221  1.0000
  H   H213      1.0  0.26733  0.20873  0.40067  1.0000
  H   H214      1.0  0.39307  0.06719  0.27551  1.0000
  C   C274      1.0  0.23356  0.49192  0.32650  1.0000
  C   C275      1.0  0.25609  0.23729  0.39232  1.0000
  H   H215      1.0  0.10008  0.31563  0.40113  1.0000
  C   C276      1.0  0.23342  0.48177  0.34672  1.0000
  H   H216      1.0  0.08527  0.24758  0.31925  1.0000
  C   C277      1.0  0.03785  0.24433  0.40198  1.0000
  H   H217      1.0  0.02446  0.30039  0.38730  1.0000
  H   H218      1.0  0.38529  0.04355  0.37160  1.0000
  C   C278      1.0  0.46198  0.32946  0.29684  1.0000
  C   C279      1.0  0.35729  0.17175  0.47330  1.0000
  S   S43       1.0  0.12853  0.18130  0.49113  1.0000
  C   C280      1.0  0.21616  0.20971  0.42082  1.0000
  C   C281      1.0  0.02801  0.27948  0.44762  1.0000
  H   H219      1.0  0.42019  0.08396  0.35391  1.0000
  H   H220      1.0  0.01596  0.42056  0.27323  1.0000
  P   P9        1.0  0.06821  0.30903  0.36225  1.0000
  H   H221      1.0  0.13464  0.13525  0.49223  1.0000
  H   H222      1.0  0.15336  0.22161  0.44606  1.0000
  H   H223      1.0  0.05378  0.23994  0.43175  1.0000
  H   H224      1.0  0.33969  0.03056  0.36621  1.0000
  C   C282      1.0  0.15303  0.15242  0.48787  1.0000
  H   H225      1.0  0.11171  0.17858  0.44678  1.0000
  H   H226      1.0  0.09504  0.33804  0.32410  1.0000
  C   C283      1.0  0.29763  0.01717  0.33472  1.0000
  H   H227      1.0  0.21672  0.01336  0.46462  1.0000
  H   H228      1.0  0.06879  0.25956  0.35046  1.0000
  C   C284      1.0  0.11675  0.16310  0.41696  1.0000
  H   H229      1.0  0.04772  0.34081  0.27785  1.0000
  H   H230      1.0  0.02075  0.22422  0.40227  1.0000
  C   C285      1.0  0.10156  0.31098  0.30538  1.0000
  H   H231      1.0  0.23203  0.18451  0.42621  1.0000
  H   H232      1.0  0.04464  0.31069  0.32074  1.0000
  C   C286      1.0  0.39666  0.21000  0.48857  1.0000
  H   H233      1.0  0.02315  0.30670  0.42785  1.0000
  H   H234      1.0  0.19921  0.47500  0.26021  1.0000
  C   C287      1.0  0.48420  0.26498  0.43211  1.0000
  C   C288      1.0  0.25339  0.47110  0.25828  1.0000
  C   C289      1.0  0.99909  0.42138  0.26852  1.0000
  P   P10       1.0  0.28694  0.48896  0.26756  1.0000
  H   H235      1.0  0.47557  0.27727  0.37770  1.0000
  C   C290      1.0  0.31572  0.46461  0.25960  1.0000
  C   C291      1.0  0.39323  0.25738  0.24786  1.0000
  H   H236      1.0  0.00899  0.48821  0.25928  1.0000
  C   C292      1.0  0.05759  0.14024  0.48473  1.0000
  H   H237      1.0  0.24620  0.49251  0.37977  1.0000
  H   H238      1.0  0.00340  0.30684  0.31128  1.0000
  S   S44       1.0  0.09429  0.26520  0.49058  1.0000
  H   H239      1.0  0.00053  0.13778  0.48609  1.0000
  H   H240      1.0  0.24377  0.27720  0.48515  1.0000
  C   C293      1.0  0.99437  0.42385  0.24697  1.0000
  C   C294      1.0  0.21148  0.46724  0.25615  1.0000
  H   H241      1.0  0.26306  0.24109  0.49181  1.0000
  C   C295      1.0  0.01638  0.13567  0.49163  1.0000
  H   H242      1.0  0.29477  0.22647  0.49424  1.0000
  H   H243      1.0  0.48830  0.36520  0.27940  1.0000
  P   P11       1.0  0.48682  0.32649  0.31062  1.0000
  H   H244      1.0  0.19332  0.43026  0.49042  1.0000
  C   C296      1.0  0.48818  0.22577  0.42740  1.0000
  H   H245      1.0  0.22230  0.30237  0.49476  1.0000
  C   C297      1.0  0.24248  0.44597  0.24718  1.0000
  C   C298      1.0  0.99047  0.23432  0.45004  1.0000
  C   C299      1.0  0.20071  0.99708  0.47277  1.0000
  C   C300      1.0  0.32544  0.45253  0.24633  1.0000
  C   C301      1.0  0.99039  0.30103  0.34372  1.0000
  C   C302      1.0  0.05425  0.35559  0.24571  1.0000
  Fe  Fe22      1.0  0.20442  0.43020  0.66644  1.0000
  S   S45       1.0  0.16856  0.39134  0.65496  1.0000
  C   C303      1.0  0.34234  0.26890  0.61243  1.0000
  Fe  Fe23      1.0  0.22290  0.39970  0.69452  1.0000
  S   S46       1.0  0.18814  0.35901  0.68500  1.0000
  S   S47       1.0  0.25462  0.40813  0.71974  1.0000
  Fe  Fe24      1.0  0.19432  0.37448  0.65130  1.0000
  S   S48       1.0  0.19745  0.35248  0.62160  1.0000
  Fe  Fe25      1.0  0.16477  0.37896  0.68944  1.0000
  S   S49       1.0  0.12457  0.35567  0.70409  1.0000
  S   S50       1.0  0.23072  0.41437  0.66063  1.0000
  S   S51       1.0  0.19903  0.41867  0.70113  1.0000
  Fe  Fe26      1.0  0.39972  0.13811  0.68529  1.0000
  S   S52       1.0  0.42082  0.18192  0.69698  1.0000
  S   S53       1.0  0.40286  0.10301  0.69813  1.0000
  Fe  Fe27      1.0  0.37665  0.14917  0.64511  1.0000
  S   S54       1.0  0.39598  0.19338  0.65368  1.0000
  S   S55       1.0  0.34859  0.12446  0.61719  1.0000
  Fe  Fe28      1.0  0.43158  0.19188  0.66240  1.0000
  S   S56       1.0  0.47039  0.22830  0.65256  1.0000
  Fe  Fe29      1.0  0.38417  0.18096  0.68760  1.0000
  S   S57       1.0  0.36097  0.19538  0.70632  1.0000
  S   S58       1.0  0.41295  0.14836  0.65130  1.0000
  S   S59       1.0  0.36242  0.13629  0.67839  1.0000
  Fe  Fe30      1.0  0.11274  0.25546  0.51792  1.0000
  S   S60       1.0  0.08804  0.21042  0.51107  1.0000
  S   S61       1.0  0.11195  0.27140  0.55160  1.0000
  C   C304      1.0  0.47308  0.21086  0.59162  1.0000
  H   H246      1.0  0.37265  0.38425  0.72650  1.0000
  S   S62       1.0  0.30595  0.15861  0.53658  1.0000
  C   C305      1.0  0.20162  0.31270  0.71705  1.0000
  H   H247      1.0  0.30006  0.46823  0.70396  1.0000
  C   C306      1.0  0.37595  0.42080  0.73892  1.0000
  C   C307      1.0  0.11892  0.43718  0.56007  1.0000
  C   C308      1.0  0.20599  0.44487  0.50272  1.0000
  H   H248      1.0  0.31678  0.24811  0.56172  1.0000
  C   C309      1.0  0.38728  0.08158  0.71988  1.0000
  C   C310      1.0  0.36022  0.27696  0.68368  1.0000
  H   H249      1.0  0.40714  0.22357  0.50209  1.0000
  H   H250      1.0  0.05021  0.22307  0.54302  1.0000
  H   H251      1.0  0.19849  0.25945  0.58571  1.0000
  H   H252      1.0  0.32077  0.00259  0.73060  1.0000
  C   C311      1.0  0.99999  0.24648  0.72550  1.0000
  H   H253      1.0  0.41873  0.01509  0.66216  1.0000
  H   H254      1.0  0.35225  0.28719  0.62245  1.0000
  C   C312      1.0  0.04111  0.43135  0.73576  1.0000
  C   C313      1.0  0.13968  0.46187  0.55351  1.0000
  H   H255      1.0  0.21869  0.44496  0.61813  1.0000
  C   C314      1.0  0.33700  0.13463  0.59501  1.0000
  C   C315      1.0  0.34565  0.16181  0.59129  1.0000
  C   C316      1.0  0.33594  0.16874  0.57336  1.0000
  C   C317      1.0  0.31751  0.14866  0.55891  1.0000
  C   C318      1.0  0.30889  0.12151  0.56265  1.0000
  C   C319      1.0  0.31859  0.11459  0.58057  1.0000
  H   H256      1.0  0.36001  0.17747  0.60207  1.0000
  H   H257      1.0  0.34295  0.18981  0.57055  1.0000
  H   H258      1.0  0.29476  0.10584  0.55172  1.0000
  H   H259      1.0  0.31180  0.09352  0.58322  1.0000
  C   C320      1.0  0.11015  0.36547  0.72414  1.0000
  C   C321      1.0  0.08411  0.34740  0.72898  1.0000
  H   H260      1.0  0.45429  0.05259  0.68371  1.0000
  C   C322      1.0  0.27064  0.39043  0.72597  1.0000
  C   C323      1.0  0.31087  0.04076  0.71249  1.0000
  C   C324      1.0  0.41810  0.01492  0.67949  1.0000
  H   H261      1.0  0.34563  0.43330  0.71754  1.0000
  C   C325      1.0  0.26255  0.22898  0.50504  1.0000
  C   C326      1.0  0.17338  0.32998  0.60228  1.0000
  C   C327      1.0  0.18108  0.32276  0.58343  1.0000
  C   C328      1.0  0.16267  0.30472  0.56781  1.0000
  C   C329      1.0  0.13623  0.29341  0.57097  1.0000
  C   C330      1.0  0.12859  0.30056  0.58984  1.0000
  C   C331      1.0  0.14699  0.31876  0.60535  1.0000
  H   H262      1.0  0.20144  0.33126  0.58090  1.0000
  H   H263      1.0  0.16892  0.29967  0.55333  1.0000
  H   H264      1.0  0.10824  0.29201  0.59247  1.0000
  H   H265      1.0  0.14074  0.32385  0.61982  1.0000
  H   H266      1.0  0.36773  0.30151  0.71236  1.0000
  C   C332      1.0  0.27781  0.04034  0.73383  1.0000
  H   H267      1.0  0.27986  0.34041  0.70764  1.0000
  H   H268      1.0  0.31112  0.43349  0.69666  1.0000
  H   H269      1.0  0.41555  0.01375  0.74145  1.0000
  H   H270      1.0  0.01882  0.21888  0.50886  1.0000
  H   H271      1.0  0.30957  0.21491  0.67975  1.0000
  H   H272      1.0  0.45981  0.13039  0.68406  1.0000
  C   C333      1.0  0.09186  0.48292  0.73180  1.0000
  H   H273      1.0  0.28677  0.16786  0.69156  1.0000
  C   C334      1.0  0.29278  0.01494  0.70376  1.0000
  C   C335      1.0  0.15153  0.10326  0.53599  1.0000
  C   C336      1.0  0.16352  0.46448  0.54990  1.0000
  H   H274      1.0  0.17965  0.48363  0.54486  1.0000
  H   H275      1.0  0.03141  0.28773  0.72247  1.0000
  C   C337      1.0  0.12200  0.41512  0.56312  1.0000
  C   C338      1.0  0.14600  0.41773  0.55981  1.0000
  C   C339      1.0  0.16667  0.44250  0.55302  1.0000
  P   P12       1.0  0.15031  0.38942  0.56331  1.0000
  C   C340      1.0  0.14868  0.37357  0.53765  1.0000
  C   C341      1.0  0.18124  0.40185  0.57695  1.0000
  C   C342      1.0  0.19694  0.39156  0.57161  1.0000
  C   C343      1.0  0.22031  0.40061  0.58288  1.0000
  C   C344      1.0  0.22813  0.41983  0.59960  1.0000
  C   C345      1.0  0.21282  0.43040  0.60488  1.0000
  C   C346      1.0  0.18949  0.42151  0.59360  1.0000
  C   C347      1.0  0.14951  0.38605  0.51831  1.0000
  H   H276      1.0  0.35607  0.00940  0.67940  1.0000
  H   H277      1.0  0.07597  0.13291  0.51127  1.0000
  H   H278      1.0  0.43494  0.28250  0.61410  1.0000
  C   C348      1.0  0.14585  0.34795  0.53698  1.0000
  C   C349      1.0  0.12505  0.36467  0.57983  1.0000
  C   C350      1.0  0.12801  0.36658  0.60227  1.0000
  C   C351      1.0  0.10830  0.34756  0.61493  1.0000
  C   C352      1.0  0.08552  0.32641  0.60531  1.0000
  C   C353      1.0  0.08232  0.32439  0.58300  1.0000
  C   C354      1.0  0.10191  0.34350  0.57031  1.0000
  H   H279      1.0  0.44235  0.20886  0.54496  1.0000
  C   C355      1.0  0.32203  0.26649  0.66257  1.0000
  H   H280      1.0  0.10567  0.39617  0.56816  1.0000
  H   H281      1.0  0.18523  0.44480  0.55021  1.0000
  H   H282      1.0  0.19096  0.37593  0.55932  1.0000
  H   H283      1.0  0.23171  0.39164  0.57941  1.0000
  H   H284      1.0  0.24562  0.42583  0.60894  1.0000
  C   C356      1.0  0.29817  0.36439  0.73650  1.0000
  H   H285      1.0  0.17759  0.42947  0.59835  1.0000
  H   H286      1.0  0.15119  0.40557  0.51825  1.0000
  C   C357      1.0  0.47347  0.49450  0.67590  1.0000
  H   H287      1.0  0.20366  0.31466  0.68267  1.0000
  H   H288      1.0  0.19143  0.32340  0.71776  1.0000
  H   H289      1.0  0.14468  0.33786  0.55169  1.0000
  H   H290      1.0  0.14553  0.38245  0.61017  1.0000
  H   H291      1.0  0.11095  0.34899  0.63224  1.0000
  H   H292      1.0  0.07048  0.31143  0.61515  1.0000
  H   H293      1.0  0.06479  0.30777  0.57552  1.0000
  H   H294      1.0  0.09899  0.34152  0.55306  1.0000
  C   C358      1.0  0.37537  0.04554  0.66136  1.0000
  C   C359      1.0  0.37353  0.06600  0.65147  1.0000
  C   C360      1.0  0.35033  0.06559  0.65160  1.0000
  H   H295      1.0  0.39369  0.04656  0.66192  1.0000
  H   H296      1.0  0.39032  0.08270  0.64433  1.0000
  H   H297      1.0  0.34916  0.08185  0.64432  1.0000
  H   H298      1.0  0.44095  0.08765  0.70314  1.0000
  H   H299      1.0  0.03914  0.37247  0.72439  1.0000
  C   C361      1.0  0.27921  0.20420  0.52291  1.0000
  C   C362      1.0  0.25993  0.19560  0.53798  1.0000
  C   C363      1.0  0.24169  0.20359  0.53665  1.0000
  C   C364      1.0  0.24313  0.22034  0.52003  1.0000
  P   P13       1.0  0.21581  0.19066  0.55537  1.0000
  C   C365      1.0  0.19075  0.15649  0.54751  1.0000
  C   C366      1.0  0.22989  0.19123  0.58130  1.0000
  C   C367      1.0  0.21926  0.16796  0.59368  1.0000
  C   C368      1.0  0.23122  0.16835  0.61319  1.0000
  C   C369      1.0  0.25378  0.19195  0.62051  1.0000
  C   C370      1.0  0.26439  0.21520  0.60833  1.0000
  C   C371      1.0  0.25269  0.21478  0.58869  1.0000
  C   C372      1.0  0.19564  0.14080  0.53329  1.0000
  C   C373      1.0  0.17614  0.11421  0.52773  1.0000
  C   C374      1.0  0.22200  0.29429  0.69556  1.0000
  H   H300      1.0  0.30026  0.28345  0.67481  1.0000
  C   C375      1.0  0.16597  0.14528  0.55584  1.0000
  C   C376      1.0  0.20125  0.21115  0.55581  1.0000
  C   C377      1.0  0.20661  0.23002  0.57257  1.0000
  C   C378      1.0  0.45814  0.21360  0.55614  1.0000
  H   H301      1.0  0.42997  0.25440  0.67804  1.0000
  C   C379      1.0  0.17147  0.22252  0.53954  1.0000
  C   C380      1.0  0.18352  0.20751  0.53936  1.0000
  C   C381      1.0  0.00712  0.37836  0.71965  1.0000
  H   H302      1.0  0.28508  0.48079  0.62123  1.0000
  H   H303      1.0  0.29267  0.19723  0.52360  1.0000
  H   H304      1.0  0.25879  0.18197  0.55022  1.0000
  H   H305      1.0  0.22895  0.22616  0.51818  1.0000
  H   H306      1.0  0.20205  0.14931  0.58820  1.0000
  H   H307      1.0  0.22314  0.15020  0.62251  1.0000
  H   H308      1.0  0.26317  0.19210  0.63551  1.0000
  H   H309      1.0  0.28196  0.23342  0.61389  1.0000
  H   H310      1.0  0.26153  0.23275  0.57914  1.0000
  H   H311      1.0  0.21428  0.14901  0.52616  1.0000
  H   H312      1.0  0.36121  0.18696  0.50566  1.0000
  Fe  Fe31      1.0  0.27740  0.13256  0.50906  1.0000
  C   C382      1.0  0.32224  0.44934  0.70870  1.0000
  H   H313      1.0  0.16171  0.15706  0.56674  1.0000
  H   H314      1.0  0.21979  0.23306  0.58568  1.0000
  C   C383      1.0  0.28196  0.35663  0.71799  1.0000
  C   C384      1.0  0.37046  0.22580  0.72133  1.0000
  H   H315      1.0  0.15768  0.21938  0.52681  1.0000
  H   H316      1.0  0.17885  0.19284  0.52643  1.0000
  C   C385      1.0  0.22135  0.29030  0.73413  1.0000
  P   P14       1.0  0.30321  0.99816  0.68559  1.0000
  C   C386      1.0  0.99854  0.39643  0.72193  1.0000
  H   H317      1.0  0.02277  0.13215  0.57134  1.0000
  C   C387      1.0  0.44838  0.48925  0.67805  1.0000
  C   C388      1.0  0.03958  0.49018  0.72843  1.0000
  C   C389      1.0  0.35781  0.25427  0.74055  1.0000
  H   H318      1.0  0.24209  0.44966  0.54666  1.0000
  H   H319      1.0  0.99381  0.35768  0.71402  1.0000
  H   H320      1.0  0.32966  0.30605  0.70649  1.0000
  H   H321      1.0  0.06894  0.41871  0.73871  1.0000
  C   C390      1.0  0.02120  0.20547  0.56693  1.0000
  C   C391      1.0  0.03358  0.20464  0.54859  1.0000
  C   C392      1.0  0.02447  0.18011  0.53728  1.0000
  C   C393      1.0  0.39630  0.24467  0.72700  1.0000
  P   P15       1.0  0.99320  0.12387  0.53133  1.0000
  C   C394      1.0  0.31707  0.28171  0.67717  1.0000
  S   S63       1.0  0.14569  0.26013  0.49852  1.0000
  C   C395      1.0  0.28045  0.22076  0.50639  1.0000
  C   C396      1.0  0.41764  0.46198  0.73551  1.0000
  C   C397      1.0  0.37730  0.04098  0.73944  1.0000
  C   C398      1.0  0.42115  0.25819  0.66434  1.0000
  C   C399      1.0  0.00321  0.15607  0.54450  1.0000
  C   C400      1.0  0.35396  0.02455  0.67132  1.0000
  C   C401      1.0  0.01534  0.42274  0.73021  1.0000
  H   H322      1.0  0.14200  0.31522  0.51717  1.0000
  C   C402      1.0  0.12385  0.39025  0.73557  1.0000
  S   S64       1.0  0.31415  0.34658  0.74244  1.0000
  H   H323      1.0  0.12727  0.11038  0.55625  1.0000
  H   H324      1.0  0.21889  0.47513  0.58143  1.0000
  H   H325      1.0  0.37436  0.10621  0.73435  1.0000
  C   C403      1.0  0.37505  0.08798  0.73559  1.0000
  C   C404      1.0  0.48370  0.22810  0.54947  1.0000
  H   H326      1.0  0.33127  0.21652  0.72365  1.0000
  H   H327      1.0  0.03401  0.18011  0.52285  1.0000
  C   C405      1.0  0.23996  0.48316  0.53382  1.0000
  H   H328      1.0  0.31195  0.46609  0.60328  1.0000
  C   C406      1.0  0.03913  0.12724  0.51975  1.0000
  P   P16       1.0  0.46333  0.06364  0.73020  1.0000
  C   C407      1.0  0.20830  0.30436  0.73580  1.0000
  H   H329      1.0  0.23912  0.27540  0.71303  1.0000
  C   C408      1.0  0.48859  0.03511  0.72481  1.0000
  H   H330      1.0  0.46892  0.20421  0.60798  1.0000
  C   C409      1.0  0.14642  0.11881  0.55001  1.0000
  H   H331      1.0  0.30866  0.25624  0.64914  1.0000
  C   C410      1.0  0.14431  0.33510  0.51741  1.0000
  C   C411      1.0  0.45284  0.20510  0.57723  1.0000
  C   C412      1.0  0.46171  0.10120  0.70374  1.0000
  H   H332      1.0  0.47569  0.02499  0.71110  1.0000
  H   H333      1.0  0.43306  0.19394  0.58247  1.0000
  H   H334      1.0  0.26210  0.48662  0.65286  1.0000
  H   H335      1.0  0.10041  0.43513  0.56284  1.0000
  C   C413      1.0  0.28698  0.39834  0.74443  1.0000
  C   C414      1.0  0.28713  0.48232  0.60403  1.0000
  H   H336      1.0  0.07340  0.32822  0.72026  1.0000
  H   H337      1.0  0.02819  0.22457  0.57552  1.0000
  C   C415      1.0  0.99103  0.15705  0.56309  1.0000
  S   S65       1.0  0.20729  0.46899  0.65470  1.0000
  H   H338      1.0  0.31135  0.04523  0.66213  1.0000
  H   H339      1.0  0.01991  0.10096  0.59911  1.0000
  H   H340      1.0  0.28997  0.00139  0.64018  1.0000
  C   C416      1.0  0.31807  0.22248  0.58565  1.0000
  C   C417      1.0  0.32254  0.24707  0.57805  1.0000
  H   H341      1.0  0.37677  0.27516  0.68698  1.0000
  C   C418      1.0  0.33765  0.24418  0.62033  1.0000
  C   C419      1.0  0.32558  0.22099  0.60665  1.0000
  P   P17       1.0  0.34924  0.24322  0.64712  1.0000
  C   C420      1.0  0.38320  0.25434  0.64670  1.0000
  C   C421      1.0  0.39506  0.25014  0.66447  1.0000
  C   C422      1.0  0.39187  0.44900  0.74189  1.0000
  C   C423      1.0  0.43547  0.26973  0.64615  1.0000
  C   C424      1.0  0.42384  0.27384  0.62827  1.0000
  C   C425      1.0  0.39784  0.26629  0.62853  1.0000
  C   C426      1.0  0.33201  0.20879  0.65618  1.0000
  C   C427      1.0  0.33723  0.18980  0.64729  1.0000
  C   C428      1.0  0.32382  0.16299  0.65380  1.0000
  C   C429      1.0  0.30551  0.15504  0.66965  1.0000
  C   C430      1.0  0.30037  0.17385  0.67881  1.0000
  C   C431      1.0  0.31350  0.20064  0.67209  1.0000
  H   H342      1.0  0.30893  0.20449  0.57518  1.0000
  H   H343      1.0  0.33095  0.05106  0.70810  1.0000
  H   H344      1.0  0.32195  0.20164  0.61186  1.0000
  H   H345      1.0  0.38399  0.24009  0.67833  1.0000
  C   C432      1.0  0.30527  0.47642  0.57177  1.0000
  H   H346      1.0  0.41127  0.24113  0.72196  1.0000
  C   C433      1.0  0.09413  0.47245  0.71209  1.0000
  H   H347      1.0  0.38925  0.26939  0.61440  1.0000
  H   H348      1.0  0.35167  0.19570  0.63525  1.0000
  H   H349      1.0  0.32801  0.14849  0.64682  1.0000
  H   H350      1.0  0.29580  0.13446  0.67516  1.0000
  C   C434      1.0  0.25969  0.01459  0.72534  1.0000
  C   C435      1.0  0.07190  0.35381  0.74505  1.0000
  H   H351      1.0  0.03930  0.47990  0.71370  1.0000
  C   C436      1.0  0.47239  0.12545  0.69281  1.0000
  C   C437      1.0  0.43729  0.03640  0.71422  1.0000
  C   C438      1.0  0.43817  0.03623  0.69176  1.0000
  C   C439      1.0  0.19448  0.24503  0.57271  1.0000
  C   C440      1.0  0.20849  0.30771  0.69703  1.0000
  C   C441      1.0  0.03260  0.38664  0.72550  1.0000
  C   C442      1.0  0.38801  0.05779  0.72178  1.0000
  C   C443      1.0  0.32947  0.48873  0.72896  1.0000
  C   C444      1.0  0.33361  0.29447  0.69502  1.0000
  H   H352      1.0  0.04101  0.12247  0.53608  1.0000
  H   H353      1.0  0.35624  0.41017  0.74427  1.0000
  C   C445      1.0  0.26823  0.36946  0.71278  1.0000
  H   H354      1.0  0.25593  0.36326  0.69847  1.0000
  H   H355      1.0  0.39705  0.05238  0.70959  1.0000
  H   H356      1.0  0.14387  0.40440  0.73211  1.0000
  C   C446      1.0  0.41657  0.01440  0.72418  1.0000
  H   H357      1.0  0.18944  0.48390  0.60183  1.0000
  C   C447      1.0  0.23403  0.45622  0.53425  1.0000
  C   C448      1.0  0.38530  0.40599  0.72897  1.0000
  C   C449      1.0  0.17690  0.24125  0.55622  1.0000
  C   C450      1.0  0.04949  0.41295  0.73362  1.0000
  C   C451      1.0  0.27470  0.49272  0.59206  1.0000
  C   C452      1.0  0.35512  0.29203  0.69828  1.0000
  H   H358      1.0  0.33840  0.28943  0.58545  1.0000
  H   H359      1.0  0.44722  0.45696  0.72169  1.0000
  C   C453      1.0  0.05902  0.13312  0.50575  1.0000
  C   C454      1.0  0.27720  0.49469  0.56979  1.0000
  C   C455      1.0  0.34381  0.26415  0.66557  1.0000
  C   C456      1.0  0.34183  0.44924  0.72079  1.0000
  C   C457      1.0  0.33465  0.27027  0.59144  1.0000
  C   C458      1.0  0.00801  0.11083  0.56966  1.0000
  H   H360      1.0  0.07870  0.45313  0.70561  1.0000
  C   C459      1.0  0.34907  0.48872  0.74111  1.0000
  H   H361      1.0  0.17998  0.10224  0.51662  1.0000
  H   H362      1.0  0.16727  0.25264  0.55645  1.0000
  H   H363      1.0  0.41837  0.40724  0.71573  1.0000
  C   C460      1.0  0.33052  0.02394  0.67145  1.0000
  H   H364      1.0  0.11855  0.47850  0.68550  1.0000
  C   C461      1.0  0.00653  0.09319  0.58541  1.0000
  H   H365      1.0  0.48720  0.23423  0.53303  1.0000
  C   C462      1.0  0.32894  0.04476  0.66165  1.0000
  H   H366      1.0  0.45541  0.27487  0.64583  1.0000
  C   C463      1.0  0.35130  0.23088  0.72805  1.0000
  S   S66       1.0  0.23440  0.11482  0.50953  1.0000
  H   H367      1.0  0.22769  0.29090  0.68006  1.0000
  C   C464      1.0  0.31594  0.46892  0.71286  1.0000
  C   C465      1.0  0.30337  0.05340  0.72738  1.0000
  C   C466      1.0  0.22839  0.28554  0.71411  1.0000
  C   C467      1.0  0.42718  0.44696  0.72614  1.0000
  C   C468      1.0  0.35534  0.46887  0.73722  1.0000
  C   C469      1.0  0.99069  0.10098  0.55186  1.0000
  H   H368      1.0  0.43055  0.48354  0.73804  1.0000
  H   H369      1.0  0.15465  0.35926  0.74393  1.0000
  C   C470      1.0  0.41098  0.41898  0.72280  1.0000
  H   H370      1.0  0.31730  0.47033  0.56394  1.0000
  H   H371      1.0  0.13730  0.47897  0.55123  1.0000
  C   C471      1.0  0.30231  0.47407  0.59391  1.0000
  C   C472      1.0  0.01126  0.27460  0.72620  1.0000
  C   C473      1.0  0.01759  0.12843  0.51277  1.0000
  C   C474      1.0  0.22110  0.49486  0.58096  1.0000
  C   C475      1.0  0.29290  0.48686  0.55976  1.0000
  C   C476      1.0  0.47759  0.09481  0.71565  1.0000
  H   H372      1.0  0.44132  0.09706  0.74240  1.0000
  C   C477      1.0  0.14789  0.37311  0.49868  1.0000
  H   H373      1.0  0.13642  0.08278  0.53134  1.0000
  H   H374      1.0  0.29554  0.48882  0.54264  1.0000
  C   C478      1.0  0.14538  0.34769  0.49823  1.0000
  C   C479      1.0  0.48725  0.05500  0.73685  1.0000
  C   C480      1.0  0.99984  0.18171  0.57412  1.0000
  H   H375      1.0  0.31755  0.07330  0.73403  1.0000
  H   H376      1.0  0.47694  0.48202  0.66505  1.0000
  S   S67       1.0  0.19891  0.03739  0.49702  1.0000
  H   H377      1.0  0.00787  0.43586  0.73281  1.0000
  H   H378      1.0  0.23990  0.00443  0.73044  1.0000
  H   H379      1.0  0.43239  0.47264  0.66897  1.0000
  H   H380      1.0  0.00517  0.30758  0.73242  1.0000
  H   H381      1.0  0.48571  0.18792  0.64780  1.0000
  H   H382      1.0  0.21285  0.41652  0.51894  1.0000
  H   H383      1.0  0.01147  0.23787  0.72115  1.0000
  C   C481      1.0  0.21720  0.43722  0.51866  1.0000
  C   C482      1.0  0.11668  0.48692  0.70049  1.0000
  C   C483      1.0  0.99651  0.28578  0.73176  1.0000
  C   C484      1.0  0.00060  0.20262  0.50214  1.0000
  C   C485      1.0  0.26712  0.00189  0.71038  1.0000
  C   C486      1.0  0.40276  0.26791  0.73967  1.0000
  H   H384      1.0  0.37813  0.02289  0.74081  1.0000
  C   C487      1.0  0.22777  0.49036  0.51827  1.0000
  H   H385      1.0  0.42280  0.28212  0.74422  1.0000
  C   C488      1.0  0.21105  0.47134  0.50266  1.0000
  H   H386      1.0  0.99015  0.18239  0.58828  1.0000
  Fe  Fe32      1.0  0.37229  0.32147  0.77870  1.0000
  S   S68       1.0  0.38149  0.33719  0.81313  1.0000
  S   S69       1.0  0.25767  0.00357  0.98259  1.0000
  Fe  Fe33      1.0  0.33877  0.34637  0.77088  1.0000
  S   S70       1.0  0.34553  0.36347  0.80472  1.0000
  H   H387      1.0  0.04592  0.43991  0.82300  1.0000
  Fe  Fe34      1.0  0.38771  0.37646  0.80022  1.0000
  S   S71       1.0  0.42133  0.41909  0.81177  1.0000
  Fe  Fe35      1.0  0.33912  0.32321  0.81549  1.0000
  S   S72       1.0  0.31136  0.29377  0.84097  1.0000
  S   S73       1.0  0.38084  0.36142  0.76597  1.0000
  S   S74       1.0  0.32990  0.30533  0.78157  1.0000
  H   H388      1.0  0.46012  0.36091  0.82769  1.0000
  S   S75       1.0  0.35132  0.02684  0.77768  1.0000
  Fe  Fe36      1.0  0.03010  0.36788  0.78944  1.0000
  S   S76       1.0  0.07160  0.38753  0.77749  1.0000
  S   S77       1.0  0.02324  0.37620  0.82349  1.0000
  C   C489      1.0  0.09488  0.46015  0.77759  1.0000
  C   C490      1.0  0.10065  0.45428  0.79783  1.0000
  H   H389      1.0  0.45389  0.03747  0.77168  1.0000
  Fe  Fe37      1.0  0.24573  0.24136  0.96437  1.0000
  S   S78       1.0  0.21080  0.19935  0.95869  1.0000
  S   S79       1.0  0.27220  0.27161  0.93863  1.0000
  C   C491      1.0  0.07776  0.19557  0.97892  1.0000
  H   H390      1.0  0.27032  0.34730  0.98854  1.0000
  S   S80       1.0  0.38079  0.99959  0.81973  1.0000
  H   H391      1.0  0.22648  0.28336  0.74831  1.0000
  H   H392      1.0  0.46153  0.46960  0.83131  1.0000
  C   C492      1.0  0.19698  0.34044  0.76022  1.0000
  Fe  Fe38      1.0  0.99082  0.33237  0.82361  1.0000
  S   S81       1.0  0.23489  0.15173  0.98823  1.0000
  H   H393      1.0  0.37666  0.42343  0.82190  1.0000
  C   C493      1.0  0.21672  0.38928  0.76307  1.0000
  C   C494      1.0  0.01306  0.23054  0.91774  1.0000
  H   H394      1.0  0.12255  0.41577  0.76053  1.0000
  H   H395      1.0  0.35515  0.21979  0.88318  1.0000
  H   H396      1.0  0.34080  0.21477  0.77400  1.0000
  H   H397      1.0  0.11822  0.45407  0.80053  1.0000
  S   S82       1.0  0.99938  0.32366  0.79018  1.0000
  H   H398      1.0  0.30381  0.29926  0.97640  1.0000
  S   S83       1.0  0.39313  0.30205  0.76331  1.0000
  H   H399      1.0  0.23672  0.36890  0.77054  1.0000
  C   C495      1.0  0.36976  0.20436  0.84622  1.0000
  H   H400      1.0  0.31288  0.39158  0.76405  1.0000
  H   H401      1.0  0.01244  0.24685  0.92587  1.0000
  C   C496      1.0  0.30064  0.38543  0.74971  1.0000
  H   H402      1.0  0.11828  0.26643  0.80145  1.0000
  C   C497      1.0  0.31727  0.22780  0.78905  1.0000
  C   C498      1.0  0.01368  0.18784  0.89681  1.0000
  C   C499      1.0  0.36471  0.45139  0.77892  1.0000
  C   C500      1.0  0.45370  0.44317  0.80382  1.0000
  C   C501      1.0  0.46425  0.43984  0.78510  1.0000
  C   C502      1.0  0.26244  0.32102  0.81041  1.0000
  C   C503      1.0  0.46928  0.46667  0.81677  1.0000
  H   H403      1.0  0.45272  0.42204  0.77487  1.0000
  S   S84       1.0  0.99182  0.42189  0.82094  1.0000
  C   C504      1.0  0.30040  0.28817  0.86815  1.0000
  C   C505      1.0  0.28306  0.26148  0.87463  1.0000
  C   C506      1.0  0.27412  0.25597  0.89588  1.0000
  C   C507      1.0  0.28240  0.27709  0.91122  1.0000
  C   C508      1.0  0.29973  0.30375  0.90472  1.0000
  C   C509      1.0  0.30855  0.30929  0.88345  1.0000
  H   H404      1.0  0.27650  0.24487  0.86312  1.0000
  H   H405      1.0  0.26080  0.23535  0.90037  1.0000
  H   H406      1.0  0.30639  0.32036  0.91626  1.0000
  H   H407      1.0  0.32183  0.32992  0.87895  1.0000
  P   P18       1.0  0.06308  0.46479  0.74722  1.0000
  H   H408      1.0  0.27729  0.32258  0.82139  1.0000
  C   C510      1.0  0.12337  0.20787  0.98266  1.0000
  C   C511      1.0  0.31398  0.23976  0.80733  1.0000
  C   C512      1.0  0.09762  0.19005  0.97520  1.0000
  H   H409      1.0  0.25533  0.33908  0.76047  1.0000
  C   C513      1.0  0.05686  0.31331  0.95963  1.0000
  H   H410      1.0  0.28542  0.32588  0.96310  1.0000
  H   H411      1.0  0.34945  0.19647  0.84273  1.0000
  H   H412      1.0  0.48344  0.02828  0.83128  1.0000
  C   C514      1.0  0.35236  0.24380  0.82413  1.0000
  P   P19       1.0  0.37596  0.25556  0.84608  1.0000
  C   C515      1.0  0.34257  0.42571  0.81724  1.0000
  Fe  Fe39      1.0  0.19059  0.21115  0.98314  1.0000
  C   C516      1.0  0.34062  0.44707  0.78479  1.0000
  C   C517      1.0  0.05373  0.45136  0.79010  1.0000
  H   H413      1.0  0.26443  0.12573  0.99380  1.0000
  H   H414      1.0  0.44235  0.23156  0.85842  1.0000
  H   H415      1.0  0.23361  0.40922  0.76629  1.0000
  C   C518      1.0  0.40952  0.29638  0.81898  1.0000
  H   H416      1.0  0.08732  0.44208  0.82976  1.0000
  C   C519      1.0  0.20021  0.09529  0.98247  1.0000
  H   H417      1.0  0.41323  0.30198  0.87354  1.0000
  H   H418      1.0  0.03500  0.44905  0.78720  1.0000
  C   C520      1.0  0.23654  0.30692  0.81614  1.0000
  C   C521      1.0  0.11465  0.23930  0.92809  1.0000
  C   C522      1.0  0.13611  0.25566  0.91587  1.0000
  C   C523      1.0  0.13617  0.27506  0.90277  1.0000
  C   C524      1.0  0.11489  0.27835  0.90206  1.0000
  C   C525      1.0  0.09333  0.26218  0.91450  1.0000
  C   C526      1.0  0.09330  0.24240  0.92733  1.0000
  P   P20       1.0  0.06603  0.26683  0.91475  1.0000
  C   C527      1.0  0.06639  0.28316  0.93984  1.0000
  C   C528      1.0  0.06662  0.28838  0.89372  1.0000
  C   C529      1.0  0.04633  0.27866  0.87824  1.0000
  H   H419      1.0  0.06348  0.33741  0.85343  1.0000
  C   C530      1.0  0.06462  0.32375  0.86446  1.0000
  C   C531      1.0  0.08495  0.33359  0.87967  1.0000
  C   C532      1.0  0.08586  0.31606  0.89436  1.0000
  S   S85       1.0  0.22492  0.25371  0.98748  1.0000
  H   H420      1.0  0.35475  0.07614  0.76526  1.0000
  H   H421      1.0  0.37192  0.22921  0.80446  1.0000
  H   H422      1.0  0.31080  0.43047  0.80809  1.0000
  C   C533      1.0  0.23839  0.08238  0.98933  1.0000
  C   C534      1.0  0.03661  0.23415  0.91124  1.0000
  C   C535      1.0  0.03671  0.21275  0.90041  1.0000
  H   H423      1.0  0.30417  0.22231  0.77529  1.0000
  H   H424      1.0  0.19738  0.29290  0.80642  1.0000
  C   C536      1.0  0.11167  0.39664  0.75170  1.0000
  H   H425      1.0  0.10823  0.46434  0.76489  1.0000
  H   H426      1.0  0.11469  0.22438  0.93839  1.0000
  H   H427      1.0  0.15270  0.25329  0.91667  1.0000
  H   H428      1.0  0.15284  0.28769  0.89328  1.0000
  H   H429      1.0  0.11541  0.29346  0.89180  1.0000
  H   H430      1.0  0.07690  0.22957  0.93708  1.0000
  C   C537      1.0  0.38361  0.27279  0.74670  1.0000
  H   H431      1.0  0.36488  0.16470  0.84595  1.0000
  C   C538      1.0  0.12015  0.23813  0.77990  1.0000
  H   H432      1.0  0.09964  0.35497  0.88042  1.0000
  H   H433      1.0  0.10111  0.32420  0.90664  1.0000
  C   C539      1.0  0.15364  0.28553  0.78415  1.0000
  C   C540      1.0  0.07159  0.45934  0.77371  1.0000
  C   C541      1.0  0.21729  0.30427  0.80174  1.0000
  H   H434      1.0  0.42739  0.26359  0.85522  1.0000
  H   H435      1.0  0.04577  0.30138  0.92672  1.0000
  H   H436      1.0  0.05449  0.21522  0.89463  1.0000
  C   C542      1.0  0.19373  0.38675  0.75546  1.0000
  C   C543      1.0  0.33792  0.22359  0.78832  1.0000
  C   C544      1.0  0.42806  0.08612  0.77417  1.0000
  H   H437      1.0  0.17412  0.05198  0.97811  1.0000
  C   C545      1.0  0.28731  0.32414  0.98022  1.0000
  H   H438      1.0  0.04782  0.32523  0.96015  1.0000
  C   C546      1.0  0.37741  0.44240  0.79233  1.0000
  C   C547      1.0  0.38726  0.23240  0.84873  1.0000
  C   C548      1.0  0.05975  0.44593  0.81039  1.0000
  C   C549      1.0  0.05562  0.29954  0.94063  1.0000
  H   H439      1.0  0.32852  0.25705  0.83865  1.0000
  C   C550      1.0  0.19393  0.06798  0.98151  1.0000
  H   H440      1.0  0.44932  0.34769  0.86542  1.0000
  C   C551      1.0  0.44026  0.08494  0.75578  1.0000
  C   C552      1.0  0.43528  0.05302  0.79066  1.0000
  S   S86       1.0  0.26192  0.22847  0.99158  1.0000
  C   C553      1.0  0.32956  0.43412  0.80381  1.0000
  H   H441      1.0  0.25335  0.07779  0.99198  1.0000
  H   H442      1.0  0.39580  0.44501  0.78804  1.0000
  C   C554      1.0  0.12961  0.26361  0.78966  1.0000
  H   H443      1.0  0.28916  0.34354  0.78578  1.0000
  C   C555      1.0  0.07787  0.28038  0.95861  1.0000
  C   C556      1.0  0.16835  0.28213  0.76875  1.0000
  H   H444      1.0  0.43316  0.04041  0.80405  1.0000
  H   H445      1.0  0.24706  0.40344  0.99113  1.0000
  H   H446      1.0  0.27046  0.05604  0.91957  1.0000
  H   H447      1.0  0.33503  0.22288  0.91619  1.0000
  H   H448      1.0  0.03070  0.25771  0.87762  1.0000
  H   H449      1.0  0.23142  0.29773  0.83166  1.0000
  H   H450      1.0  0.39868  0.28263  0.80566  1.0000
  Fe  Fe40      1.0  0.99411  0.38526  0.80886  1.0000
  H   H451      1.0  0.06884  0.32068  0.99295  1.0000
  C   C557      1.0  0.04972  0.48634  0.74753  1.0000
  C   C558      1.0  0.04533  0.29633  0.86377  1.0000
  H   H452      1.0  0.30721  0.18051  0.97958  1.0000
  H   H453      1.0  0.19267  0.40465  0.75310  1.0000
  H   H454      1.0  0.08571  0.26743  0.95902  1.0000
  S   S87       1.0  0.99194  0.27829  0.94942  1.0000
  C   C559      1.0  0.43828  0.33327  0.85248  1.0000
  C   C560      1.0  0.22568  0.11655  0.98690  1.0000
  C   C561      1.0  0.42540  0.07003  0.79154  1.0000
  C   C562      1.0  0.08310  0.21913  0.99027  1.0000
  H   H455      1.0  0.08706  0.29098  0.99212  1.0000
  C   C563      1.0  0.41348  0.24209  0.85325  1.0000
  C   C564      1.0  0.30127  0.20984  0.96401  1.0000
  H   H456      1.0  0.18523  0.09986  0.97990  1.0000
  H   H457      1.0  0.41522  0.07035  0.80551  1.0000
  C   C565      1.0  0.44983  0.06750  0.75460  1.0000
  C   C566      1.0  0.41764  0.30740  0.85699  1.0000
  H   H458      1.0  0.29648  0.00338  0.80093  1.0000
  H   H459      1.0  0.09293  0.17164  0.96653  1.0000
  C   C567      1.0  0.99979  0.31042  0.91419  1.0000
  H   H460      1.0  0.33008  0.45327  0.77467  1.0000
  C   C568      1.0  0.40270  0.28895  0.84024  1.0000
  C   C569      1.0  0.21287  0.06112  0.98496  1.0000
  H   H461      1.0  0.00926  0.32713  0.92575  1.0000
  H   H462      1.0  0.23274  0.09580  0.94380  1.0000
  H   H463      1.0  0.29037  0.23394  0.94591  1.0000
  C   C570      1.0  0.29822  0.18434  0.96607  1.0000
  C   C571      1.0  0.26913  0.33281  0.79039  1.0000
  C   C572      1.0  0.44728  0.05160  0.77225  1.0000
  C   C573      1.0  0.43026  0.32217  0.81454  1.0000
  H   H464      1.0  0.33402  0.41560  0.83195  1.0000
  C   C574      1.0  0.08566  0.37848  0.75661  1.0000
  H   H465      1.0  0.01394  0.17127  0.88882  1.0000
  H   H466      1.0  0.24162  0.05894  0.94561  1.0000
  C   C575      1.0  0.07892  0.29405  0.97761  1.0000
  C   C576      1.0  0.35550  0.23171  0.80570  1.0000
  Fe  Fe41      1.0  0.01681  0.22042  0.99462  1.0000
  S   S88       1.0  0.14768  0.19952  0.97718  1.0000
  H   H467      1.0  0.05821  0.18140  0.97312  1.0000
  C   C577      1.0  0.24466  0.10971  0.99030  1.0000
  C   C578      1.0  0.18211  0.12717  0.94127  1.0000
  C   C579      1.0  0.16363  0.10197  0.93220  1.0000
  C   C580      1.0  0.17106  0.08882  0.91774  1.0000
  C   C581      1.0  0.19701  0.10086  0.91241  1.0000
  C   C582      1.0  0.21574  0.12611  0.92163  1.0000
  C   C583      1.0  0.20806  0.13923  0.93599  1.0000
  P   P21       1.0  0.24931  0.14098  0.91512  1.0000
  C   C584      1.0  0.25640  0.11432  0.91631  1.0000
  C   C585      1.0  0.25550  0.15635  0.88919  1.0000
  C   C586      1.0  0.23506  0.15171  0.87522  1.0000
  C   C587      1.0  0.24016  0.16550  0.85601  1.0000
  C   C588      1.0  0.26563  0.18410  0.85063  1.0000
  C   C589      1.0  0.28606  0.18876  0.86438  1.0000
  C   C590      1.0  0.28105  0.17494  0.88357  1.0000
  C   C591      1.0  0.24530  0.09483  0.93218  1.0000
  H   H468      1.0  0.41988  0.09887  0.77465  1.0000
  C   C592      1.0  0.44447  0.34071  0.83125  1.0000
  C   C593      1.0  0.27777  0.09162  0.90278  1.0000
  C   C594      1.0  0.27270  0.11257  0.90158  1.0000
  C   C595      1.0  0.26980  0.16778  0.93434  1.0000
  C   C596      1.0  0.27297  0.19350  0.93240  1.0000
  H   H469      1.0  0.00598  0.33645  0.88739  1.0000
  C   C597      1.0  0.25034  0.07392  0.93329  1.0000
  H   H470      1.0  0.43485  0.32795  0.79802  1.0000
  C   C598      1.0  0.28256  0.16336  0.95130  1.0000
  H   H471      1.0  0.17647  0.13715  0.95283  1.0000
  H   H472      1.0  0.14362  0.09253  0.93663  1.0000
  H   H473      1.0  0.15677  0.06912  0.91093  1.0000
  H   H474      1.0  0.20255  0.09028  0.90139  1.0000
  H   H475      1.0  0.22209  0.15837  0.94367  1.0000
  H   H476      1.0  0.21517  0.13796  0.87928  1.0000
  H   H477      1.0  0.22431  0.16215  0.84546  1.0000
  H   H478      1.0  0.26953  0.19517  0.83595  1.0000
  H   H479      1.0  0.30573  0.20351  0.86032  1.0000
  H   H480      1.0  0.29706  0.17919  0.89429  1.0000
  C   C599      1.0  0.29759  0.30897  0.98767  1.0000
  C   C600      1.0  0.33134  0.24757  0.82484  1.0000
  C   C601      1.0  0.28865  0.21441  0.94716  1.0000
  H   H481      1.0  0.29036  0.09027  0.89143  1.0000
  H   H482      1.0  0.28145  0.12721  0.88917  1.0000
  H   H483      1.0  0.26287  0.19728  0.91976  1.0000
  C   C602      1.0  0.36404  0.07095  0.75313  1.0000
  H   H484      1.0  0.27992  0.14361  0.95363  1.0000
  C   C603      1.0  0.99795  0.31582  0.89233  1.0000
  C   C604      1.0  0.37841  0.18630  0.84807  1.0000
  C   C605      1.0  0.06860  0.31067  0.97809  1.0000
  C   C606      1.0  0.36140  0.25741  0.87057  1.0000
  C   C607      1.0  0.35841  0.27954  0.87462  1.0000
  C   C608      1.0  0.34752  0.28136  0.89360  1.0000
  C   C609      1.0  0.33888  0.26084  0.90844  1.0000
  C   C610      1.0  0.34166  0.23869  0.90455  1.0000
  C   C611      1.0  0.35304  0.23703  0.88576  1.0000
  C   C612      1.0  0.22389  0.31579  0.78146  1.0000
  C   C613      1.0  0.36657  0.43006  0.81156  1.0000
  C   C614      1.0  0.26658  0.07230  0.91862  1.0000
  H   H485      1.0  0.36427  0.29535  0.86304  1.0000
  H   H486      1.0  0.34549  0.29859  0.89668  1.0000
  H   H487      1.0  0.32997  0.26220  0.92290  1.0000
  C   C615      1.0  0.08314  0.44728  0.81425  1.0000
  H   H488      1.0  0.16074  0.30517  0.79188  1.0000
  H   H489      1.0  0.41127  0.18210  0.85380  1.0000
  S   S89       1.0  0.00335  0.37996  0.77531  1.0000
  Fe  Fe42      1.0  0.22604  0.18650  0.98676  1.0000
  C   C616      1.0  0.21843  0.36626  0.76538  1.0000
  C   C617      1.0  0.40455  0.19610  0.85248  1.0000
  C   C618      1.0  0.12879  0.23160  0.99382  1.0000
  H   H490      1.0  0.29839  0.24373  0.80781  1.0000
  H   H491      1.0  0.28909  0.41463  0.75469  1.0000
  S   S90       1.0  0.20339  0.02586  0.98350  1.0000
  C   C619      1.0  0.24996  0.33027  0.77605  1.0000
  C   C620      1.0  0.27874  0.33621  0.99473  1.0000
  C   C621      1.0  0.36540  0.04756  0.75529  1.0000
  C   C622      1.0  0.42206  0.22396  0.85509  1.0000
  H   H492      1.0  0.31275  0.22582  0.97584  1.0000
  P   P22       1.0  0.37926  0.46792  0.75435  1.0000
  H   H493      1.0  0.02914  0.28892  0.85239  1.0000
  H   H494      1.0  0.10150  0.22118  0.78414  1.0000
  P   P23       1.0  0.19931  0.31060  0.76174  1.0000
  C   C623      1.0  0.98945  0.28374  0.92128  1.0000
  C   C624      1.0  0.99032  0.18432  0.90354  1.0000
  C   C625      1.0  0.99000  0.20574  0.91377  1.0000
  H   H495      1.0  0.05198  0.33956  0.74870  1.0000
  C   C626      1.0  0.13475  0.23455  0.76464  1.0000
  C   C627      1.0  0.17391  0.33809  0.75258  1.0000
  C   C628      1.0  0.15878  0.25645  0.75907  1.0000
  C   C629      1.0  0.48838  0.01791  0.84296  1.0000
  H   H496      1.0  0.99089  0.46683  0.84006  1.0000
  H   H497      1.0  0.16976  0.25325  0.74721  1.0000
  H   H498      1.0  0.12740  0.21480  0.75706  1.0000
  C   C630      1.0  0.17232  0.36116  0.75026  1.0000
  H   H499      1.0  0.15731  0.31854  0.74781  1.0000
  H   H500      1.0  0.34287  0.25781  0.74568  1.0000
  H   H501      1.0  0.29395  0.99691  0.76163  1.0000
  C   C631      1.0  0.46877  0.99655  0.85408  1.0000
  H   H502      1.0  0.41270  0.49571  0.79299  1.0000
  H   H503      1.0  0.27212  0.05017  0.74547  1.0000
  C   C632      1.0  0.07089  0.70261  0.06654  1.0000
  Fe  Fe43      1.0  0.33553  0.93722  0.19233  1.0000
  S   S91       1.0  0.35785  0.93833  0.16351  1.0000
  S   S92       1.0  0.31082  0.89400  0.20449  1.0000
  Fe  Fe44      1.0  0.39186  0.97587  0.17863  1.0000
  C   C633      1.0  0.26230  0.95156  0.12084  1.0000
  Fe  Fe45      1.0  0.34491  0.96496  0.14854  1.0000
  S   S93       1.0  0.32412  0.95084  0.11507  1.0000
  S   S94       1.0  0.37014  0.97355  0.20846  1.0000
  S   S95       1.0  0.32116  0.96188  0.17671  1.0000
  C   C634      1.0  0.08576  0.61867  0.21174  1.0000
  S   S96       1.0  0.04759  0.64974  0.19857  1.0000
  Fe  Fe46      1.0  0.24788  0.97312  0.00883  1.0000
  S   S97       1.0  0.20772  0.96598  0.01259  1.0000
  C   C635      1.0  0.04877  0.77632  0.05113  1.0000
  C   C636      1.0  0.17774  0.94300  0.12299  1.0000
  C   C637      1.0  0.19751  0.83805  0.22239  1.0000
  H   H504      1.0  0.21688  0.88936  0.12143  1.0000
  C   C638      1.0  0.99597  0.68702  0.14964  1.0000
  H   H505      1.0  0.21437  0.84008  0.12827  1.0000
  C   C639      1.0  0.09130  0.68249  0.22385  1.0000
  H   H506      1.0  0.12611  0.70864  0.24311  1.0000
  C   C640      1.0  0.45792  0.97829  0.17700  1.0000
  C   C641      1.0  0.04292  0.57899  0.20578  1.0000
  C   C642      1.0  0.39976  0.87756  0.23046  1.0000
  C   C643      1.0  0.45558  0.96406  0.15789  1.0000
  H   H507      1.0  0.38116  0.56645  0.23289  1.0000
  H   H508      1.0  0.43812  0.95577  0.14801  1.0000
  C   C644      1.0  0.31142  0.96157  0.09376  1.0000
  H   H509      1.0  0.04590  0.78775  0.03892  1.0000
  H   H510      1.0  0.28950  0.92149  0.07920  1.0000
  C   C645      1.0  0.28961  0.97627  0.05935  1.0000
  C   C646      1.0  0.28347  0.94946  0.06117  1.0000
  C   C647      1.0  0.29438  0.94226  0.07813  1.0000
  C   C648      1.0  0.19788  0.87870  0.12821  1.0000
  H   H511      1.0  0.24444  0.83698  0.10401  1.0000
  H   H512      1.0  0.27052  0.93431  0.04935  1.0000
  H   H513      1.0  0.18061  0.98179  0.06331  1.0000
  Fe  Fe47      1.0  0.00503  0.61790  0.19053  1.0000
  C   C649      1.0  0.06406  0.66720  0.22298  1.0000
  C   C650      1.0  0.20085  0.81603  0.22037  1.0000
  C   C651      1.0  0.21681  0.82967  0.18467  1.0000
  C   C652      1.0  0.03444  0.74805  0.04988  1.0000
  H   H514      1.0  0.12950  0.84119  0.15181  1.0000
  H   H515      1.0  0.00733  0.71289  0.09995  1.0000
  H   H516      1.0  0.06625  0.61184  0.15932  1.0000
  H   H517      1.0  0.16701  0.84913  0.17403  1.0000
  C   C653      1.0  0.18476  0.98643  0.11251  1.0000
  C   C654      1.0  0.42607  0.87935  0.16740  1.0000
  C   C655      1.0  0.28829  0.87819  0.22521  1.0000
  C   C656      1.0  0.08669  0.62417  0.18993  1.0000
  H   H518      1.0  0.28067  0.94738  0.21821  1.0000
  H   H519      1.0  0.25874  0.90133  0.20185  1.0000
  H   H520      1.0  0.27962  0.90372  0.16496  1.0000
  C   C657      1.0  0.14014  0.78063  0.13764  1.0000
  C   C658      1.0  0.17650  0.87391  0.11564  1.0000
  C   C659      1.0  0.47444  0.89967  0.14955  1.0000
  H   H521      1.0  0.21199  0.90528  0.03475  1.0000
  C   C660      1.0  0.06579  0.60714  0.17608  1.0000
  C   C661      1.0  0.27148  0.88929  0.15162  1.0000
  H   H522      1.0  0.20135  0.87307  0.20755  1.0000
  C   C662      1.0  0.06034  0.65608  0.06480  1.0000
  C   C663      1.0  0.23871  0.97081  0.10500  1.0000
  C   C664      1.0  0.47687  0.94380  0.22728  1.0000
  C   C665      1.0  0.13870  0.76591  0.11916  1.0000
  H   H523      1.0  0.22965  0.92967  0.09927  1.0000
  H   H524      1.0  0.07669  0.68378  0.03898  1.0000
  C   C666      1.0  0.16807  0.98491  0.12831  1.0000
  C   C667      1.0  0.04394  0.58451  0.18400  1.0000
  H   H525      1.0  0.29499  0.97835  0.14150  1.0000
  C   C668      1.0  0.25495  0.91618  0.19527  1.0000
  H   H526      1.0  0.00842  0.52254  0.18669  1.0000
  H   H527      1.0  0.10173  0.68318  0.20980  1.0000
  C   C669      1.0  0.31750  0.98836  0.09200  1.0000
  H   H528      1.0  0.02761  0.57145  0.17331  1.0000
  H   H529      1.0  0.02577  0.56150  0.21172  1.0000
  C   C670      1.0  0.19476  0.86966  0.14933  1.0000
  C   C671      1.0  0.14861  0.85161  0.14522  1.0000
  H   H530      1.0  0.13528  0.85665  0.11437  1.0000
  P   P24       1.0  0.22262  0.87578  0.16529  1.0000
  H   H531      1.0  0.15593  0.76695  0.11345  1.0000
  H   H532      1.0  0.14327  0.96137  0.15364  1.0000
  C   C672      1.0  0.09418  0.76302  0.13399  1.0000
  H   H533      1.0  0.41090  0.86996  0.13486  1.0000
  C   C673      1.0  0.23429  0.92944  0.16875  1.0000
  H   H534      1.0  0.04362  0.63303  0.09301  1.0000
  H   H535      1.0  0.30900  0.90019  0.14064  1.0000
  H   H536      1.0  0.07710  0.76218  0.13990  1.0000
  C   C674      1.0  0.27861  0.86858  0.12067  1.0000
  C   C675      1.0  0.26740  0.94225  0.20460  1.0000
  C   C676      1.0  0.99510  0.50105  0.18427  1.0000
  C   C677      1.0  0.20367  0.85585  0.20554  1.0000
  H   H537      1.0  0.04475  0.67042  0.11296  1.0000
  C   C678      1.0  0.25193  0.85160  0.11729  1.0000
  H   H538      1.0  0.17906  0.88068  0.09927  1.0000
  C   C679      1.0  0.24466  0.87297  0.14794  1.0000
  C   C680      1.0  0.28832  0.88715  0.13795  1.0000
  H   H539      1.0  0.22489  0.82639  0.17051  1.0000
  C   C681      1.0  0.23831  0.90955  0.17725  1.0000
  C   C682      1.0  0.03618  0.71231  0.12070  1.0000
  H   H540      1.0  0.40712  0.87113  0.17402  1.0000
  H   H541      1.0  0.29186  0.86738  0.10998  1.0000
  H   H542      1.0  0.48454  0.50427  0.21703  1.0000
  H   H543      1.0  0.22179  0.92512  0.15479  1.0000
  H   H544      1.0  0.42767  0.83734  0.19004  1.0000
  C   C683      1.0  0.16995  0.85616  0.15778  1.0000
  C   C684      1.0  0.20010  0.90879  0.04545  1.0000
  C   C685      1.0  0.21340  0.85183  0.18653  1.0000
  C   C686      1.0  0.15186  0.86037  0.12414  1.0000
  C   C687      1.0  0.23499  0.85357  0.13099  1.0000
  C   C688      1.0  0.24692  0.95557  0.17805  1.0000
  C   C689      1.0  0.01158  0.70773  0.11543  1.0000
  H   H545      1.0  0.47402  0.95011  0.13642  1.0000
  C   C690      1.0  0.24220  0.94883  0.10758  1.0000
  C   C691      1.0  0.11497  0.74954  0.10817  1.0000
  C   C692      1.0  0.44833  0.89079  0.18087  1.0000
  H   H546      1.0  0.27389  0.98244  0.20279  1.0000
  H   H547      1.0  0.24418  0.97100  0.17117  1.0000
  H   H548      1.0  0.18167  0.92686  0.12129  1.0000
  C   C693      1.0  0.26357  0.96202  0.19589  1.0000
  H   H549      1.0  0.05931  0.63930  0.05592  1.0000
  C   C694      1.0  0.21154  0.93144  0.05940  1.0000
  H   H550      1.0  0.11423  0.73818  0.09397  1.0000
  C   C695      1.0  0.07013  0.68113  0.05527  1.0000
  C   C696      1.0  0.43215  0.83712  0.20686  1.0000
  H   H551      1.0  0.21377  0.79520  0.20032  1.0000
  H   H552      1.0  0.19674  0.80272  0.23373  1.0000
  H   H553      1.0  0.16439  0.87422  0.03332  1.0000
  C   C697      1.0  0.37811  0.87953  0.23418  1.0000
  P   P25       1.0  0.06173  0.72665  0.10161  1.0000
  C   C698      1.0  0.05622  0.74637  0.08240  1.0000
  H   H554      1.0  0.07834  0.72180  0.05880  1.0000
  C   C699      1.0  0.05217  0.67394  0.09698  1.0000
  S   S98       1.0  0.27674  0.98690  0.03810  1.0000
  C   C700      1.0  0.21050  0.81185  0.20154  1.0000
  C   C701      1.0  0.05152  0.65254  0.08569  1.0000
  C   C702      1.0  0.11787  0.77915  0.14505  1.0000
  C   C703      1.0  0.03812  0.73317  0.06542  1.0000
  H   H555      1.0  0.40196  0.86280  0.23908  1.0000
  H   H556      1.0  0.15846  0.79302  0.14632  1.0000
  H   H557      1.0  0.15210  0.92430  0.14910  1.0000
  C   C704      1.0  0.28077  0.89239  0.23846  1.0000
  C   C705      1.0  0.06147  0.69905  0.08737  1.0000
  H   H558      1.0  0.11889  0.79025  0.15954  1.0000
  C   C706      1.0  0.42809  0.87844  0.14517  1.0000
  S   S99       1.0  0.99592  0.59667  0.15783  1.0000
  C   C707      1.0  0.09249  0.74781  0.11561  1.0000
  C   C708      1.0  0.17328  0.89136  0.04459  1.0000
  C   C709      1.0  0.42941  0.81346  0.21513  1.0000
  C   C710      1.0  0.48076  0.98834  0.18970  1.0000
  C   C711      1.0  0.41416  0.91293  0.20452  1.0000
  C   C712      1.0  0.25522  0.99524  0.11639  1.0000
  C   C713      1.0  0.41798  0.89427  0.21554  1.0000
  C   C714      1.0  0.06673  0.78971  0.06807  1.0000
  H   H559      1.0  0.02691  0.71127  0.06410  1.0000
  P   P26       1.0  0.44546  0.89124  0.20961  1.0000
  C   C715      1.0  0.15784  0.89674  0.05751  1.0000
  C   C716      1.0  0.04040  0.70409  0.14067  1.0000
  C   C717      1.0  0.07046  0.77484  0.08369  1.0000
  C   C718      1.0  0.44087  0.86020  0.22021  1.0000
  C   C719      1.0  0.16925  0.91938  0.07153  1.0000
  H   H560      1.0  0.07777  0.81164  0.06896  1.0000
  H   H561      1.0  0.26555  0.93491  0.12230  1.0000
  H   H562      1.0  0.08453  0.78561  0.09657  1.0000
  C   C720      1.0  0.43531  0.81267  0.23675  1.0000
  P   P27       1.0  0.21134  0.96695  0.08971  1.0000
  H   H563      1.0  0.07515  0.51452  0.22052  1.0000
  S   S100      1.0  0.43308  0.98387  0.18603  1.0000
  C   C721      1.0  0.06379  0.59602  0.21982  1.0000
  H   H564      1.0  0.13699  0.88381  0.05604  1.0000
  H   H565      1.0  0.31981  0.53055  0.23633  1.0000
  C   C722      1.0  0.10521  0.69702  0.24272  1.0000
  C   C723      1.0  0.45228  0.88861  0.13625  1.0000
  C   C724      1.0  0.19627  0.93665  0.07283  1.0000
  C   C725      1.0  0.16109  0.94156  0.13880  1.0000
  C   C726      1.0  0.39259  0.91492  0.20836  1.0000
  H   H566      1.0  0.23227  0.94525  0.05939  1.0000
  H   H567      1.0  0.38983  0.92942  0.19981  1.0000
  C   C727      1.0  0.18934  0.96522  0.10950  1.0000
  H   H568      1.0  0.15689  0.92374  0.08078  1.0000
  C   C728      1.0  0.38965  0.98281  0.10371  1.0000
  H   H569      1.0  0.46085  0.94669  0.22443  1.0000
  H   H570      1.0  0.39802  0.95787  0.12330  1.0000
  H   H571      1.0  0.10206  0.63233  0.22215  1.0000
  H   H572      1.0  0.42782  0.92590  0.19285  1.0000
  H   H573      1.0  0.05894  0.70661  0.14492  1.0000
  H   H574      1.0  0.35763  0.89957  0.22587  1.0000
  C   C729      1.0  0.30669  0.99558  0.07496  1.0000
  H   H575      1.0  0.19083  0.84163  0.23734  1.0000
  H   H576      1.0  0.02355  0.68442  0.17014  1.0000
  H   H577      1.0  0.10332  0.64210  0.18388  1.0000
  C   C730      1.0  0.27899  0.97613  0.13171  1.0000
  C   C731      1.0  0.02036  0.69144  0.15504  1.0000
  H   H578      1.0  0.02747  0.60573  0.23411  1.0000
  C   C732      1.0  0.37451  0.89818  0.22312  1.0000
  H   H579      1.0  0.43347  0.79443  0.24309  1.0000
  H   H580      1.0  0.00648  0.65409  0.06431  1.0000
  C   C733      1.0  0.99166  0.69530  0.12993  1.0000
  H   H581      1.0  0.45395  0.88820  0.11903  1.0000
  H   H582      1.0  0.02044  0.73755  0.03681  1.0000
  H   H583      1.0  0.37254  0.96578  0.09607  1.0000
  H   H584      1.0  0.33596  0.57921  0.23451  1.0000
  H   H585      1.0  0.42293  0.79579  0.20472  1.0000
  C   C734      1.0  0.40407  0.97836  0.11896  1.0000
  C   C735      1.0  0.47485  0.91912  0.22182  1.0000
  H   H586      1.0  0.28917  0.91389  0.23655  1.0000
  C   C736      1.0  0.47597  0.96066  0.15143  1.0000
  C   C737      1.0  0.15616  0.96246  0.14139  1.0000
  H   H587      1.0  0.28303  0.83903  0.21806  1.0000
  H   H588      1.0  0.08703  0.56207  0.22574  1.0000
  C   C738      1.0  0.27736  0.85025  0.22818  1.0000
  C   C739      1.0  0.47255  0.90090  0.17176  1.0000
  C   C740      1.0  0.07029  0.54621  0.23359  1.0000
  C   C741      1.0  0.22022  0.99406  0.07136  1.0000
  C   C742      1.0  0.98973  0.65216  0.07181  1.0000
  H   H589      1.0  0.99385  0.63294  0.09996  1.0000
  C   C743      1.0  0.06357  0.51930  0.23051  1.0000
  H   H590      1.0  0.03000  0.65545  0.24079  1.0000
  C   C744      1.0  0.05089  0.66668  0.24127  1.0000
  H   H591      1.0  0.46185  0.64573  0.14738  1.0000
  C   C745      1.0  0.44649  0.85914  0.24197  1.0000
  C   C746      1.0  0.04154  0.49846  0.23981  1.0000
  C   C747      1.0  0.25907  0.83661  0.24410  1.0000
  H   H592      1.0  0.47963  0.67348  0.11520  1.0000
  C   C748      1.0  0.20081  0.99596  0.06038  1.0000
  C   C749      1.0  0.48247  0.65990  0.14650  1.0000
  Fe  Fe48      1.0  0.19946  0.74057  0.31066  1.0000
  S   S101      1.0  0.22052  0.78432  0.32196  1.0000
  S   S102      1.0  0.20828  0.70690  0.31544  1.0000
  Fe  Fe49      1.0  0.15127  0.74107  0.29546  1.0000
  S   S103      1.0  0.16877  0.78484  0.30598  1.0000
  S   S104      1.0  0.10830  0.71429  0.28538  1.0000
  Fe  Fe50      1.0  0.20556  0.79229  0.29127  1.0000
  S   S105      1.0  0.22699  0.83448  0.27655  1.0000
  Fe  Fe51      1.0  0.18284  0.77502  0.33590  1.0000
  S   S106      1.0  0.18743  0.79526  0.36881  1.0000
  S   S107      1.0  0.18691  0.74884  0.27858  1.0000
  S   S108      1.0  0.16287  0.73084  0.32675  1.0000
  H   H593      1.0  0.26583  0.99093  0.40653  1.0000
  Fe  Fe52      1.0  0.29483  0.60919  0.36114  1.0000
  S   S109      1.0  0.32538  0.64864  0.34722  1.0000
  S   S110      1.0  0.27570  0.57387  0.33651  1.0000
  Fe  Fe53      1.0  0.30233  0.63550  0.40614  1.0000
  S   S111      1.0  0.33348  0.67615  0.39516  1.0000
  S   S112      1.0  0.28546  0.63043  0.43954  1.0000
  Fe  Fe54      1.0  0.30752  0.66799  0.36601  1.0000
  S   S113      1.0  0.30520  0.70416  0.35461  1.0000
  Fe  Fe55      1.0  0.34864  0.65364  0.37710  1.0000
  S   S114      1.0  0.39108  0.66609  0.37887  1.0000
  S   S115      1.0  0.27535  0.62843  0.37783  1.0000
  S   S116      1.0  0.31919  0.61312  0.39024  1.0000
  Fe  Fe56      1.0  0.10962  0.81364  0.46161  1.0000
  S   S117      1.0  0.09449  0.84179  0.46405  1.0000
  S   S118      1.0  0.10215  0.78763  0.43134  1.0000
  C   C750      1.0  0.03505  0.77245  0.43825  1.0000
  H   H594      1.0  0.47937  0.71577  0.35236  1.0000
  C   C751      1.0  0.38458  0.58451  0.26417  1.0000
  C   C752      1.0  0.47641  0.85169  0.42936  1.0000
  H   H595      1.0  0.01417  0.78810  0.42205  1.0000
  H   H596      1.0  0.24618  0.86650  0.45198  1.0000
  H   H597      1.0  0.45318  0.87670  0.25256  1.0000
  C   C753      1.0  0.42515  0.74087  0.42937  1.0000
  C   C754      1.0  0.40227  0.74681  0.34868  1.0000
  H   H598      1.0  0.43263  0.66348  0.31867  1.0000
  H   H599      1.0  0.14750  0.61514  0.28250  1.0000
  C   C755      1.0  0.38132  0.58021  0.28625  1.0000
  C   C756      1.0  0.30046  0.63591  0.46549  1.0000
  C   C757      1.0  0.32558  0.64111  0.46852  1.0000
  H   H600      1.0  0.45719  0.72360  0.41635  1.0000
  H   H601      1.0  0.33629  0.64143  0.45479  1.0000
  H   H602      1.0  0.04546  0.57756  0.29151  1.0000
  C   C758      1.0  0.45292  0.71788  0.33028  1.0000
  C   C759      1.0  0.42685  0.70939  0.32608  1.0000
  C   C760      1.0  0.40761  0.69329  0.34065  1.0000
  C   C761      1.0  0.41429  0.68559  0.35963  1.0000
  C   C762      1.0  0.44024  0.69358  0.36361  1.0000
  C   C763      1.0  0.45948  0.70974  0.34909  1.0000
  H   H603      1.0  0.42152  0.71528  0.31145  1.0000
  H   H604      1.0  0.38768  0.68703  0.33727  1.0000
  H   H605      1.0  0.44552  0.68735  0.37807  1.0000
  H   H606      1.0  0.44001  0.75699  0.35955  1.0000
  C   C764      1.0  0.23540  0.70676  0.32672  1.0000
  C   C765      1.0  0.25858  0.73062  0.33255  1.0000
  C   C766      1.0  0.27964  0.72940  0.34111  1.0000
  C   C767      1.0  0.27776  0.70438  0.34422  1.0000
  C   C768      1.0  0.25447  0.68052  0.33862  1.0000
  C   C769      1.0  0.23350  0.68174  0.32981  1.0000
  H   H607      1.0  0.26043  0.75000  0.33009  1.0000
  H   H608      1.0  0.29760  0.74801  0.34506  1.0000
  H   H609      1.0  0.25272  0.66113  0.34080  1.0000
  H   H610      1.0  0.21570  0.66315  0.32529  1.0000
  C   C770      1.0  0.16328  0.79381  0.38528  1.0000
  C   C771      1.0  0.17092  0.81074  0.40378  1.0000
  C   C772      1.0  0.15244  0.80962  0.41775  1.0000
  C   C773      1.0  0.12612  0.79109  0.41360  1.0000
  C   C774      1.0  0.11849  0.77440  0.39499  1.0000
  C   C775      1.0  0.13694  0.77590  0.38079  1.0000
  H   H611      1.0  0.19126  0.82462  0.40744  1.0000
  H   H612      1.0  0.15855  0.82270  0.43192  1.0000
  H   H613      1.0  0.09817  0.76012  0.39156  1.0000
  H   H614      1.0  0.13082  0.76295  0.36653  1.0000
  C   C776      1.0  0.03392  0.58386  0.28287  1.0000
  C   C777      1.0  0.29589  0.97787  0.31821  1.0000
  C   C778      1.0  0.24611  0.52013  0.32383  1.0000
  C   C779      1.0  0.25915  0.53853  0.34114  1.0000
  C   C780      1.0  0.25921  0.52839  0.36130  1.0000
  H   H615      1.0  0.26662  0.76665  0.42860  1.0000
  H   H616      1.0  0.20518  0.66835  0.43911  1.0000
  H   H617      1.0  0.24549  0.52777  0.30828  1.0000
  H   H618      1.0  0.26909  0.54227  0.37477  1.0000
  C   C781      1.0  0.46645  0.62408  0.30526  1.0000
  H   H619      1.0  0.02006  0.80960  0.46754  1.0000
  C   C782      1.0  0.03317  0.75144  0.45033  1.0000
  H   H620      1.0  0.15785  0.66176  0.29132  1.0000
  C   C783      1.0  0.39341  0.69665  0.44250  1.0000
  C   C784      1.0  0.40590  0.71360  0.42549  1.0000
  C   C785      1.0  0.01266  0.77158  0.43115  1.0000
  C   C786      1.0  0.44378  0.83548  0.25017  1.0000
  H   H621      1.0  0.48026  0.68717  0.31986  1.0000
  H   H622      1.0  0.44739  0.70479  0.48868  1.0000
  C   C787      1.0  0.26211  0.87866  0.25409  1.0000
  H   H623      1.0  0.42135  0.79996  0.40590  1.0000
  C   C788      1.0  0.41624  0.75392  0.38621  1.0000
  C   C789      1.0  0.39146  0.74780  0.39182  1.0000
  C   C790      1.0  0.37234  0.74125  0.37599  1.0000
  C   C791      1.0  0.17101  0.94812  0.47742  1.0000
  H   H624      1.0  0.30462  0.96934  0.30841  1.0000
  H   H625      1.0  0.37845  0.67567  0.43919  1.0000
  H   H626      1.0  0.40036  0.70550  0.40925  1.0000
  C   C792      1.0  0.12211  0.65508  0.27748  1.0000
  C   C793      1.0  0.48117  0.65169  0.31082  1.0000
  H   H627      1.0  0.34019  0.69172  0.44584  1.0000
  H   H628      1.0  0.23995  0.77837  0.45006  1.0000
  H   H629      1.0  0.35313  0.73600  0.38042  1.0000
  H   H630      1.0  0.26173  0.93914  0.32384  1.0000
  C   C794      1.0  0.24621  0.97771  0.40037  1.0000
  H   H631      1.0  0.24744  0.94164  0.40372  1.0000
  C   C795      1.0  0.19184  0.96976  0.46704  1.0000
  C   C796      1.0  0.33677  0.64572  0.48938  1.0000
  C   C797      1.0  0.37768  0.74063  0.35443  1.0000
  H   H632      1.0  0.44072  0.84745  0.41795  1.0000
  C   C798      1.0  0.24307  0.76246  0.45516  1.0000
  C   C799      1.0  0.13381  0.62105  0.27808  1.0000
  H   H633      1.0  0.48206  0.79332  0.37714  1.0000
  C   C800      1.0  0.46686  0.75880  0.39772  1.0000
  Fe  Fe57      1.0  0.13254  0.87097  0.48151  1.0000
  H   H634      1.0  0.39212  0.60452  0.25797  1.0000
  H   H635      1.0  0.08540  0.64307  0.26249  1.0000
  C   C801      1.0  0.43942  0.61062  0.30419  1.0000
  C   C802      1.0  0.06477  0.68117  0.26013  1.0000
  C   C803      1.0  0.02623  0.50449  0.25230  1.0000
  C   C804      1.0  0.23500  0.72731  0.47993  1.0000
  H   H636      1.0  0.22036  0.75396  0.48328  1.0000
  C   C805      1.0  0.18715  0.66735  0.43548  1.0000
  C   C806      1.0  0.16385  0.64240  0.43508  1.0000
  C   C807      1.0  0.14061  0.64110  0.43026  1.0000
  C   C808      1.0  0.14066  0.66470  0.42561  1.0000
  C   C809      1.0  0.16405  0.68976  0.42565  1.0000
  C   C810      1.0  0.18726  0.69096  0.43093  1.0000
  P   P28       1.0  0.16460  0.72041  0.41943  1.0000
  C   C811      1.0  0.16468  0.73795  0.44368  1.0000
  C   C812      1.0  0.19309  0.74085  0.40406  1.0000
  C   C813      1.0  0.19985  0.72846  0.38810  1.0000
  C   C814      1.0  0.22138  0.74402  0.37569  1.0000
  C   C815      1.0  0.23663  0.77200  0.37932  1.0000
  C   C816      1.0  0.23033  0.78444  0.39540  1.0000
  C   C817      1.0  0.20857  0.76898  0.40768  1.0000
  C   C818      1.0  0.16858  0.73019  0.46393  1.0000
  H   H637      1.0  0.41852  0.65192  0.27415  1.0000
  H   H638      1.0  0.31725  0.51975  0.30678  1.0000
  C   C819      1.0  0.15727  0.77113  0.46099  1.0000
  C   C820      1.0  0.15896  0.75845  0.44240  1.0000
  C   C821      1.0  0.13600  0.71228  0.40352  1.0000
  C   C822      1.0  0.13603  0.71150  0.38104  1.0000
  C   C823      1.0  0.11396  0.70573  0.36898  1.0000
  C   C824      1.0  0.09180  0.70099  0.37924  1.0000
  C   C825      1.0  0.09151  0.70159  0.40159  1.0000
  C   C826      1.0  0.11340  0.70697  0.41369  1.0000
  C   C827      1.0  0.20589  0.97165  0.38671  1.0000
  H   H639      1.0  0.16382  0.62407  0.43846  1.0000
  H   H640      1.0  0.12255  0.62174  0.42996  1.0000
  H   H641      1.0  0.12251  0.66326  0.42180  1.0000
  H   H642      1.0  0.20549  0.71011  0.43125  1.0000
  H   H643      1.0  0.18803  0.70685  0.38474  1.0000
  H   H644      1.0  0.22576  0.73444  0.36280  1.0000
  H   H645      1.0  0.25280  0.78411  0.36918  1.0000
  H   H646      1.0  0.24146  0.80628  0.39753  1.0000
  H   H647      1.0  0.20346  0.77924  0.41933  1.0000
  H   H648      1.0  0.17248  0.71407  0.46546  1.0000
  H   H649      1.0  0.31595  0.50635  0.34413  1.0000
  H   H650      1.0  0.34697  0.70276  0.48487  1.0000
  H   H651      1.0  0.15226  0.78654  0.45984  1.0000
  H   H652      1.0  0.15514  0.76409  0.42696  1.0000
  H   H653      1.0  0.15310  0.71579  0.37265  1.0000
  H   H654      1.0  0.11423  0.70560  0.35162  1.0000
  H   H655      1.0  0.07501  0.69727  0.36981  1.0000
  H   H656      1.0  0.07449  0.69844  0.40955  1.0000
  H   H657      1.0  0.11276  0.70745  0.43099  1.0000
  C   C828      1.0  0.22993  0.68064  0.38715  1.0000
  C   C829      1.0  0.22519  0.65471  0.39086  1.0000
  C   C830      1.0  0.23757  0.65057  0.40817  1.0000
  C   C831      1.0  0.25490  0.67238  0.42163  1.0000
  C   C832      1.0  0.26051  0.69866  0.41749  1.0000
  C   C833      1.0  0.24753  0.70255  0.40038  1.0000
  P   P29       1.0  0.28273  0.72719  0.43460  1.0000
  C   C834      1.0  0.30537  0.75499  0.41877  1.0000
  C   C835      1.0  0.00889  0.72956  0.45537  1.0000
  C   C836      1.0  0.42691  0.62477  0.30870  1.0000
  C   C837      1.0  0.36916  0.53699  0.25754  1.0000
  C   C838      1.0  0.32964  0.77147  0.38631  1.0000
  C   C839      1.0  0.31111  0.75011  0.39818  1.0000
  C   C840      1.0  0.26285  0.73562  0.44992  1.0000
  C   C841      1.0  0.47949  0.81183  0.42515  1.0000
  C   C842      1.0  0.47072  0.73855  0.40562  1.0000
  C   C843      1.0  0.25022  0.72065  0.46791  1.0000
  H   H658      1.0  0.35926  0.51254  0.28547  1.0000
  H   H659      1.0  0.42478  0.74161  0.48403  1.0000
  H   H660      1.0  0.22046  0.68387  0.37363  1.0000
  H   H661      1.0  0.21221  0.63791  0.38014  1.0000
  H   H662      1.0  0.23416  0.63053  0.41097  1.0000
  H   H663      1.0  0.26406  0.66852  0.43500  1.0000
  H   H664      1.0  0.25136  0.72260  0.39701  1.0000
  C   C844      1.0  0.09279  0.61029  0.26152  1.0000
  H   H665      1.0  0.33395  0.76737  0.37042  1.0000
  H   H666      1.0  0.30151  0.72974  0.39135  1.0000
  H   H667      1.0  0.36257  0.73489  0.34224  1.0000
  C   C845      1.0  0.31898  0.78147  0.42760  1.0000
  C   C846      1.0  0.40164  0.65194  0.27945  1.0000
  H   H668      1.0  0.41054  0.68692  0.26122  1.0000
  C   C847      1.0  0.20202  0.89320  0.32450  1.0000
  C   C848      1.0  0.20458  0.87076  0.32134  1.0000
  C   C849      1.0  0.20409  0.85581  0.33884  1.0000
  C   C850      1.0  0.20138  0.86341  0.35951  1.0000
  C   C851      1.0  0.19964  0.88642  0.36297  1.0000
  C   C852      1.0  0.19934  0.90088  0.34521  1.0000
  P   P30       1.0  0.19592  0.89609  0.38976  1.0000
  C   C853      1.0  0.20998  0.93239  0.39134  1.0000
  C   C854      1.0  0.16204  0.87886  0.39571  1.0000
  C   C855      1.0  0.15332  0.88991  0.41116  1.0000
  C   C856      1.0  0.12739  0.87591  0.41669  1.0000
  C   C857      1.0  0.11000  0.85069  0.40701  1.0000
  C   C858      1.0  0.11852  0.83953  0.39167  1.0000
  C   C859      1.0  0.14446  0.85349  0.38607  1.0000
  C   C860      1.0  0.23564  0.94969  0.39881  1.0000
  C   C861      1.0  0.19529  0.94365  0.38505  1.0000
  C   C862      1.0  0.21211  0.88705  0.40957  1.0000
  C   C863      1.0  0.20232  0.87987  0.43022  1.0000
  C   C864      1.0  0.21458  0.87247  0.44540  1.0000
  C   C865      1.0  0.23682  0.87239  0.44020  1.0000
  C   C866      1.0  0.24698  0.87997  0.41984  1.0000
  C   C867      1.0  0.23479  0.88745  0.40462  1.0000
  H   H669      1.0  0.20553  0.83806  0.33634  1.0000
  H   H670      1.0  0.20048  0.85116  0.37273  1.0000
  H   H671      1.0  0.19681  0.91791  0.34724  1.0000
  H   H672      1.0  0.16662  0.90893  0.41954  1.0000
  H   H673      1.0  0.12101  0.88436  0.42900  1.0000
  H   H674      1.0  0.09007  0.83943  0.41181  1.0000
  H   H675      1.0  0.10520  0.81955  0.38473  1.0000
  H   H676      1.0  0.15078  0.84395  0.37474  1.0000
  H   H677      1.0  0.44849  0.83489  0.26691  1.0000
  H   H678      1.0  0.17549  0.93076  0.37916  1.0000
  H   H679      1.0  0.18512  0.87971  0.43474  1.0000
  C   C868      1.0  0.15910  0.95428  0.49363  1.0000
  C   C869      1.0  0.30787  0.72698  0.47277  1.0000
  H   H680      1.0  0.26424  0.87994  0.41580  1.0000
  H   H681      1.0  0.24299  0.89336  0.38896  1.0000
  C   C870      1.0  0.27172  0.96086  0.32688  1.0000
  C   C871      1.0  0.31542  0.70762  0.44117  1.0000
  H   H682      1.0  0.34766  0.82332  0.42241  1.0000
  H   H683      1.0  0.44715  0.77165  0.45413  1.0000
  C   C872      1.0  0.44059  0.81046  0.41314  1.0000
  C   C873      1.0  0.16698  0.74301  0.48254  1.0000
  H   H684      1.0  0.37110  0.55048  0.31083  1.0000
  H   H685      1.0  0.35080  0.62040  0.31276  1.0000
  H   H686      1.0  0.26720  0.63105  0.48151  1.0000
  C   C874      1.0  0.28666  0.63511  0.48363  1.0000
  H   H687      1.0  0.29962  0.73742  0.48052  1.0000
  P   P31       1.0  0.39223  0.60860  0.30489  1.0000
  C   C875      1.0  0.37591  0.59704  0.32988  1.0000
  C   C876      1.0  0.38912  0.60849  0.34952  1.0000
  C   C877      1.0  0.37600  0.60007  0.36870  1.0000
  C   C878      1.0  0.34963  0.58041  0.36841  1.0000
  C   C879      1.0  0.33625  0.56923  0.34892  1.0000
  C   C880      1.0  0.34932  0.57748  0.32973  1.0000
  C   C881      1.0  0.46884  0.66570  0.31575  1.0000
  H   H688      1.0  0.40932  0.62446  0.35012  1.0000
  H   H689      1.0  0.38611  0.60964  0.38376  1.0000
  H   H690      1.0  0.33938  0.57444  0.38326  1.0000
  H   H691      1.0  0.31556  0.55480  0.34866  1.0000
  H   H692      1.0  0.33850  0.56928  0.31475  1.0000
  C   C882      1.0  0.13968  0.64734  0.28309  1.0000
  H   H693      1.0  0.05392  0.78948  0.43453  1.0000
  C   C883      1.0  0.43217  0.75081  0.45063  1.0000
  C   C884      1.0  0.01506  0.58607  0.29363  1.0000
  H   H694      1.0  0.25615  0.88978  0.26401  1.0000
  P   P32       1.0  0.44072  0.76243  0.40701  1.0000
  H   H695      1.0  0.31246  0.56723  0.49475  1.0000
  H   H696      1.0  0.37274  0.68856  0.27357  1.0000
  H   H697      1.0  0.47611  0.61329  0.30150  1.0000
  C   C885      1.0  0.25841  0.75594  0.44317  1.0000
  C   C886      1.0  0.32434  0.56782  0.24778  1.0000
  C   C887      1.0  0.02369  0.59936  0.25051  1.0000
  C   C888      1.0  0.00388  0.79990  0.47802  1.0000
  C   C889      1.0  0.42146  0.75324  0.36447  1.0000
  C   C890      1.0  0.25115  0.85071  0.25706  1.0000
  H   H698      1.0  0.31550  0.78550  0.44378  1.0000
  S   S119      1.0  0.14798  0.84318  0.47720  1.0000
  C   C891      1.0  0.03281  0.53139  0.25533  1.0000
  H   H699      1.0  0.28255  0.52758  0.29522  1.0000
  C   C892      1.0  0.05508  0.55254  0.24615  1.0000
  C   C893      1.0  0.32365  0.72084  0.48499  1.0000
  C   C894      1.0  0.38506  0.63297  0.29416  1.0000
  H   H700      1.0  0.29905  0.57626  0.29329  1.0000
  C   C895      1.0  0.37257  0.55415  0.29382  1.0000
  C   C896      1.0  0.44185  0.65226  0.31493  1.0000
  C   C897      1.0  0.48462  0.77754  0.38347  1.0000
  H   H701      1.0  0.20183  0.90440  0.31084  1.0000
  C   C898      1.0  0.30366  0.56626  0.28086  1.0000
  H   H702      1.0  0.20657  0.86460  0.30533  1.0000
  H   H703      1.0  0.25232  0.70398  0.47276  1.0000
  C   C899      1.0  0.33143  0.70186  0.45335  1.0000
  H   H704      1.0  0.24186  0.95875  0.34636  1.0000
  H   H705      1.0  0.19423  0.98013  0.38235  1.0000
  H   H706      1.0  0.20125  0.96537  0.45448  1.0000
  H   H707      1.0  0.38677  0.74783  0.40845  1.0000
  C   C900      1.0  0.34265  0.79789  0.39494  1.0000
  C   C901      1.0  0.36377  0.63419  0.30113  1.0000
  H   H708      1.0  0.40631  0.74591  0.33197  1.0000
  H   H709      1.0  0.35692  0.81441  0.38563  1.0000
  C   C902      1.0  0.36616  0.53259  0.27950  1.0000
  C   C903      1.0  0.45153  0.83749  0.41999  1.0000
  C   C904      1.0  0.30298  0.71961  0.45087  1.0000
  H   H710      1.0  0.10627  0.58229  0.26379  1.0000
  C   C905      1.0  0.39717  0.67185  0.27203  1.0000
  P   P33       1.0  0.06252  0.58714  0.24754  1.0000
  H   H711      1.0  0.42846  0.58936  0.29955  1.0000
  H   H712      1.0  0.44033  0.65958  0.47937  1.0000
  H   H713      1.0  0.48489  0.87266  0.43460  1.0000
  S   S120      1.0  0.47631  0.73798  0.31133  1.0000
  C   C906      1.0  0.09200  0.69653  0.26100  1.0000
  H   H714      1.0  0.05066  0.75235  0.45587  1.0000
  C   C907      1.0  0.35925  0.65399  0.29353  1.0000
  H   H715      1.0  0.31234  0.70223  0.42422  1.0000
  C   C908      1.0  0.37597  0.67287  0.27905  1.0000
  C   C909      1.0  0.40013  0.70677  0.46360  1.0000
  H   H716      1.0  0.34302  0.65503  0.29927  1.0000
  H   H717      1.0  0.05432  0.68063  0.27413  1.0000
  C   C910      1.0  0.45453  0.79742  0.41560  1.0000
  S   S121      1.0  0.16113  0.91401  0.46966  1.0000
  S   S122      1.0  0.09244  0.79315  0.49249  1.0000
  C   C911      1.0  0.29427  0.53856  0.28190  1.0000
  H   H718      1.0  0.39027  0.69365  0.47677  1.0000
  C   C912      1.0  0.41957  0.73381  0.46766  1.0000
  H   H719      1.0  0.20666  0.86667  0.46118  1.0000
  C   C913      1.0  0.26049  0.97188  0.33949  1.0000
  H   H720      1.0  0.25079  0.81513  0.24610  1.0000
  C   C914      1.0  0.37852  0.56297  0.24990  1.0000
  C   C915      1.0  0.00472  0.60137  0.26126  1.0000
  C   C916      1.0  0.33737  0.80288  0.41562  1.0000
  C   C917      1.0  0.11042  0.60252  0.26738  1.0000
  C   C918      1.0  0.23176  0.74848  0.47374  1.0000
  C   C919      1.0  0.33526  0.70810  0.47531  1.0000
  C   C920      1.0  0.30438  0.49884  0.31065  1.0000
  C   C921      1.0  0.24630  0.50017  0.36406  1.0000
  H   H721      1.0  0.32597  0.60240  0.26299  1.0000
  H   H722      1.0  0.02008  0.53537  0.26435  1.0000
  H   H723      1.0  0.12661  0.67546  0.28138  1.0000
  C   C922      1.0  0.03796  0.58993  0.26109  1.0000
  C   C923      1.0  0.29993  0.52513  0.26600  1.0000
  H   H724      1.0  0.01204  0.58141  0.31044  1.0000
  H   H725      1.0  0.22582  0.71614  0.49413  1.0000
  H   H726      1.0  0.24480  0.49996  0.27229  1.0000
  C   C924      1.0  0.09875  0.63665  0.26679  1.0000
  H   H727      1.0  0.35614  0.64960  0.49153  1.0000
  C   C925      1.0  0.00033  0.59464  0.28277  1.0000
  C   C926      1.0  0.31876  0.58093  0.26381  1.0000
  C   C927      1.0  0.16135  0.76349  0.48107  1.0000
  H   H728      1.0  0.00785  0.71360  0.46493  1.0000
  C   C928      1.0  0.23128  0.98865  0.39447  1.0000
  H   H729      1.0  0.99365  0.60853  0.25294  1.0000
  C   C929      1.0  0.31502  0.54006  0.24886  1.0000
  H   H730      1.0  0.36440  0.52029  0.24647  1.0000
  H   H731      1.0  0.36392  0.86646  0.24551  1.0000
  P   P34       1.0  0.45094  0.69417  0.56686  1.0000
  Fe  Fe58      1.0  0.16635  0.76216  0.64939  1.0000
  S   S123      1.0  0.16650  0.72372  0.65516  1.0000
  S   S124      1.0  0.13972  0.76490  0.62405  1.0000
  Fe  Fe59      1.0  0.19968  0.79061  0.69044  1.0000
  S   S125      1.0  0.20158  0.75414  0.69906  1.0000
  S   S126      1.0  0.21561  0.83033  0.71017  1.0000
  Fe  Fe60      1.0  0.20878  0.75137  0.66405  1.0000
  S   S127      1.0  0.24356  0.74720  0.65707  1.0000
  Fe  Fe61      1.0  0.15909  0.72879  0.68976  1.0000
  S   S128      1.0  0.13190  0.69022  0.70807  1.0000
  S   S129      1.0  0.20924  0.78964  0.65586  1.0000
  S   S130      1.0  0.15657  0.76545  0.68362  1.0000
  Fe  Fe62      1.0  0.30840  0.61448  0.60772  1.0000
  S   S131      1.0  0.31118  0.64770  0.62908  1.0000
  S   S132      1.0  0.30465  0.57529  0.61918  1.0000
  Fe  Fe63      1.0  0.32357  0.64954  0.56724  1.0000
  S   S133      1.0  0.32734  0.68515  0.58592  1.0000
  S   S134      1.0  0.33865  0.65209  0.53329  1.0000
  Fe  Fe64      1.0  0.34776  0.67571  0.61185  1.0000
  S   S135      1.0  0.38515  0.71026  0.62777  1.0000
  Fe  Fe65      1.0  0.29059  0.65459  0.60172  1.0000
  S   S136      1.0  0.25455  0.65753  0.60529  1.0000
  S   S137      1.0  0.34630  0.64229  0.59234  1.0000
  S   S138      1.0  0.28547  0.61920  0.58124  1.0000
  H   H732      1.0  0.32430  0.50370  0.73230  1.0000
  S   S139      1.0  0.11707  0.85459  0.51407  1.0000
  S   S140      1.0  0.15506  0.81561  0.53079  1.0000
  H   H733      1.0  0.99007  0.63539  0.64099  1.0000
  H   H734      1.0  0.47119  0.80279  0.65644  1.0000
  C   C930      1.0  0.24101  0.51549  0.56935  1.0000
  C   C931      1.0  0.43716  0.66498  0.58371  1.0000
  C   C932      1.0  0.10296  0.68000  0.72216  1.0000
  H   H735      1.0  0.25283  0.98189  0.70421  1.0000
  H   H736      1.0  0.12313  0.58038  0.66081  1.0000
  H   H737      1.0  0.45034  0.80143  0.73771  1.0000
  P   P35       1.0  0.26150  0.50806  0.55382  1.0000
  C   C933      1.0  0.24543  0.84793  0.72521  1.0000
  C   C934      1.0  0.41559  0.61948  0.60970  1.0000
  C   C935      1.0  0.45294  0.65679  0.59350  1.0000
  C   C936      1.0  0.24595  0.72180  0.64272  1.0000
  C   C937      1.0  0.22510  0.70081  0.63089  1.0000
  C   C938      1.0  0.22809  0.68141  0.61950  1.0000
  C   C939      1.0  0.25193  0.68269  0.61982  1.0000
  C   C940      1.0  0.27272  0.70355  0.63182  1.0000
  C   C941      1.0  0.26973  0.72299  0.64313  1.0000
  H   H738      1.0  0.20683  0.69984  0.63028  1.0000
  H   H739      1.0  0.21188  0.66541  0.61027  1.0000
  H   H740      1.0  0.29114  0.70479  0.63229  1.0000
  H   H741      1.0  0.28600  0.73915  0.65220  1.0000
  C   C942      1.0  0.14457  0.77907  0.59808  1.0000
  C   C943      1.0  0.12352  0.77785  0.58699  1.0000
  C   C944      1.0  0.12629  0.78884  0.56646  1.0000
  C   C945      1.0  0.15029  0.80149  0.55677  1.0000
  C   C946      1.0  0.17134  0.80270  0.56785  1.0000
  C   C947      1.0  0.16853  0.79154  0.58832  1.0000
  H   H742      1.0  0.10486  0.76819  0.59429  1.0000
  H   H743      1.0  0.10982  0.78737  0.55808  1.0000
  H   H744      1.0  0.18999  0.81230  0.56053  1.0000
  H   H745      1.0  0.18492  0.79265  0.59656  1.0000
  C   C948      1.0  0.45514  0.70299  0.64700  1.0000
  C   C949      1.0  0.43080  0.67971  0.64235  1.0000
  C   C950      1.0  0.40942  0.68166  0.63601  1.0000
  C   C951      1.0  0.41198  0.70702  0.63466  1.0000
  C   C952      1.0  0.43633  0.73040  0.63937  1.0000
  C   C953      1.0  0.45793  0.72845  0.64507  1.0000
  H   H746      1.0  0.42842  0.65995  0.64370  1.0000
  H   H747      1.0  0.39083  0.66350  0.63255  1.0000
  H   H748      1.0  0.43854  0.75012  0.63840  1.0000
  P   P36       1.0  0.48002  0.79843  0.70288  1.0000
  H   H749      1.0  0.40294  0.88593  0.71411  1.0000
  H   H750      1.0  0.11464  0.77040  0.66184  1.0000
  C   C954      1.0  0.20341  0.96958  0.60911  1.0000
  C   C955      1.0  0.10392  0.56258  0.68988  1.0000
  H   H751      1.0  0.28703  0.63921  0.51822  1.0000
  H   H752      1.0  0.03272  0.63852  0.62651  1.0000
  C   C956      1.0  0.46455  0.52692  0.70358  1.0000
  C   C957      1.0  0.28091  0.52651  0.63925  1.0000
  C   C958      1.0  0.27790  0.54725  0.63107  1.0000
  C   C959      1.0  0.25363  0.54449  0.63170  1.0000
  C   C960      1.0  0.23244  0.52078  0.63970  1.0000
  C   C961      1.0  0.44928  0.70023  0.52275  1.0000
  H   H753      1.0  0.29972  0.52867  0.63911  1.0000
  H   H754      1.0  0.25110  0.56036  0.62560  1.0000
  C   C962      1.0  0.09707  0.66017  0.65719  1.0000
  H   H755      1.0  0.98980  0.78128  0.52952  1.0000
  H   H756      1.0  0.25501  0.71182  0.69197  1.0000
  H   H757      1.0  0.45224  0.82410  0.68863  1.0000
  H   H758      1.0  0.45232  0.72001  0.52662  1.0000
  C   C963      1.0  0.08211  0.72949  0.66195  1.0000
  C   C964      1.0  0.20419  0.49969  0.59227  1.0000
  C   C965      1.0  0.30480  0.56007  0.55625  1.0000
  C   C966      1.0  0.08231  0.67109  0.66352  1.0000
  H   H759      1.0  0.04210  0.64037  0.69249  1.0000
  H   H760      1.0  0.15848  0.98599  0.51183  1.0000
  H   H761      1.0  0.46307  0.87109  0.71195  1.0000
  C   C967      1.0  0.18669  0.96840  0.62472  1.0000
  C   C968      1.0  0.31233  0.97838  0.70133  1.0000
  H   H762      1.0  0.19559  0.94808  0.51684  1.0000
  H   H763      1.0  0.32672  0.72571  0.50202  1.0000
  H   H764      1.0  0.36316  0.80221  0.69400  1.0000
  C   C969      1.0  0.15066  0.59965  0.71107  1.0000
  H   H765      1.0  0.43259  0.76106  0.59870  1.0000
  C   C970      1.0  0.41435  0.83660  0.72924  1.0000
  C   C971      1.0  0.41505  0.79240  0.67638  1.0000
  C   C972      1.0  0.39837  0.76451  0.67291  1.0000
  H   H766      1.0  0.43497  0.74209  0.69491  1.0000
  H   H767      1.0  0.39293  0.72502  0.67678  1.0000
  H   H768      1.0  0.37995  0.75664  0.66440  1.0000
  C   C973      1.0  0.44395  0.50557  0.69180  1.0000
  C   C974      1.0  0.15372  0.65504  0.62584  1.0000
  C   C975      1.0  0.15024  0.63841  0.60807  1.0000
  C   C976      1.0  0.15409  0.61676  0.61023  1.0000
  C   C977      1.0  0.16170  0.61191  0.63012  1.0000
  C   C978      1.0  0.16589  0.62897  0.64794  1.0000
  C   C979      1.0  0.16131  0.65026  0.64574  1.0000
  P   P37       1.0  0.17634  0.62313  0.67353  1.0000
  C   C980      1.0  0.19446  0.65547  0.68778  1.0000
  C   C981      1.0  0.14866  0.59968  0.68861  1.0000
  C   C982      1.0  0.12515  0.58090  0.67809  1.0000
  H   H769      1.0  0.08906  0.68519  0.67714  1.0000
  C   C983      1.0  0.39723  0.99345  0.68955  1.0000
  C   C984      1.0  0.41040  0.64977  0.58675  1.0000
  H   H770      1.0  0.45463  0.62870  0.61466  1.0000
  C   C985      1.0  0.02393  0.63943  0.69416  1.0000
  C   C986      1.0  0.43919  0.80241  0.68664  1.0000
  H   H771      1.0  0.21366  0.51867  0.63986  1.0000
  C   C987      1.0  0.43291  0.71090  0.56964  1.0000
  H   H772      1.0  0.22022  0.92447  0.62871  1.0000
  C   C988      1.0  0.19693  0.60950  0.66943  1.0000
  C   C989      1.0  0.44133  0.73292  0.58413  1.0000
  C   C990      1.0  0.19385  0.88925  0.52491  1.0000
  C   C991      1.0  0.02944  0.50703  0.72828  1.0000
  H   H773      1.0  0.27786  0.52453  0.50922  1.0000
  C   C992      1.0  0.21463  0.61894  0.65283  1.0000
  H   H774      1.0  0.15107  0.67207  0.62415  1.0000
  H   H775      1.0  0.14488  0.64253  0.59259  1.0000
  H   H776      1.0  0.15166  0.60404  0.59640  1.0000
  H   H777      1.0  0.16479  0.59518  0.63145  1.0000
  H   H778      1.0  0.16421  0.66372  0.65916  1.0000
  C   C993      1.0  0.01464  0.70129  0.60955  1.0000
  C   C994      1.0  0.05907  0.66370  0.65244  1.0000
  H   H779      1.0  0.21030  0.56341  0.68959  1.0000
  H   H780      1.0  0.47828  0.51135  0.74173  1.0000
  H   H781      1.0  0.44332  0.64439  0.54607  1.0000
  C   C995      1.0  0.06018  0.71044  0.67281  1.0000
  C   C996      1.0  0.40568  0.74663  0.67995  1.0000
  C   C997      1.0  0.19525  0.69034  0.71058  1.0000
  C   C998      1.0  0.31964  0.98507  0.72304  1.0000
  H   H782      1.0  0.40946  0.80625  0.67067  1.0000
  H   H783      1.0  0.13093  0.58181  0.74014  1.0000
  C   C999      1.0  0.29784  0.63971  0.50449  1.0000
  H   H784      1.0  0.25829  0.55725  0.55977  1.0000
  H   H785      1.0  0.38045  0.97648  0.71974  1.0000
  H   H786      1.0  0.21632  0.63454  0.64245  1.0000
  C   C1000     1.0  0.00709  0.62302  0.70981  1.0000
  H   H787      1.0  0.05900  0.61965  0.61547  1.0000
  H   H788      1.0  0.40438  0.51609  0.72827  1.0000
  C   C1001     1.0  0.40309  0.73458  0.57552  1.0000
  H   H789      1.0  0.47360  0.66789  0.59131  1.0000
  H   H790      1.0  0.33783  0.60082  0.55850  1.0000
  H   H791      1.0  0.45887  0.74059  0.59377  1.0000
  C   C1002     1.0  0.44651  0.69169  0.50127  1.0000
  H   H792      1.0  0.15007  0.94343  0.63946  1.0000
  C   C1003     1.0  0.15586  0.92166  0.61411  1.0000
  H   H793      1.0  0.40188  0.68340  0.54733  1.0000
  C   C1004     1.0  0.05067  0.64488  0.63517  1.0000
  H   H794      1.0  0.22875  0.56563  0.58001  1.0000
  C   C1005     1.0  0.28726  0.53854  0.54249  1.0000
  C   C1006     1.0  0.24340  0.54096  0.56880  1.0000
  H   H795      1.0  0.08578  0.54825  0.68169  1.0000
  C   C1007     1.0  0.02065  0.67747  0.63869  1.0000
  C   C1008     1.0  0.09038  0.83246  0.56311  1.0000
  C   C1009     1.0  0.07726  0.84614  0.56020  1.0000
  C   C1010     1.0  0.09007  0.87407  0.56435  1.0000
  C   C1011     1.0  0.11598  0.88833  0.57150  1.0000
  C   C1012     1.0  0.12912  0.87461  0.57490  1.0000
  C   C1013     1.0  0.11631  0.84670  0.57014  1.0000
  P   P38       1.0  0.16329  0.89329  0.58156  1.0000
  C   C1014     1.0  0.17857  0.90183  0.55603  1.0000
  C   C1015     1.0  0.17233  0.92288  0.59811  1.0000
  C   C1016     1.0  0.19642  0.94682  0.59600  1.0000
  C   C1017     1.0  0.23720  0.93146  0.66053  1.0000
  C   C1018     1.0  0.44425  0.65779  0.53374  1.0000
  C   C1019     1.0  0.99711  0.65398  0.63242  1.0000
  H   H796      1.0  0.23146  0.51082  0.51809  1.0000
  C   C1020     1.0  0.18420  0.88403  0.54556  1.0000
  H   H797      1.0  0.32915  0.93395  0.73578  1.0000
  C   C1021     1.0  0.39969  0.62714  0.59970  1.0000
  C   C1022     1.0  0.07122  0.74398  0.70147  1.0000
  C   C1023     1.0  0.18236  0.92479  0.54541  1.0000
  C   C1024     1.0  0.17246  0.87353  0.59731  1.0000
  C   C1025     1.0  0.15498  0.85421  0.61136  1.0000
  C   C1026     1.0  0.16229  0.83927  0.62379  1.0000
  C   C1027     1.0  0.18721  0.84383  0.62261  1.0000
  C   C1028     1.0  0.20492  0.86345  0.60905  1.0000
  C   C1029     1.0  0.19765  0.87838  0.59653  1.0000
  H   H798      1.0  0.08074  0.81103  0.55897  1.0000
  H   H799      1.0  0.05744  0.83522  0.55397  1.0000
  H   H800      1.0  0.08008  0.88474  0.56134  1.0000
  H   H801      1.0  0.12588  0.91011  0.57377  1.0000
  H   H802      1.0  0.12661  0.83612  0.57117  1.0000
  H   H803      1.0  0.20981  0.94797  0.58423  1.0000
  H   H804      1.0  0.22413  0.86669  0.60800  1.0000
  C   C1030     1.0  0.16299  0.94440  0.62729  1.0000
  H   H805      1.0  0.18037  0.86561  0.55305  1.0000
  H   H806      1.0  0.25822  0.94358  0.69067  1.0000
  H   H807      1.0  0.24434  0.61615  0.63684  1.0000
  H   H808      1.0  0.16083  0.65258  0.70223  1.0000
  H   H809      1.0  0.17691  0.93814  0.55262  1.0000
  H   H810      1.0  0.13559  0.85038  0.61257  1.0000
  H   H811      1.0  0.14847  0.82358  0.63398  1.0000
  H   H812      1.0  0.19254  0.83168  0.63189  1.0000
  C   C1031     1.0  0.11216  0.50832  0.73943  1.0000
  H   H813      1.0  0.21161  0.89350  0.58610  1.0000
  C   C1032     1.0  0.41383  0.52160  0.74401  1.0000
  H   H814      1.0  0.26654  0.95074  0.74506  1.0000
  H   H815      1.0  0.22259  0.91168  0.66599  1.0000
  H   H816      1.0  0.11500  0.66606  0.66581  1.0000
  C   C1033     1.0  0.07043  0.68802  0.73672  1.0000
  C   C1034     1.0  0.32469  0.94646  0.72612  1.0000
  C   C1035     1.0  0.13691  0.51205  0.70831  1.0000
  H   H817      1.0  0.39776  0.65544  0.57935  1.0000
  C   C1036     1.0  0.23517  0.49946  0.64688  1.0000
  H   H818      1.0  0.40731  0.60234  0.62013  1.0000
  H   H819      1.0  0.15443  0.52308  0.69937  1.0000
  Fe  Fe66      1.0  0.07981  0.82335  0.49614  1.0000
  H   H820      1.0  0.31731  0.92239  0.69730  1.0000
  H   H821      1.0  0.04738  0.71953  0.63121  1.0000
  C   C1037     1.0  0.99115  0.67792  0.60360  1.0000
  C   C1038     1.0  0.22642  0.54574  0.58009  1.0000
  H   H822      1.0  0.23224  0.72740  0.71491  1.0000
  C   C1039     1.0  0.38166  0.84469  0.70247  1.0000
  H   H823      1.0  0.23144  0.66677  0.67440  1.0000
  C   C1040     1.0  0.09793  0.75577  0.67048  1.0000
  C   C1041     1.0  0.20683  0.52514  0.59182  1.0000
  Fe  Fe67      1.0  0.12994  0.82479  0.50859  1.0000
  C   C1042     1.0  0.47837  0.89036  0.71859  1.0000
  H   H824      1.0  0.18506  0.69755  0.71997  1.0000
  H   H825      1.0  0.19212  0.98608  0.63481  1.0000
  C   C1043     1.0  0.10600  0.56289  0.71222  1.0000
  C   C1044     1.0  0.09266  0.76297  0.69032  1.0000
  C   C1045     1.0  0.42653  0.74479  0.58691  1.0000
  C   C1046     1.0  0.29050  0.54098  0.52024  1.0000
  H   H826      1.0  0.37607  0.70442  0.55263  1.0000
  H   H827      1.0  0.25714  0.81949  0.71812  1.0000
  H   H828      1.0  0.38160  0.97700  0.68006  1.0000
  H   H829      1.0  0.44071  0.56294  0.73564  1.0000
  C   C1047     1.0  0.18158  0.66470  0.70054  1.0000
  H   H830      1.0  0.44703  0.97408  0.72348  1.0000
  H   H831      1.0  0.24143  0.58051  0.66027  1.0000
  C   C1048     1.0  0.22179  0.70714  0.70776  1.0000
  C   C1049     1.0  0.32547  0.96896  0.73541  1.0000
  H   H832      1.0  0.19725  0.87483  0.51669  1.0000
  H   H833      1.0  0.22179  0.98821  0.60711  1.0000
  C   C1050     1.0  0.19810  0.91243  0.51462  1.0000
  C   C1051     1.0  0.09303  0.69685  0.72495  1.0000
  H   H834      1.0  0.19410  0.52909  0.60097  1.0000
  C   C1052     1.0  0.26220  0.83820  0.72651  1.0000
  C   C1053     1.0  0.25747  0.94963  0.67447  1.0000
  C   C1054     1.0  0.48156  0.75122  0.70210  1.0000
  H   H835      1.0  0.16868  0.61381  0.71951  1.0000
  C   C1055     1.0  0.21138  0.57887  0.67932  1.0000
  C   C1056     1.0  0.22111  0.67260  0.68490  1.0000
  H   H836      1.0  0.18220  0.58175  0.69568  1.0000
  C   C1057     1.0  0.00818  0.79622  0.49946  1.0000
  C   C1058     1.0  0.22894  0.58845  0.66278  1.0000
  H   H837      1.0  0.47670  0.74659  0.64791  1.0000
  S   S141      1.0  0.48133  0.69884  0.65440  1.0000
  C   C1059     1.0  0.06550  0.63402  0.62888  1.0000
  S   S142      1.0  0.03972  0.80718  0.51060  1.0000
  C   C1060     1.0  0.39456  0.71273  0.56107  1.0000
  C   C1061     1.0  0.08867  0.64163  0.63991  1.0000
  C   C1062     1.0  0.42983  0.75654  0.69012  1.0000
  C   C1063     1.0  0.23592  0.93861  0.63949  1.0000
  H   H838      1.0  0.39108  0.74299  0.57846  1.0000
  C   C1064     1.0  0.40933  0.70088  0.55814  1.0000
  C   C1065     1.0  0.44805  0.68327  0.53915  1.0000
  H   H839      1.0  0.02101  0.50941  0.71366  1.0000
  H   H840      1.0  0.30705  0.95081  0.67510  1.0000
  H   H841      1.0  0.10009  0.63312  0.63514  1.0000
  C   C1066     1.0  0.44220  0.63430  0.60659  1.0000
  C   C1067     1.0  0.32741  0.58655  0.52572  1.0000
  H   H842      1.0  0.09705  0.64077  0.72889  1.0000
  C   C1068     1.0  0.23467  0.69828  0.69493  1.0000
  C   C1069     1.0  0.31815  0.94006  0.70437  1.0000
  C   C1070     1.0  0.31220  0.95610  0.69193  1.0000
  C   C1071     1.0  0.32471  0.58401  0.54786  1.0000
  H   H843      1.0  0.13751  0.90314  0.61638  1.0000
  H   H844      1.0  0.30286  0.55853  0.57349  1.0000
  H   H845      1.0  0.14308  0.93801  0.50179  1.0000
  H   H846      1.0  0.37907  0.61586  0.60234  1.0000
  C   C1072     1.0  0.37846  0.81902  0.70348  1.0000
  C   C1073     1.0  0.19547  0.58936  0.68269  1.0000
  C   C1074     1.0  0.23056  0.60849  0.64957  1.0000
  H   H847      1.0  0.43842  0.62958  0.50816  1.0000
  C   C1075     1.0  0.47366  0.90385  0.73509  1.0000
  C   C1076     1.0  0.19262  0.93033  0.52498  1.0000
  H   H848      1.0  0.29828  0.84480  0.73964  1.0000
  H   H849      1.0  0.06732  0.74939  0.71701  1.0000
  C   C1077     1.0  0.44699  0.78458  0.69328  1.0000
  H   H850      1.0  0.98947  0.66680  0.67565  1.0000
  H   H851      1.0  0.10289  0.71680  0.71824  1.0000
  H   H852      1.0  0.47781  0.71378  0.60846  1.0000
  C   C1078     1.0  0.05493  0.71786  0.69273  1.0000
  C   C1079     1.0  0.41752  0.86240  0.72850  1.0000
  H   H853      1.0  0.20490  0.91618  0.49838  1.0000
  C   C1080     1.0  0.25502  0.96388  0.63233  1.0000
  H   H854      1.0  0.01235  0.61157  0.72004  1.0000
  C   C1081     1.0  0.27534  0.98212  0.64623  1.0000
  C   C1082     1.0  0.44147  0.64932  0.51224  1.0000
  H   H855      1.0  0.02149  0.71963  0.60064  1.0000
  H   H856      1.0  0.26346  0.49944  0.60030  1.0000
  H   H857      1.0  0.08704  0.72414  0.64683  1.0000
  C   C1083     1.0  0.32305  0.64517  0.50750  1.0000
  C   C1084     1.0  0.28556  0.85264  0.73872  1.0000
  H   H858      1.0  0.36877  0.84772  0.69225  1.0000
  H   H859      1.0  0.25424  0.96930  0.61593  1.0000
  C   C1085     1.0  0.39656  0.99314  0.71188  1.0000
  H   H860      1.0  0.34256  0.60536  0.51928  1.0000
  C   C1086     1.0  0.27670  0.97520  0.66748  1.0000
  H   H861      1.0  0.08949  0.54885  0.72136  1.0000
  H   H862      1.0  0.46095  0.53948  0.71416  1.0000
  C   C1087     1.0  0.48482  0.77304  0.71479  1.0000
  C   C1088     1.0  0.48476  0.73117  0.71101  1.0000
  C   C1089     1.0  0.48466  0.71720  0.57451  1.0000
  C   C1090     1.0  0.39482  0.81499  0.71685  1.0000
  C   C1091     1.0  0.43877  0.95756  0.73447  1.0000
  H   H863      1.0  0.45741  0.93824  0.72079  1.0000
  C   C1092     1.0  0.40110  0.86634  0.71492  1.0000
  C   C1093     1.0  0.01756  0.65498  0.68137  1.0000
  C   C1094     1.0  0.44476  0.93733  0.73317  1.0000
  C   C1095     1.0  0.08964  0.65404  0.73096  1.0000
  C   C1096     1.0  0.25964  0.50265  0.64700  1.0000
  C   C1097     1.0  0.99443  0.65434  0.68484  1.0000
  H   H864      1.0  0.03857  0.70349  0.70178  1.0000
  C   C1098     1.0  0.16794  0.98160  0.49932  1.0000
  H   H865      1.0  0.06314  0.70136  0.73896  1.0000
  H   H866      1.0  0.16973  0.73687  0.49818  1.0000
  C   C1099     1.0  0.12936  0.58143  0.72280  1.0000
  P   P39       1.0  0.03934  0.67670  0.66137  1.0000
  C   C1100     1.0  0.46916  0.81994  0.73843  1.0000
  C   C1101     1.0  0.02934  0.70112  0.62702  1.0000
  C   C1102     1.0  0.13462  0.52279  0.72775  1.0000
  H   H867      1.0  0.42672  0.83312  0.73964  1.0000
  H   H868      1.0  0.42453  0.50163  0.69334  1.0000
  H   H869      1.0  0.23960  0.88005  0.73535  1.0000
  H   H870      1.0  0.10542  0.78315  0.69713  1.0000
  H   H871      1.0  0.47643  0.74964  0.68528  1.0000
  C   C1103     1.0  0.31036  0.56506  0.51192  1.0000
  H   H872      1.0  0.39221  0.79502  0.71772  1.0000
  C   C1104     1.0  0.25242  0.87235  0.73625  1.0000
  H   H873      1.0  0.48181  0.71422  0.70104  1.0000
  H   H874      1.0  0.15034  0.54223  0.73384  1.0000
  C   C1105     1.0  0.06697  0.64516  0.74263  1.0000
  C   C1106     1.0  0.48755  0.82451  0.72308  1.0000
  C   C1107     1.0  0.44255  0.66622  0.49602  1.0000
  H   H875      1.0  0.15976  0.77322  0.49549  1.0000
  Fe  Fe68      1.0  0.34027  0.93330  0.78539  1.0000
  S   S143      1.0  0.36262  0.93587  0.81561  1.0000
  C   C1108     1.0  0.02559  0.60560  0.86185  1.0000
  H   H876      1.0  0.28090  0.90545  0.75694  1.0000
  Fe  Fe69      1.0  0.39511  0.97496  0.80307  1.0000
  C   C1109     1.0  0.45962  0.97740  0.80055  1.0000
  Fe  Fe70      1.0  0.34647  0.96013  0.83007  1.0000
  S   S144      1.0  0.33196  0.95242  0.86485  1.0000
  S   S145      1.0  0.37348  0.97134  0.77216  1.0000
  S   S146      1.0  0.32208  0.95463  0.80052  1.0000
  H   H877      1.0  0.35885  0.50377  0.75393  1.0000
  S   S147      1.0  0.02914  0.65256  0.76084  1.0000
  H   H878      1.0  0.24106  0.91147  0.76784  1.0000
  H   H879      1.0  0.02733  0.65737  0.89830  1.0000
  H   H880      1.0  0.15373  0.90812  0.94587  1.0000
  Fe  Fe71      1.0  0.24149  0.96771  0.95918  1.0000
  S   S148      1.0  0.20107  0.96039  0.96051  1.0000
  H   H881      1.0  0.07909  0.86206  0.91320  1.0000
  H   H882      1.0  0.05716  0.62526  0.74942  1.0000
  C   C1110     1.0  0.40550  0.50234  0.76012  1.0000
  H   H883      1.0  0.16161  0.73863  0.88201  1.0000
  H   H884      1.0  0.26832  0.84854  0.78882  1.0000
  H   H885      1.0  0.11065  0.51678  0.75454  1.0000
  C   C1111     1.0  0.09067  0.80825  0.89914  1.0000
  C   C1112     1.0  0.04067  0.51763  0.76599  1.0000
  C   C1113     1.0  0.14641  0.73325  0.87001  1.0000
  H   H886      1.0  0.01682  0.72877  0.84230  1.0000
  Fe  Fe72      1.0  0.35712  0.99308  0.78948  1.0000
  H   H887      1.0  0.30855  0.89981  0.84395  1.0000
  C   C1114     1.0  0.48475  0.99293  0.79260  1.0000
  H   H888      1.0  0.00542  0.58979  0.85950  1.0000
  H   H889      1.0  0.30010  0.97675  0.85709  1.0000
  C   C1115     1.0  0.45259  0.95275  0.80992  1.0000
  H   H890      1.0  0.46489  0.92541  0.81947  1.0000
  C   C1116     1.0  0.27008  0.86291  0.80109  1.0000
  C   C1117     1.0  0.31080  0.95788  0.88110  1.0000
  C   C1118     1.0  0.28220  0.97972  0.77151  1.0000
  C   C1119     1.0  0.03547  0.68436  0.92506  1.0000
  C   C1120     1.0  0.27761  0.96566  0.90841  1.0000
  C   C1121     1.0  0.29080  0.95339  0.91606  1.0000
  C   C1122     1.0  0.15896  0.86753  0.85773  1.0000
  C   C1123     1.0  0.10067  0.71002  0.85994  1.0000
  S   S149      1.0  0.00845  0.72078  0.98449  1.0000
  H   H891      1.0  0.40890  0.89892  0.77440  1.0000
  H   H892      1.0  0.08894  0.83218  0.94887  1.0000
  C   C1124     1.0  0.05314  0.77492  0.91807  1.0000
  C   C1125     1.0  0.04451  0.59888  0.86391  1.0000
  H   H893      1.0  0.13595  0.82964  0.77894  1.0000
  H   H894      1.0  0.00355  0.70340  0.80735  1.0000
  C   C1126     1.0  0.08048  0.85299  0.99131  1.0000
  H   H895      1.0  0.19949  0.91181  0.78627  1.0000
  C   C1127     1.0  0.07046  0.61936  0.86696  1.0000
  C   C1128     1.0  0.13668  0.89202  0.85599  1.0000
  C   C1129     1.0  0.03930  0.67891  0.82821  1.0000
  H   H896      1.0  0.28845  0.94690  0.93244  1.0000
  Fe  Fe73      1.0  0.00292  0.75601  0.98910  1.0000
  H   H897      1.0  0.09243  0.71329  0.82653  1.0000
  H   H898      1.0  0.43351  0.94057  0.81627  1.0000
  Fe  Fe74      1.0  0.99852  0.61369  0.77707  1.0000
  C   C1130     1.0  0.15399  0.86364  0.93046  1.0000
  C   C1131     1.0  0.19732  0.86980  0.95297  1.0000
  C   C1132     1.0  0.15276  0.74213  0.84909  1.0000
  C   C1133     1.0  0.47493  0.98290  0.86902  1.0000
  C   C1134     1.0  0.26901  0.96130  0.80675  1.0000
  C   C1135     1.0  0.25282  0.93529  0.79752  1.0000
  C   C1136     1.0  0.25224  0.93158  0.77519  1.0000
  P   P40       1.0  0.23589  0.90629  0.81424  1.0000
  C   C1137     1.0  0.22919  0.91576  0.83987  1.0000
  C   C1138     1.0  0.20441  0.88206  0.80274  1.0000
  C   C1139     1.0  0.19097  0.89061  0.78981  1.0000
  C   C1140     1.0  0.02979  0.52058  0.74710  1.0000
  C   C1141     1.0  0.41709  0.85646  0.78004  1.0000
  C   C1142     1.0  0.16790  0.83577  0.79909  1.0000
  C   C1143     1.0  0.19250  0.85459  0.80769  1.0000
  C   C1144     1.0  0.23060  0.90364  0.85875  1.0000
  C   C1145     1.0  0.22491  0.91092  0.87840  1.0000
  C   C1146     1.0  0.21722  0.92983  0.87926  1.0000
  C   C1147     1.0  0.21504  0.94137  0.86050  1.0000
  C   C1148     1.0  0.22085  0.93426  0.84084  1.0000
  C   C1149     1.0  0.25616  0.89210  0.81599  1.0000
  C   C1150     1.0  0.25346  0.87285  0.80051  1.0000
  C   C1151     1.0  0.13493  0.90474  0.94161  1.0000
  H   H899      1.0  0.47061  0.50400  0.78017  1.0000
  C   C1152     1.0  0.29286  0.89192  0.83205  1.0000
  C   C1153     1.0  0.27631  0.90196  0.83151  1.0000
  S   S150      1.0  0.23408  0.93784  0.98517  1.0000
  C   C1154     1.0  0.16636  0.87174  0.78126  1.0000
  H   H900      1.0  0.10171  0.81390  0.88474  1.0000
  H   H901      1.0  0.27119  0.96445  0.82399  1.0000
  H   H902      1.0  0.09743  0.93049  0.95400  1.0000
  C   C1155     1.0  0.43457  0.91623  0.74781  1.0000
  H   H903      1.0  0.02132  0.53310  0.74723  1.0000
  H   H904      1.0  0.08436  0.75020  0.92922  1.0000
  H   H905      1.0  0.43810  0.84822  0.82865  1.0000
  H   H906      1.0  0.20229  0.84767  0.81806  1.0000
  H   H907      1.0  0.23632  0.88880  0.85845  1.0000
  H   H908      1.0  0.22714  0.90251  0.89309  1.0000
  H   H909      1.0  0.20932  0.95621  0.86133  1.0000
  H   H910      1.0  0.21909  0.94343  0.82644  1.0000
  H   H911      1.0  0.23907  0.86600  0.78759  1.0000
  C   C1156     1.0  0.09293  0.87882  0.92354  1.0000
  H   H912      1.0  0.27979  0.91793  0.84288  1.0000
  C   C1157     1.0  0.44080  0.87655  0.77197  1.0000
  C   C1158     1.0  0.12772  0.92191  0.95078  1.0000
  C   C1159     1.0  0.11766  0.88313  0.92777  1.0000
  H   H913      1.0  0.13806  0.74142  0.81723  1.0000
  H   H914      1.0  0.48009  0.88403  0.81469  1.0000
  H   H915      1.0  0.06642  0.89211  0.92993  1.0000
  C   C1160     1.0  0.26673  0.95377  0.76223  1.0000
  H   H916      1.0  0.15623  0.87834  0.77096  1.0000
  C   C1161     1.0  0.30717  0.94954  0.90252  1.0000
  C   C1162     1.0  0.28981  0.87250  0.81680  1.0000
  C   C1163     1.0  0.03258  0.63274  0.86267  1.0000
  C   C1164     1.0  0.47528  0.83876  0.75528  1.0000
  H   H917      1.0  0.04058  0.52793  0.78062  1.0000
  C   C1165     1.0  0.06806  0.78262  0.89979  1.0000
  C   C1166     1.0  0.09846  0.82640  0.91683  1.0000
  H   H918      1.0  0.21392  0.87261  0.96216  1.0000
  H   H919      1.0  0.31727  0.94013  0.90878  1.0000
  C   C1167     1.0  0.08345  0.81838  0.93516  1.0000
  P   P41       1.0  0.12641  0.86039  0.91594  1.0000
  C   C1168     1.0  0.15177  0.88328  0.84634  1.0000
  C   C1169     1.0  0.43884  0.85593  0.81281  1.0000
  P   P42       1.0  0.06720  0.68848  0.86681  1.0000
  C   C1170     1.0  0.05078  0.50077  0.76622  1.0000
  H   H920      1.0  0.21911  0.90770  0.93697  1.0000
  C   C1171     1.0  0.13317  0.73491  0.83355  1.0000
  S   S151      1.0  0.25601  0.97057  0.92454  1.0000
  H   H921      1.0  0.39776  0.83090  0.80655  1.0000
  H   H922      1.0  0.17084  0.86095  0.85032  1.0000
  C   C1172     1.0  0.05131  0.71049  0.93381  1.0000
  C   C1173     1.0  0.10722  0.71891  0.83892  1.0000
  C   C1174     1.0  0.20024  0.88958  0.93880  1.0000
  C   C1175     1.0  0.43899  0.53654  0.78427  1.0000
  H   H923      1.0  0.18114  0.90232  0.91709  1.0000
  C   C1176     1.0  0.08568  0.89586  0.93293  1.0000
  C   C1177     1.0  0.06094  0.79276  0.93578  1.0000
  H   H924      1.0  0.09312  0.73876  0.89344  1.0000
  S   S152      1.0  0.00460  0.59456  0.80615  1.0000
  S   S153      1.0  0.32206  0.89390  0.76522  1.0000
  H   H925      1.0  0.04533  0.66486  0.82391  1.0000
  C   C1178     1.0  0.17868  0.88648  0.92756  1.0000
  H   H926      1.0  0.30324  0.86549  0.81673  1.0000
  H   H927      1.0  0.04679  0.71583  0.94914  1.0000
  Fe  Fe75      1.0  0.19416  0.93216  0.98758  1.0000
  H   H928      1.0  0.39924  0.84894  0.77076  1.0000
  C   C1179     1.0  0.27582  0.88682  0.74846  1.0000
  C   C1180     1.0  0.47056  0.94420  0.81174  1.0000
  H   H929      1.0  0.99149  0.69532  0.87859  1.0000
  Fe  Fe76      1.0  0.21708  0.99490  0.98529  1.0000
  C   C1181     1.0  0.15123  0.84374  0.94458  1.0000
  H   H930      1.0  0.15902  0.81449  0.80256  1.0000
  H   H931      1.0  0.09767  0.66197  0.87028  1.0000
  H   H932      1.0  0.44891  0.54228  0.79982  1.0000
  H   H933      1.0  0.06187  0.76875  0.88608  1.0000
  C   C1182     1.0  0.02384  0.68278  0.81361  1.0000
  C   C1183     1.0  0.05854  0.65346  0.86574  1.0000
  C   C1184     1.0  0.29252  0.87697  0.74979  1.0000
  C   C1185     1.0  0.02340  0.71513  0.83826  1.0000
  H   H934      1.0  0.21364  0.93613  0.89457  1.0000
  C   C1186     1.0  0.13614  0.86945  0.88866  1.0000
  C   C1187     1.0  0.04669  0.69294  0.84811  1.0000
  C   C1188     1.0  0.15114  0.86057  0.87877  1.0000
  C   C1189     1.0  0.06168  0.69677  0.89346  1.0000
  H   H935      1.0  0.39841  0.93448  0.77633  1.0000
  H   H936      1.0  0.03901  0.57781  0.86310  1.0000
  H   H937      1.0  0.04930  0.78689  0.94994  1.0000
  H   H938      1.0  0.13114  0.90430  0.84720  1.0000
  H   H939      1.0  0.03547  0.75513  0.91856  1.0000
  C   C1190     1.0  0.29754  0.97006  0.87340  1.0000
  H   H940      1.0  0.15800  0.88879  0.83009  1.0000
  H   H941      1.0  0.17285  0.75437  0.84485  1.0000
  C   C1191     1.0  0.28115  0.97390  0.88694  1.0000
  H   H942      1.0  0.05925  0.49912  0.78106  1.0000
  H   H943      1.0  0.11727  0.89221  0.88424  1.0000
  H   H944      1.0  0.01767  0.63755  0.86089  1.0000
  H   H945      1.0  0.06704  0.85996  0.99128  1.0000
  H   H946      1.0  0.45967  0.96641  0.87768  1.0000
  H   H947      1.0  0.04406  0.72223  0.86818  1.0000
  C   C1192     1.0  0.28344  0.98344  0.79375  1.0000
  H   H948      1.0  0.14109  0.93832  0.96166  1.0000
  H   H949      1.0  0.01791  0.67165  0.79841  1.0000
  C   C1193     1.0  0.12049  0.71715  0.87541  1.0000
  H   H950      1.0  0.17054  0.83194  0.96723  1.0000
  C   C1194     1.0  0.07736  0.72315  0.90229  1.0000
  C   C1195     1.0  0.04052  0.67750  0.90496  1.0000
  H   H951      1.0  0.27117  0.98343  0.88072  1.0000
  H   H952      1.0  0.11588  0.70998  0.89160  1.0000
  H   H953      1.0  0.01865  0.66964  0.93357  1.0000
  H   H954      1.0  0.08513  0.61412  0.86853  1.0000
  C   C1196     1.0  0.12881  0.88510  0.87706  1.0000
  C   C1197     1.0  0.17287  0.84685  0.95578  1.0000
  C   C1198     1.0  0.44714  0.55554  0.76816  1.0000
  H   H955      1.0  0.15699  0.84846  0.88743  1.0000
  H   H956      1.0  0.13241  0.82623  0.94745  1.0000
  C   C1199     1.0  0.07749  0.64655  0.86792  1.0000
  C   C1200     1.0  0.07235  0.72984  0.92250  1.0000
  C   C1201     1.0  0.03885  0.71131  0.85293  1.0000
  C   C1202     1.0  0.01583  0.70080  0.81863  1.0000
  H   H957      1.0  0.46333  0.57600  0.77127  1.0000
  C   C1203     1.0  0.41834  0.51003  0.78029  1.0000
  H   H958      1.0  0.46124  0.83492  0.76732  1.0000
  C   C1204     1.0  0.48535  0.52375  0.77478  1.0000
  C   C1205     1.0  0.10310  0.91744  0.94651  1.0000
  P   P43       1.0  0.44172  0.88969  0.74567  1.0000
  C   C1206     1.0  0.46246  0.87595  0.80494  1.0000
  C   C1207     1.0  0.15489  0.84431  0.78579  1.0000
  H   H959      1.0  0.48197  0.90202  0.77925  1.0000
  C   C1208     1.0  0.41615  0.84619  0.80036  1.0000
  S   S154      1.0  0.03617  0.80155  0.99183  1.0000
  C   C1209     1.0  0.46345  0.88626  0.78466  1.0000
  C   C1210     1.0  0.41742  0.91508  0.76312  1.0000
  H   H960      1.0  0.33045  0.97396  0.75228  1.0000
  H   H961      1.0  0.08171  0.79510  0.99210  1.0000
  C   C1211     1.0  0.08863  0.81650  0.99175  1.0000
  C   C1212     1.0  0.42217  0.95656  0.75008  1.0000
  C   C1213     1.0  0.41124  0.93515  0.76418  1.0000
  H   H962      1.0  0.44877  0.99044  0.85090  1.0000
  S   S155      1.0  0.15977  0.88735  0.98963  1.0000
  H   H963      1.0  0.41802  0.97254  0.75151  1.0000
  S   S156      1.0  0.43876  0.99085  0.79971  1.0000
  C   C1214     1.0  0.11558  0.83581  0.99127  1.0000
  C   C1215     1.0  0.12530  0.86391  0.99062  1.0000
  H   H964      1.0  0.12901  0.82888  0.99133  1.0000
  H   H965      1.0  0.11425  0.89364  0.99058  1.0000
  C   C1216     1.0  0.07071  0.82489  0.99168  1.0000
  C   C1217     1.0  0.05729  0.66220  0.74576  1.0000
  C   C1218     1.0  0.10740  0.87227  0.99080  1.0000
  C   C1219     1.0  0.43447  0.54811  0.74807  1.0000
  Fe  Fe77      1.0  0.94164  0.32740  0.19985  1.0000
  S   S157      1.0  0.95267  0.35195  0.16968  1.0000
  S   S158      1.0  0.89850  0.29816  0.20611  1.0000
  H   H966      1.0  0.67371  0.03856  0.22626  1.0000
  H   H967      1.0  0.86463  0.11378  0.06752  1.0000
  S   S159      1.0  0.98420  0.19631  0.01739  1.0000
  H   H968      1.0  0.84570  0.25722  0.21411  1.0000
  H   H969      1.0  0.92505  0.19409  0.05069  1.0000
  S   S160      1.0  0.97070  0.36282  0.22065  1.0000
  S   S161      1.0  0.63655  0.05129  0.20733  1.0000
  H   H970      1.0  0.51640  0.36988  0.17554  1.0000
  H   H971      1.0  0.49354  0.41922  0.20595  1.0000
  C   C1220     1.0  0.68635  0.02862  0.16355  1.0000
  C   C1221     1.0  0.87408  0.46420  0.18656  1.0000
  Fe  Fe78      1.0  0.76829  0.00736  0.99622  1.0000
  C   C1222     1.0  0.98696  0.30559  0.11101  1.0000
  H   H972      1.0  0.81540  0.06421  0.17470  1.0000
  C   C1223     1.0  0.87049  0.18542  0.07799  1.0000
  C   C1224     1.0  0.96970  0.25883  0.09847  1.0000
  H   H973      1.0  0.97724  0.40186  0.13784  1.0000
  C   C1225     1.0  0.77346  0.43935  0.13430  1.0000
  P   P44       1.0  0.72080  0.01067  0.16155  1.0000
  H   H974      1.0  0.54193  0.07378  0.17457  1.0000
  H   H975      1.0  0.74099  0.01601  0.07234  1.0000
  C   C1226     1.0  0.52715  0.06144  0.16249  1.0000
  H   H976      1.0  0.78741  0.44812  0.18785  1.0000
  C   C1227     1.0  0.85417  0.46931  0.18305  1.0000
  C   C1228     1.0  0.79374  0.46412  0.12740  1.0000
  H   H977      1.0  0.97629  0.34863  0.07441  1.0000
  H   H978      1.0  0.88728  0.15995  0.01331  1.0000
  C   C1229     1.0  0.98679  0.45458  0.18446  1.0000
  Fe  Fe79      1.0  0.98129  0.33858  0.16476  1.0000
  C   C1230     1.0  0.83928  0.07190  0.99873  1.0000
  H   H979      1.0  0.91086  0.22501  0.11943  1.0000
  H   H980      1.0  0.87797  0.29577  0.05859  1.0000
  C   C1231     1.0  0.85928  0.08746  0.01412  1.0000
  S   S162      1.0  0.80953  0.04277  0.00715  1.0000
  C   C1232     1.0  0.93540  0.27046  0.04105  1.0000
  C   C1233     1.0  0.66366  0.06908  0.22557  1.0000
  H   H981      1.0  0.68956  0.08448  0.18549  1.0000
  H   H982      1.0  0.75952  0.42451  0.12273  1.0000
  H   H983      1.0  0.95736  0.18136  0.05743  1.0000
  H   H984      1.0  0.92350  0.37379  0.22846  1.0000
  C   C1234     1.0  0.90317  0.12144  0.06840  1.0000
  C   C1235     1.0  0.85567  0.26416  0.22955  1.0000
  C   C1236     1.0  0.88220  0.28430  0.23051  1.0000
  C   C1237     1.0  0.83719  0.13483  0.05175  1.0000
  H   H985      1.0  0.87153  0.44498  0.18148  1.0000
  C   C1238     1.0  0.86682  0.28461  0.13326  1.0000
  C   C1239     1.0  0.85774  0.49457  0.18906  1.0000
  C   C1240     1.0  0.79715  0.04768  0.18010  1.0000
  C   C1241     1.0  0.92727  0.30265  0.07007  1.0000
  C   C1242     1.0  0.97596  0.36027  0.08794  1.0000
  H   H986      1.0  0.65946  0.10375  0.22813  1.0000
  C   C1243     1.0  0.90354  0.33498  0.07404  1.0000
  H   H987      1.0  0.85234  0.31064  0.03842  1.0000
  H   H988      1.0  0.94564  0.30221  0.01876  1.0000
  H   H989      1.0  0.78659  0.08926  0.08119  1.0000
  C   C1244     1.0  0.50976  0.02580  0.13511  1.0000
  C   C1245     1.0  0.87916  0.29729  0.11448  1.0000
  C   C1246     1.0  0.78939  0.08577  0.04715  1.0000
  C   C1247     1.0  0.91544  0.38137  0.21687  1.0000
  H   H990      1.0  0.82885  0.13201  0.08554  1.0000
  H   H991      1.0  0.86841  0.21444  0.04408  1.0000
  H   H992      1.0  0.73312  0.09438  0.19658  1.0000
  C   C1248     1.0  0.92361  0.27771  0.07629  1.0000
  C   C1249     1.0  0.51847  0.43285  0.15275  1.0000
  C   C1250     1.0  0.90591  0.28746  0.14647  1.0000
  H   H993      1.0  0.86300  0.35815  0.04215  1.0000
  P   P45       1.0  0.92233  0.32387  0.08846  1.0000
  C   C1251     1.0  0.97248  0.27773  0.11461  1.0000
  H   H994      1.0  0.50596  0.08129  0.16738  1.0000
  H   H995      1.0  0.90668  0.34960  0.19368  1.0000
  H   H996      1.0  0.79556  0.46847  0.11049  1.0000
  H   H997      1.0  0.88795  0.36595  0.16668  1.0000
  C   C1252     1.0  0.54604  0.48291  0.19534  1.0000
  H   H998      1.0  0.89815  0.12194  0.02043  1.0000
  H   H999      1.0  0.83983  0.12966  0.01756  1.0000
  H   H1000     1.0  0.56610  0.03280  0.20081  1.0000
  H   H1001     1.0  0.63845  0.99948  0.24276  1.0000
  C   C1253     1.0  0.79661  0.03364  0.19828  1.0000
  C   C1254     1.0  0.54322  0.04241  0.22086  1.0000
  C   C1255     1.0  0.96134  0.44502  0.17740  1.0000
  C   C1256     1.0  0.90510  0.30530  0.11164  1.0000
  H   H1002     1.0  0.91644  0.28422  0.15912  1.0000
  C   C1257     1.0  0.84978  0.18915  0.08176  1.0000
  C   C1258     1.0  0.92933  0.14034  0.06553  1.0000
  H   H1003     1.0  0.88595  0.40696  0.17467  1.0000
  C   C1259     1.0  0.90343  0.41356  0.20630  1.0000
  C   C1260     1.0  0.51649  0.38716  0.16919  1.0000
  H   H1004     1.0  0.71682  0.03615  0.08663  1.0000
  H   H1005     1.0  0.51088  0.01020  0.12627  1.0000
  H   H1006     1.0  0.91826  0.27075  0.09237  1.0000
  H   H1007     1.0  0.96360  0.27074  0.12989  1.0000
  H   H1008     1.0  0.93827  0.30620  0.12593  1.0000
  C   C1261     1.0  0.78923  0.45289  0.17103  1.0000
  H   H1009     1.0  0.66309  0.00868  0.06327  1.0000
  H   H1010     1.0  0.90244  0.43141  0.20947  1.0000
  C   C1262     1.0  0.95342  0.36799  0.11607  1.0000
  C   C1263     1.0  0.71125  0.03435  0.16924  1.0000
  H   H1011     1.0  0.70736  0.03367  0.12487  1.0000
  C   C1264     1.0  0.77413  0.04054  0.16896  1.0000
  H   H1012     1.0  0.87099  0.27078  0.16415  1.0000
  C   C1265     1.0  0.73763  0.01552  0.08938  1.0000
  Fe  Fe80      1.0  0.61471  0.00796  0.19281  1.0000
  H   H1013     1.0  0.95866  0.23742  0.10158  1.0000
  C   C1266     1.0  0.87423  0.35166  0.05107  1.0000
  C   C1267     1.0  0.85108  0.20560  0.09899  1.0000
  C   C1268     1.0  0.87306  0.21848  0.11257  1.0000
  C   C1269     1.0  0.71852  0.02527  0.11923  1.0000
  H   H1014     1.0  0.52720  0.46887  0.18811  1.0000
  C   C1270     1.0  0.82202  0.12289  0.06968  1.0000
  H   H1015     1.0  0.94362  0.13469  0.06791  1.0000
  C   C1271     1.0  0.89481  0.37010  0.06460  1.0000
  H   H1016     1.0  0.94828  0.42353  0.17449  1.0000
  C   C1272     1.0  0.80445  0.09737  0.02931  1.0000
  C   C1273     1.0  0.67834  0.05817  0.23246  1.0000
  C   C1274     1.0  0.88283  0.31658  0.06039  1.0000
  C   C1275     1.0  0.67872  0.04681  0.16923  1.0000
  C   C1276     1.0  0.49643  0.41338  0.16304  1.0000
  C   C1277     1.0  0.53862  0.40683  0.15905  1.0000
  C   C1278     1.0  0.53958  0.42961  0.15077  1.0000
  C   C1279     1.0  0.97229  0.42415  0.24071  1.0000
  C   C1280     1.0  0.67057  0.09502  0.23338  1.0000
  C   C1281     1.0  0.91431  0.40454  0.22160  1.0000
  H   H1017     1.0  0.65948  0.04232  0.16492  1.0000
  C   C1282     1.0  0.57587  0.03376  0.23424  1.0000
  H   H1018     1.0  0.75561  0.41445  0.16143  1.0000
  H   H1019     1.0  0.83630  0.45370  0.17534  1.0000
  H   H1020     1.0  0.55508  0.40441  0.15757  1.0000
  H   H1021     1.0  0.54396  0.03762  0.15443  1.0000
  C   C1283     1.0  0.93912  0.29525  0.03473  1.0000
  H   H1022     1.0  0.51919  0.45058  0.14646  1.0000
  C   C1284     1.0  0.91826  0.30005  0.12772  1.0000
  C   C1285     1.0  0.69572  0.07065  0.18083  1.0000
  H   H1023     1.0  0.74722  0.06302  0.18628  1.0000
  C   C1286     1.0  0.89243  0.15507  0.05889  1.0000
  C   C1287     1.0  0.79814  0.09854  0.06733  1.0000
  C   C1288     1.0  0.88026  0.27990  0.14932  1.0000
  H   H1024     1.0  0.87829  0.24017  0.01104  1.0000
  H   H1025     1.0  0.98285  0.26847  0.21250  1.0000
  C   C1289     1.0  0.80942  0.47801  0.16425  1.0000
  H   H1026     1.0  0.55670  0.44481  0.14288  1.0000
  H   H1027     1.0  0.84698  0.27890  0.13562  1.0000
  C   C1290     1.0  0.49474  0.13384  0.11938  1.0000
  C   C1291     1.0  0.72031  0.07623  0.18700  1.0000
  C   C1292     1.0  0.91869  0.17378  0.05574  1.0000
  C   C1293     1.0  0.90586  0.36752  0.19716  1.0000
  H   H1028     1.0  0.89712  0.10101  0.07289  1.0000
  H   H1029     1.0  0.96873  0.42566  0.22392  1.0000
  H   H1030     1.0  0.83273  0.17953  0.07122  1.0000
  C   C1294     1.0  0.88483  0.17715  0.01301  1.0000
  H   H1031     1.0  0.77483  0.05178  0.15501  1.0000
  H   H1032     1.0  0.93585  0.36245  0.12430  1.0000
  H   H1033     1.0  0.92537  0.37659  0.08627  1.0000
  C   C1295     1.0  0.89516  0.37667  0.18199  1.0000
  P   P46       1.0  0.86900  0.16505  0.05506  1.0000
  C   C1296     1.0  0.87685  0.18495  0.03123  1.0000
  C   C1297     1.0  0.87433  0.20771  0.03034  1.0000
  C   C1298     1.0  0.92741  0.26161  0.06171  1.0000
  H   H1034     1.0  0.86851  0.30124  0.10254  1.0000
  H   H1035     1.0  0.90887  0.19617  0.08936  1.0000
  H   H1036     1.0  0.89954  0.39089  0.06616  1.0000
  H   H1037     1.0  0.77116  0.06661  0.04530  1.0000
  Fe  Fe81      1.0  0.98346  0.38659  0.19025  1.0000
  C   C1299     1.0  0.88308  0.11050  0.00838  1.0000
  C   C1300     1.0  0.90944  0.36185  0.07605  1.0000
  H   H1038     1.0  0.93921  0.25829  0.03012  1.0000
  C   C1301     1.0  0.93707  0.16655  0.05940  1.0000
  H   H1039     1.0  0.87409  0.23124  0.12591  1.0000
  C   C1302     1.0  0.88476  0.12879  0.06525  1.0000
  C   C1303     1.0  0.72716  0.01266  0.13322  1.0000
  H   H1040     1.0  0.83504  0.20838  0.10182  1.0000
  C   C1304     1.0  0.72814  0.05824  0.18118  1.0000
  S   S163      1.0  0.97586  0.24216  0.05829  1.0000
  C   C1305     1.0  0.53854  0.04707  0.24183  1.0000
  C   C1306     1.0  0.77125  0.43371  0.15610  1.0000
  C   C1307     1.0  0.89373  0.21487  0.10898  1.0000
  C   C1308     1.0  0.95279  0.35276  0.09808  1.0000
  H   H1041     1.0  0.91336  0.48064  0.19822  1.0000
  C   C1309     1.0  0.49722  0.13173  0.09735  1.0000
  C   C1310     1.0  0.52848  0.04133  0.15102  1.0000
  C   C1311     1.0  0.95808  0.47572  0.23566  1.0000
  H   H1042     1.0  0.67283  0.01011  0.15466  1.0000
  C   C1312     1.0  0.81174  0.48335  0.14228  1.0000
  C   C1313     1.0  0.86824  0.32491  0.04897  1.0000
  H   H1043     1.0  0.93338  0.45565  0.16775  1.0000
  C   C1314     1.0  0.89247  0.19837  0.09182  1.0000
  Fe  Fe82      1.0  0.98331  0.23463  0.02311  1.0000
  C   C1315     1.0  0.50671  0.06558  0.15841  1.0000
  C   C1316     1.0  0.93498  0.31126  0.04913  1.0000
  C   C1317     1.0  0.98093  0.26730  0.07830  1.0000
  H   H1044     1.0  0.79798  0.08703  0.01376  1.0000
  H   H1045     1.0  0.81444  0.03926  0.20697  1.0000
  C   C1318     1.0  0.82826  0.12172  0.03157  1.0000
  H   H1046     1.0  0.64117  0.99887  0.09816  1.0000
  H   H1047     1.0  0.85638  0.08161  0.03066  1.0000
  H   H1048     1.0  0.93819  0.33056  0.04405  1.0000
  H   H1049     1.0  0.92523  0.24270  0.06661  1.0000
  S   S164      1.0  0.60237  0.00280  0.15774  1.0000
  H   H1050     1.0  0.59046  0.02897  0.23090  1.0000
  H   H1051     1.0  0.53229  0.04377  0.20753  1.0000
  H   H1052     1.0  0.50146  0.15347  0.12696  1.0000
  S   S165      1.0  0.96823  0.31196  0.19352  1.0000
  C   C1319     1.0  0.89394  0.39967  0.18655  1.0000
  C   C1320     1.0  0.95297  0.46335  0.17359  1.0000
  C   C1321     1.0  0.56210  0.03606  0.21707  1.0000
  H   H1053     1.0  0.82164  0.00075  0.01547  1.0000
  C   C1322     1.0  0.49504  0.39013  0.17111  1.0000
  H   H1054     1.0  0.49106  0.10484  0.07060  1.0000
  H   H1055     1.0  0.97535  0.26442  0.17302  1.0000
  C   C1323     1.0  0.89761  0.48420  0.19608  1.0000
  C   C1324     1.0  0.77305  0.01241  0.20531  1.0000
  C   C1325     1.0  0.97680  0.39038  0.12376  1.0000
  H   H1056     1.0  0.97119  0.46977  0.22998  1.0000
  C   C1326     1.0  0.96975  0.49155  0.17689  1.0000
  H   H1057     1.0  0.50576  0.14972  0.08781  1.0000
  H   H1058     1.0  0.53193  0.47589  0.22710  1.0000
  C   C1327     1.0  0.75036  0.01925  0.17594  1.0000
  C   C1328     1.0  0.72398  0.02690  0.09746  1.0000
  C   C1329     1.0  0.54885  0.48693  0.21757  1.0000
  C   C1330     1.0  0.50340  0.49448  0.16871  1.0000
  C   C1331     1.0  0.87985  0.22239  0.01155  1.0000
  C   C1332     1.0  0.74999  0.00521  0.19421  1.0000
  C   C1333     1.0  0.74612  0.00275  0.10313  1.0000
  H   H1059     1.0  0.76058  0.49539  0.22417  1.0000
  C   C1334     1.0  0.93455  0.45678  0.24470  1.0000
  H   H1060     1.0  0.56492  0.49531  0.16516  1.0000
  C   C1335     1.0  0.48937  0.02995  0.13092  1.0000
  C   C1336     1.0  0.74097  0.00136  0.12497  1.0000
  H   H1061     1.0  0.77263  0.00157  0.21944  1.0000
  H   H1062     1.0  0.52419  0.05243  0.24472  1.0000
  S   S166      1.0  0.95414  0.22467  0.99604  1.0000
  C   C1337     1.0  0.95469  0.42200  0.25591  1.0000
  H   H1063     1.0  0.49014  0.28946  0.34114  1.0000
  S   S167      1.0  0.71847  0.46053  0.30357  1.0000
  Fe  Fe83      1.0  0.65945  0.28549  0.39130  1.0000
  S   S168      1.0  0.66955  0.31977  0.41501  1.0000
  S   S169      1.0  0.68803  0.27079  0.39058  1.0000
  Fe  Fe84      1.0  0.61146  0.28509  0.37421  1.0000
  S   S170      1.0  0.61859  0.31937  0.39631  1.0000
  S   S171      1.0  0.58082  0.26687  0.34689  1.0000
  Fe  Fe85      1.0  0.66043  0.33902  0.38793  1.0000
  S   S172      1.0  0.68796  0.38462  0.38447  1.0000
  Fe  Fe86      1.0  0.62734  0.29795  0.42195  1.0000
  S   S173      1.0  0.61037  0.29747  0.45461  1.0000
  S   S174      1.0  0.65301  0.30636  0.36409  1.0000
  S   S175      1.0  0.61739  0.26192  0.40019  1.0000
  Fe  Fe87      1.0  0.74290  0.20071  0.31394  1.0000
  S   S176      1.0  0.73091  0.15848  0.32341  1.0000
  S   S177      1.0  0.71293  0.21353  0.31428  1.0000
  Fe  Fe88      1.0  0.79698  0.21378  0.30145  1.0000
  S   S178      1.0  0.78847  0.17226  0.31064  1.0000
  S   S179      1.0  0.83794  0.24836  0.29305  1.0000
  Fe  Fe89      1.0  0.74966  0.15619  0.29346  1.0000
  S   S180      1.0  0.73256  0.11599  0.27411  1.0000
  Fe  Fe90      1.0  0.77013  0.17715  0.33999  1.0000
  S   S181      1.0  0.76876  0.16366  0.37475  1.0000
  S   S182      1.0  0.75936  0.19741  0.28255  1.0000
  S   S183      1.0  0.78091  0.21972  0.33219  1.0000
  Fe  Fe91      1.0  0.83961  0.12760  0.47189  1.0000
  S   S184      1.0  0.86587  0.11136  0.47784  1.0000
  S   S185      1.0  0.84011  0.14058  0.43708  1.0000
  H   H1064     1.0  0.79588  0.00446  0.45128  1.0000
  H   H1065     1.0  0.59833  0.43808  0.38311  1.0000
  H   H1066     1.0  0.58146  0.42833  0.30658  1.0000
  C   C1338     1.0  0.50456  0.23367  0.33027  1.0000
  H   H1067     1.0  0.75837  0.44486  0.28439  1.0000
  C   C1339     1.0  0.68946  0.99831  0.45114  1.0000
  H   H1068     1.0  0.67969  0.09227  0.30284  1.0000
  H   H1069     1.0  0.50020  0.21716  0.42546  1.0000
  H   H1070     1.0  0.73043  0.36056  0.27245  1.0000
  C   C1340     1.0  0.51714  0.35856  0.30978  1.0000
  H   H1071     1.0  0.94657  0.41813  0.28979  1.0000
  C   C1341     1.0  0.85435  0.26149  0.26855  1.0000
  H   H1072     1.0  0.64027  0.44577  0.40063  1.0000
  H   H1073     1.0  0.97753  0.27294  0.41773  1.0000
  C   C1342     1.0  0.78922  0.15780  0.39181  1.0000
  C   C1343     1.0  0.78224  0.15073  0.41319  1.0000
  C   C1344     1.0  0.79741  0.14532  0.42730  1.0000
  C   C1345     1.0  0.81994  0.14706  0.42020  1.0000
  C   C1346     1.0  0.82696  0.15418  0.39884  1.0000
  C   C1347     1.0  0.81176  0.15955  0.38474  1.0000
  H   H1074     1.0  0.76479  0.14918  0.41879  1.0000
  H   H1075     1.0  0.79169  0.13985  0.44361  1.0000
  H   H1076     1.0  0.84423  0.15540  0.39311  1.0000
  H   H1077     1.0  0.81737  0.16481  0.36835  1.0000
  C   C1348     1.0  0.70681  0.23033  0.33535  1.0000
  C   C1349     1.0  0.68371  0.23055  0.33460  1.0000
  C   C1350     1.0  0.67778  0.24307  0.35119  1.0000
  C   C1351     1.0  0.69513  0.25601  0.36857  1.0000
  C   C1352     1.0  0.71848  0.25630  0.36904  1.0000
  C   C1353     1.0  0.72429  0.24350  0.35262  1.0000
  H   H1078     1.0  0.67008  0.22050  0.32129  1.0000
  H   H1079     1.0  0.65962  0.24237  0.35070  1.0000
  H   H1080     1.0  0.73221  0.26656  0.38216  1.0000
  H   H1081     1.0  0.74222  0.24371  0.35337  1.0000
  C   C1354     1.0  0.62487  0.29882  0.48007  1.0000
  C   C1355     1.0  0.64501  0.29384  0.48224  1.0000
  H   H1082     1.0  0.55819  0.45429  0.25530  1.0000
  H   H1083     1.0  0.65246  0.28954  0.46813  1.0000
  H   H1084     1.0  0.50288  0.25632  0.38030  1.0000
  C   C1356     1.0  0.70982  0.43968  0.32625  1.0000
  C   C1357     1.0  0.69368  0.41139  0.32336  1.0000
  C   C1358     1.0  0.68667  0.39415  0.34095  1.0000
  C   C1359     1.0  0.69568  0.40510  0.36165  1.0000
  C   C1360     1.0  0.71172  0.43337  0.36451  1.0000
  C   C1361     1.0  0.71880  0.45058  0.34695  1.0000
  H   H1085     1.0  0.68679  0.40276  0.30739  1.0000
  H   H1086     1.0  0.67457  0.37245  0.33846  1.0000
  H   H1087     1.0  0.71889  0.44201  0.38044  1.0000
  H   H1088     1.0  0.73126  0.47227  0.34941  1.0000
  C   C1362     1.0  0.53103  0.24229  0.33021  1.0000
  C   C1363     1.0  0.54750  0.25600  0.34813  1.0000
  C   C1364     1.0  0.53715  0.26103  0.36618  1.0000
  C   C1365     1.0  0.51068  0.25248  0.36621  1.0000
  H   H1089     1.0  0.53877  0.23814  0.31622  1.0000
  H   H1090     1.0  0.54955  0.27149  0.38009  1.0000
  H   H1091     1.0  0.97409  0.19287  0.41796  1.0000
  H   H1092     1.0  0.83550  0.04714  0.44193  1.0000
  H   H1093     1.0  0.96405  0.14580  0.41572  1.0000
  C   C1366     1.0  0.76533  0.34070  0.29540  1.0000
  H   H1094     1.0  0.49904  0.46807  0.29999  1.0000
  C   C1367     1.0  0.66267  0.09167  0.29634  1.0000
  H   H1095     1.0  0.98289  0.29633  0.37741  1.0000
  P   P47       1.0  0.58832  0.03391  0.27751  1.0000
  C   C1368     1.0  0.61810  0.06598  0.28274  1.0000
  H   H1096     1.0  0.79835  0.34180  0.28197  1.0000
  H   H1097     1.0  0.49091  0.42177  0.29367  1.0000
  H   H1098     1.0  0.75016  0.26664  0.49027  1.0000
  C   C1369     1.0  0.52716  0.99739  0.31748  1.0000
  C   C1370     1.0  0.88320  0.40403  0.30140  1.0000
  H   H1099     1.0  0.71045  0.06416  0.25250  1.0000
  C   C1371     1.0  0.74506  0.40318  0.27596  1.0000
  C   C1372     1.0  0.66860  0.46073  0.34389  1.0000
  H   H1100     1.0  0.72692  0.28841  0.47639  1.0000
  H   H1101     1.0  0.63957  0.32563  0.29064  1.0000
  H   H1102     1.0  0.72186  0.48707  0.40212  1.0000
  H   H1103     1.0  0.95389  0.23941  0.35281  1.0000
  H   H1104     1.0  0.56033  0.23997  0.48241  1.0000
  H   H1105     1.0  0.91504  0.30848  0.25179  1.0000
  C   C1373     1.0  0.95510  0.17662  0.42218  1.0000
  C   C1374     1.0  0.91431  0.22165  0.36182  1.0000
  C   C1375     1.0  0.51200  0.46508  0.29027  1.0000
  C   C1376     1.0  0.73936  0.32435  0.30103  1.0000
  P   P48       1.0  0.72411  0.33953  0.31539  1.0000
  H   H1106     1.0  0.96958  0.23686  0.38896  1.0000
  H   H1107     1.0  0.68391  0.28607  0.32882  1.0000
  C   C1377     1.0  0.51255  0.29916  0.30288  1.0000
  H   H1108     1.0  0.78778  0.18635  0.46722  1.0000
  H   H1109     1.0  0.85097  0.36552  0.31057  1.0000
  H   H1110     1.0  0.53258  0.27809  0.29720  1.0000
  H   H1111     1.0  0.83314  0.08742  0.43298  1.0000
  C   C1378     1.0  0.52424  0.43523  0.27425  1.0000
  C   C1379     1.0  0.81701  0.04581  0.44140  1.0000
  C   C1380     1.0  0.52386  0.37896  0.32550  1.0000
  C   C1381     1.0  0.53371  0.36383  0.29268  1.0000
  C   C1382     1.0  0.94937  0.23007  0.38635  1.0000
  H   H1112     1.0  0.70760  0.35675  0.35291  1.0000
  H   H1113     1.0  0.98135  0.21463  0.45716  1.0000
  C   C1383     1.0  0.51597  0.27955  0.29287  1.0000
  H   H1114     1.0  0.73040  0.26271  0.28682  1.0000
  H   H1115     1.0  0.63653  0.25942  0.32334  1.0000
  H   H1116     1.0  0.55214  0.41963  0.33656  1.0000
  C   C1384     1.0  0.97628  0.16792  0.47488  1.0000
  C   C1385     1.0  0.73030  0.33937  0.34379  1.0000
  C   C1386     1.0  0.74500  0.32872  0.35156  1.0000
  C   C1387     1.0  0.74929  0.32840  0.37361  1.0000
  C   C1388     1.0  0.73905  0.33875  0.38803  1.0000
  C   C1389     1.0  0.72440  0.34929  0.38042  1.0000
  C   C1390     1.0  0.71961  0.34914  0.35844  1.0000
  C   C1391     1.0  0.68929  0.32035  0.31115  1.0000
  C   C1392     1.0  0.67462  0.29437  0.31946  1.0000
  C   C1393     1.0  0.64770  0.27932  0.31659  1.0000
  C   C1394     1.0  0.63506  0.29055  0.30617  1.0000
  C   C1395     1.0  0.64939  0.31670  0.29834  1.0000
  C   C1396     1.0  0.67637  0.33158  0.30080  1.0000
  C   C1397     1.0  0.55685  0.38885  0.29160  1.0000
  H   H1117     1.0  0.68191  0.13507  0.29450  1.0000
  H   H1118     1.0  0.74461  0.40604  0.25890  1.0000
  H   H1119     1.0  0.74187  0.33797  0.40512  1.0000
  H   H1120     1.0  0.71639  0.35725  0.39159  1.0000
  H   H1121     1.0  0.70784  0.12705  0.45319  1.0000
  C   C1398     1.0  0.66870  0.47559  0.38032  1.0000
  H   H1122     1.0  0.61412  0.27919  0.30477  1.0000
  H   H1123     1.0  0.63914  0.04832  0.29597  1.0000
  C   C1399     1.0  0.76935  0.18082  0.45968  1.0000
  C   C1400     1.0  0.49423  0.23880  0.34826  1.0000
  H   H1124     1.0  0.67713  0.46485  0.32824  1.0000
  C   C1401     1.0  0.72200  0.16621  0.43964  1.0000
  C   C1402     1.0  0.74342  0.19248  0.43738  1.0000
  C   C1403     1.0  0.76706  0.19973  0.44770  1.0000
  P   P49       1.0  0.74052  0.21700  0.42192  1.0000
  C   C1404     1.0  0.73594  0.23933  0.43939  1.0000
  C   C1405     1.0  0.76944  0.23687  0.40693  1.0000
  C   C1406     1.0  0.77707  0.26324  0.40092  1.0000
  C   C1407     1.0  0.79821  0.27763  0.38777  1.0000
  C   C1408     1.0  0.81188  0.26583  0.38058  1.0000
  C   C1409     1.0  0.80459  0.23975  0.38672  1.0000
  C   C1410     1.0  0.78352  0.22537  0.39984  1.0000
  C   C1411     1.0  0.72329  0.25222  0.43163  1.0000
  C   C1412     1.0  0.71994  0.26968  0.44496  1.0000
  C   C1413     1.0  0.72951  0.27479  0.46611  1.0000
  C   C1414     1.0  0.74249  0.26243  0.47393  1.0000
  C   C1415     1.0  0.74565  0.24471  0.46066  1.0000
  C   C1416     1.0  0.71384  0.19924  0.40263  1.0000
  C   C1417     1.0  0.71773  0.19106  0.38247  1.0000
  C   C1418     1.0  0.69749  0.17884  0.36711  1.0000
  C   C1419     1.0  0.67325  0.17458  0.37171  1.0000
  C   C1420     1.0  0.66893  0.18172  0.39197  1.0000
  C   C1421     1.0  0.68901  0.19361  0.40749  1.0000
  H   H1125     1.0  0.74993  0.14001  0.47082  1.0000
  H   H1126     1.0  0.77585  0.29189  0.27635  1.0000
  C   C1422     1.0  0.86504  0.36264  0.27988  1.0000
  H   H1127     1.0  0.70354  0.16013  0.43195  1.0000
  H   H1128     1.0  0.78383  0.21990  0.44627  1.0000
  H   H1129     1.0  0.76648  0.27254  0.40598  1.0000
  H   H1130     1.0  0.80366  0.29773  0.38280  1.0000
  H   H1131     1.0  0.82782  0.27664  0.36993  1.0000
  H   H1132     1.0  0.81470  0.23019  0.38076  1.0000
  H   H1133     1.0  0.77776  0.20491  0.40388  1.0000
  H   H1134     1.0  0.71583  0.24878  0.41529  1.0000
  H   H1135     1.0  0.70987  0.27924  0.43873  1.0000
  C   C1423     1.0  0.76571  0.30103  0.28304  1.0000
  H   H1136     1.0  0.68785  0.01148  0.46265  1.0000
  H   H1137     1.0  0.75579  0.23544  0.46705  1.0000
  H   H1138     1.0  0.73642  0.19452  0.37827  1.0000
  H   H1139     1.0  0.70090  0.17362  0.35130  1.0000
  H   H1140     1.0  0.65798  0.16613  0.35943  1.0000
  H   H1141     1.0  0.65018  0.17864  0.39546  1.0000
  H   H1142     1.0  0.68521  0.19899  0.42306  1.0000
  C   C1424     1.0  0.61615  0.33952  0.33833  1.0000
  C   C1425     1.0  0.59872  0.33390  0.32125  1.0000
  C   C1426     1.0  0.58592  0.34809  0.31973  1.0000
  C   C1427     1.0  0.58981  0.36713  0.33575  1.0000
  C   C1428     1.0  0.60640  0.37190  0.35351  1.0000
  C   C1429     1.0  0.62031  0.35877  0.35422  1.0000
  P   P50       1.0  0.61077  0.39572  0.37465  1.0000
  C   C1430     1.0  0.58069  0.39480  0.37753  1.0000
  C   C1431     1.0  0.61841  0.38541  0.39961  1.0000
  C   C1432     1.0  0.64431  0.39608  0.40615  1.0000
  C   C1433     1.0  0.65046  0.38734  0.42484  1.0000
  C   C1434     1.0  0.63083  0.36789  0.43724  1.0000
  C   C1435     1.0  0.60500  0.35724  0.43099  1.0000
  C   C1436     1.0  0.59876  0.36586  0.41224  1.0000
  C   C1437     1.0  0.58053  0.41859  0.38186  1.0000
  C   C1438     1.0  0.55716  0.41739  0.38485  1.0000
  C   C1439     1.0  0.53380  0.39249  0.38351  1.0000
  C   C1440     1.0  0.53376  0.36877  0.37898  1.0000
  C   C1441     1.0  0.55705  0.36990  0.37590  1.0000
  C   C1442     1.0  0.63711  0.42927  0.36859  1.0000
  C   C1443     1.0  0.64777  0.43489  0.34817  1.0000
  H   H1143     1.0  0.93458  0.14557  0.47740  1.0000
  C   C1444     1.0  0.75347  0.42148  0.31228  1.0000
  C   C1445     1.0  0.92482  0.12853  0.42560  1.0000
  C   C1446     1.0  0.67909  0.48103  0.35995  1.0000
  H   H1144     1.0  0.62621  0.32866  0.33940  1.0000
  H   H1145     1.0  0.59519  0.31850  0.30928  1.0000
  H   H1146     1.0  0.57291  0.34418  0.30619  1.0000
  H   H1147     1.0  0.57973  0.37791  0.33436  1.0000
  H   H1148     1.0  0.63425  0.36321  0.36711  1.0000
  H   H1149     1.0  0.65992  0.41042  0.39642  1.0000
  H   H1150     1.0  0.67051  0.39485  0.42920  1.0000
  H   H1151     1.0  0.63561  0.36035  0.45129  1.0000
  H   H1152     1.0  0.58992  0.34150  0.44033  1.0000
  H   H1153     1.0  0.57866  0.35662  0.40750  1.0000
  C   C1447     1.0  0.61676  0.01430  0.25847  1.0000
  C   C1448     1.0  0.64252  0.11522  0.28238  1.0000
  H   H1154     1.0  0.51124  0.37570  0.33856  1.0000
  H   H1155     1.0  0.54885  0.04906  0.27515  1.0000
  H   H1156     1.0  0.55663  0.35123  0.37257  1.0000
  H   H1157     1.0  0.64056  0.41935  0.33561  1.0000
  C   C1449     1.0  0.94939  0.14991  0.42066  1.0000
  C   C1450     1.0  0.54986  0.48364  0.26832  1.0000
  H   H1158     1.0  0.53235  0.29416  0.48809  1.0000
  C   C1451     1.0  0.49752  0.26118  0.27784  1.0000
  C   C1452     1.0  0.64783  0.44982  0.38465  1.0000
  C   C1453     1.0  0.49067  0.30065  0.29783  1.0000
  H   H1159     1.0  0.49312  0.28671  0.43400  1.0000
  H   H1160     1.0  0.52695  0.00266  0.35168  1.0000
  C   C1454     1.0  0.88321  0.37651  0.26424  1.0000
  H   H1161     1.0  0.55722  0.43580  0.38843  1.0000
  S   S186      1.0  0.80780  0.09503  0.49119  1.0000
  C   C1455     1.0  0.56892  0.02404  0.30107  1.0000
  H   H1162     1.0  0.97225  0.29947  0.33940  1.0000
  H   H1163     1.0  0.70726  0.28263  0.30236  1.0000
  C   C1456     1.0  0.97663  0.24064  0.43546  1.0000
  C   C1457     1.0  0.95971  0.41986  0.27763  1.0000
  H   H1164     1.0  0.52869  0.34869  0.28004  1.0000
  C   C1458     1.0  0.63976  0.06681  0.29211  1.0000
  C   C1459     1.0  0.56351  0.40892  0.30744  1.0000
  H   H1165     1.0  0.55014  0.27194  0.46600  1.0000
  C   C1460     1.0  0.90136  0.23098  0.48415  1.0000
  H   H1166     1.0  0.71338  0.47802  0.44076  1.0000
  H   H1167     1.0  0.88333  0.41461  0.31591  1.0000
  H   H1168     1.0  0.60085  0.04965  0.32325  1.0000
  C   C1461     1.0  0.54700  0.40398  0.32435  1.0000
  C   C1462     1.0  0.73682  0.37350  0.30586  1.0000
  H   H1169     1.0  0.52667  0.31276  0.31491  1.0000
  H   H1170     1.0  0.76171  0.06138  0.40165  1.0000
  C   C1463     1.0  0.54629  0.26724  0.48276  1.0000
  H   H1171     1.0  0.49214  0.22306  0.31640  1.0000
  C   C1464     1.0  0.66400  0.11585  0.29155  1.0000
  H   H1172     1.0  0.85127  0.34105  0.27774  1.0000
  C   C1465     1.0  0.73486  0.03646  0.48809  1.0000
  C   C1466     1.0  0.89471  0.29302  0.25068  1.0000
  H   H1173     1.0  0.89078  0.28879  0.28496  1.0000
  C   C1467     1.0  0.55241  0.04489  0.25905  1.0000
  H   H1174     1.0  0.90739  0.22247  0.34586  1.0000
  C   C1468     1.0  0.54540  0.45746  0.26511  1.0000
  C   C1469     1.0  0.58031  0.03509  0.32136  1.0000
  C   C1470     1.0  0.55206  0.24915  0.49204  1.0000
  C   C1471     1.0  0.57067  0.03740  0.25539  1.0000
  C   C1472     1.0  0.81570  0.06853  0.43653  1.0000
  H   H1175     1.0  0.77572  0.36239  0.29843  1.0000
  P   P51       1.0  0.94290  0.21629  0.42947  1.0000
  C   C1473     1.0  0.93638  0.18214  0.42909  1.0000
  C   C1474     1.0  0.92574  0.22130  0.45048  1.0000
  C   C1475     1.0  0.92501  0.21092  0.47078  1.0000
  C   C1476     1.0  0.69171  0.10982  0.24799  1.0000
  C   C1477     1.0  0.74551  0.39586  0.32009  1.0000
  H   H1176     1.0  0.75275  0.32009  0.34082  1.0000
  C   C1478     1.0  0.91474  0.23720  0.44733  1.0000
  C   C1479     1.0  0.91166  0.16054  0.43377  1.0000
  C   C1480     1.0  0.90592  0.13385  0.43193  1.0000
  C   C1481     1.0  0.61964  0.09041  0.27796  1.0000
  H   H1177     1.0  0.51574  0.39155  0.38605  1.0000
  C   C1482     1.0  0.77834  0.32910  0.28625  1.0000
  C   C1483     1.0  0.93205  0.21946  0.40317  1.0000
  C   C1484     1.0  0.90560  0.20888  0.39885  1.0000
  C   C1485     1.0  0.89685  0.21030  0.37832  1.0000
  H   H1178     1.0  0.64380  0.13404  0.27845  1.0000
  H   H1179     1.0  0.89337  0.25349  0.46146  1.0000
  H   H1180     1.0  0.60332  0.09043  0.27072  1.0000
  H   H1181     1.0  0.92038  0.10783  0.42445  1.0000
  H   H1182     1.0  0.62963  0.03487  0.25370  1.0000
  C   C1486     1.0  0.91300  0.21590  0.48755  1.0000
  C   C1487     1.0  0.95286  0.16146  0.48439  1.0000
  H   H1183     1.0  0.68680  0.35199  0.29504  1.0000
  H   H1184     1.0  0.93382  0.19908  0.47373  1.0000
  H   H1185     1.0  0.52055  0.26679  0.43017  1.0000
  H   H1186     1.0  0.74586  0.39382  0.33722  1.0000
  C   C1488     1.0  0.72689  0.29611  0.29774  1.0000
  H   H1187     1.0  0.57411  0.03606  0.35512  1.0000
  H   H1188     1.0  0.89668  0.16424  0.43859  1.0000
  H   H1189     1.0  0.88670  0.11730  0.43531  1.0000
  C   C1489     1.0  0.74801  0.15465  0.46167  1.0000
  H   H1190     1.0  0.97577  0.15685  0.46062  1.0000
  C   C1490     1.0  0.71205  0.00772  0.43954  1.0000
  H   H1191     1.0  0.89162  0.19916  0.41127  1.0000
  H   H1192     1.0  0.87641  0.20222  0.37514  1.0000
  H   H1193     1.0  0.89285  0.07441  0.49104  1.0000
  H   H1194     1.0  0.56962  0.39273  0.27843  1.0000
  C   C1491     1.0  0.73708  0.37750  0.28370  1.0000
  C   C1492     1.0  0.74600  0.08463  0.39013  1.0000
  C   C1493     1.0  0.72933  0.09396  0.39398  1.0000
  C   C1494     1.0  0.71544  0.08722  0.41279  1.0000
  C   C1495     1.0  0.71843  0.07136  0.42788  1.0000
  C   C1496     1.0  0.73578  0.06260  0.42445  1.0000
  C   C1497     1.0  0.74894  0.06865  0.40513  1.0000
  P   P52       1.0  0.73920  0.04184  0.44395  1.0000
  C   C1498     1.0  0.74006  0.05386  0.47097  1.0000
  H   H1195     1.0  0.75999  0.31950  0.37955  1.0000
  C   C1499     1.0  0.75300  0.42511  0.29027  1.0000
  H   H1196     1.0  0.49979  0.24549  0.27049  1.0000
  C   C1500     1.0  0.70608  0.09870  0.25522  1.0000
  C   C1501     1.0  0.94052  0.23133  0.36579  1.0000
  H   H1197     1.0  0.75926  0.43846  0.32335  1.0000
  H   H1198     1.0  0.76824  0.00874  0.38304  1.0000
  C   C1502     1.0  0.98836  0.26709  0.42788  1.0000
  C   C1503     1.0  0.50745  0.43901  0.28673  1.0000
  C   C1504     1.0  0.49966  0.25379  0.43002  1.0000
  C   C1505     1.0  0.74810  0.08108  0.47532  1.0000
  C   C1506     1.0  0.76942  0.04300  0.44195  1.0000
  C   C1507     1.0  0.79208  0.06728  0.43708  1.0000
  C   C1508     1.0  0.88085  0.28178  0.26950  1.0000
  H   H1199     1.0  0.75694  0.09021  0.37561  1.0000
  H   H1200     1.0  0.72747  0.10673  0.38244  1.0000
  H   H1201     1.0  0.70254  0.09451  0.41565  1.0000
  H   H1202     1.0  0.70740  0.06613  0.44231  1.0000
  C   C1509     1.0  0.59501  0.00776  0.27041  1.0000
  C   C1510     1.0  0.72434  0.14736  0.45169  1.0000
  C   C1511     1.0  0.90228  0.24169  0.46405  1.0000
  P   P53       1.0  0.92601  0.42197  0.24735  1.0000
  H   H1203     1.0  0.91597  0.43916  0.28872  1.0000
  C   C1512     1.0  0.77097  0.02035  0.44712  1.0000
  C   C1513     1.0  0.86496  0.37639  0.29841  1.0000
  H   H1204     1.0  0.91579  0.24619  0.43204  1.0000
  H   H1205     1.0  0.52084  0.41509  0.27154  1.0000
  C   C1514     1.0  0.91707  0.46482  0.25005  1.0000
  H   H1206     1.0  0.75391  0.09537  0.46255  1.0000
  H   H1207     1.0  0.79173  0.08550  0.43420  1.0000
  H   H1208     1.0  0.51572  0.34943  0.37799  1.0000
  C   C1515     1.0  0.98182  0.41950  0.28386  1.0000
  C   C1516     1.0  0.90154  0.41793  0.28586  1.0000
  C   C1517     1.0  0.53863  0.00858  0.33759  1.0000
  H   H1209     1.0  0.69681  0.12977  0.25374  1.0000
  C   C1518     1.0  0.54222  0.00504  0.29928  1.0000
  H   H1210     1.0  0.82155  0.23724  0.24727  1.0000
  C   C1519     1.0  0.74004  0.28458  0.28883  1.0000
  C   C1520     1.0  0.56519  0.02739  0.33952  1.0000
  C   C1521     1.0  0.90154  0.40435  0.26702  1.0000
  H   H1211     1.0  0.98540  0.41738  0.30056  1.0000
  H   H1212     1.0  0.67707  0.49132  0.39279  1.0000
  C   C1522     1.0  0.92988  0.07743  0.49148  1.0000
  H   H1213     1.0  0.72981  0.01574  0.48517  1.0000
  H   H1214     1.0  0.89809  0.45033  0.25568  1.0000
  H   H1215     1.0  0.92427  0.06211  0.47891  1.0000
  C   C1523     1.0  0.79464  0.02172  0.44662  1.0000
  C   C1524     1.0  0.92393  0.49180  0.24795  1.0000
  H   H1216     1.0  0.88303  0.36519  0.25023  1.0000
  C   C1525     1.0  0.53321  0.48738  0.28121  1.0000
  H   H1217     1.0  0.75418  0.00186  0.45228  1.0000
  C   C1526     1.0  0.69932  0.07286  0.24723  1.0000
  C   C1527     1.0  0.84187  0.25275  0.24837  1.0000
  H   H1218     1.0  0.53304  0.99604  0.28383  1.0000
  H   H1219     1.0  0.73013  0.99756  0.41471  1.0000
  C   C1528     1.0  0.53650  0.27989  0.49526  1.0000
  Fe  Fe92      1.0  0.75426  0.15198  0.70185  1.0000
  S   S187      1.0  0.75501  0.18903  0.71408  1.0000
  S   S188      1.0  0.73594  0.11086  0.71830  1.0000
  Fe  Fe93      1.0  0.78925  0.18291  0.66383  1.0000
  S   S189      1.0  0.79203  0.22220  0.67397  1.0000
  S   S190      1.0  0.81482  0.18320  0.63677  1.0000
  Fe  Fe94      1.0  0.79778  0.21232  0.70771  1.0000
  C   C1529     1.0  0.83656  0.36686  0.72770  1.0000
  Fe  Fe95      1.0  0.74932  0.19611  0.67956  1.0000
  S   S191      1.0  0.71615  0.20247  0.67041  1.0000
  S   S192      1.0  0.79745  0.17479  0.69750  1.0000
  S   S193      1.0  0.74611  0.15739  0.66739  1.0000
  H   H1220     1.0  0.85055  0.18386  0.60682  1.0000
  H   H1221     1.0  0.76758  0.49117  0.67951  1.0000
  C   C1530     1.0  0.82077  0.46749  0.74315  1.0000
  Fe  Fe96      1.0  0.65089  0.30381  0.58175  1.0000
  S   S194      1.0  0.64464  0.27010  0.60323  1.0000
  S   S195      1.0  0.65921  0.29868  0.54681  1.0000
  Fe  Fe97      1.0  0.65148  0.33813  0.62022  1.0000
  S   S196      1.0  0.64508  0.30641  0.64400  1.0000
  S   S197      1.0  0.65259  0.37598  0.63310  1.0000
  Fe  Fe98      1.0  0.67450  0.30229  0.62563  1.0000
  S   S198      1.0  0.71037  0.30403  0.63993  1.0000
  Fe  Fe99      1.0  0.61539  0.27661  0.61972  1.0000
  S   S199      1.0  0.57701  0.23840  0.62769  1.0000
  S   S200      1.0  0.68280  0.33601  0.60336  1.0000
  S   S201      1.0  0.61985  0.30836  0.59686  1.0000
  Fe  Fe100     1.0  0.82672  0.12411  0.51993  1.0000
  S   S202      1.0  0.85250  0.10814  0.52860  1.0000
  S   S203      1.0  0.79936  0.12818  0.54280  1.0000
  C   C1531     1.0  0.53296  0.27483  0.51715  1.0000
  H   H1222     1.0  0.78778  0.45269  0.63508  1.0000
  C   C1532     1.0  0.72498  0.46214  0.63639  1.0000
  C   C1533     1.0  0.72600  0.44053  0.62696  1.0000
  C   C1534     1.0  0.70418  0.41401  0.62622  1.0000
  C   C1535     1.0  0.68094  0.40883  0.63474  1.0000
  C   C1536     1.0  0.67997  0.43041  0.64442  1.0000
  C   C1537     1.0  0.70190  0.45694  0.64528  1.0000
  H   H1223     1.0  0.74369  0.44438  0.61989  1.0000
  H   H1224     1.0  0.70520  0.39768  0.61866  1.0000
  H   H1225     1.0  0.66209  0.42665  0.65102  1.0000
  H   H1226     1.0  0.70091  0.47344  0.65243  1.0000
  C   C1538     1.0  0.52186  0.25615  0.64250  1.0000
  C   C1539     1.0  0.54559  0.25894  0.63699  1.0000
  C   C1540     1.0  0.54775  0.23611  0.63517  1.0000
  C   C1541     1.0  0.52595  0.21051  0.63916  1.0000
  C   C1542     1.0  0.74726  0.29983  0.59874  1.0000
  H   H1227     1.0  0.56220  0.27874  0.63409  1.0000
  H   H1228     1.0  0.52740  0.19271  0.63779  1.0000
  C   C1543     1.0  0.97217  0.07314  0.54991  1.0000
  C   C1544     1.0  0.64572  0.29928  0.52138  1.0000
  C   C1545     1.0  0.62597  0.30482  0.51918  1.0000
  H   H1229     1.0  0.84320  0.16940  0.70112  1.0000
  H   H1230     1.0  0.61903  0.30966  0.53329  1.0000
  C   C1546     1.0  0.70823  0.09334  0.73453  1.0000
  H   H1231     1.0  0.67063  0.28979  0.50424  1.0000
  C   C1547     1.0  0.68945  0.20695  0.55506  1.0000
  C   C1548     1.0  0.66771  0.18091  0.55117  1.0000
  C   C1549     1.0  0.58315  0.33863  0.58802  1.0000
  H   H1232     1.0  0.90576  0.10959  0.51960  1.0000
  H   H1233     1.0  0.50735  0.16234  0.68502  1.0000
  C   C1550     1.0  0.71528  0.23115  0.66196  1.0000
  C   C1551     1.0  0.73773  0.25618  0.65877  1.0000
  C   C1552     1.0  0.73595  0.27823  0.65174  1.0000
  C   C1553     1.0  0.71175  0.27533  0.64743  1.0000
  C   C1554     1.0  0.68935  0.25018  0.65031  1.0000
  C   C1555     1.0  0.69114  0.22830  0.65763  1.0000
  H   H1234     1.0  0.75634  0.25838  0.66170  1.0000
  H   H1235     1.0  0.75336  0.29765  0.64966  1.0000
  H   H1236     1.0  0.67062  0.24773  0.64729  1.0000
  H   H1237     1.0  0.67367  0.20899  0.65998  1.0000
  C   C1556     1.0  0.80977  0.16674  0.61100  1.0000
  C   C1557     1.0  0.78518  0.15013  0.60135  1.0000
  C   C1558     1.0  0.78243  0.13853  0.58060  1.0000
  C   C1559     1.0  0.80410  0.14287  0.56926  1.0000
  C   C1560     1.0  0.82865  0.15917  0.57903  1.0000
  C   C1561     1.0  0.83142  0.17110  0.59963  1.0000
  H   H1238     1.0  0.76827  0.14635  0.60980  1.0000
  H   H1239     1.0  0.76332  0.12597  0.57332  1.0000
  H   H1240     1.0  0.84555  0.16284  0.57062  1.0000
  H   H1241     1.0  0.53327  0.27548  0.59743  1.0000
  H   H1242     1.0  0.54549  0.17707  0.58104  1.0000
  C   C1562     1.0  0.65525  0.29394  0.50277  1.0000
  C   C1563     1.0  0.56285  0.31726  0.59860  1.0000
  H   H1243     1.0  0.83811  0.36316  0.71090  1.0000
  H   H1244     1.0  0.75252  0.36528  0.69938  1.0000
  C   C1564     1.0  0.62267  0.48553  0.72430  1.0000
  C   C1565     1.0  0.79858  0.41447  0.67332  1.0000
  C   C1566     1.0  0.54175  0.20998  0.57001  1.0000
  C   C1567     1.0  0.97401  0.22951  0.73050  1.0000
  S   S204      1.0  0.85664  0.15747  0.49984  1.0000
  H   H1245     1.0  0.91402  0.28134  0.71292  1.0000
  C   C1568     1.0  0.65851  0.17156  0.53019  1.0000
  H   H1246     1.0  0.71037  0.05734  0.73530  1.0000
  C   C1569     1.0  0.67106  0.18803  0.51295  1.0000
  C   C1570     1.0  0.84319  0.29907  0.69766  1.0000
  C   C1571     1.0  0.76877  0.37295  0.65335  1.0000
  H   H1247     1.0  0.94919  0.13231  0.53627  1.0000
  C   C1572     1.0  0.81652  0.34683  0.73974  1.0000
  C   C1573     1.0  0.75747  0.40678  0.65982  1.0000
  C   C1574     1.0  0.97073  0.05556  0.56571  1.0000
  C   C1575     1.0  0.76385  0.19999  0.60204  1.0000
  H   H1248     1.0  0.73302  0.36889  0.64239  1.0000
  H   H1249     1.0  0.80597  0.38261  0.66599  1.0000
  H   H1250     1.0  0.78451  0.30449  0.67990  1.0000
  H   H1251     1.0  0.91325  0.17002  0.71888  1.0000
  C   C1576     1.0  0.71271  0.44714  0.70441  1.0000
  H   H1252     1.0  0.74719  0.08053  0.52983  1.0000
  C   C1577     1.0  0.81362  0.29669  0.66992  1.0000
  H   H1253     1.0  0.88445  0.35012  0.72553  1.0000
  C   C1578     1.0  0.74377  0.29475  0.70779  1.0000
  H   H1254     1.0  0.78802  0.36216  0.71611  1.0000
  H   H1255     1.0  0.84416  0.28887  0.66453  1.0000
  C   C1579     1.0  0.85792  0.26186  0.73821  1.0000
  C   C1580     1.0  0.70349  0.26719  0.57250  1.0000
  H   H1256     1.0  0.66978  0.48080  0.66928  1.0000
  H   H1257     1.0  0.50751  0.01248  0.72129  1.0000
  H   H1258     1.0  0.79186  0.26388  0.73236  1.0000
  H   H1259     1.0  0.59294  0.20155  0.57658  1.0000
  H   H1260     1.0  0.74274  0.33285  0.58940  1.0000
  C   C1581     1.0  0.75044  0.20492  0.61756  1.0000
  C   C1582     1.0  0.85458  0.39206  0.73717  1.0000
  C   C1583     1.0  0.75931  0.45267  0.69154  1.0000
  H   H1261     1.0  0.90334  0.24126  0.67272  1.0000
  C   C1584     1.0  0.65864  0.21381  0.60298  1.0000
  H   H1262     1.0  0.55341  0.23011  0.52068  1.0000
  C   C1585     1.0  0.95464  0.09000  0.50113  1.0000
  H   H1263     1.0  0.80683  0.29280  0.65332  1.0000
  C   C1586     1.0  0.50426  0.23425  0.56391  1.0000
  C   C1587     1.0  0.96199  0.10972  0.51762  1.0000
  H   H1264     1.0  0.73358  0.03262  0.52240  1.0000
  C   C1588     1.0  0.57469  0.30867  0.55739  1.0000
  C   C1589     1.0  0.58892  0.33438  0.56734  1.0000
  H   H1265     1.0  0.74407  0.41275  0.70438  1.0000
  S   S205      1.0  0.92439  0.16774  0.51625  1.0000
  H   H1266     1.0  0.59212  0.27084  0.55489  1.0000
  H   H1267     1.0  0.84574  0.48880  0.68582  1.0000
  C   C1590     1.0  0.80085  0.30309  0.68511  1.0000
  H   H1268     1.0  0.74107  0.27482  0.70955  1.0000
  C   C1591     1.0  0.97723  0.19585  0.51188  1.0000
  P   P54       1.0  0.92568  0.21922  0.74325  1.0000
  H   H1269     1.0  0.60503  0.35080  0.55931  1.0000
  H   H1270     1.0  0.73513  0.20652  0.55721  1.0000
  H   H1271     1.0  0.96574  0.20784  0.72992  1.0000
  C   C1592     1.0  0.77021  0.34373  0.71134  1.0000
  H   H1272     1.0  0.97476  0.13873  0.56909  1.0000
  C   C1593     1.0  0.79911  0.47372  0.64032  1.0000
  H   H1273     1.0  0.62582  0.21001  0.61905  1.0000
  H   H1274     1.0  0.97861  0.38972  0.71790  1.0000
  H   H1275     1.0  0.74386  0.41340  0.65751  1.0000
  C   C1594     1.0  0.78096  0.42317  0.67136  1.0000
  H   H1276     1.0  0.55864  0.32038  0.61480  1.0000
  P   P55       1.0  0.53750  0.25326  0.55547  1.0000
  H   H1277     1.0  0.52102  0.19853  0.57147  1.0000
  C   C1595     1.0  0.62946  0.40452  0.69510  1.0000
  C   C1596     1.0  0.73153  0.21057  0.61140  1.0000
  C   C1597     1.0  0.58222  0.21117  0.57256  1.0000
  H   H1278     1.0  0.74617  0.26342  0.60644  1.0000
  H   H1279     1.0  0.95629  0.03413  0.56415  1.0000
  H   H1280     1.0  0.90583  0.12578  0.72976  1.0000
  H   H1281     1.0  0.63534  0.39095  0.70097  1.0000
  C   C1598     1.0  0.75413  0.47323  0.68785  1.0000
  H   H1282     1.0  0.71163  0.32361  0.68753  1.0000
  H   H1283     1.0  0.55876  0.45359  0.73604  1.0000
  H   H1284     1.0  0.86997  0.40743  0.72780  1.0000
  H   H1285     1.0  0.81705  0.42704  0.68166  1.0000
  H   H1286     1.0  0.76374  0.31239  0.60938  1.0000
  H   H1287     1.0  0.65774  0.16784  0.56431  1.0000
  H   H1288     1.0  0.76851  0.19643  0.56835  1.0000
  C   C1599     1.0  0.72567  0.21120  0.58967  1.0000
  C   C1600     1.0  0.49863  0.22521  0.58500  1.0000
  C   C1601     1.0  0.80272  0.48118  0.66219  1.0000
  H   H1289     1.0  0.72139  0.21438  0.62362  1.0000
  H   H1290     1.0  0.85920  0.29688  0.70260  1.0000
  C   C1602     1.0  0.54850  0.29156  0.58864  1.0000
  H   H1291     1.0  0.57999  0.30574  0.54160  1.0000
  C   C1603     1.0  0.58162  0.25041  0.56061  1.0000
  C   C1604     1.0  0.63819  0.42947  0.70562  1.0000
  H   H1292     1.0  0.95872  0.06485  0.53632  1.0000
  C   C1605     1.0  0.91219  0.08432  0.49827  1.0000
  H   H1293     1.0  0.85865  0.20123  0.67125  1.0000
  C   C1606     1.0  0.55481  0.23688  0.56325  1.0000
  H   H1294     1.0  0.83681  0.30803  0.72956  1.0000
  H   H1295     1.0  0.89166  0.23431  0.49713  1.0000
  C   C1607     1.0  0.72372  0.29679  0.69857  1.0000
  C   C1608     1.0  0.75134  0.38167  0.65104  1.0000
  C   C1609     1.0  0.87442  0.26328  0.72229  1.0000
  C   C1610     1.0  0.51516  0.13720  0.70506  1.0000
  C   C1611     1.0  0.70236  0.22310  0.53762  1.0000
  C   C1612     1.0  0.73701  0.04593  0.50921  1.0000
  C   C1613     1.0  0.75011  0.34564  0.70195  1.0000
  C   C1614     1.0  0.59515  0.23745  0.56493  1.0000
  H   H1296     1.0  0.64154  0.15158  0.52731  1.0000
  C   C1615     1.0  0.69302  0.21374  0.51666  1.0000
  C   C1616     1.0  0.73544  0.31138  0.58750  1.0000
  C   C1617     1.0  0.89689  0.35614  0.73977  1.0000
  H   H1297     1.0  0.61593  0.16815  0.63744  1.0000
  C   C1618     1.0  0.60606  0.41464  0.66887  1.0000
  H   H1298     1.0  0.64320  0.14837  0.63177  1.0000
  C   C1619     1.0  0.50006  0.23057  0.64651  1.0000
  C   C1620     1.0  0.71508  0.25531  0.58393  1.0000
  C   C1621     1.0  0.63131  0.44747  0.69755  1.0000
  C   C1622     1.0  0.61479  0.43963  0.67931  1.0000
  H   H1299     1.0  0.68626  0.25493  0.56250  1.0000
  C   C1623     1.0  0.63753  0.20117  0.61636  1.0000
  H   H1300     1.0  0.61575  0.24796  0.56248  1.0000
  C   C1624     1.0  0.71761  0.42647  0.70816  1.0000
  C   C1625     1.0  0.50228  0.20773  0.64487  1.0000
  C   C1626     1.0  0.70009  0.06683  0.74082  1.0000
  C   C1627     1.0  0.67223  0.48884  0.72678  1.0000
  C   C1628     1.0  0.55552  0.19742  0.57506  1.0000
  C   C1629     1.0  0.81172  0.46584  0.70484  1.0000
  C   C1630     1.0  0.59622  0.46559  0.72381  1.0000
  H   H1301     1.0  0.51729  0.10874  0.72516  1.0000
  C   C1631     1.0  0.63194  0.17758  0.62671  1.0000
  H   H1302     1.0  0.58871  0.44730  0.71401  1.0000
  C   C1632     1.0  0.73098  0.47050  0.69428  1.0000
  C   C1633     1.0  0.71366  0.29509  0.57432  1.0000
  H   H1303     1.0  0.87174  0.17751  0.73261  1.0000
  C   C1634     1.0  0.74460  0.07290  0.51341  1.0000
  S   S206      1.0  0.82367  0.24200  0.73491  1.0000
  H   H1304     1.0  0.52040  0.27395  0.64370  1.0000
  C   C1635     1.0  0.61547  0.30438  0.49868  1.0000
  C   C1636     1.0  0.64727  0.16643  0.62349  1.0000
  H   H1305     1.0  0.60010  0.30854  0.49723  1.0000
  C   C1637     1.0  0.91236  0.29510  0.74474  1.0000
  C   C1638     1.0  0.97055  0.26886  0.73666  1.0000
  C   C1639     1.0  0.92185  0.36088  0.73838  1.0000
  C   C1640     1.0  0.54832  0.24385  0.51387  1.0000
  C   C1641     1.0  0.74081  0.42919  0.70176  1.0000
  H   H1306     1.0  0.67972  0.16977  0.60762  1.0000
  P   P56       1.0  0.70139  0.21905  0.58214  1.0000
  H   H1307     1.0  0.51397  0.22907  0.59640  1.0000
  H   H1308     1.0  0.66273  0.23220  0.59539  1.0000
  H   H1309     1.0  0.75455  0.20422  0.63443  1.0000
  H   H1310     1.0  0.92859  0.35797  0.72323  1.0000
  C   C1642     1.0  0.76716  0.31822  0.71431  1.0000
  H   H1311     1.0  0.77861  0.19572  0.60691  1.0000
  C   C1643     1.0  0.95319  0.17529  0.50309  1.0000
  P   P57       1.0  0.79253  0.31505  0.72675  1.0000
  C   C1644     1.0  0.73917  0.20614  0.57410  1.0000
  H   H1312     1.0  0.93250  0.24953  0.70379  1.0000
  H   H1313     1.0  0.70266  0.22649  0.50328  1.0000
  H   H1314     1.0  0.96791  0.08398  0.49598  1.0000
  H   H1315     1.0  0.59390  0.40897  0.65447  1.0000
  C   C1645     1.0  0.72695  0.32219  0.69543  1.0000
  C   C1646     1.0  0.55441  0.28690  0.56798  1.0000
  C   C1647     1.0  0.91938  0.10401  0.51450  1.0000
  Fe  Fe101     1.0  0.88138  0.13959  0.50652  1.0000
  C   C1648     1.0  0.50448  0.11301  0.71618  1.0000
  H   H1316     1.0  0.60750  0.37818  0.66817  1.0000
  H   H1317     1.0  0.52611  0.28540  0.52681  1.0000
  H   H1318     1.0  0.70433  0.30406  0.56585  1.0000
  H   H1319     1.0  0.59484  0.35828  0.59607  1.0000
  H   H1320     1.0  0.69457  0.44488  0.70892  1.0000
  H   H1321     1.0  0.65073  0.43478  0.71968  1.0000
  C   C1649     1.0  0.90444  0.21399  0.72053  1.0000
  C   C1650     1.0  0.94418  0.11681  0.52405  1.0000
  C   C1651     1.0  0.86272  0.18687  0.70182  1.0000
  C   C1652     1.0  0.87147  0.20479  0.68494  1.0000
  C   C1653     1.0  0.89667  0.22731  0.68578  1.0000
  C   C1654     1.0  0.91315  0.23189  0.70346  1.0000
  C   C1655     1.0  0.90145  0.28006  0.72547  1.0000
  C   C1656     1.0  0.83044  0.30541  0.71289  1.0000
  H   H1322     1.0  0.86635  0.25164  0.70746  1.0000
  H   H1323     1.0  0.95936  0.27775  0.74090  1.0000
  C   C1657     1.0  0.80313  0.45783  0.72567  1.0000
  C   C1658     1.0  0.79243  0.38938  0.66439  1.0000
  C   C1659     1.0  0.75816  0.20050  0.58031  1.0000
  H   H1324     1.0  0.70585  0.27862  0.69325  1.0000
  H   H1325     1.0  0.76378  0.35335  0.64661  1.0000
  C   C1660     1.0  0.73710  0.27191  0.59706  1.0000
  H   H1326     1.0  0.72697  0.48624  0.69074  1.0000
  P   P58       1.0  0.78883  0.45575  0.68239  1.0000
  C   C1661     1.0  0.80895  0.30713  0.70677  1.0000
  C   C1662     1.0  0.53908  0.25697  0.52669  1.0000
  H   H1327     1.0  0.70085  0.12573  0.73743  1.0000
  H   H1328     1.0  0.53589  0.15124  0.70556  1.0000
  C   C1663     1.0  0.83471  0.29456  0.67620  1.0000
  C   C1664     1.0  0.66823  0.17888  0.60994  1.0000
  C   C1665     1.0  0.67435  0.20295  0.59980  1.0000
  H   H1329     1.0  0.71949  0.24303  0.54022  1.0000
  C   C1666     1.0  0.69483  0.10537  0.74200  1.0000
  C   C1667     1.0  0.61361  0.39721  0.67664  1.0000
  C   C1668     1.0  0.87903  0.19150  0.71960  1.0000
  C   C1669     1.0  0.83840  0.48262  0.70171  1.0000
  C   C1670     1.0  0.91436  0.16644  0.73574  1.0000
  H   H1330     1.0  0.60933  0.45324  0.67275  1.0000
  H   H1331     1.0  0.97780  0.20675  0.52631  1.0000
  C   C1671     1.0  0.57915  0.46906  0.73629  1.0000
  H   H1332     1.0  0.78283  0.44453  0.72856  1.0000
  C   C1672     1.0  0.49912  0.14346  0.69344  1.0000
  C   C1673     1.0  0.91028  0.14138  0.74184  1.0000
  P   P59       1.0  0.64539  0.48140  0.70891  1.0000
  C   C1674     1.0  0.95912  0.24064  0.73626  1.0000
  H   H1333     1.0  0.70316  0.40806  0.71556  1.0000
  C   C1675     1.0  0.85594  0.49242  0.71923  1.0000
  H   H1334     1.0  0.66376  0.18088  0.49671  1.0000
  C   C1676     1.0  0.50666  0.02798  0.73050  1.0000
  C   C1677     1.0  0.84713  0.48504  0.73994  1.0000
  H   H1335     1.0  0.80587  0.48779  0.60799  1.0000
  C   C1678     1.0  0.77395  0.00135  0.49798  1.0000
  H   H1336     1.0  0.77224  0.01901  0.49872  1.0000
  Fe  Fe102     1.0  0.83504  0.08081  0.49909  1.0000
  S   S207      1.0  0.82757  0.03746  0.49801  1.0000
  C   C1679     1.0  0.79856  0.00480  0.49772  1.0000
  H   H1337     1.0  0.75730  0.11166  0.50002  1.0000
  H   H1338     1.0  0.91252  0.20780  0.50319  1.0000
  C   C1680     1.0  0.77980  0.26530  0.74412  1.0000
  C   C1681     1.0  0.80946  0.49361  0.62484  1.0000
  C   C1682     1.0  0.75013  0.09045  0.49650  1.0000
  H   H1339     1.0  0.98671  0.05191  0.59566  1.0000
  S   S208      1.0  0.75291  0.49519  0.63601  1.0000
  C   C1683     1.0  0.98787  0.06557  0.58345  1.0000
  C   C1684     1.0  0.77669  0.28768  0.74525  1.0000
  C   C1685     1.0  0.49491  0.48628  0.81134  1.0000
  H   H1340     1.0  0.82868  0.06841  0.96527  1.0000
  P   P60       1.0  0.55372  0.02197  0.86680  1.0000
  C   C1686     1.0  0.93804  0.36892  0.75667  1.0000
  H   H1341     1.0  0.91123  0.41512  0.77532  1.0000
  C   C1687     1.0  0.57152  0.04739  0.92980  1.0000
  Fe  Fe103     1.0  0.97190  0.33608  0.77795  1.0000
  H   H1342     1.0  0.78445  0.05601  0.89898  1.0000
  S   S209      1.0  0.96100  0.34170  0.81098  1.0000
  C   C1688     1.0  0.61270  0.07964  0.83162  1.0000
  S   S210      1.0  0.63904  0.04786  0.77932  1.0000
  H   H1343     1.0  0.57389  0.03952  0.94474  1.0000
  H   H1344     1.0  0.56139  0.07504  0.87669  1.0000
  C   C1689     1.0  0.70952  0.00750  0.79353  1.0000
  C   C1690     1.0  0.59704  0.06581  0.84874  1.0000
  H   H1345     1.0  0.96867  0.24189  0.91091  1.0000
  S   S211      1.0  0.91722  0.14778  0.97864  1.0000
  H   H1346     1.0  0.67293  0.03215  0.75888  1.0000
  C   C1691     1.0  0.90072  0.40338  0.80819  1.0000
  H   H1347     1.0  0.77164  0.12008  0.76099  1.0000
  C   C1692     1.0  0.93258  0.26140  0.79883  1.0000
  C   C1693     1.0  0.86748  0.10296  0.97166  1.0000
  C   C1694     1.0  0.84365  0.07995  0.97740  1.0000
  H   H1348     1.0  0.57511  0.49513  0.75892  1.0000
  H   H1349     1.0  0.87043  0.10877  0.95510  1.0000
  C   C1695     1.0  0.52042  0.01129  0.86102  1.0000
  H   H1350     1.0  0.76931  0.47427  0.74633  1.0000
  C   C1696     1.0  0.90966  0.42155  0.79127  1.0000
  C   C1697     1.0  0.69983  0.06160  0.85995  1.0000
  C   C1698     1.0  0.77227  0.09123  0.78214  1.0000
  C   C1699     1.0  0.82848  0.00053  0.98179  1.0000
  H   H1351     1.0  0.69275  0.02306  0.90257  1.0000
  H   H1352     1.0  0.91924  0.15291  0.79579  1.0000
  H   H1353     1.0  0.89401  0.39965  0.84225  1.0000
  C   C1700     1.0  0.56546  0.03188  0.91079  1.0000
  C   C1701     1.0  0.67355  0.04421  0.82722  1.0000
  H   H1354     1.0  0.90818  0.44777  0.84841  1.0000
  C   C1702     1.0  0.58833  0.49242  0.74924  1.0000
  C   C1703     1.0  0.73731  0.07044  0.80725  1.0000
  H   H1355     1.0  0.71418  0.00869  0.86204  1.0000
  C   C1704     1.0  0.58243  0.04379  0.80703  1.0000
  C   C1705     1.0  0.98421  0.44897  0.78728  1.0000
  C   C1706     1.0  0.88847  0.24136  0.78548  1.0000
  H   H1356     1.0  0.60350  0.07424  0.86480  1.0000
  C   C1707     1.0  0.68813  0.48445  0.76162  1.0000
  H   H1357     1.0  0.87872  0.21891  0.75574  1.0000
  H   H1358     1.0  0.94071  0.33949  0.86806  1.0000
  H   H1359     1.0  0.68451  0.07468  0.88498  1.0000
  C   C1708     1.0  0.51412  0.02532  0.84639  1.0000
  C   C1709     1.0  0.85750  0.34534  0.80478  1.0000
  H   H1360     1.0  0.90396  0.30534  0.77550  1.0000
  C   C1710     1.0  0.56248  0.04201  0.89137  1.0000
  C   C1711     1.0  0.91759  0.44873  0.79491  1.0000
  H   H1361     1.0  0.52894  0.04193  0.83757  1.0000
  S   S212      1.0  0.94659  0.31581  0.74767  1.0000
  H   H1362     1.0  0.78914  0.09277  0.77511  1.0000
  C   C1712     1.0  0.57419  0.07287  0.92961  1.0000
  H   H1363     1.0  0.57224  0.10234  0.91034  1.0000
  H   H1364     1.0  0.77265  0.08796  0.84136  1.0000
  H   H1365     1.0  0.97247  0.16500  0.90095  1.0000
  H   H1366     1.0  0.97878  0.47078  0.76197  1.0000
  H   H1367     1.0  0.76714  0.06082  0.80421  1.0000
  C   C1713     1.0  0.65574  0.04986  0.83589  1.0000
  C   C1714     1.0  0.88793  0.35879  0.75955  1.0000
  H   H1368     1.0  0.66371  0.10076  0.76133  1.0000
  C   C1715     1.0  0.81558  0.33262  0.81868  1.0000
  H   H1369     1.0  0.85619  0.27604  0.76981  1.0000
  C   C1716     1.0  0.90004  0.41301  0.82881  1.0000
  C   C1717     1.0  0.56666  0.02999  0.82408  1.0000
  C   C1718     1.0  0.76256  0.10675  0.77426  1.0000
  C   C1719     1.0  0.90702  0.35940  0.82469  1.0000
  H   H1370     1.0  0.63085  0.09860  0.83448  1.0000
  C   C1720     1.0  0.57368  0.04105  0.84501  1.0000
  H   H1371     1.0  0.57736  0.03479  0.79098  1.0000
  H   H1372     1.0  0.73868  0.22669  0.78257  1.0000
  C   C1721     1.0  0.60536  0.06867  0.81079  1.0000
  C   C1722     1.0  0.92910  0.37133  0.77653  1.0000
  C   C1723     1.0  0.93108  0.34503  0.85623  1.0000
  H   H1373     1.0  0.57874  0.08479  0.94438  1.0000
  H   H1374     1.0  0.81077  0.28203  0.78660  1.0000
  C   C1724     1.0  0.56458  0.06733  0.89139  1.0000
  C   C1725     1.0  0.89586  0.29375  0.76066  1.0000
  C   C1726     1.0  0.78151  0.07405  0.86992  1.0000
  H   H1375     1.0  0.84203  0.02223  0.98167  1.0000
  H   H1376     1.0  0.54937  0.01027  0.82107  1.0000
  H   H1377     1.0  0.72303  0.02423  0.78410  1.0000
  S   S213      1.0  0.73543  0.01469  0.99305  1.0000
  H   H1378     1.0  0.80015  0.09251  0.87257  1.0000
  H   H1379     1.0  0.61783  0.07901  0.79758  1.0000
  H   H1380     1.0  0.49764  0.45652  0.76513  1.0000
  H   H1381     1.0  0.63916  0.04624  0.82625  1.0000
  C   C1727     1.0  0.93803  0.25021  0.78123  1.0000
  C   C1728     1.0  0.83287  0.37777  0.77076  1.0000
  H   H1382     1.0  0.92396  0.47945  0.81829  1.0000
  C   C1729     1.0  0.72794  0.08646  0.79940  1.0000
  P   P61       1.0  0.71992  0.04515  0.82710  1.0000
  H   H1383     1.0  0.80386  0.33731  0.82855  1.0000
  C   C1730     1.0  0.75977  0.07321  0.79862  1.0000
  C   C1731     1.0  0.81942  0.30147  0.79508  1.0000
  C   C1732     1.0  0.97539  0.26790  0.88407  1.0000
  H   H1384     1.0  0.73187  0.26542  0.78418  1.0000
  C   C1733     1.0  0.74565  0.26566  0.77328  1.0000
  H   H1385     1.0  0.73293  0.11636  0.77669  1.0000
  C   C1734     1.0  0.68151  0.06635  0.86880  1.0000
  H   H1386     1.0  0.83139  0.38216  0.78741  1.0000
  H   H1387     1.0  0.90116  0.30384  0.84859  1.0000
  C   C1735     1.0  0.74163  0.04737  0.84853  1.0000
  C   C1736     1.0  0.77273  0.05350  0.88479  1.0000
  C   C1737     1.0  0.52362  0.04080  0.74811  1.0000
  H   H1388     1.0  0.86932  0.23816  0.78697  1.0000
  H   H1389     1.0  0.85744  0.31460  0.78451  1.0000
  C   C1738     1.0  0.84211  0.35137  0.81735  1.0000
  H   H1390     1.0  0.78379  0.29303  0.80882  1.0000
  C   C1739     1.0  0.74846  0.02998  0.88168  1.0000
  H   H1391     1.0  0.59684  0.01765  0.88316  1.0000
  H   H1392     1.0  0.89199  0.22565  0.97891  1.0000
  C   C1740     1.0  0.74939  0.24381  0.77235  1.0000
  H   H1393     1.0  0.67029  0.03591  0.81098  1.0000
  C   C1741     1.0  0.89393  0.23043  0.76768  1.0000
  C   C1742     1.0  0.90783  0.25702  0.80094  1.0000
  H   H1394     1.0  0.86863  0.35524  0.76030  1.0000
  H   H1395     1.0  0.92521  0.46289  0.78197  1.0000
  H   H1396     1.0  0.88010  0.31608  0.82070  1.0000
  C   C1743     1.0  0.70376  0.01160  0.81445  1.0000
  C   C1744     1.0  0.69586  0.05023  0.83912  1.0000
  C   C1745     1.0  0.76594  0.07119  0.85202  1.0000
  C   C1746     1.0  0.66755  0.47927  0.74775  1.0000
  H   H1397     1.0  0.96569  0.25116  0.87256  1.0000
  C   C1747     1.0  0.75919  0.28748  0.75977  1.0000
  H   H1398     1.0  0.71056  0.08474  0.80532  1.0000
  H   H1399     1.0  0.94201  0.37754  0.79051  1.0000
  C   C1748     1.0  0.57060  0.08278  0.91043  1.0000
  H   H1400     1.0  0.53569  0.07066  0.77372  1.0000
  C   C1749     1.0  0.90374  0.36563  0.77819  1.0000
  C   C1750     1.0  0.84591  0.32011  0.79380  1.0000
  C   C1751     1.0  0.86881  0.27727  0.75734  1.0000
  H   H1401     1.0  0.95733  0.37253  0.75553  1.0000
  H   H1402     1.0  0.75547  0.30385  0.76021  1.0000
  C   C1752     1.0  0.90881  0.32495  0.84519  1.0000
  C   C1753     1.0  0.89692  0.33204  0.82937  1.0000
  C   C1754     1.0  0.88746  0.11859  0.98705  1.0000
  C   C1755     1.0  0.94152  0.37221  0.85137  1.0000
  H   H1403     1.0  0.71692  0.06673  0.86953  1.0000
  C   C1756     1.0  0.92966  0.37937  0.83561  1.0000
  C   C1757     1.0  0.91781  0.15664  0.77902  1.0000
  C   C1758     1.0  0.80426  0.30768  0.80758  1.0000
  H   H1404     1.0  0.93863  0.40051  0.83170  1.0000
  C   C1759     1.0  0.66551  0.06455  0.76176  1.0000
  H   H1405     1.0  0.90876  0.11703  0.76818  1.0000
  H   H1406     1.0  0.85046  0.37036  0.82629  1.0000
  C   C1760     1.0  0.90812  0.44027  0.83240  1.0000
  P   P62       1.0  0.89210  0.36858  0.80384  1.0000
  H   H1407     1.0  0.94759  0.27352  0.81086  1.0000
  H   H1408     1.0  0.56275  0.01189  0.91143  1.0000
  C   C1761     1.0  0.65949  0.06054  0.85674  1.0000
  C   C1762     1.0  0.81491  0.35245  0.76140  1.0000
  H   H1409     1.0  0.79980  0.33753  0.77109  1.0000
  S   S214      1.0  0.98858  0.20835  0.96632  1.0000
  H   H1410     1.0  0.64541  0.06445  0.86345  1.0000
  C   C1763     1.0  0.91695  0.45813  0.81546  1.0000
  C   C1764     1.0  0.73309  0.02681  0.86359  1.0000
  C   C1765     1.0  0.91877  0.23471  0.76542  1.0000
  H   H1411     1.0  0.89594  0.18515  0.98020  1.0000
  H   H1412     1.0  0.92651  0.19708  0.78529  1.0000
  H   H1413     1.0  0.95936  0.38778  0.85931  1.0000
  Fe  Fe104     1.0  0.98761  0.24602  0.97377  1.0000
  C   C1766     1.0  0.58174  0.99779  0.87724  1.0000
  Fe  Fe105     1.0  0.95584  0.18713  0.98967  1.0000
  H   H1414     1.0  0.90378  0.26592  0.81452  1.0000
  C   C1767     1.0  0.74064  0.10460  0.78308  1.0000
  C   C1768     1.0  0.48985  0.45954  0.77960  1.0000
  C   C1769     1.0  0.76643  0.24365  0.75775  1.0000
  H   H1415     1.0  0.53751  0.03515  0.75256  1.0000
  C   C1770     1.0  0.97724  0.26253  0.90591  1.0000
  C   C1771     1.0  0.98553  0.48866  0.81473  1.0000
  H   H1416     1.0  0.76901  0.22647  0.75657  1.0000
  H   H1417     1.0  0.86645  0.41722  0.76593  1.0000
  C   C1772     1.0  0.50549  0.48295  0.79264  1.0000
  H   H1418     1.0  0.97189  0.20296  0.91908  1.0000
  H   H1419     1.0  0.66076  0.00654  0.87191  1.0000
  S   S215      1.0  0.70653  0.99654  0.93425  1.0000
  H   H1420     1.0  0.68438  0.47718  0.77781  1.0000
  Fe  Fe106     1.0  0.61594  0.00344  0.78930  1.0000
  H   H1421     1.0  0.64798  0.46782  0.75337  1.0000
  C   C1773     1.0  0.50450  0.06792  0.75444  1.0000
  H   H1422     1.0  0.95730  0.25365  0.78007  1.0000
  H   H1423     1.0  0.50381  0.08335  0.76392  1.0000
  C   C1774     1.0  0.52259  0.06082  0.76002  1.0000
  C   C1775     1.0  0.98139  0.47000  0.77906  1.0000
  C   C1776     1.0  0.67885  0.05247  0.75425  1.0000
  H   H1424     1.0  0.81404  0.46186  0.75925  1.0000
  C   C1777     1.0  0.67377  0.09112  0.75562  1.0000
  H   H1425     1.0  0.74114  0.01448  0.89364  1.0000
  C   C1778     1.0  0.92186  0.18171  0.77298  1.0000
  C   C1779     1.0  0.91983  0.18668  0.75130  1.0000
  C   C1780     1.0  0.91194  0.13646  0.76347  1.0000
  H   H1426     1.0  0.78584  0.48578  0.78414  1.0000
  H   H1427     1.0  0.98372  0.43388  0.77653  1.0000
  C   C1781     1.0  0.88978  0.19147  0.99415  1.0000
  C   C1782     1.0  0.88753  0.21424  0.99345  1.0000
  S   S216      1.0  0.98191  0.29974  0.84902  1.0000
  C   C1783     1.0  0.68043  0.00152  0.89925  1.0000
  C   C1784     1.0  0.85266  0.39756  0.75867  1.0000
  C   C1785     1.0  0.98557  0.29455  0.87700  1.0000
  H   H1428     1.0  0.49050  0.01203  0.78536  1.0000
  C   C1786     1.0  0.98221  0.49016  0.79266  1.0000
  H   H1429     1.0  0.66423  0.00014  0.99263  1.0000
  H   H1430     1.0  0.86079  0.49338  0.75349  1.0000
  C   C1787     1.0  0.98777  0.44766  0.80935  1.0000
  C   C1788     1.0  0.98824  0.46758  0.82296  1.0000
  H   H1431     1.0  0.52172  0.99648  0.78790  1.0000
  C   C1789     1.0  0.77861  0.49498  0.75241  1.0000
  C   C1790     1.0  0.61972  0.68730  0.15869  1.0000
  Fe  Fe107     1.0  0.94781  0.58732  0.20261  1.0000
  S   S217      1.0  0.93538  0.56498  0.17073  1.0000
  S   S218      1.0  0.92343  0.57785  0.23268  1.0000
  Fe  Fe108     1.0  0.96874  0.55826  0.17522  1.0000
  C   C1791     1.0  0.53569  0.69637  0.14419  1.0000
  Fe  Fe109     1.0  0.96348  0.60497  0.15568  1.0000
  S   S219      1.0  0.95003  0.62115  0.12758  1.0000
  H   H1432     1.0  0.63855  0.70847  0.18841  1.0000
  C   C1792     1.0  0.79208  0.49816  0.20654  1.0000
  Fe  Fe110     1.0  0.61177  0.63086  0.20281  1.0000
  S   S220      1.0  0.58296  0.61467  0.17513  1.0000
  S   S221      1.0  0.62073  0.66752  0.22440  1.0000
  Fe  Fe111     1.0  0.63036  0.59168  0.19195  1.0000
  S   S222      1.0  0.60209  0.57285  0.16351  1.0000
  S   S223      1.0  0.65761  0.57607  0.19902  1.0000
  Fe  Fe112     1.0  0.61470  0.61604  0.15529  1.0000
  S   S224      1.0  0.62333  0.63727  0.12236  1.0000
  Fe  Fe113     1.0  0.57276  0.57292  0.18542  1.0000
  S   S225      1.0  0.53162  0.54049  0.19591  1.0000
  S   S226      1.0  0.64402  0.63452  0.18268  1.0000
  S   S227      1.0  0.60070  0.58953  0.21400  1.0000
  Fe  Fe114     1.0  0.61107  0.96932  0.15650  1.0000
  S   S228      1.0  0.62546  0.97615  0.19128  1.0000
  S   S229      1.0  0.63370  0.95982  0.13172  1.0000
  Fe  Fe115     1.0  0.56236  0.97175  0.16866  1.0000
  H   H1433     1.0  0.76453  0.85719  0.02040  1.0000
  S   S230      1.0  0.52455  0.96701  0.15445  1.0000
  H   H1434     1.0  0.81014  0.68883  0.99600  1.0000
  Fe  Fe116     1.0  0.58402  0.94608  0.19930  1.0000
  C   C1793     1.0  0.86962  0.54510  0.15973  1.0000
  S   S231      1.0  0.57002  0.93760  0.16475  1.0000
  H   H1435     1.0  0.61252  0.53684  0.22094  1.0000
  S   S232      1.0  0.57431  0.97865  0.20348  1.0000
  H   H1436     1.0  0.74756  0.99124  0.13541  1.0000
  Fe  Fe117     1.0  0.71527  0.70346  0.01233  1.0000
  S   S233      1.0  0.75325  0.74332  0.01715  1.0000
  S   S234      1.0  0.69681  0.67338  0.04020  1.0000
  Fe  Fe118     1.0  0.71327  0.97977  0.01512  1.0000
  S   S235      1.0  0.74665  0.97314  0.01944  1.0000
  C   C1794     1.0  0.55284  0.82714  0.00661  1.0000
  H   H1437     1.0  0.84690  0.50562  0.22975  1.0000
  H   H1438     1.0  0.49279  0.62830  0.24302  1.0000
  H   H1439     1.0  0.68535  0.95084  0.07569  1.0000
  S   S236      1.0  0.95808  0.51366  0.17100  1.0000
  C   C1795     1.0  0.68699  0.95489  0.15415  1.0000
  C   C1796     1.0  0.62104  0.69969  0.17843  1.0000
  C   C1797     1.0  0.90113  0.50920  0.20231  1.0000
  H   H1440     1.0  0.49568  0.89799  0.22071  1.0000
  C   C1798     1.0  0.65020  0.96885  0.10677  1.0000
  C   C1799     1.0  0.66269  0.95533  0.09994  1.0000
  C   C1800     1.0  0.67550  0.96114  0.08026  1.0000
  C   C1801     1.0  0.67566  0.98027  0.06666  1.0000
  H   H1441     1.0  0.73216  0.61054  0.00242  1.0000
  C   C1802     1.0  0.74595  0.87630  0.00518  1.0000
  H   H1442     1.0  0.66228  0.94004  0.10991  1.0000
  C   C1803     1.0  0.57649  0.85003  0.01313  1.0000
  C   C1804     1.0  0.53453  0.63200  0.19546  1.0000
  C   C1805     1.0  0.64395  0.64682  0.09961  1.0000
  C   C1806     1.0  0.64310  0.66425  0.08448  1.0000
  C   C1807     1.0  0.65894  0.67256  0.06635  1.0000
  C   C1808     1.0  0.67606  0.66355  0.06289  1.0000
  C   C1809     1.0  0.67675  0.64595  0.07790  1.0000
  C   C1810     1.0  0.66096  0.63770  0.09607  1.0000
  H   H1443     1.0  0.63006  0.67145  0.08683  1.0000
  H   H1444     1.0  0.65782  0.68585  0.05501  1.0000
  H   H1445     1.0  0.68974  0.63867  0.07555  1.0000
  H   H1446     1.0  0.66196  0.62427  0.10735  1.0000
  C   C1811     1.0  0.96063  0.63683  0.10201  1.0000
  C   C1812     1.0  0.94632  0.64634  0.09126  1.0000
  C   C1813     1.0  0.95367  0.65874  0.07109  1.0000
  C   C1814     1.0  0.97536  0.66158  0.06103  1.0000
  H   H1447     1.0  0.78883  0.95152  0.01566  1.0000
  C   C1815     1.0  0.50090  0.98437  0.18345  1.0000
  H   H1448     1.0  0.55701  0.66317  0.14459  1.0000
  H   H1449     1.0  0.88463  0.53410  0.20340  1.0000
  H   H1450     1.0  0.73202  0.98876  0.20000  1.0000
  C   C1816     1.0  0.57306  0.50578  0.22709  1.0000
  C   C1817     1.0  0.61307  0.63839  0.00820  1.0000
  H   H1451     1.0  0.82086  0.54562  0.18553  1.0000
  C   C1818     1.0  0.68813  0.56371  0.22365  1.0000
  C   C1819     1.0  0.67196  0.57444  0.22374  1.0000
  S   S237      1.0  0.56641  0.91263  0.22431  1.0000
  C   C1820     1.0  0.60817  0.90536  0.05942  1.0000
  C   C1821     1.0  0.70035  0.56245  0.24270  1.0000
  H   H1452     1.0  0.69144  0.55658  0.20866  1.0000
  H   H1453     1.0  0.60061  0.70817  0.20170  1.0000
  H   H1454     1.0  0.92932  0.64407  0.09857  1.0000
  H   H1455     1.0  0.94229  0.66576  0.06320  1.0000
  C   C1822     1.0  0.55402  0.73535  0.19193  1.0000
  C   C1823     1.0  0.87875  0.57855  0.22227  1.0000
  C   C1824     1.0  0.58351  0.87564  0.00562  1.0000
  H   H1456     1.0  0.61622  0.86716  0.23372  1.0000
  C   C1825     1.0  0.59068  0.94147  0.05910  1.0000
  H   H1457     1.0  0.88612  0.58403  0.20634  1.0000
  H   H1458     1.0  0.56743  0.63486  0.23927  1.0000
  C   C1826     1.0  0.68253  0.97329  0.18774  1.0000
  H   H1459     1.0  0.51907  0.50437  0.15774  1.0000
  C   C1827     1.0  0.94786  0.51072  0.23983  1.0000
  H   H1460     1.0  0.58413  0.95565  0.05909  1.0000
  H   H1461     1.0  0.69586  0.88627  0.02523  1.0000
  C   C1828     1.0  0.88133  0.51438  0.19883  1.0000
  S   S238      1.0  0.74426  0.80423  0.00027  1.0000
  H   H1462     1.0  0.63622  0.68664  0.15321  1.0000
  H   H1463     1.0  0.54762  0.80739  0.01235  1.0000
  C   C1829     1.0  0.57620  0.68702  0.17362  1.0000
  C   C1830     1.0  0.88461  0.65167  0.21663  1.0000
  C   C1831     1.0  0.56831  0.75974  0.22618  1.0000
  C   C1832     1.0  0.79032  0.49812  0.24525  1.0000
  H   H1464     1.0  0.65281  0.94462  0.20810  1.0000
  H   H1465     1.0  0.51377  0.66916  0.22136  1.0000
  C   C1833     1.0  0.59671  0.67471  0.14640  1.0000
  C   C1834     1.0  0.63866  0.89816  0.01880  1.0000
  C   C1835     1.0  0.52237  0.60876  0.20769  1.0000
  C   C1836     1.0  0.57495  0.67425  0.15391  1.0000
  C   C1837     1.0  0.98258  0.64007  0.09211  1.0000
  C   C1838     1.0  0.59489  0.88728  0.22924  1.0000
  H   H1466     1.0  0.61479  0.89126  0.05988  1.0000
  H   H1467     1.0  0.60479  0.90595  0.09375  1.0000
  P   P63       1.0  0.61326  0.90529  0.01507  1.0000
  C   C1839     1.0  0.55589  0.71403  0.20038  1.0000
  H   H1468     1.0  0.55874  0.77450  0.19833  1.0000
  Fe  Fe119     1.0  0.97685  0.69900  0.00867  1.0000
  H   H1469     1.0  0.49331  0.90804  0.14266  1.0000
  H   H1470     1.0  0.69584  0.95731  0.13885  1.0000
  C   C1840     1.0  0.84788  0.53571  0.17249  1.0000
  C   C1841     1.0  0.83763  0.55226  0.17591  1.0000
  C   C1842     1.0  0.84940  0.57805  0.16722  1.0000
  C   C1843     1.0  0.87129  0.58738  0.15487  1.0000
  C   C1844     1.0  0.88129  0.57084  0.15105  1.0000
  H   H1471     1.0  0.98016  0.67640  0.16043  1.0000
  H   H1472     1.0  0.58923  0.84776  0.02413  1.0000
  C   C1845     1.0  0.63685  0.63999  0.00876  1.0000
  C   C1846     1.0  0.85515  0.57632  0.22743  1.0000
  H   H1473     1.0  0.91362  0.64164  0.21075  1.0000
  C   C1847     1.0  0.64053  0.95885  0.00228  1.0000
  H   H1474     1.0  0.60770  0.52882  0.18185  1.0000
  H   H1475     1.0  0.60765  0.90083  0.21740  1.0000
  H   H1476     1.0  0.84166  0.59089  0.17022  1.0000
  H   H1477     1.0  0.88057  0.60740  0.14821  1.0000
  H   H1478     1.0  0.89825  0.57810  0.14141  1.0000
  H   H1479     1.0  0.68811  0.99025  0.19873  1.0000
  C   C1848     1.0  0.50415  0.62916  0.22956  1.0000
  H   H1480     1.0  0.64381  0.96451  0.01915  1.0000
  H   H1481     1.0  0.65907  0.92953  0.04317  1.0000
  C   C1849     1.0  0.59361  0.93146  0.07848  1.0000
  H   H1482     1.0  0.57296  0.77729  0.23622  1.0000
  H   H1483     1.0  0.64319  0.63424  0.02298  1.0000
  H   H1484     1.0  0.59400  0.94130  0.02498  1.0000
  H   H1485     1.0  0.55627  0.71066  0.14312  1.0000
  C   C1850     1.0  0.49903  0.66245  0.16350  1.0000
  C   C1851     1.0  0.66256  0.94747  0.19314  1.0000
  P   P64       1.0  0.83297  0.50232  0.18358  1.0000
  H   H1486     1.0  0.51815  0.99205  0.19346  1.0000
  C   C1852     1.0  0.52134  0.96259  0.23943  1.0000
  C   C1853     1.0  0.50472  0.50764  0.18812  1.0000
  H   H1487     1.0  0.58968  0.93811  0.09350  1.0000
  C   C1854     1.0  0.65883  0.91358  0.03380  1.0000
  C   C1855     1.0  0.51908  0.69377  0.12723  1.0000
  H   H1488     1.0  0.88161  0.65399  0.19984  1.0000
  C   C1856     1.0  0.59936  0.69945  0.18595  1.0000
  C   C1857     1.0  0.57355  0.88877  0.23525  1.0000
  H   H1489     1.0  0.52495  0.59193  0.20401  1.0000
  C   C1858     1.0  0.52579  0.68066  0.16244  1.0000
  H   H1490     1.0  0.66147  0.86021  0.99759  1.0000
  C   C1859     1.0  0.66678  0.92915  0.15948  1.0000
  S   S239      1.0  0.97272  0.73519  0.01445  1.0000
  C   C1860     1.0  0.67920  0.90908  0.03634  1.0000
  C   C1861     1.0  0.79847  0.96074  0.00102  1.0000
  H   H1491     1.0  0.95303  0.53156  0.23800  1.0000
  C   C1862     1.0  0.50005  0.96542  0.23609  1.0000
  S   S240      1.0  0.97382  0.62777  0.18773  1.0000
  H   H1492     1.0  0.91952  0.52498  0.20928  1.0000
  H   H1493     1.0  0.52688  0.70590  0.11319  1.0000
  C   C1863     1.0  0.51947  0.93813  0.23412  1.0000
  C   C1864     1.0  0.51628  0.65243  0.21733  1.0000
  C   C1865     1.0  0.59125  0.51689  0.19179  1.0000
  H   H1494     1.0  0.53612  0.93606  0.23637  1.0000
  C   C1866     1.0  0.60220  0.91330  0.07862  1.0000
  C   C1867     1.0  0.66313  0.99377  0.07346  1.0000
  C   C1868     1.0  0.78397  0.61226  0.24484  1.0000
  H   H1495     1.0  0.65547  0.59182  0.24364  1.0000
  H   H1496     1.0  0.60100  0.63134  0.02205  1.0000
  H   H1497     1.0  0.75640  0.99363  0.09677  1.0000
  H   H1498     1.0  0.85656  0.66094  0.22716  1.0000
  H   H1499     1.0  0.49087  0.65017  0.17738  1.0000
  C   C1869     1.0  0.66021  0.87453  0.00808  1.0000
  C   C1870     1.0  0.96474  0.50258  0.23337  1.0000
  C   C1871     1.0  0.74723  0.79493  0.05734  1.0000
  C   C1872     1.0  0.72187  0.77856  0.04926  1.0000
  C   C1873     1.0  0.70764  0.75112  0.05399  1.0000
  C   C1874     1.0  0.71860  0.74019  0.06714  1.0000
  C   C1875     1.0  0.74362  0.75666  0.07605  1.0000
  C   C1876     1.0  0.75820  0.78400  0.07055  1.0000
  P   P65       1.0  0.75805  0.74163  0.09157  1.0000
  C   C1877     1.0  0.78339  0.76640  0.10943  1.0000
  C   C1878     1.0  0.73512  0.71585  0.10886  1.0000
  C   C1879     1.0  0.71323  0.71604  0.11552  1.0000
  C   C1880     1.0  0.69576  0.69613  0.12906  1.0000
  C   C1881     1.0  0.70026  0.67624  0.13641  1.0000
  C   C1882     1.0  0.72235  0.67635  0.13036  1.0000
  C   C1883     1.0  0.73984  0.69620  0.11677  1.0000
  C   C1884     1.0  0.80599  0.76588  0.11327  1.0000
  C   C1885     1.0  0.82532  0.78483  0.12751  1.0000
  C   C1886     1.0  0.82201  0.80412  0.13826  1.0000
  C   C1887     1.0  0.79928  0.80434  0.13488  1.0000
  C   C1888     1.0  0.77995  0.78544  0.12062  1.0000
  C   C1889     1.0  0.77040  0.72833  0.07206  1.0000
  C   C1890     1.0  0.79331  0.74595  0.06162  1.0000
  C   C1891     1.0  0.80210  0.73603  0.04546  1.0000
  C   C1892     1.0  0.78788  0.70859  0.03940  1.0000
  C   C1893     1.0  0.76483  0.69103  0.04942  1.0000
  C   C1894     1.0  0.75607  0.70086  0.06565  1.0000
  H   H1500     1.0  0.75859  0.81587  0.05270  1.0000
  H   H1501     1.0  0.71362  0.78696  0.03868  1.0000
  H   H1502     1.0  0.68839  0.73814  0.04702  1.0000
  H   H1503     1.0  0.70776  0.71878  0.07009  1.0000
  H   H1504     1.0  0.77816  0.79673  0.07601  1.0000
  H   H1505     1.0  0.70945  0.73138  0.11024  1.0000
  H   H1506     1.0  0.67840  0.69569  0.13357  1.0000
  H   H1507     1.0  0.68637  0.66052  0.14655  1.0000
  H   H1508     1.0  0.72576  0.66087  0.13609  1.0000
  H   H1509     1.0  0.75694  0.69608  0.11231  1.0000
  H   H1510     1.0  0.80867  0.75075  0.10541  1.0000
  H   H1511     1.0  0.84281  0.78445  0.13030  1.0000
  H   H1512     1.0  0.83697  0.81874  0.14933  1.0000
  H   H1513     1.0  0.79657  0.81907  0.14339  1.0000
  H   H1514     1.0  0.76226  0.78558  0.11837  1.0000
  H   H1515     1.0  0.80405  0.76745  0.06555  1.0000
  H   H1516     1.0  0.81950  0.74969  0.03706  1.0000
  H   H1517     1.0  0.79447  0.70118  0.02654  1.0000
  H   H1518     1.0  0.75328  0.66995  0.04424  1.0000
  H   H1519     1.0  0.73763  0.68714  0.07258  1.0000
  C   C1895     1.0  0.65456  0.92544  0.17895  1.0000
  C   C1896     1.0  0.50726  0.60737  0.22478  1.0000
  C   C1897     1.0  0.56431  0.71608  0.22177  1.0000
  H   H1520     1.0  0.59553  0.66441  0.13139  1.0000
  C   C1898     1.0  0.81689  0.98843  0.00090  1.0000
  S   S241      1.0  0.98003  0.57908  0.20760  1.0000
  C   C1899     1.0  0.87030  0.65535  0.23214  1.0000
  C   C1900     1.0  0.49642  0.91654  0.22524  1.0000
  C   C1901     1.0  0.59656  0.93350  0.03985  1.0000
  H   H1521     1.0  0.56607  0.70002  0.22851  1.0000
  C   C1902     1.0  0.49248  0.67552  0.12837  1.0000
  H   H1522     1.0  0.66019  0.91218  0.14829  1.0000
  P   P66       1.0  0.54737  0.68405  0.18427  1.0000
  C   C1903     1.0  0.60157  0.67466  0.24140  1.0000
  H   H1523     1.0  0.54773  0.73458  0.17552  1.0000
  C   C1904     1.0  0.59402  0.52126  0.21399  1.0000
  C   C1905     1.0  0.67977  0.88939  0.02361  1.0000
  H   H1524     1.0  0.82072  0.61598  0.24171  1.0000
  S   S242      1.0  0.69156  0.98858  0.04138  1.0000
  H   H1525     1.0  0.49817  0.58948  0.23440  1.0000
  C   C1906     1.0  0.75041  0.85482  0.00833  1.0000
  C   C1907     1.0  0.59967  0.86810  0.23854  1.0000
  H   H1526     1.0  0.63860  0.90560  0.18291  1.0000
  C   C1908     1.0  0.65070  0.98830  0.09336  1.0000
  H   H1527     1.0  0.69489  0.92138  0.04777  1.0000
  C   C1909     1.0  0.53178  0.65413  0.20028  1.0000
  C   C1910     1.0  0.49884  0.97076  0.16411  1.0000
  C   C1911     1.0  0.60591  0.91585  0.03992  1.0000
  C   C1912     1.0  0.57031  0.73871  0.23465  1.0000
  H   H1528     1.0  0.84464  0.58036  0.21544  1.0000
  H   H1529     1.0  0.75623  0.66067  0.00132  1.0000
  C   C1913     1.0  0.56024  0.75810  0.20481  1.0000
  C   C1914     1.0  0.77910  0.49680  0.22518  1.0000
  C   C1915     1.0  0.73700  0.83043  0.99598  1.0000
  H   H1530     1.0  0.75652  0.89471  0.01491  1.0000
  H   H1531     1.0  0.84511  0.67867  0.99687  1.0000
  H   H1532     1.0  0.54617  0.63263  0.18235  1.0000
  C   C1916     1.0  0.90277  0.64490  0.22275  1.0000
  H   H1533     1.0  0.98277  0.51699  0.22613  1.0000
  H   H1534     1.0  0.50166  0.98459  0.23977  1.0000
  C   C1917     1.0  0.69496  0.97718  0.16821  1.0000
  C   C1918     1.0  0.81659  0.50112  0.20784  1.0000
  C   C1919     1.0  0.66782  0.58351  0.24328  1.0000
  H   H1535     1.0  0.82738  0.50232  0.13654  1.0000
  C   C1920     1.0  0.89303  0.57437  0.23790  1.0000
  C   C1921     1.0  0.63976  0.87900  0.00555  1.0000
  S   S243      1.0  0.98546  0.67647  0.03514  1.0000
  H   H1536     1.0  0.77450  0.59606  0.23281  1.0000
  H   H1537     1.0  0.71292  0.55440  0.24227  1.0000
  H   H1538     1.0  0.87764  0.53258  0.15643  1.0000
  H   H1539     1.0  0.97248  0.69098  0.12550  1.0000
  C   C1922     1.0  0.82782  0.50264  0.22810  1.0000
  C   C1923     1.0  0.56723  0.49786  0.18243  1.0000
  H   H1540     1.0  0.78316  0.49733  0.19113  1.0000
  H   H1541     1.0  0.61383  0.49811  0.23740  1.0000
  H   H1542     1.0  0.49014  0.91011  0.18158  1.0000
  C   C1924     1.0  0.90676  0.64200  0.24439  1.0000
  C   C1925     1.0  0.62571  0.93152  0.99558  1.0000
  Fe  Fe120     1.0  0.57160  0.77618  0.33614  1.0000
  S   S244      1.0  0.53839  0.73325  0.32980  1.0000
  S   S245      1.0  0.58757  0.79450  0.36998  1.0000
  Fe  Fe121     1.0  0.56949  0.79264  0.28959  1.0000
  S   S246      1.0  0.53640  0.75078  0.28026  1.0000
  C   C1926     1.0  0.55716  0.87080  0.25069  1.0000
  Fe  Fe122     1.0  0.51921  0.75163  0.31174  1.0000
  Fe  Fe123     1.0  0.55779  0.73491  0.29869  1.0000
  S   S247      1.0  0.55374  0.69512  0.28629  1.0000
  S   S248      1.0  0.55096  0.79462  0.31981  1.0000
  S   S249      1.0  0.59240  0.77679  0.30630  1.0000
  Fe  Fe124     1.0  0.77785  0.56053  0.32908  1.0000
  S   S250      1.0  0.73470  0.53408  0.32390  1.0000
  S   S251      1.0  0.79600  0.57420  0.36296  1.0000
  Fe  Fe125     1.0  0.78825  0.55484  0.28181  1.0000
  P   P67       1.0  0.77159  0.57465  0.46357  1.0000
  Fe  Fe126     1.0  0.74017  0.55702  0.29352  1.0000
  S   S252      1.0  0.71216  0.57169  0.28665  1.0000
  S   S253      1.0  0.78301  0.58556  0.30018  1.0000
  S   S254      1.0  0.78610  0.53163  0.31110  1.0000
  C   C1927     1.0  0.85933  0.56488  0.26365  1.0000
  C   C1928     1.0  0.76737  0.56538  0.49137  1.0000
  C   C1929     1.0  0.59834  0.70755  0.26444  1.0000
  H   H1543     1.0  0.58150  0.61216  0.26625  1.0000
  H   H1544     1.0  0.78085  0.98431  0.40792  1.0000
  C   C1930     1.0  0.73081  0.50364  0.41392  1.0000
  Fe  Fe127     1.0  0.69016  0.82246  0.46787  1.0000
  S   S255      1.0  0.67267  0.79956  0.43573  1.0000
  S   S256      1.0  0.73113  0.85836  0.46956  1.0000
  Fe  Fe128     1.0  0.83693  0.69548  0.45275  1.0000
  S   S257      1.0  0.85420  0.74036  0.45728  1.0000
  S   S258      1.0  0.82151  0.67963  0.41843  1.0000
  C   C1931     1.0  0.94766  0.70313  0.48246  1.0000
  H   H1545     1.0  0.49504  0.72158  0.40552  1.0000
  C   C1932     1.0  0.73819  0.51992  0.45096  1.0000
  C   C1933     1.0  0.90033  0.75075  0.28180  1.0000
  S   S259      1.0  0.86750  0.69572  0.47381  1.0000
  H   H1546     1.0  0.63217  0.71622  0.24707  1.0000
  H   H1547     1.0  0.85197  0.55949  0.27959  1.0000
  H   H1548     1.0  0.92036  0.65989  0.42112  1.0000
  C   C1934     1.0  0.86408  0.70907  0.26657  1.0000
  C   C1935     1.0  0.55822  0.57019  0.25584  1.0000
  H   H1549     1.0  0.65155  0.96430  0.45730  1.0000
  C   C1936     1.0  0.87368  0.65174  0.25389  1.0000
  H   H1550     1.0  0.75063  0.53427  0.39043  1.0000
  C   C1937     1.0  0.57829  0.54342  0.25997  1.0000
  C   C1938     1.0  0.56191  0.85159  0.25995  1.0000
  C   C1939     1.0  0.96885  0.66654  0.43463  1.0000
  C   C1940     1.0  0.80624  0.59257  0.46103  1.0000
  C   C1941     1.0  0.78157  0.64102  0.27200  1.0000
  C   C1942     1.0  0.67040  0.95425  0.43326  1.0000
  S   S260      1.0  0.79641  0.74054  0.48699  1.0000
  H   H1551     1.0  0.61806  0.56620  0.27225  1.0000
  C   C1943     1.0  0.74702  0.53015  0.40732  1.0000
  H   H1552     1.0  0.54032  0.52858  0.24541  1.0000
  C   C1944     1.0  0.68008  0.58228  0.26234  1.0000
  C   C1945     1.0  0.91554  0.67530  0.42301  1.0000
  H   H1553     1.0  0.53648  0.50739  0.28428  1.0000
  C   C1946     1.0  0.80360  0.60414  0.37771  1.0000
  C   C1947     1.0  0.81747  0.61010  0.39738  1.0000
  C   C1948     1.0  0.82305  0.63296  0.41014  1.0000
  C   C1949     1.0  0.81503  0.65036  0.40321  1.0000
  C   C1950     1.0  0.80171  0.64476  0.38328  1.0000
  C   C1951     1.0  0.79595  0.62176  0.37061  1.0000
  H   H1554     1.0  0.82381  0.59679  0.40278  1.0000
  H   H1555     1.0  0.83366  0.63724  0.42525  1.0000
  H   H1556     1.0  0.79562  0.65820  0.37765  1.0000
  H   H1557     1.0  0.78544  0.61758  0.35545  1.0000
  C   C1952     1.0  0.58324  0.85008  0.25395  1.0000
  C   C1953     1.0  0.57296  0.68793  0.26937  1.0000
  C   C1954     1.0  0.98833  0.74973  0.43615  1.0000
  H   H1558     1.0  0.65278  0.50089  0.25262  1.0000
  C   C1955     1.0  0.49037  0.83886  0.43195  1.0000
  C   C1956     1.0  0.61113  0.79519  0.38799  1.0000
  C   C1957     1.0  0.62493  0.78264  0.38310  1.0000
  C   C1958     1.0  0.64366  0.78424  0.39788  1.0000
  C   C1959     1.0  0.64889  0.79838  0.41770  1.0000
  C   C1960     1.0  0.63526  0.81109  0.42250  1.0000
  C   C1961     1.0  0.61646  0.80939  0.40778  1.0000
  H   H1559     1.0  0.62115  0.77170  0.36796  1.0000
  H   H1560     1.0  0.65414  0.77440  0.39394  1.0000
  H   H1561     1.0  0.63902  0.82199  0.43765  1.0000
  H   H1562     1.0  0.60590  0.81911  0.41177  1.0000
  H   H1563     1.0  0.71989  0.56484  0.46793  1.0000
  C   C1962     1.0  0.76632  0.76311  0.48853  1.0000
  C   C1963     1.0  0.75531  0.54647  0.44448  1.0000
  Fe  Fe129     1.0  0.74312  0.50686  0.30438  1.0000
  C   C1964     1.0  0.50590  0.77607  0.37727  1.0000
  C   C1965     1.0  0.50982  0.75613  0.38544  1.0000
  C   C1966     1.0  0.60171  0.59110  0.27096  1.0000
  C   C1967     1.0  0.95724  0.77926  0.48363  1.0000
  C   C1968     1.0  0.69007  0.71244  0.47433  1.0000
  H   H1564     1.0  0.97142  0.74983  0.43061  1.0000
  S   S261      1.0  0.92618  0.77118  0.47321  1.0000
  H   H1565     1.0  0.90622  0.67906  0.47685  1.0000
  C   C1969     1.0  0.79166  0.76828  0.49040  1.0000
  C   C1970     1.0  0.80787  0.65248  0.27713  1.0000
  C   C1971     1.0  0.69659  0.57197  0.26218  1.0000
  H   H1566     1.0  0.69551  0.50087  0.35666  1.0000
  H   H1567     1.0  0.80650  0.56541  0.43680  1.0000
  C   C1972     1.0  0.82254  0.64427  0.26584  1.0000
  H   H1568     1.0  0.69378  0.95021  0.40980  1.0000
  C   C1973     1.0  0.89249  0.64566  0.25994  1.0000
  H   H1569     1.0  0.81661  0.66737  0.29017  1.0000
  H   H1570     1.0  0.90341  0.69652  0.29750  1.0000
  C   C1974     1.0  0.86036  0.61871  0.46028  1.0000
  C   C1975     1.0  0.88816  0.69255  0.41272  1.0000
  H   H1571     1.0  0.61929  0.60906  0.27698  1.0000
  H   H1572     1.0  0.60891  0.95188  0.25279  1.0000
  H   H1573     1.0  0.70038  0.59215  0.45981  1.0000
  H   H1574     1.0  0.49057  0.80218  0.42737  1.0000
  C   C1976     1.0  0.67357  0.72239  0.47617  1.0000
  C   C1977     1.0  0.60543  0.51293  0.26641  1.0000
  C   C1978     1.0  0.61942  0.50487  0.25390  1.0000
  H   H1575     1.0  0.84684  0.69906  0.25628  1.0000
  C   C1979     1.0  0.56213  0.66159  0.26036  1.0000
  C   C1980     1.0  0.75813  0.59543  0.45832  1.0000
  H   H1576     1.0  0.88415  0.65605  0.39938  1.0000
  H   H1577     1.0  0.74142  0.77952  0.48968  1.0000
  P   P68       1.0  0.85590  0.65770  0.27388  1.0000
  H   H1578     1.0  0.93210  0.73300  0.45150  1.0000
  C   C1981     1.0  0.96941  0.64284  0.43185  1.0000
  H   H1579     1.0  0.50215  0.66233  0.31117  1.0000
  C   C1982     1.0  0.58039  0.59288  0.26483  1.0000
  C   C1983     1.0  0.60518  0.96749  0.25788  1.0000
  C   C1984     1.0  0.73180  0.58495  0.46175  1.0000
  C   C1985     1.0  0.84515  0.56927  0.24803  1.0000
  C   C1986     1.0  0.77314  0.62139  0.45007  1.0000
  H   H1580     1.0  0.97935  0.64071  0.41845  1.0000
  C   C1987     1.0  0.69254  0.96369  0.42126  1.0000
  C   C1988     1.0  0.95609  0.66953  0.45199  1.0000
  C   C1989     1.0  0.72069  0.60033  0.45713  1.0000
  P   P69       1.0  0.95496  0.69995  0.45503  1.0000
  C   C1990     1.0  0.73160  0.84367  0.40700  1.0000
  C   C1991     1.0  0.75667  0.85577  0.39949  1.0000
  C   C1992     1.0  0.76678  0.87933  0.38767  1.0000
  C   C1993     1.0  0.75193  0.89097  0.38363  1.0000
  C   C1994     1.0  0.72709  0.87945  0.39185  1.0000
  C   C1995     1.0  0.71681  0.85535  0.40307  1.0000
  P   P70       1.0  0.70735  0.89359  0.38600  1.0000
  C   C1996     1.0  0.68964  0.87682  0.36137  1.0000
  C   C1997     1.0  0.68602  0.88793  0.40769  1.0000
  C   C1998     1.0  0.69483  0.89000  0.42900  1.0000
  C   C1999     1.0  0.67857  0.88620  0.44587  1.0000
  C   C2000     1.0  0.65347  0.88041  0.44164  1.0000
  C   C2001     1.0  0.64474  0.87889  0.42050  1.0000
  C   C2002     1.0  0.66104  0.88296  0.40358  1.0000
  C   C2003     1.0  0.69914  0.88821  0.34144  1.0000
  C   C2004     1.0  0.68501  0.87509  0.32252  1.0000
  C   C2005     1.0  0.66165  0.85028  0.32335  1.0000
  C   C2006     1.0  0.65269  0.83829  0.34306  1.0000
  C   C2007     1.0  0.66678  0.85132  0.36197  1.0000
  C   C2008     1.0  0.72687  0.93002  0.38461  1.0000
  C   C2009     1.0  0.74887  0.94479  0.39819  1.0000
  C   C2010     1.0  0.76377  0.97306  0.39753  1.0000
  H   H1581     1.0  0.86055  0.64422  0.48590  1.0000
  C   C2011     1.0  0.73420  0.97235  0.37059  1.0000
  C   C2012     1.0  0.71921  0.94407  0.37127  1.0000
  H   H1582     1.0  0.72348  0.82517  0.41588  1.0000
  H   H1583     1.0  0.76816  0.84678  0.40272  1.0000
  H   H1584     1.0  0.78610  0.88850  0.38160  1.0000
  H   H1585     1.0  0.75984  0.90890  0.37409  1.0000
  H   H1586     1.0  0.69731  0.84553  0.40877  1.0000
  H   H1587     1.0  0.71420  0.89440  0.43269  1.0000
  H   H1588     1.0  0.68541  0.88754  0.46225  1.0000
  H   H1589     1.0  0.64079  0.87691  0.45477  1.0000
  H   H1590     1.0  0.62518  0.87409  0.41716  1.0000
  H   H1591     1.0  0.65392  0.88186  0.38733  1.0000
  H   H1592     1.0  0.71741  0.90714  0.34044  1.0000
  H   H1593     1.0  0.69210  0.88409  0.30716  1.0000
  H   H1594     1.0  0.65049  0.84021  0.30873  1.0000
  H   H1595     1.0  0.63471  0.81890  0.34370  1.0000
  H   H1596     1.0  0.65969  0.84151  0.37705  1.0000
  H   H1597     1.0  0.75445  0.93450  0.40941  1.0000
  H   H1598     1.0  0.77583  0.53365  0.48707  1.0000
  H   H1599     1.0  0.54906  0.83795  0.27173  1.0000
  C   C2013     1.0  0.87769  0.73732  0.26899  1.0000
  H   H1600     1.0  0.70157  0.93324  0.36149  1.0000
  H   H1601     1.0  0.74921  0.61186  0.25211  1.0000
  H   H1602     1.0  0.97583  0.79545  0.45382  1.0000
  H   H1603     1.0  0.98579  0.59650  0.29106  1.0000
  C   C2014     1.0  0.94372  0.64839  0.46642  1.0000
  H   H1604     1.0  0.77015  0.64703  0.28094  1.0000
  H   H1605     1.0  0.54222  0.57193  0.25003  1.0000
  C   C2015     1.0  0.95716  0.62194  0.44632  1.0000
  C   C2016     1.0  0.61252  0.70089  0.25063  1.0000
  H   H1606     1.0  0.89628  0.72925  0.42929  1.0000
  C   C2017     1.0  0.71316  0.99044  0.42418  1.0000
  C   C2018     1.0  0.92925  0.69709  0.43782  1.0000
  C   C2019     1.0  0.94431  0.62471  0.46357  1.0000
  C   C2020     1.0  0.81795  0.58308  0.44715  1.0000
  C   C2021     1.0  0.57616  0.65507  0.24626  1.0000
  C   C2022     1.0  0.88312  0.56750  0.25860  1.0000
  H   H1607     1.0  0.91087  0.77264  0.28365  1.0000
  C   C2023     1.0  0.76192  0.63665  0.44540  1.0000
  C   C2024     1.0  0.84492  0.59642  0.44654  1.0000
  H   H1608     1.0  0.91052  0.49804  0.25223  1.0000
  S   S262      1.0  0.81488  0.56615  0.25312  1.0000
  H   H1609     1.0  0.87216  0.69076  0.40322  1.0000
  C   C2025     1.0  0.60081  0.56657  0.26837  1.0000
  C   C2026     1.0  0.89499  0.67303  0.41058  1.0000
  C   C2027     1.0  0.92206  0.71639  0.43993  1.0000
  C   C2028     1.0  0.62182  0.99428  0.25225  1.0000
  C   C2029     1.0  0.73576  0.62617  0.44890  1.0000
  H   H1610     1.0  0.89398  0.56424  0.27085  1.0000
  C   C2030     1.0  0.89592  0.70771  0.28967  1.0000
  H   H1611     1.0  0.77129  0.57196  0.41708  1.0000
  H   H1612     1.0  0.67694  0.58964  0.27730  1.0000
  C   C2031     1.0  0.90176  0.71426  0.42734  1.0000
  H   H1613     1.0  0.68907  0.69796  0.48564  1.0000
  H   H1614     1.0  0.93364  0.65007  0.47988  1.0000
  H   H1615     1.0  0.85380  0.58931  0.43550  1.0000
  H   H1616     1.0  0.52639  0.75511  0.38057  1.0000
  S   S263      1.0  0.59040  0.82633  0.26516  1.0000
  H   H1617     1.0  0.92719  0.74638  0.30181  1.0000
  H   H1618     1.0  0.50658  0.98274  0.31597  1.0000
  C   C2032     1.0  0.68138  0.74287  0.37596  1.0000
  C   C2033     1.0  0.69531  0.76575  0.36361  1.0000
  C   C2034     1.0  0.72130  0.78451  0.36884  1.0000
  C   C2035     1.0  0.73329  0.78059  0.38658  1.0000
  C   C2036     1.0  0.71921  0.75801  0.39942  1.0000
  C   C2037     1.0  0.69330  0.73888  0.39372  1.0000
  P   P71       1.0  0.73398  0.75374  0.42324  1.0000
  C   C2038     1.0  0.74564  0.73110  0.41815  1.0000
  C   C2039     1.0  0.76047  0.78692  0.43197  1.0000
  C   C2040     1.0  0.78623  0.79474  0.42829  1.0000
  C   C2041     1.0  0.80656  0.82048  0.43490  1.0000
  C   C2042     1.0  0.80137  0.83894  0.44460  1.0000
  C   C2043     1.0  0.77585  0.83177  0.44749  1.0000
  C   C2044     1.0  0.75547  0.80584  0.44141  1.0000
  C   C2045     1.0  0.76240  0.72962  0.43315  1.0000
  C   C2046     1.0  0.77240  0.71309  0.42905  1.0000
  C   C2047     1.0  0.76569  0.69778  0.40993  1.0000
  C   C2048     1.0  0.74875  0.69880  0.39501  1.0000
  C   C2049     1.0  0.73874  0.71539  0.39907  1.0000
  C   C2050     1.0  0.71003  0.74084  0.44376  1.0000
  C   C2051     1.0  0.69297  0.75027  0.44551  1.0000
  C   C2052     1.0  0.67484  0.74106  0.46159  1.0000
  C   C2053     1.0  0.57828  0.98067  0.27597  1.0000
  H   H1619     1.0  0.60220  0.52640  0.29807  1.0000
  C   C2054     1.0  0.70804  0.72139  0.45806  1.0000
  H   H1620     1.0  0.66120  0.72839  0.37192  1.0000
  H   H1621     1.0  0.68593  0.76895  0.35001  1.0000
  H   H1622     1.0  0.73208  0.80222  0.35922  1.0000
  H   H1623     1.0  0.75341  0.79538  0.39038  1.0000
  H   H1624     1.0  0.68212  0.72118  0.40325  1.0000
  H   H1625     1.0  0.79085  0.78110  0.42043  1.0000
  H   H1626     1.0  0.82639  0.82598  0.43277  1.0000
  H   H1627     1.0  0.81709  0.85864  0.45024  1.0000
  H   H1628     1.0  0.77189  0.84600  0.45529  1.0000
  H   H1629     1.0  0.73598  0.80074  0.44438  1.0000
  H   H1630     1.0  0.76823  0.74171  0.44788  1.0000
  H   H1631     1.0  0.78576  0.71259  0.44059  1.0000
  H   H1632     1.0  0.77392  0.68540  0.40660  1.0000
  H   H1633     1.0  0.74367  0.68699  0.38014  1.0000
  H   H1634     1.0  0.72593  0.71612  0.38717  1.0000
  H   H1635     1.0  0.69368  0.76490  0.43451  1.0000
  H   H1636     1.0  0.66204  0.74883  0.46288  1.0000
  H   H1637     1.0  0.60709  0.72783  0.27130  1.0000
  H   H1638     1.0  0.65448  0.93351  0.43105  1.0000
  H   H1639     1.0  0.72053  0.71334  0.45698  1.0000
  H   H1640     1.0  0.95763  0.60360  0.44416  1.0000
  C   C2055     1.0  0.85494  0.64217  0.29896  1.0000
  C   C2056     1.0  0.87288  0.69405  0.27721  1.0000
  C   C2057     1.0  0.85519  0.65470  0.31848  1.0000
  C   C2058     1.0  0.85365  0.64219  0.33784  1.0000
  C   C2059     1.0  0.85161  0.61702  0.33782  1.0000
  C   C2060     1.0  0.85050  0.60403  0.31844  1.0000
  C   C2061     1.0  0.85194  0.61645  0.29908  1.0000
  H   H1641     1.0  0.56117  0.97471  0.28490  1.0000
  S   S264      1.0  0.81007  0.68579  0.47993  1.0000
  H   H1642     1.0  0.53948  0.97946  0.24568  1.0000
  H   H1643     1.0  0.65982  0.71573  0.48888  1.0000
  C   C2062     1.0  0.97868  0.79178  0.47027  1.0000
  H   H1644     1.0  0.54263  0.64619  0.26417  1.0000
  H   H1645     1.0  0.89626  0.64374  0.27660  1.0000
  H   H1646     1.0  0.93482  0.60852  0.47480  1.0000
  H   H1647     1.0  0.85608  0.67387  0.31879  1.0000
  H   H1648     1.0  0.85336  0.65163  0.35287  1.0000
  H   H1649     1.0  0.85001  0.60713  0.35280  1.0000
  H   H1650     1.0  0.84788  0.58404  0.31840  1.0000
  H   H1651     1.0  0.85034  0.60584  0.28419  1.0000
  C   C2063     1.0  0.75893  0.55150  0.42250  1.0000
  S   S265      1.0  0.74558  0.52789  0.27359  1.0000
  H   H1652     1.0  0.74416  0.65292  0.49087  1.0000
  H   H1653     1.0  0.72837  0.98307  0.36006  1.0000
  C   C2064     1.0  0.82193  0.61488  0.47481  1.0000
  P   P72       1.0  0.57690  0.51172  0.25572  1.0000
  H   H1654     1.0  0.88122  0.62891  0.45995  1.0000
  C   C2065     1.0  0.55723  0.54561  0.25327  1.0000
  C   C2066     1.0  0.92180  0.69029  0.48855  1.0000
  C   C2067     1.0  0.90949  0.73596  0.29207  1.0000
  Fe  Fe130     1.0  0.88352  0.74014  0.48017  1.0000
  H   H1655     1.0  0.77361  0.65669  0.43904  1.0000
  C   C2068     1.0  0.66878  0.97160  0.44808  1.0000
  H   H1656     1.0  0.72725  0.63814  0.44519  1.0000
  H   H1657     1.0  0.79342  0.62991  0.44710  1.0000
  C   C2069     1.0  0.84881  0.62761  0.47464  1.0000
  H   H1658     1.0  0.57024  0.93965  0.27351  1.0000
  C   C2070     1.0  0.58337  0.96065  0.26966  1.0000
  C   C2071     1.0  0.61296  0.52058  0.28802  1.0000
  H   H1659     1.0  0.51939  0.79030  0.36604  1.0000
  C   C2072     1.0  0.76967  0.62102  0.25580  1.0000
  C   C2073     1.0  0.76107  0.78399  0.49120  1.0000
  H   H1660     1.0  0.87073  0.74880  0.26085  1.0000
  Fe  Fe131     1.0  0.82865  0.73091  0.48539  1.0000
  C   C2074     1.0  0.75662  0.98682  0.38355  1.0000
  H   H1661     1.0  0.73397  0.51557  0.46766  1.0000
  H   H1662     1.0  0.54058  0.87167  0.25550  1.0000
  C   C2075     1.0  0.63491  0.52160  0.29663  1.0000
  C   C2076     1.0  0.49219  0.73733  0.39954  1.0000
  H   H1663     1.0  0.92070  0.63650  0.24906  1.0000
  S   S266      1.0  0.67547  0.84075  0.49140  1.0000
  C   C2077     1.0  0.98622  0.72852  0.44837  1.0000
  C   C2078     1.0  0.72618  0.49857  0.43570  1.0000
  H   H1664     1.0  0.64140  0.52869  0.31302  1.0000
  H   H1665     1.0  0.66663  0.51597  0.29036  1.0000
  H   H1666     1.0  0.57636  0.73989  0.25128  1.0000
  C   C2079     1.0  0.64133  0.50588  0.26259  1.0000
  H   H1667     1.0  0.97828  0.68251  0.42320  1.0000
  C   C2080     1.0  0.64913  0.51433  0.28390  1.0000
  H   H1668     1.0  0.81335  0.62213  0.48606  1.0000
  H   H1669     1.0  0.50968  0.84986  0.43919  1.0000
  H   H1670     1.0  0.75060  0.74269  0.48518  1.0000
  C   C2081     1.0  0.81462  0.50096  0.24669  1.0000
  H   H1671     1.0  0.72520  0.68190  0.48935  1.0000
  H   H1672     1.0  0.82366  0.50291  0.26228  1.0000
  H   H1673     1.0  0.78060  0.49794  0.25969  1.0000
  S   S267      1.0  0.72447  0.91903  0.49466  1.0000
  S   S268      1.0  0.69812  0.80035  0.49341  1.0000
  C   C2082     1.0  0.81187  0.79483  0.49506  1.0000
  H   H1674     1.0  0.98759  0.72820  0.49387  1.0000
  Fe  Fe132     1.0  0.71730  0.87575  0.49473  1.0000
  C   C2083     1.0  0.81027  0.62372  0.24990  1.0000
  Fe  Fe133     1.0  0.57823  0.77127  0.65113  1.0000
  S   S269      1.0  0.55491  0.72570  0.64972  1.0000
  S   S270      1.0  0.59988  0.80000  0.62377  1.0000
  Fe  Fe134     1.0  0.56173  0.77403  0.69697  1.0000
  S   S271      1.0  0.53734  0.72834  0.69852  1.0000
  S   S272      1.0  0.56219  0.79678  0.72764  1.0000
  Fe  Fe135     1.0  0.57023  0.72782  0.68349  1.0000
  S   S273      1.0  0.58290  0.69779  0.69198  1.0000
  Fe  Fe136     1.0  0.52335  0.72916  0.66502  1.0000
  S   S274      1.0  0.59594  0.77356  0.68392  1.0000
  S   S275      1.0  0.54539  0.77452  0.66438  1.0000
  Fe  Fe137     1.0  0.78223  0.59466  0.64147  1.0000
  S   S276      1.0  0.74398  0.55927  0.65198  1.0000
  S   S277      1.0  0.78437  0.62524  0.61712  1.0000
  Fe  Fe138     1.0  0.81359  0.58225  0.67424  1.0000
  S   S278      1.0  0.85528  0.59749  0.68563  1.0000
  Fe  Fe139     1.0  0.76025  0.57251  0.68588  1.0000
  S   S279      1.0  0.74147  0.57246  0.71761  1.0000
  S   S280      1.0  0.80147  0.57054  0.63951  1.0000
  S   S281      1.0  0.79708  0.60923  0.67548  1.0000
  Fe  Fe140     1.0  0.68610  0.82111  0.51731  1.0000
  S   S282      1.0  0.66159  0.79285  0.54401  1.0000
  S   S283      1.0  0.72674  0.85705  0.52215  1.0000
  Fe  Fe141     1.0  0.84164  0.68927  0.50165  1.0000
  S   S284      1.0  0.85901  0.73389  0.50911  1.0000
  S   S285      1.0  0.83485  0.65560  0.52453  1.0000
  H   H1675     1.0  0.64703  0.53248  0.69951  1.0000
  C   C2084     1.0  0.78254  0.95848  0.56117  1.0000
  H   H1676     1.0  0.85591  0.78083  0.52728  1.0000
  C   C2085     1.0  0.96748  0.71755  0.49804  1.0000
  C   C2086     1.0  0.84902  0.80722  0.54682  1.0000
  C   C2087     1.0  0.51428  0.62939  0.71594  1.0000
  Fe  Fe142     1.0  0.76432  0.53591  0.65192  1.0000
  C   C2088     1.0  0.96148  0.77517  0.50497  1.0000
  C   C2089     1.0  0.53450  0.83038  0.64577  1.0000
  C   C2090     1.0  0.76177  0.93691  0.57128  1.0000
  C   C2091     1.0  0.75159  0.97503  0.49707  1.0000
  H   H1677     1.0  0.71066  0.58988  0.69365  1.0000
  C   C2092     1.0  0.71598  0.57770  0.72468  1.0000
  H   H1678     1.0  0.97686  0.73052  0.53118  1.0000
  H   H1679     1.0  0.76157  0.58873  0.54022  1.0000
  H   H1680     1.0  0.72564  0.95953  0.60585  1.0000
  H   H1681     1.0  0.71713  0.95514  0.56360  1.0000
  C   C2093     1.0  0.86676  0.58561  0.70665  1.0000
  H   H1682     1.0  0.86768  0.82506  0.54394  1.0000
  C   C2094     1.0  0.85019  0.56259  0.71810  1.0000
  C   C2095     1.0  0.65516  0.52732  0.68640  1.0000
  H   H1683     1.0  0.82974  0.55147  0.71413  1.0000
  C   C2096     1.0  0.79893  0.63351  0.59153  1.0000
  C   C2097     1.0  0.80178  0.65628  0.58105  1.0000
  C   C2098     1.0  0.81292  0.66345  0.56072  1.0000
  C   C2099     1.0  0.82101  0.64770  0.55036  1.0000
  C   C2100     1.0  0.81808  0.62486  0.56074  1.0000
  C   C2101     1.0  0.80723  0.61785  0.58120  1.0000
  H   H1684     1.0  0.79563  0.66867  0.58885  1.0000
  H   H1685     1.0  0.81560  0.68135  0.55316  1.0000
  H   H1686     1.0  0.82429  0.61251  0.55293  1.0000
  H   H1687     1.0  0.80518  0.60028  0.58895  1.0000
  C   C2102     1.0  0.68431  0.59039  0.71637  1.0000
  C   C2103     1.0  0.51211  0.84829  0.72485  1.0000
  C   C2104     1.0  0.93566  0.70636  0.52520  1.0000
  C   C2105     1.0  0.76382  0.58117  0.50664  1.0000
  C   C2106     1.0  0.56808  0.58381  0.70801  1.0000
  C   C2107     1.0  0.58091  0.68154  0.71659  1.0000
  C   C2108     1.0  0.58861  0.66244  0.71729  1.0000
  H   H1688     1.0  0.77412  0.52389  0.52560  1.0000
  H   H1689     1.0  0.59541  0.65783  0.70292  1.0000
  C   C2109     1.0  0.59242  0.56152  0.71118  1.0000
  C   C2110     1.0  0.61698  0.79743  0.60179  1.0000
  C   C2111     1.0  0.62028  0.77544  0.59868  1.0000
  C   C2112     1.0  0.63399  0.77448  0.58097  1.0000
  C   C2113     1.0  0.64461  0.79541  0.56611  1.0000
  C   C2114     1.0  0.64116  0.81729  0.56916  1.0000
  C   C2115     1.0  0.62749  0.81827  0.58688  1.0000
  H   H1690     1.0  0.61230  0.75919  0.60992  1.0000
  H   H1691     1.0  0.63638  0.75735  0.57879  1.0000
  H   H1692     1.0  0.64880  0.83329  0.55773  1.0000
  H   H1693     1.0  0.62482  0.83519  0.58902  1.0000
  S   S286      1.0  0.77786  0.54635  0.68645  1.0000
  C   C2116     1.0  0.70539  0.94960  0.63521  1.0000
  C   C2117     1.0  0.50322  0.90161  0.71063  1.0000
  C   C2118     1.0  0.67712  0.51572  0.65206  1.0000
  P   P73       1.0  0.51569  0.55923  0.71779  1.0000
  H   H1694     1.0  0.68284  0.93393  0.66345  1.0000
  H   H1695     1.0  0.94539  0.76594  0.51557  1.0000
  H   H1696     1.0  0.52880  0.58650  0.67703  1.0000
  H   H1697     1.0  0.58871  0.84616  0.70256  1.0000
  C   C2119     1.0  0.97765  0.63789  0.70051  1.0000
  H   H1698     1.0  0.50693  0.89097  0.69816  1.0000
  H   H1699     1.0  0.55707  0.76497  0.59211  1.0000
  H   H1700     1.0  0.56443  0.83739  0.66872  1.0000
  C   C2120     1.0  0.54722  0.53767  0.72007  1.0000
  H   H1701     1.0  0.75414  0.99327  0.54601  1.0000
  H   H1702     1.0  0.79584  0.99542  0.54419  1.0000
  C   C2121     1.0  0.69778  0.50375  0.71998  1.0000
  H   H1703     1.0  0.76423  0.92111  0.57765  1.0000
  H   H1704     1.0  0.51340  0.51977  0.68548  1.0000
  C   C2122     1.0  0.90339  0.59130  0.72863  1.0000
  H   H1705     1.0  0.66338  0.56274  0.66912  1.0000
  H   H1706     1.0  0.83100  0.53645  0.61908  1.0000
  C   C2123     1.0  0.65698  0.50412  0.68672  1.0000
  C   C2124     1.0  0.81813  0.75929  0.54072  1.0000
  H   H1707     1.0  0.52397  0.65671  0.68985  1.0000
  C   C2125     1.0  0.67526  0.69015  0.71837  1.0000
  C   C2126     1.0  0.51892  0.93991  0.73539  1.0000
  C   C2127     1.0  0.62384  0.75115  0.72865  1.0000
  C   C2128     1.0  0.77088  0.53962  0.52023  1.0000
  C   C2129     1.0  0.58508  0.88533  0.74249  1.0000
  C   C2130     1.0  0.96145  0.71891  0.51935  1.0000
  H   H1708     1.0  0.59991  0.89335  0.71063  1.0000
  H   H1709     1.0  0.56798  0.60204  0.70475  1.0000
  H   H1710     1.0  0.77325  0.65807  0.52144  1.0000
  H   H1711     1.0  0.60866  0.60276  0.70173  1.0000
  C   C2131     1.0  0.66437  0.54459  0.66906  1.0000
  H   H1712     1.0  0.97128  0.60999  0.72546  1.0000
  C   C2132     1.0  0.76355  0.57599  0.52847  1.0000
  C   C2133     1.0  0.73806  0.93563  0.57255  1.0000
  H   H1713     1.0  0.62728  0.87121  0.52298  1.0000
  H   H1714     1.0  0.71326  0.97060  0.64005  1.0000
  H   H1715     1.0  0.69446  0.76432  0.55527  1.0000
  H   H1716     1.0  0.76713  0.55151  0.55223  1.0000
  H   H1717     1.0  0.85220  0.65342  0.70793  1.0000
  H   H1718     1.0  0.61058  0.56220  0.71033  1.0000
  C   C2134     1.0  0.50114  0.81108  0.68038  1.0000
  H   H1719     1.0  0.79455  0.55730  0.73598  1.0000
  C   C2135     1.0  0.49412  0.51588  0.68764  1.0000
  H   H1720     1.0  0.83150  0.79926  0.49642  1.0000
  C   C2136     1.0  0.59046  0.87805  0.72252  1.0000
  C   C2137     1.0  0.81681  0.50883  0.66828  1.0000
  C   C2138     1.0  0.57207  0.68717  0.73534  1.0000
  C   C2139     1.0  0.52743  0.82017  0.68336  1.0000
  H   H1721     1.0  0.74926  0.86529  0.62684  1.0000
  H   H1722     1.0  0.52699  0.85245  0.71364  1.0000
  H   H1723     1.0  0.81940  0.51521  0.68500  1.0000
  H   H1724     1.0  0.83799  0.54989  0.65760  1.0000
  C   C2140     1.0  0.52163  0.63777  0.69507  1.0000
  C   C2141     1.0  0.52465  0.59828  0.68803  1.0000
  H   H1725     1.0  0.83645  0.82860  0.56671  1.0000
  C   C2142     1.0  0.57150  0.83114  0.73290  1.0000
  H   H1726     1.0  0.81334  0.74038  0.53289  1.0000
  C   C2143     1.0  0.64299  0.87809  0.53472  1.0000
  H   H1727     1.0  0.68593  0.51139  0.63888  1.0000
  C   C2144     1.0  0.80718  0.78622  0.56303  1.0000
  C   C2145     1.0  0.73797  0.86342  0.61256  1.0000
  C   C2146     1.0  0.72933  0.84118  0.59846  1.0000
  C   C2147     1.0  0.71480  0.83879  0.58003  1.0000
  C   C2148     1.0  0.70869  0.85847  0.57570  1.0000
  C   C2149     1.0  0.71718  0.88080  0.58982  1.0000
  C   C2150     1.0  0.73204  0.88324  0.60822  1.0000
  P   P74       1.0  0.71042  0.90706  0.58428  1.0000
  C   C2151     1.0  0.70208  0.91602  0.60939  1.0000
  C   C2152     1.0  0.82734  0.52861  0.65278  1.0000
  H   H1728     1.0  0.49607  0.71842  0.73918  1.0000
  H   H1729     1.0  0.52354  0.74416  0.61947  1.0000
  C   C2153     1.0  0.82019  0.62921  0.72816  1.0000
  C   C2154     1.0  0.64741  0.65588  0.74295  1.0000
  H   H1730     1.0  0.68305  0.55257  0.63875  1.0000
  C   C2155     1.0  0.71231  0.94321  0.61575  1.0000
  H   H1731     1.0  0.60402  0.77185  0.73668  1.0000
  C   C2156     1.0  0.68829  0.92895  0.64843  1.0000
  C   C2157     1.0  0.67817  0.90186  0.64226  1.0000
  C   C2158     1.0  0.68511  0.89540  0.62288  1.0000
  C   C2159     1.0  0.68368  0.89519  0.56513  1.0000
  C   C2160     1.0  0.65882  0.88766  0.57165  1.0000
  C   C2161     1.0  0.63854  0.87898  0.55649  1.0000
  H   H1732     1.0  0.66116  0.64750  0.71416  1.0000
  C   C2162     1.0  0.66773  0.88595  0.52810  1.0000
  C   C2163     1.0  0.68796  0.89429  0.54322  1.0000
  C   C2164     1.0  0.84566  0.64070  0.72177  1.0000
  H   H1733     1.0  0.73383  0.82575  0.60175  1.0000
  H   H1734     1.0  0.70817  0.82157  0.56907  1.0000
  H   H1735     1.0  0.69728  0.85602  0.56138  1.0000
  C   C2165     1.0  0.49260  0.73344  0.73250  1.0000
  H   H1736     1.0  0.53061  0.51981  0.72629  1.0000
  C   C2166     1.0  0.73543  0.95609  0.56333  1.0000
  H   H1737     1.0  0.57152  0.52088  0.72264  1.0000
  H   H1738     1.0  0.61932  0.87267  0.56168  1.0000
  S   S287      1.0  0.65028  0.59145  0.74437  1.0000
  C   C2167     1.0  0.86245  0.63494  0.73273  1.0000
  C   C2168     1.0  0.51804  0.74013  0.60258  1.0000
  C   C2169     1.0  0.51791  0.59005  0.70916  1.0000
  H   H1739     1.0  0.66483  0.88579  0.65245  1.0000
  H   H1740     1.0  0.67693  0.87424  0.61827  1.0000
  H   H1741     1.0  0.65477  0.88812  0.58836  1.0000
  C   C2170     1.0  0.77983  0.97889  0.55226  1.0000
  H   H1742     1.0  0.93101  0.70808  0.54158  1.0000
  H   H1743     1.0  0.67135  0.88561  0.51122  1.0000
  H   H1744     1.0  0.70698  0.90011  0.53777  1.0000
  H   H1745     1.0  0.80065  0.95918  0.55988  1.0000
  H   H1746     1.0  0.50060  0.81983  0.62645  1.0000
  C   C2171     1.0  0.67544  0.53887  0.65195  1.0000
  C   C2172     1.0  0.53690  0.75181  0.58716  1.0000
  C   C2173     1.0  0.88684  0.56820  0.74002  1.0000
  C   C2174     1.0  0.48971  0.53196  0.70186  1.0000
  H   H1747     1.0  0.53493  0.81901  0.69890  1.0000
  H   H1748     1.0  0.89580  0.68260  0.51431  1.0000
  H   H1749     1.0  0.56608  0.70178  0.73512  1.0000
  H   H1750     1.0  0.73905  0.90048  0.61921  1.0000
  C   C2175     1.0  0.66128  0.66304  0.72415  1.0000
  C   C2176     1.0  0.57039  0.53821  0.71810  1.0000
  S   S288      1.0  0.77552  0.83729  0.50131  1.0000
  C   C2177     1.0  0.75629  0.97769  0.55334  1.0000
  C   C2178     1.0  0.98240  0.65427  0.61502  1.0000
  C   C2179     1.0  0.81138  0.61167  0.74528  1.0000
  H   H1751     1.0  0.53466  0.95898  0.74205  1.0000
  C   C2180     1.0  0.58398  0.85125  0.71782  1.0000
  C   C2181     1.0  0.59131  0.58437  0.70630  1.0000
  H   H1752     1.0  0.87637  0.50642  0.71686  1.0000
  H   H1753     1.0  0.68830  0.72771  0.57925  1.0000
  H   H1754     1.0  0.68585  0.69567  0.70369  1.0000
  C   C2182     1.0  0.89339  0.59984  0.71201  1.0000
  C   C2183     1.0  0.54413  0.83040  0.66625  1.0000
  H   H1755     1.0  0.53290  0.62911  0.66506  1.0000
  H   H1756     1.0  0.49878  0.72498  0.54216  1.0000
  C   C2184     1.0  0.76457  0.67037  0.52091  1.0000
  H   H1757     1.0  0.79376  0.78813  0.57296  1.0000
  C   C2185     1.0  0.67570  0.71014  0.73158  1.0000
  C   C2186     1.0  0.91583  0.69205  0.50980  1.0000
  H   H1758     1.0  0.97973  0.67816  0.59013  1.0000
  H   H1759     1.0  0.96415  0.63615  0.61042  1.0000
  H   H1760     1.0  0.61897  0.74951  0.71170  1.0000
  H   H1761     1.0  0.67549  0.59709  0.70480  1.0000
  C   C2187     1.0  0.49210  0.72292  0.59629  1.0000
  H   H1762     1.0  0.51083  0.64184  0.72682  1.0000
  C   C2188     1.0  0.86018  0.55394  0.73464  1.0000
  C   C2189     1.0  0.52975  0.74631  0.56542  1.0000
  C   C2190     1.0  0.73022  0.77084  0.54315  1.0000
  C   C2191     1.0  0.70858  0.75818  0.55592  1.0000
  C   C2192     1.0  0.70515  0.73755  0.56942  1.0000
  C   C2193     1.0  0.72335  0.72958  0.57018  1.0000
  C   C2194     1.0  0.74525  0.74239  0.55751  1.0000
  C   C2195     1.0  0.74838  0.76291  0.54386  1.0000
  P   P75       1.0  0.76848  0.73174  0.55741  1.0000
  C   C2196     1.0  0.76008  0.70646  0.53637  1.0000
  C   C2197     1.0  0.80021  0.76111  0.55339  1.0000
  C   C2198     1.0  0.83142  0.80919  0.55963  1.0000
  C   C2199     1.0  0.52355  0.92622  0.71919  1.0000
  C   C2200     1.0  0.70424  0.58626  0.70996  1.0000
  C   C2201     1.0  0.54572  0.56028  0.71460  1.0000
  C   C2202     1.0  0.84241  0.78227  0.53748  1.0000
  C   C2203     1.0  0.74327  0.70313  0.51923  1.0000
  C   C2204     1.0  0.73741  0.68372  0.50292  1.0000
  C   C2205     1.0  0.74813  0.66743  0.50373  1.0000
  C   C2206     1.0  0.80659  0.81568  0.49827  1.0000
  C   C2207     1.0  0.77051  0.68979  0.53714  1.0000
  C   C2208     1.0  0.76902  0.71642  0.58231  1.0000
  C   C2209     1.0  0.78954  0.73041  0.59743  1.0000
  C   C2210     1.0  0.79127  0.71722  0.61540  1.0000
  C   C2211     1.0  0.77263  0.69002  0.61841  1.0000
  C   C2212     1.0  0.75196  0.67608  0.60365  1.0000
  C   C2213     1.0  0.75008  0.68922  0.58572  1.0000
  H   H1763     1.0  0.73295  0.78683  0.53261  1.0000
  H   H1764     1.0  0.54451  0.75526  0.55353  1.0000
  C   C2214     1.0  0.52675  0.62220  0.68111  1.0000
  H   H1765     1.0  0.72026  0.71350  0.58063  1.0000
  H   H1766     1.0  0.76494  0.77286  0.53376  1.0000
  C   C2215     1.0  0.76693  0.55515  0.53526  1.0000
  C   C2216     1.0  0.82354  0.52103  0.63107  1.0000
  H   H1767     1.0  0.80699  0.63331  0.71952  1.0000
  H   H1768     1.0  0.73523  0.71591  0.51812  1.0000
  H   H1769     1.0  0.68677  0.73108  0.72696  1.0000
  C   C2217     1.0  0.77148  0.54496  0.49839  1.0000
  C   C2218     1.0  0.50374  0.72908  0.55906  1.0000
  H   H1770     1.0  0.78358  0.69213  0.55019  1.0000
  H   H1771     1.0  0.80464  0.75122  0.59516  1.0000
  H   H1772     1.0  0.80747  0.72785  0.62673  1.0000
  H   H1773     1.0  0.77449  0.67949  0.63191  1.0000
  H   H1774     1.0  0.73787  0.65482  0.60581  1.0000
  H   H1775     1.0  0.73433  0.67785  0.57412  1.0000
  H   H1776     1.0  0.82232  0.83604  0.50224  1.0000
  H   H1777     1.0  0.95987  0.63750  0.70321  1.0000
  H   H1778     1.0  0.90637  0.61770  0.70328  1.0000
  H   H1779     1.0  0.77453  0.51040  0.72242  1.0000
  H   H1780     1.0  0.54741  0.83751  0.63244  1.0000
  C   C2219     1.0  0.51222  0.60553  0.72296  1.0000
  H   H1781     1.0  0.54298  0.93457  0.71346  1.0000
  H   H1782     1.0  0.84711  0.53614  0.74337  1.0000
  H   H1783     1.0  0.50642  0.59958  0.73916  1.0000
  H   H1784     1.0  0.64361  0.72983  0.72508  1.0000
  C   C2220     1.0  0.78118  0.81041  0.49641  1.0000
  Fe  Fe143     1.0  0.73785  0.83714  0.49671  1.0000
  H   H1785     1.0  0.70219  0.51210  0.70416  1.0000
  C   C2221     1.0  0.98678  0.78394  0.51285  1.0000
  C   C2222     1.0  0.63799  0.74003  0.73636  1.0000
  H   H1786     1.0  0.73270  0.97265  0.49717  1.0000
  H   H1787     1.0  0.92388  0.60254  0.73261  1.0000
  C   C2223     1.0  0.78137  0.51527  0.73894  1.0000
  C   C2224     1.0  0.67580  0.58611  0.73758  1.0000
  H   H1788     1.0  0.88194  0.64317  0.72728  1.0000
  C   C2225     1.0  0.58766  0.64927  0.73642  1.0000
  H   H1789     1.0  0.59354  0.63459  0.73663  1.0000
  C   C2226     1.0  0.63173  0.50882  0.73749  1.0000
  C   C2227     1.0  0.75345  0.95174  0.49616  1.0000
  C   C2228     1.0  0.80039  0.98153  0.49683  1.0000
  H   H1790     1.0  0.76237  0.59825  0.50192  1.0000
  C   C2229     1.0  0.66800  0.49846  0.66937  1.0000
  H   H1791     1.0  0.73792  0.52116  0.72865  1.0000
  C   C2230     1.0  0.71826  0.50889  0.73390  1.0000
  H   H1792     1.0  0.65208  0.52436  0.73820  1.0000
  C   C2231     1.0  0.61540  0.76369  0.74273  1.0000
  C   C2232     1.0  0.50817  0.82042  0.64243  1.0000
  C   C2233     1.0  0.98399  0.62225  0.71299  1.0000
  C   C2234     1.0  0.49295  0.77534  0.73637  1.0000
  H   H1793     1.0  0.77991  0.93762  0.49545  1.0000
  C   C2235     1.0  0.49152  0.81083  0.65963  1.0000
  C   C2236     1.0  0.49688  0.75562  0.74513  1.0000
  C   C2237     1.0  0.49410  0.92889  0.74325  1.0000
  H   H1794     1.0  0.53714  0.88525  0.74306  1.0000
  C   C2238     1.0  0.51810  0.86702  0.74169  1.0000
  C   C2239     1.0  0.77806  0.95521  0.49612  1.0000
  H   H1795     1.0  0.81927  0.98385  0.49666  1.0000
  Fe  Fe144     1.0  0.93943  0.57416  0.77565  1.0000
  S   S289      1.0  0.94190  0.55255  0.80453  1.0000
  S   S290      1.0  0.89835  0.55623  0.76098  1.0000
  P   P76       1.0  0.77930  0.66353  0.92560  1.0000
  C   C2240     1.0  0.68760  0.57762  0.75236  1.0000
  H   H1796     1.0  0.54075  0.59315  0.75597  1.0000
  C   C2241     1.0  0.62149  0.76550  0.76461  1.0000
  C   C2242     1.0  0.52042  0.56960  0.78290  1.0000
  Fe  Fe145     1.0  0.96973  0.59423  0.81938  1.0000
  H   H1797     1.0  0.49706  0.79260  0.74640  1.0000
  Fe  Fe146     1.0  0.57263  0.55037  0.79348  1.0000
  S   S291      1.0  0.58627  0.57761  0.76515  1.0000
  S   S292      1.0  0.53778  0.50717  0.78461  1.0000
  Fe  Fe147     1.0  0.61910  0.59489  0.82203  1.0000
  S   S293      1.0  0.63483  0.62423  0.79500  1.0000
  S   S294      1.0  0.63935  0.60235  0.85570  1.0000
  Fe  Fe148     1.0  0.59331  0.61137  0.78752  1.0000
  S   S295      1.0  0.57896  0.64021  0.78010  1.0000
  Fe  Fe149     1.0  0.62680  0.58826  0.77400  1.0000
  C   C2243     1.0  0.64487  0.65740  0.97291  1.0000
  S   S296      1.0  0.57767  0.58398  0.81594  1.0000
  S   S297      1.0  0.61311  0.55922  0.80115  1.0000
  Fe  Fe150     1.0  0.56052  0.96092  0.80225  1.0000
  S   S298      1.0  0.57988  0.97303  0.77059  1.0000
  S   S299      1.0  0.51775  0.94800  0.80736  1.0000
  Fe  Fe151     1.0  0.60868  0.96279  0.82405  1.0000
  S   S300      1.0  0.63048  0.97511  0.79320  1.0000
  H   H1798     1.0  0.76210  0.98710  0.89876  1.0000
  Fe  Fe152     1.0  0.59300  0.94357  0.77655  1.0000
  H   H1799     1.0  0.80658  0.53297  0.79801  1.0000
  S   S301      1.0  0.57169  0.92954  0.80727  1.0000
  Fe  Fe153     1.0  0.97652  0.70463  0.95886  1.0000
  S   S302      1.0  0.97207  0.74103  0.96251  1.0000
  C   C2244     1.0  0.54434  0.94683  0.86017  1.0000
  H   H1800     1.0  0.72838  0.54969  0.80464  1.0000
  C   C2245     1.0  0.71350  0.49926  0.75468  1.0000
  C   C2246     1.0  0.57941  0.65535  0.75526  1.0000
  Fe  Fe154     1.0  0.71583  0.71034  0.96297  1.0000
  S   S303      1.0  0.75383  0.75051  0.96573  1.0000
  S   S304      1.0  0.69607  0.69734  0.92892  1.0000
  H   H1801     1.0  0.52222  0.96475  0.85213  1.0000
  C   C2247     1.0  0.63604  0.75483  0.77237  1.0000
  H   H1802     1.0  0.83446  0.61266  0.82038  1.0000
  C   C2248     1.0  0.49581  0.95990  0.80407  1.0000
  H   H1803     1.0  0.66918  0.93907  0.78814  1.0000
  H   H1804     1.0  0.85702  0.57007  0.77731  1.0000
  H   H1805     1.0  0.83052  0.99470  0.94808  1.0000
  S   S305      1.0  0.75392  0.97858  0.96722  1.0000
  H   H1806     1.0  0.63651  0.66963  0.77047  1.0000
  C   C2249     1.0  0.55831  0.99369  0.86874  1.0000
  H   H1807     1.0  0.75845  0.76707  0.77183  1.0000
  C   C2250     1.0  0.56741  0.95088  0.86912  1.0000
  H   H1808     1.0  0.87106  0.62288  0.84481  1.0000
  C   C2251     1.0  0.57287  0.86529  0.75769  1.0000
  H   H1809     1.0  0.56846  0.87046  0.77308  1.0000
  C   C2252     1.0  0.66231  0.99222  0.88173  1.0000
  H   H1810     1.0  0.52898  0.85743  0.97558  1.0000
  H   H1811     1.0  0.79125  0.60223  0.74936  1.0000
  C   C2253     1.0  0.50070  0.99048  0.87272  1.0000
  C   C2254     1.0  0.48965  0.52808  0.75292  1.0000
  H   H1812     1.0  0.90069  0.60698  0.83570  1.0000
  H   H1813     1.0  0.95341  0.60041  0.90017  1.0000
  H   H1814     1.0  0.66804  0.94113  0.91763  1.0000
  H   H1815     1.0  0.67858  0.99186  0.84078  1.0000
  H   H1816     1.0  0.64087  0.75676  0.78934  1.0000
  C   C2255     1.0  0.64633  0.96444  0.87688  1.0000
  H   H1817     1.0  0.88539  0.69597  0.93475  1.0000
  H   H1818     1.0  0.70133  0.97848  0.76789  1.0000
  H   H1819     1.0  0.65821  0.94603  0.82475  1.0000
  C   C2256     1.0  0.86696  0.96715  0.91595  1.0000
  H   H1820     1.0  0.81484  0.63047  0.79242  1.0000
  H   H1821     1.0  0.51707  0.61817  0.95459  1.0000
  H   H1822     1.0  0.72430  0.63056  0.91345  1.0000
  C   C2257     1.0  0.97924  0.65444  0.86796  1.0000
  H   H1823     1.0  0.55645  0.82303  0.76468  1.0000
  C   C2258     1.0  0.65606  0.62946  0.87549  1.0000
  C   C2259     1.0  0.66550  0.62475  0.89476  1.0000
  C   C2260     1.0  0.67783  0.64510  0.91119  1.0000
  C   C2261     1.0  0.68104  0.67069  0.90865  1.0000
  C   C2262     1.0  0.67192  0.67550  0.88927  1.0000
  C   C2263     1.0  0.65956  0.65513  0.87289  1.0000
  H   H1824     1.0  0.66282  0.60500  0.89716  1.0000
  H   H1825     1.0  0.68462  0.64089  0.92588  1.0000
  H   H1826     1.0  0.67437  0.69516  0.88692  1.0000
  H   H1827     1.0  0.65255  0.65913  0.85825  1.0000
  C   C2264     1.0  0.96172  0.62113  0.89532  1.0000
  H   H1828     1.0  0.63210  0.93989  0.94164  1.0000
  H   H1829     1.0  0.80740  0.64671  0.95450  1.0000
  H   H1830     1.0  0.53274  0.58561  0.79446  1.0000
  C   C2265     1.0  0.84288  0.59058  0.79689  1.0000
  C   C2266     1.0  0.96849  0.62744  0.87377  1.0000
  H   H1831     1.0  0.71646  0.56687  0.75749  1.0000
  H   H1832     1.0  0.80975  0.91054  0.97008  1.0000
  C   C2267     1.0  0.72168  0.61214  0.88271  1.0000
  C   C2268     1.0  0.82190  0.98486  0.96283  1.0000
  H   H1833     1.0  0.50654  0.50392  0.82170  1.0000
  C   C2269     1.0  0.67910  0.95920  0.79554  1.0000
  H   H1834     1.0  0.61490  0.77523  0.77550  1.0000
  H   H1835     1.0  0.63639  0.63479  0.74727  1.0000
  C   C2270     1.0  0.82955  0.70457  0.99249  1.0000
  C   C2271     1.0  0.61461  0.51238  0.74971  1.0000
  H   H1836     1.0  0.50522  0.97999  0.88458  1.0000
  H   H1837     1.0  0.98611  0.50379  0.82549  1.0000
  C   C2272     1.0  0.53381  0.66124  0.95878  1.0000
  C   C2273     1.0  0.84961  0.69878  0.99297  1.0000
  C   C2274     1.0  0.79500  0.89501  0.95942  1.0000
  C   C2275     1.0  0.96554  0.64126  0.91073  1.0000
  S   S306      1.0  0.96347  0.60094  0.85506  1.0000
  H   H1838     1.0  0.76297  0.54366  0.79118  1.0000
  H   H1839     1.0  0.65825  0.98804  0.95376  1.0000
  C   C2276     1.0  0.97640  0.66830  0.90493  1.0000
  C   C2277     1.0  0.82819  0.60591  0.75651  1.0000
  H   H1840     1.0  0.90011  0.76023  0.98013  1.0000
  Fe  Fe155     1.0  0.71960  0.98416  0.96522  1.0000
  C   C2278     1.0  0.62753  0.70209  0.79927  1.0000
  C   C2279     1.0  0.74973  0.79868  0.77298  1.0000
  H   H1841     1.0  0.67133  0.65106  0.99179  1.0000
  C   C2280     1.0  0.86276  0.96484  0.89373  1.0000
  C   C2281     1.0  0.58152  0.66544  0.95292  1.0000
  C   C2282     1.0  0.68479  0.98921  0.82537  1.0000
  H   H1842     1.0  0.69469  0.77628  0.93966  1.0000
  P   P77       1.0  0.61184  0.66742  0.94882  1.0000
  C   C2283     1.0  0.63417  0.94514  0.95857  1.0000
  C   C2284     1.0  0.63740  0.70217  0.94543  1.0000
  S   S307      1.0  0.80999  0.73926  0.98703  1.0000
  S   S308      1.0  0.73024  0.68987  0.98472  1.0000
  C   C2285     1.0  0.56604  0.83837  0.75286  1.0000
  C   C2286     1.0  0.66868  0.73813  0.92331  1.0000
  C   C2287     1.0  0.64827  0.71140  0.92539  1.0000
  S   S309      1.0  0.59584  0.99293  0.82113  1.0000
  C   C2288     1.0  0.74332  0.77173  0.77174  1.0000
  C   C2289     1.0  0.58612  0.97636  0.87763  1.0000
  C   C2290     1.0  0.68277  0.98331  0.91250  1.0000
  C   C2291     1.0  0.75435  0.64876  0.98708  1.0000
  C   C2292     1.0  0.60646  0.64639  0.92523  1.0000
  C   C2293     1.0  0.61135  0.62522  0.92560  1.0000
  C   C2294     1.0  0.60589  0.60848  0.90741  1.0000
  C   C2295     1.0  0.59573  0.61283  0.88871  1.0000
  C   C2296     1.0  0.59070  0.63376  0.88822  1.0000
  C   C2297     1.0  0.59582  0.65034  0.90645  1.0000
  C   C2298     1.0  0.67296  0.96310  0.81618  1.0000
  S   S310      1.0  0.96519  0.61547  0.79125  1.0000
  H   H1843     1.0  0.65760  0.66513  0.95950  1.0000
  C   C2299     1.0  0.78725  0.86796  0.96255  1.0000
  S   S311      1.0  0.97903  0.51655  0.78112  1.0000
  C   C2300     1.0  0.52485  0.57390  0.76105  1.0000
  H   H1844     1.0  0.67763  0.74477  0.90799  1.0000
  H   H1845     1.0  0.64192  0.69784  0.91153  1.0000
  H   H1846     1.0  0.72853  0.58338  0.96993  1.0000
  H   H1847     1.0  0.96019  0.63586  0.92713  1.0000
  H   H1848     1.0  0.73654  0.59577  0.81183  1.0000
  H   H1849     1.0  0.60436  0.97962  0.88387  1.0000
  C   C2301     1.0  0.85379  0.61757  0.75000  1.0000
  H   H1850     1.0  0.61941  0.62148  0.93976  1.0000
  H   H1851     1.0  0.61014  0.59248  0.90756  1.0000
  H   H1852     1.0  0.59221  0.60022  0.87449  1.0000
  H   H1853     1.0  0.58292  0.63712  0.87365  1.0000
  H   H1854     1.0  0.59163  0.66635  0.90590  1.0000
  H   H1855     1.0  0.88631  0.97529  0.92271  1.0000
  H   H1856     1.0  0.55589  0.70478  0.96215  1.0000
  S   S312      1.0  0.69842  0.72148  0.99025  1.0000
  H   H1857     1.0  0.69209  0.72800  0.80738  1.0000
  C   C2302     1.0  0.61911  0.69062  0.81924  1.0000
  C   C2303     1.0  0.76544  0.66179  0.96810  1.0000
  C   C2304     1.0  0.63695  0.69291  0.83489  1.0000
  C   C2305     1.0  0.66325  0.70659  0.83051  1.0000
  C   C2306     1.0  0.50263  0.98423  0.79418  1.0000
  C   C2307     1.0  0.53980  0.96813  0.85993  1.0000
  S   S313      1.0  0.62336  0.95127  0.85454  1.0000
  C   C2308     1.0  0.60509  0.64622  0.98997  1.0000
  C   C2309     1.0  0.70750  0.57342  0.74592  1.0000
  H   H1858     1.0  0.63033  0.68369  0.85026  1.0000
  H   H1859     1.0  0.67704  0.70797  0.84254  1.0000
  H   H1860     1.0  0.68136  0.57426  0.76872  1.0000
  H   H1861     1.0  0.72953  0.50363  0.76543  1.0000
  S   S314      1.0  0.97217  0.57373  0.75974  1.0000
  C   C2310     1.0  0.55849  0.63997  0.95220  1.0000
  C   C2311     1.0  0.79293  0.54200  0.74671  1.0000
  C   C2312     1.0  0.67172  0.71796  0.81048  1.0000
  H   H1862     1.0  0.49098  0.93972  0.75600  1.0000
  C   C2313     1.0  0.66659  0.95552  0.90779  1.0000
  S   S315      1.0  0.94531  0.68051  0.98254  1.0000
  C   C2314     1.0  0.57140  0.67420  0.75453  1.0000
  H   H1863     1.0  0.70080  0.60231  0.88136  1.0000
  H   H1864     1.0  0.59861  0.67931  0.82227  1.0000
  H   H1865     1.0  0.89347  0.58062  0.80191  1.0000
  H   H1866     1.0  0.49781  0.54089  0.80675  1.0000
  C   C2315     1.0  0.75680  0.96899  0.90749  1.0000
  C   C2316     1.0  0.73093  0.95103  0.91215  1.0000
  C   C2317     1.0  0.72417  0.92816  0.92408  1.0000
  C   C2318     1.0  0.74325  0.92320  0.93132  1.0000
  C   C2319     1.0  0.76923  0.94095  0.92649  1.0000
  C   C2320     1.0  0.77593  0.96417  0.91484  1.0000
  P   P78       1.0  0.79426  0.93681  0.93837  1.0000
  C   C2321     1.0  0.80390  0.95686  0.96297  1.0000
  C   C2322     1.0  0.78362  0.90177  0.94280  1.0000
  H   H1867     1.0  0.70840  0.80967  0.97067  1.0000
  C   C2323     1.0  0.76328  0.64664  0.94960  1.0000
  H   H1868     1.0  0.76983  0.81493  0.77402  1.0000
  C   C2324     1.0  0.75754  0.85413  0.93197  1.0000
  C   C2325     1.0  0.76524  0.88117  0.92879  1.0000
  C   C2326     1.0  0.84694  0.66946  0.94571  1.0000
  C   C2327     1.0  0.86502  0.68882  0.93226  1.0000
  H   H1869     1.0  0.86509  0.77060  0.97953  1.0000
  C   C2328     1.0  0.88044  0.58746  0.80594  1.0000
  H   H1870     1.0  0.85348  0.66184  0.95856  1.0000
  C   C2329     1.0  0.82111  0.94840  0.92089  1.0000
  C   C2330     1.0  0.81693  0.94558  0.89857  1.0000
  C   C2331     1.0  0.83775  0.95396  0.88505  1.0000
  C   C2332     1.0  0.98320  0.67461  0.88339  1.0000
  C   C2333     1.0  0.79964  0.52824  0.78146  1.0000
  C   C2334     1.0  0.84619  0.95877  0.92951  1.0000
  C   C2335     1.0  0.76848  0.84752  0.94889  1.0000
  H   H1871     1.0  0.71624  0.95528  0.90708  1.0000
  H   H1872     1.0  0.70427  0.91474  0.92841  1.0000
  H   H1873     1.0  0.73776  0.90599  0.94128  1.0000
  H   H1874     1.0  0.79598  0.97895  0.91193  1.0000
  C   C2336     1.0  0.65210  0.97915  0.98725  1.0000
  C   C2337     1.0  0.64883  0.97232  0.96539  1.0000
  C   C2338     1.0  0.62296  0.92476  0.97360  1.0000
  H   H1875     1.0  0.74295  0.83823  0.92144  1.0000
  H   H1876     1.0  0.75679  0.88595  0.91547  1.0000
  C   C2339     1.0  0.64435  0.74190  0.75830  1.0000
  H   H1877     1.0  0.74885  0.60614  0.93656  1.0000
  C   C2340     1.0  0.71738  0.75075  0.77035  1.0000
  H   H1878     1.0  0.53029  0.92741  0.85273  1.0000
  Fe  Fe156     1.0  0.73019  0.94478  0.99015  1.0000
  H   H1879     1.0  0.79760  0.93675  0.89161  1.0000
  H   H1880     1.0  0.83445  0.95186  0.86783  1.0000
  C   C2341     1.0  0.78781  0.50146  0.77367  1.0000
  C   C2342     1.0  0.71452  0.84956  0.97717  1.0000
  H   H1881     1.0  0.84971  0.96026  0.94669  1.0000
  H   H1882     1.0  0.63959  0.71328  0.97901  1.0000
  C   C2343     1.0  0.80053  0.74313  0.93202  1.0000
  C   C2344     1.0  0.78075  0.74389  0.92089  1.0000
  C   C2345     1.0  0.76017  0.72017  0.91146  1.0000
  C   C2346     1.0  0.75954  0.69575  0.91283  1.0000
  C   C2347     1.0  0.77971  0.69491  0.92353  1.0000
  C   C2348     1.0  0.79997  0.71878  0.93343  1.0000
  C   C2349     1.0  0.53475  0.63791  0.95515  1.0000
  C   C2350     1.0  0.79188  0.94507  0.98209  1.0000
  C   C2351     1.0  0.73510  0.62828  0.90082  1.0000
  C   C2352     1.0  0.76222  0.64179  0.90243  1.0000
  H   H1883     1.0  0.51747  0.81203  0.98792  1.0000
  H   H1884     1.0  0.57119  0.93453  0.86884  1.0000
  C   C2353     1.0  0.76208  0.62188  0.86782  1.0000
  C   C2354     1.0  0.77561  0.63830  0.88584  1.0000
  H   H1885     1.0  0.70067  0.84733  0.96489  1.0000
  C   C2355     1.0  0.73515  0.60893  0.86621  1.0000
  C   C2356     1.0  0.66757  0.74688  0.96114  1.0000
  C   C2357     1.0  0.65388  0.71585  0.79470  1.0000
  C   C2358     1.0  0.87539  0.71863  0.98850  1.0000
  C   C2359     1.0  0.82079  0.66102  0.94334  1.0000
  C   C2360     1.0  0.83080  0.69100  0.91359  1.0000
  C   C2361     1.0  0.85694  0.69944  0.91609  1.0000
  Fe  Fe157     1.0  0.97614  0.55414  0.78955  1.0000
  C   C2362     1.0  0.64859  0.94624  0.89019  1.0000
  H   H1886     1.0  0.77993  0.63605  0.80612  1.0000
  H   H1887     1.0  0.81594  0.76122  0.94021  1.0000
  H   H1888     1.0  0.78091  0.76265  0.92024  1.0000
  H   H1889     1.0  0.74429  0.72051  0.90354  1.0000
  H   H1890     1.0  0.74309  0.67776  0.90569  1.0000
  H   H1891     1.0  0.81519  0.71860  0.94267  1.0000
  C   C2363     1.0  0.72808  0.87403  0.98940  1.0000
  H   H1892     1.0  0.77705  0.92386  0.98230  1.0000
  H   H1893     1.0  0.59775  0.70875  0.95687  1.0000
  H   H1894     1.0  0.77252  0.61929  0.85506  1.0000
  H   H1895     1.0  0.79644  0.64817  0.88669  1.0000
  H   H1896     1.0  0.62174  0.53068  0.75954  1.0000
  C   C2364     1.0  0.75011  0.61825  0.95043  1.0000
  H   H1897     1.0  0.61333  0.69954  0.78719  1.0000
  H   H1898     1.0  0.61266  0.90379  0.96806  1.0000
  H   H1899     1.0  0.86703  0.61292  0.75777  1.0000
  H   H1900     1.0  0.82494  0.69998  0.90138  1.0000
  H   H1901     1.0  0.87110  0.71472  0.90587  1.0000
  C   C2365     1.0  0.84706  0.60548  0.81608  1.0000
  H   H1902     1.0  0.55894  0.62170  0.94938  1.0000
  C   C2366     1.0  0.88452  0.60236  0.82495  1.0000
  C   C2367     1.0  0.85970  0.58152  0.79201  1.0000
  H   H1903     1.0  0.56485  0.67903  0.76894  1.0000
  C   C2368     1.0  0.86781  0.61132  0.83004  1.0000
  H   H1904     1.0  0.77596  0.68371  0.96801  1.0000
  C   C2369     1.0  0.80245  0.54874  0.76797  1.0000
  H   H1905     1.0  0.87888  0.97127  0.88326  1.0000
  P   P79       1.0  0.81633  0.58294  0.77849  1.0000
  H   H1906     1.0  0.79541  0.86266  0.97582  1.0000
  C   C2370     1.0  0.79169  0.58663  0.79109  1.0000
  C   C2371     1.0  0.79623  0.61265  0.79554  1.0000
  C   C2372     1.0  0.77648  0.61590  0.80323  1.0000
  C   C2373     1.0  0.75204  0.59321  0.80649  1.0000
  C   C2374     1.0  0.74744  0.56724  0.80237  1.0000
  C   C2375     1.0  0.76717  0.56391  0.79472  1.0000
  H   H1907     1.0  0.63641  0.92471  0.88675  1.0000
  H   H1908     1.0  0.72464  0.59643  0.85220  1.0000
  C   C2376     1.0  0.81252  0.67188  0.92733  1.0000
  S   S316      1.0  0.69539  0.94967  0.98700  1.0000
  C   C2377     1.0  0.58042  0.68883  0.95647  1.0000
  C   C2378     1.0  0.53583  0.82976  0.99291  1.0000
  H   H1909     1.0  0.51539  0.65962  0.96104  1.0000
  S   S317      1.0  0.59310  0.91939  0.74708  1.0000
  P   P80       1.0  0.66416  0.72929  0.76836  1.0000
  C   C2379     1.0  0.73876  0.60527  0.96938  1.0000
  C   C2380     1.0  0.69761  0.75657  0.77022  1.0000
  S   S318      1.0  0.98274  0.69517  0.92378  1.0000
  C   C2381     1.0  0.65271  0.64945  0.99112  1.0000
  C   C2382     1.0  0.70422  0.78371  0.77151  1.0000
  C   C2383     1.0  0.74086  0.62053  0.98770  1.0000
  C   C2384     1.0  0.73019  0.80465  0.77287  1.0000
  C   C2385     1.0  0.66211  0.70312  0.75071  1.0000
  C   C2386     1.0  0.67838  0.75583  0.94118  1.0000
  H   H1910     1.0  0.76217  0.82654  0.95172  1.0000
  H   H1911     1.0  0.73514  0.82554  0.77379  1.0000
  H   H1912     1.0  0.68945  0.78884  0.77140  1.0000
  C   C2387     1.0  0.54234  0.85533  0.98592  1.0000
  C   C2388     1.0  0.62093  0.65571  0.97212  1.0000
  C   C2389     1.0  0.88056  0.74457  0.98361  1.0000
  C   C2390     1.0  0.83473  0.73055  0.98773  1.0000
  C   C2391     1.0  0.50071  0.54451  0.78978  1.0000
  C   C2392     1.0  0.55662  0.68667  0.95942  1.0000
  C   C2393     1.0  0.64725  0.72013  0.96330  1.0000
  H   H1913     1.0  0.62523  0.86795  0.99299  1.0000
  C   C2394     1.0  0.86051  0.75041  0.98327  1.0000
  C   C2395     1.0  0.49979  0.86227  0.75693  1.0000
  C   C2396     1.0  0.64765  0.67577  0.75612  1.0000
  H   H1914     1.0  0.98443  0.65975  0.85154  1.0000
  S   S319      1.0  0.72205  0.90091  0.98411  1.0000
  H   H1915     1.0  0.50484  0.87677  0.77008  1.0000
  C   C2397     1.0  0.71882  0.82799  0.98045  1.0000
  H   H1916     1.0  0.58678  0.64516  0.99011  1.0000
  H   H1917     1.0  0.71274  0.72995  0.76948  1.0000
  Fe  Fe158     1.0  0.94219  0.71779  0.98736  1.0000
  C   C2398     1.0  0.69719  0.98142  0.78416  1.0000
  H   H1918     1.0  0.50400  0.75796  0.76154  1.0000
  S   S320      1.0  0.90008  0.70987  0.98919  1.0000
  H   H1919     1.0  0.57046  0.89799  0.98728  1.0000
  H   H1920     1.0  0.67555  0.76040  0.97511  1.0000
  C   C2399     1.0  0.56597  0.87825  0.99244  1.0000
  Fe  Fe159     1.0  0.76761  0.73042  0.98886  1.0000
  Fe  Fe160     1.0  0.73712  0.76085  0.99362  1.0000
  C   C2400     1.0  0.50912  0.55343  0.74588  1.0000
