data_image0
_chemical_formula_structural       C2HC2HCHCHC2HC2HCHC2HCHCHCHC2HC2HC2HC2HC2HC2HCHCHC2HC2HCHC2HCHCHCHC2HC2HC2HC2HC2HC2HCHCHC2HC2HCHC2HCHCHCHC2HC2HC2HC2HC2HC2HCHCHC2HC2HCHC2HCHCHCHC2HC2HC2HC2HC2HC2HCHCHC2HC2HCHC2HCHCHCHC2HC2HC2HC2HC2HC2HCHCHC2HC2HCHC2HCHCHCHC2HC2HC2HC2HC2HC2HCHCHC2HC2HCHC2HCHCHCHC2HC2HC2HC2HC2HC2HCHCHC2HC2HCHC2HCHCHCHC2HC2HC2HC2HInO8C4InO8C4InO8C4InO8C4InO8C4InO8C5H3CH3NH2CH3CH3NH2CH3CH3NH2CH3CH3NH2CH3CH3NH2CH3CH3NH2
_chemical_formula_sum              "C228 H168 In6 O48 N6"
_cell_length_a       26.56040526040778
_cell_length_b       26.30005993987167
_cell_length_c       26.389408289388403
_cell_angle_alpha    90.66192139733097
_cell_angle_beta     91.72319706976145
_cell_angle_gamma    91.06136086146734

_space_group_name_H-M_alt    "P 1"
_space_group_IT_number       1

loop_
  _space_group_symop_operation_xyz
  'x, y, z'

loop_
  _atom_site_type_symbol
  _atom_site_label
  _atom_site_symmetry_multiplicity
  _atom_site_fract_x
  _atom_site_fract_y
  _atom_site_fract_z
  _atom_site_occupancy
  C   C1        1.0  0.4592743556613301  0.7256366684240053  0.1465481750849133  1.0000
  C   C2        1.0  0.44128822717719585  0.7742732533085294  0.15772992270639935  1.0000
  H   H1        1.0  0.4512289706912536  0.8064269928183149  0.13440385727416002  1.0000
  C   C3        1.0  0.16612361771429668  0.6429871612355373  0.36031805536868544  1.0000
  C   C4        1.0  0.17706986406657435  0.6580915616385843  0.3108557958849208  1.0000
  H   H2        1.0  0.1522714595784102  0.6467926036503244  0.2791202810312571  1.0000
  C   C5        1.0  0.19904436505122178  0.657973762414559  0.4006508864437224  1.0000
  H   H3        1.0  0.19162254067520243  0.6461778674947384  0.4389622343502529  1.0000
  C   C6        1.0  0.24254175365525676  0.6869220091098209  0.391391427622804  1.0000
  H   H4        1.0  0.2679972112128338  0.6972215062867363  0.42282469039878656  1.0000
  C   C7        1.0  0.2538249867078425  0.7011628458703668  0.34169362489281885  1.0000
  C   C8        1.0  0.2203965693184422  0.6868531487021797  0.3016616587786639  1.0000
  H   H5        1.0  0.22763244607453553  0.6981776045516483  0.2631821296371536  1.0000
  C   C9        1.0  0.3784205852747009  0.9429701960859381  0.4393477545264957  1.0000
  C   C10       1.0  0.33023219457974134  0.9304242403431193  0.41895720302829775  1.0000
  H   H6        1.0  0.29836849043505453  0.9540937372373137  0.4267173180370909  1.0000
  C   C11       1.0  0.322388860363393  0.8866390769390061  0.3893799617116264  1.0000
  H   H7        1.0  0.28483253773439027  0.877664065992478  0.3742848429009048  1.0000
  C   C12       1.0  0.36251884877580665  0.8544498324440528  0.37941038286464557  1.0000
  C   C13       1.0  0.41116979202750426  0.8678415172475172  0.398038163857548  1.0000
  H   H8        1.0  0.44263410107026663  0.8434359764415681  0.3906984350636416  1.0000
  C   C14       1.0  0.4190918039650223  0.9117902867101068  0.42796998219577553  1.0000
  H   H9        1.0  0.4565423112404645  0.9206338933747901  0.44345095813912183  1.0000
  C   C15       1.0  0.4457581040510325  0.6846789280017131  0.17743893988694376  1.0000
  H   H10       1.0  0.4596027544653521  0.6469707692745968  0.16969204103097252  1.0000
  C   C16       1.0  0.41608470373491874  0.6927694811444203  0.2197576079969294  1.0000
  H   H11       1.0  0.40737467399935806  0.6610883145950889  0.244053239024644  1.0000
  C   C17       1.0  0.3996806550297289  0.741898011714944  0.23178809643908704  1.0000
  C   C18       1.0  0.41178297585252077  0.7822757608353581  0.19975679747059538  1.0000
  H   H12       1.0  0.3987046616936519  0.820272703417906  0.2074653577400995  1.0000
  C   C19       1.0  0.29962503900868465  0.7319746090579883  0.33141932623472437  1.0000
  C   C20       1.0  0.31183268551848875  0.7750432111434756  0.36140941206842625  1.0000
  H   H13       1.0  0.2884866191552301  0.784644514880249  0.3929708019687577  1.0000
  C   C21       1.0  0.352861410397905  0.8068361509462598  0.3499924181980973  1.0000
  C   C22       1.0  0.3824664008430372  0.7946398916598747  0.3086672120552859  1.0000
  H   H14       1.0  0.4139770548324989  0.8193231068424339  0.2995942362304291  1.0000
  C   C23       1.0  0.37063477351460433  0.7518062116784336  0.27790661979194303  1.0000
  C   C24       1.0  0.3294420523399194  0.7203821285694252  0.2898255771304089  1.0000
  H   H15       1.0  0.3198328529534866  0.6875955764300614  0.2659852524791673  1.0000
  C   C25       1.0  0.7357185386757789  0.14933146072785755  0.45233679059064225  1.0000
  C   C26       1.0  0.6954250182600931  0.18071948591355674  0.4385145106437393  1.0000
  H   H16       1.0  0.658067698541401  0.17278032124325737  0.45218631591101377  1.0000
  C   C27       1.0  0.9532330074168216  0.44379046657915855  0.36636844865138624  1.0000
  C   C28       1.0  0.9240264706155354  0.4306003887404107  0.40796629680882973  1.0000
  H   H17       1.0  0.934433918117023  0.44471945488965625  0.44563616997972716  1.0000
  C   C29       1.0  0.9386421343580885  0.4253380210231698  0.317856476263892  1.0000
  H   H18       1.0  0.9606270563248023  0.43500602666082316  0.2852159658943539  1.0000
  C   C30       1.0  0.8949733162248708  0.3956601023667492  0.31067363873323683  1.0000
  H   H19       1.0  0.8846242097099929  0.3821601390023239  0.27277548288346665  1.0000
  C   C31       1.0  0.8647401139941123  0.38384005387441233  0.351783717979523  1.0000
  C   C32       1.0  0.8800832730906678  0.40073427055909683  0.4007013419722564  1.0000
  H   H20       1.0  0.8572209721585492  0.3921706898233418  0.43293097507128636  1.0000
  C   C33       1.0  0.65147196493655  0.36408359676183505  0.15584030061270496  1.0000
  C   C34       1.0  0.6661402233526149  0.4046453629525647  0.18845784172495222  1.0000
  H   H21       1.0  0.6539217158509902  0.44293181455716557  0.1805870886999415  1.0000
  C   C35       1.0  0.6956107915319727  0.39569914822718566  0.2322486573659709  1.0000
  H   H22       1.0  0.7059190527818734  0.42728460773392735  0.25742925865650695  1.0000
  C   C36       1.0  0.710594899390352  0.346108520042208  0.24411804082278699  1.0000
  C   C37       1.0  0.6967105271520123  0.30589028939334517  0.21091200371911092  1.0000
  H   H23       1.0  0.7089847027127463  0.26760270085746046  0.21859768977478247  1.0000
  C   C38       1.0  0.6675443825268942  0.3147647113969901  0.16723843282795106  1.0000
  H   H24       1.0  0.6571901405033864  0.282943180057148  0.14242942862396626  1.0000
  C   C39       1.0  0.7839495298372974  0.16079931387942495  0.434667555078544  1.0000
  H   H25       1.0  0.8155917851246441  0.13708237838356682  0.44486184975647336  1.0000
  C   C40       1.0  0.7921675952244974  0.20344929399536424  0.40496564640743027  1.0000
  H   H26       1.0  0.8298007799663809  0.21122610624666405  0.39195752815607166  1.0000
  C   C41       1.0  0.7524154060329729  0.23584010657127322  0.3923829515398404  1.0000
  C   C42       1.0  0.7037371168276794  0.22368777620554764  0.4087132253946655  1.0000
  H   H27       1.0  0.6725570246261088  0.24830113279778757  0.39974373054910334  1.0000
  C   C43       1.0  0.8171172046319364  0.3543921499820622  0.34290866950824106  1.0000
  C   C44       1.0  0.7847615853884617  0.3661357931419832  0.30180975233529156  1.0000
  H   H28       1.0  0.7939090741545617  0.39797949464192817  0.2778309872763267  1.0000
  C   C45       1.0  0.741746775905412  0.3360425401844251  0.29028871561186315  1.0000
  C   C46       1.0  0.730533959754285  0.29429116010729944  0.32101867741564644  1.0000
  H   H29       1.0  0.697760596654395  0.2704196911056514  0.31190560893749547  1.0000
  C   C47       1.0  0.7623002613750705  0.2821558013034721  0.3624171326433303  1.0000
  C   C48       1.0  0.8053061210088084  0.31277796644592326  0.3734021825071542  1.0000
  H   H30       1.0  0.8303778130388518  0.30339828402991537  0.4049375843505493  1.0000
  C   C49       1.0  0.45304509380813973  0.3657492203673885  0.9402197289336544  1.0000
  C   C50       1.0  0.43885453816145314  0.4070627942138271  0.9099953391641898  1.0000
  H   H31       1.0  0.4525296357639139  0.4451944412269492  0.9194791995539954  1.0000
  C   C51       1.0  0.15563815858419555  0.4478345893133507  0.7254800299668355  1.0000
  C   C52       1.0  0.16769010634105344  0.4286074873431531  0.7737217630153996  1.0000
  H   H32       1.0  0.14456246839764395  0.4372841504051015  0.805711665853671  1.0000
  C   C53       1.0  0.1859880214972105  0.435285895492866  0.6846045877374701  1.0000
  H   H33       1.0  0.17753180157871248  0.4499679189104487  0.6471468739214876  1.0000
  C   C54       1.0  0.2286763066474234  0.4054489918863693  0.6923959202295025  1.0000
  H   H34       1.0  0.2525156688908087  0.3975137342857379  0.6607670461211973  1.0000
  C   C55       1.0  0.24160322909491536  0.38783637470207416  0.7411253354077931  1.0000
  C   C56       1.0  0.21011970801178834  0.39892814221186146  0.7814213691233333  1.0000
  H   H35       1.0  0.21851438520297375  0.3846713131698883  0.8190331551511053  1.0000
  C   C57       1.0  0.3719782467323705  0.15506954342059714  0.6390107061809295  1.0000
  C   C58       1.0  0.32279009923199364  0.16563840758506818  0.6537888909252768  1.0000
  H   H36       1.0  0.2914908102742019  0.1408086017862296  0.6420842894281301  1.0000
  C   C59       1.0  0.3133207923650263  0.2086961993956932  0.6830684210450587  1.0000
  H   H37       1.0  0.27512811709434054  0.21562697448135382  0.6942938360435532  1.0000
  C   C60       1.0  0.3527685394659831  0.2422635253078306  0.6981917610543973  1.0000
  C   C61       1.0  0.4021589379631992  0.23136886374588897  0.6841519674121463  1.0000
  H   H38       1.0  0.4331769614519109  0.2569208638249415  0.6950568045266695  1.0000
  C   C62       1.0  0.4117119849257417  0.18812038973523443  0.6547537643252795  1.0000
  H   H39       1.0  0.44984363786368897  0.18104023628107688  0.6433168645050101  1.0000
  C   C63       1.0  0.4351138233449882  0.3166699518826653  0.9267856042223227  1.0000
  H   H40       1.0  0.4453302279840573  0.2842329013824058  0.9495514581049037  1.0000
  C   C64       1.0  0.40481024872381466  0.30874064395748135  0.883296429874809  1.0000
  H   H41       1.0  0.39155737037806004  0.2705024484483875  0.8737820842348692  1.0000
  C   C65       1.0  0.39178495473620445  0.34964978544828607  0.8521761668784438  1.0000
  C   C66       1.0  0.408345520364402  0.3990416491321952  0.8662845381471491  1.0000
  H   H42       1.0  0.3989323538131098  0.43112139796307714  0.8426460228715373  1.0000
  C   C67       1.0  0.2880534147046441  0.35850250771067843  0.750650300204768  1.0000
  C   C68       1.0  0.3000748411542013  0.3177086558137593  0.7186923996144154  1.0000
  H   H43       1.0  0.27595998109482295  0.3086130503527221  0.685870384996494  1.0000
  C   C69       1.0  0.34224452749266365  0.28771961563944837  0.7296794368535366  1.0000
  C   C70       1.0  0.3727836420098709  0.2994911972728386  0.7726401429430324  1.0000
  H   H44       1.0  0.4049759900381016  0.2761757810192549  0.7816502137452854  1.0000
  C   C71       1.0  0.36131522451964754  0.3401522795036262  0.8049580730199177  1.0000
  C   C72       1.0  0.3192619442145358  0.36978661182589884  0.7934327598913901  1.0000
  H   H45       1.0  0.310145565053626  0.4009956783284727  0.8184892611560708  1.0000
  C   C73       1.0  0.7373512197968222  0.9417335254939424  0.6529622816032556  1.0000
  C   C74       1.0  0.6971436243101029  0.9091511278172181  0.6653924233357652  1.0000
  H   H46       1.0  0.6593178859042679  0.9164359079613855  0.6511240709694933  1.0000
  C   C75       1.0  0.9514648750063563  0.648980711992148  0.7302972754231511  1.0000
  C   C76       1.0  0.9187109097858719  0.6621883205265147  0.6899582768616846  1.0000
  H   H47       1.0  0.9255735848456588  0.6491581881990333  0.6517010631646762  1.0000
  C   C77       1.0  0.941254226053071  0.6658782921008063  0.7796185941883734  1.0000
  H   H48       1.0  0.9659198709594234  0.6562953987014126  0.8113604385773996  1.0000
  C   C78       1.0  0.8985506876744168  0.6942411436048603  0.7887080667421221  1.0000
  H   H49       1.0  0.8916327713059856  0.7068697610790361  0.8270593421952914  1.0000
  C   C79       1.0  0.8650549833603798  0.7064110564737226  0.7487347260054998  1.0000
  C   C80       1.0  0.8758704135827946  0.6908049761896352  0.6991266689104202  1.0000
  H   H50       1.0  0.8504247264458066  0.6996383191682674  0.6677198978572594  1.0000
  C   C81       1.0  0.6605076394824803  0.7266668076172825  0.9446029992884957  1.0000
  C   C82       1.0  0.6729499788719884  0.6858026272337301  0.9128009842361833  1.0000
  H   H51       1.0  0.6583587453195423  0.6478880231778869  0.9198942839732499  1.0000
  C   C83       1.0  0.7025097273650823  0.6942280745719477  0.8704496344464691  1.0000
  H   H52       1.0  0.7104004504751862  0.6626202632883593  0.8454355071305629  1.0000
  C   C84       1.0  0.719785986151124  0.7436029153653747  0.8592737514242546  1.0000
  C   C85       1.0  0.7087563186279763  0.7839244230221132  0.892153155338512  1.0000
  H   H53       1.0  0.7224916623545737  0.8221355908323844  0.8849872482240371  1.0000
  C   C86       1.0  0.6794557126328984  0.7755742018929169  0.93428408261022  1.0000
  H   H54       1.0  0.6703719284058941  0.8076641177905683  0.9583271885695335  1.0000
  C   C87       1.0  0.7861706888063682  0.9311005080269074  0.6714168921123183  1.0000
  H   H55       1.0  0.8177762290677036  0.9556861792107056  0.6622350500486941  1.0000
  C   C88       1.0  0.7949973378337559  0.8880598808307919  0.700415808242438  1.0000
  H   H56       1.0  0.8330631512884314  0.8807817223630002  0.7139410687075847  1.0000
  C   C89       1.0  0.7552361315584468  0.8546218692015786  0.7116791802418465  1.0000
  C   C90       1.0  0.7060365498507575  0.8659361240042787  0.6947035026352818  1.0000
  H   H57       1.0  0.6748423224401808  0.840517470053001  0.7028456190947087  1.0000
  C   C91       1.0  0.8193079318345236  0.7357954628819047  0.7591676221890337  1.0000
  C   C92       1.0  0.7896778187285507  0.7237983496923586  0.800825241204923  1.0000
  H   H58       1.0  0.7993428725424652  0.6918076769524605  0.8244703849027449  1.0000
  C   C93       1.0  0.7485518371725274  0.7538252343439144  0.8130969511875741  1.0000
  C   C94       1.0  0.7364884556274492  0.7956193292414692  0.7826507681846713  1.0000
  H   H59       1.0  0.7050842040156216  0.8192976281650827  0.7921671928792836  1.0000
  C   C95       1.0  0.7656580554045084  0.8081093942472112  0.7410382337136886  1.0000
  C   C96       1.0  0.8067569625791862  0.7777324059113043  0.7292689278636714  1.0000
  H   H60       1.0  0.8297765475156227  0.7875690126846784  0.6974781221061217  1.0000
  C   C97       1.0  0.949704346824186  0.638493417873943  0.37288275926403847  1.0000
  C   C98       1.0  0.934634929660892  0.6574133832010962  0.3253073584628408  1.0000
  H   H61       1.0  0.9566312000102335  0.6498122904782629  0.29216238234483183  1.0000
  C   C99       1.0  0.6518863730599732  0.7211071765886219  0.1608602200014583  1.0000
  C   C100      1.0  0.6641972976264968  0.678684056362602  0.19041027214775674  1.0000
  H   H62       1.0  0.6508975240787944  0.6410185098059161  0.178792138995741  1.0000
  C   C101      1.0  0.6693025348702343  0.7695932778092061  0.17701671518963877  1.0000
  H   H63       1.0  0.6603819159393879  0.8029099768232523  0.15485092961902044  1.0000
  C   C102      1.0  0.6975314745605271  0.7758571482985583  0.222080087442876  1.0000
  H   H64       1.0  0.7106301524281973  0.8137251834377227  0.2332274956519207  1.0000
  C   C103      1.0  0.7090765039807058  0.7338355015799604  0.25227824003548804  1.0000
  C   C104      1.0  0.6927595282587887  0.6850171104141392  0.2357562029430626  1.0000
  H   H65       1.0  0.7012049807228625  0.6520632401540857  0.2585009933931565  1.0000
  C   C105      1.0  0.7345899082424374  0.9310182435408215  0.4619991725056349  1.0000
  C   C106      1.0  0.693709148059445  0.8984804806936398  0.44836954817240904  1.0000
  H   H66       1.0  0.6560608844196264  0.9075413915100535  0.4598515608041894  1.0000
  C   C107      1.0  0.7015189310092284  0.8535791870755077  0.4206767346307067  1.0000
  H   H67       1.0  0.6696140732497042  0.8287335981149282  0.4110119235960019  1.0000
  C   C108      1.0  0.75031106073841  0.8404238144562199  0.4063749919971461  1.0000
  C   C109      1.0  0.79088980348017  0.873318347481288  0.41969652118135414  1.0000
  H   H68       1.0  0.8286696512011935  0.8648944157131997  0.4082018799535521  1.0000
  C   C110      1.0  0.7831456445318211  0.917966506363649  0.4471671365992103  1.0000
  H   H69       1.0  0.8153221586586656  0.9424045820983387  0.45731288242050966  1.0000
  C   C111      1.0  0.9203549775953166  0.6491371348551844  0.4150874034875653  1.0000
  H   H70       1.0  0.9310056575678839  0.6345976221551763  0.4520339032627787  1.0000
  C   C112      1.0  0.8760518570183224  0.6771356369337977  0.4092781200908065  1.0000
  H   H71       1.0  0.8532343918299177  0.6839122588483103  0.4419217463351088  1.0000
  C   C113      1.0  0.86039663807135  0.6946304021015992  0.36120953449645077  1.0000
  C   C114      1.0  0.8906725845040039  0.6851537446724958  0.31958017388114923  1.0000
  H   H72       1.0  0.8802627446088502  0.6992143744782954  0.28236091026114596  1.0000
  C   C115      1.0  0.7387938691197166  0.7416442523994357  0.3003825519740933  1.0000
  C   C116      1.0  0.7278700408905804  0.7821767087323344  0.3331694202510285  1.0000
  H   H73       1.0  0.6960372132387617  0.806035730410317  0.3243324474708307  1.0000
  C   C117      1.0  0.7591007714777174  0.7938038540203514  0.3757247751150269  1.0000
  C   C118      1.0  0.8012580898207412  0.7634849230842494  0.38603366046865945  1.0000
  H   H74       1.0  0.8261710672026402  0.7727426008555567  0.41820870337314414  1.0000
  C   C119      1.0  0.8127849411921332  0.7228048726966222  0.3536706601703671  1.0000
  C   C120      1.0  0.7808226766700925  0.7117281584933988  0.3113295424914603  1.0000
  H   H75       1.0  0.7898280150016639  0.6809766127741241  0.2856676601533976  1.0000
  C   C121      1.0  0.9392095252999811  0.45935357327848786  0.7256948541723375  1.0000
  C   C122      1.0  0.9260384374150955  0.4442748071087818  0.7746016397871499  1.0000
  H   H76       1.0  0.9505636718689671  0.4534364210969178  0.8071002853719876  1.0000
  C   C123      1.0  0.6465090110744105  0.37453783298737325  0.9390090531441063  1.0000
  C   C124      1.0  0.6654026877031872  0.32677034480718825  0.9257273735423337  1.0000
  H   H77       1.0  0.6582162021822273  0.29385352286570254  0.9489419750156266  1.0000
  C   C125      1.0  0.6570472233181014  0.41649547971483836  0.9082262293801011  1.0000
  H   H78       1.0  0.6426413864514683  0.4536298718404735  0.9175269472061791  1.0000
  C   C126      1.0  0.6848681492774534  0.41023162715360484  0.8642164470442468  1.0000
  H   H79       1.0  0.6916394400492125  0.44269040669357207  0.8402767571631123  1.0000
  C   C127      1.0  0.7022605782568989  0.36195392344330646  0.8502973846780547  1.0000
  C   C128      1.0  0.6929126366699229  0.32059331678714886  0.8820147717194047  1.0000
  H   H80       1.0  0.7070532286252197  0.2832976007730384  0.8729219620880384  1.0000
  C   C129      1.0  0.7287776794513485  0.15955695338329473  0.64564590346965  1.0000
  C   C130      1.0  0.686821103329417  0.18946606698747454  0.6558488389141257  1.0000
  H   H81       1.0  0.6497663666651283  0.17814676887436662  0.641015019847909  1.0000
  C   C131      1.0  0.6929595987721564  0.23495474454658494  0.6839370931297616  1.0000
  H   H82       1.0  0.6604663480710532  0.2581275453043475  0.6905263312101257  1.0000
  C   C132      1.0  0.7411196279677403  0.25121815542267667  0.7018321162663308  1.0000
  C   C133      1.0  0.7825885883647248  0.22053127542265594  0.6926372238726475  1.0000
  H   H83       1.0  0.8199185702226004  0.23152796154014918  0.706948178072629  1.0000
  C   C134      1.0  0.7765147895935524  0.17534460974900495  0.6649133096688448  1.0000
  H   H84       1.0  0.8094585007956632  0.15291230730772087  0.6575950350542301  1.0000
  C   C135      1.0  0.9065165392571656  0.4467523118804462  0.6844087478404477  1.0000
  H   H85       1.0  0.9156376923878853  0.45839519455332595  0.6464420289889491  1.0000
  C   C136      1.0  0.8613720865793637  0.41979366040675997  0.6921330652194262  1.0000
  H   H86       1.0  0.8364681868560762  0.41077517850980816  0.6598791521941495  1.0000
  C   C137      1.0  0.8480849243785271  0.4053156573880521  0.7412410591505738  1.0000
  C   C138      1.0  0.8810633085178112  0.4176407212621867  0.7822614910321045  1.0000
  H   H87       1.0  0.8723937226386016  0.40585255193848235  0.820268326671599  1.0000
  C   C139      1.0  0.7303236532814615  0.35392062361651616  0.8030842017932524  1.0000
  C   C140      1.0  0.7190807330222583  0.3112276036451266  0.7718494147482468  1.0000
  H   H88       1.0  0.6882794133105143  0.2856828842246749  0.7809852395349876  1.0000
  C   C141      1.0  0.7489273147008503  0.2997533072636445  0.7304569602042973  1.0000
  C   C142      1.0  0.7895027498855217  0.33234938327695895  0.7193340402473696  1.0000
  H   H89       1.0  0.8132560531796177  0.323082631854566  0.6879688768221993  1.0000
  C   C143      1.0  0.8013252175085697  0.3751733529592392  0.7498852734526619  1.0000
  C   C144      1.0  0.7711326129005656  0.3860429200419368  0.7914569263433942  1.0000
  H   H90       1.0  0.7805614728285862  0.41843349633125404  0.8158837151364763  1.0000
  C   C145      1.0  0.3831543053585477  0.9372308546963497  0.6336199137775691  1.0000
  C   C146      1.0  0.33558074327913373  0.923396892400988  0.6516154375006027  1.0000
  H   H91       1.0  0.3031940407385037  0.9468166140350412  0.6439091473786913  1.0000
  C   C147      1.0  0.16765818426414159  0.6425298393867223  0.7194003457341483  1.0000
  C   C148      1.0  0.19708309565828513  0.6525742295542803  0.6771114423192945  1.0000
  H   H92       1.0  0.18546922286448275  0.6378201314606708  0.6399634066686515  1.0000
  C   C149      1.0  0.1838638412419225  0.6617964618727225  0.7671879791295387  1.0000
  H   H93       1.0  0.16174902502408578  0.6550108011117581  0.8003379358875824  1.0000
  C   C150      1.0  0.2290266543605717  0.6893246034479251  0.7729658536213179  1.0000
  H   H94       1.0  0.24041536449314782  0.7038697730529563  0.8102395561448027  1.0000
  C   C151      1.0  0.2592023166081003  0.6983543354440507  0.7311560615201949  1.0000
  C   C152      1.0  0.2425098294072157  0.6804613346847389  0.6829615841174371  1.0000
  H   H95       1.0  0.2652706957350383  0.6869744802768589  0.6501872859093693  1.0000
  C   C153      1.0  0.46931347865469153  0.7237267337178955  0.9295084674317138  1.0000
  C   C154      1.0  0.45422358442198313  0.7725713678475868  0.9150901621791835  1.0000
  H   H96       1.0  0.46439625977315074  0.8054448950057747  0.9386995595237435  1.0000
  C   C155      1.0  0.42659766380311953  0.7797189034956205  0.8700730537607214  1.0000
  H   H97       1.0  0.415091481393575  0.8177965205103344  0.8604763296198664  1.0000
  C   C156      1.0  0.41335890222675775  0.7382291922360613  0.838196206341301  1.0000
  C   C157      1.0  0.4277774084599759  0.6891235108291978  0.852755414405424  1.0000
  H   H98       1.0  0.4182181880270272  0.656551016233779  0.828649892284091  1.0000
  C   C158      1.0  0.455676638357375  0.6819159821676466  0.898032344241717  1.0000
  H   H99       1.0  0.4673959799636119  0.644030964289981  0.9081933281692226  1.0000
  C   C159      1.0  0.4244244970255467  0.9061297841712922  0.6448075317922214  1.0000
  H   H100      1.0  0.46138751302478637  0.9158059262260454  0.6310478566027777  1.0000
  C   C160      1.0  0.41776496231588334  0.8614265882616544  0.6726056294780086  1.0000
  H   H101      1.0  0.4497862697058198  0.8373970121501275  0.6800698758733643  1.0000
  C   C161      1.0  0.36977004486824744  0.8471054860130689  0.6893475106875991  1.0000
  C   C162      1.0  0.329006548536855  0.8789757114658714  0.6791146004215085  1.0000
  H   H102      1.0  0.2919598256379663  0.8695876917214417  0.692793676748755  1.0000
  C   C163      1.0  0.30756017808280584  0.7270279779184103  0.7385579948676457  1.0000
  C   C164      1.0  0.34015367762636795  0.7159768209017089  0.7797390582189078  1.0000
  H   H103      1.0  0.3310474420519606  0.6846685304224561  0.8043861320632388  1.0000
  C   C165      1.0  0.3829474103124023  0.7465739870989552  0.7909676390609607  1.0000
  C   C166      1.0  0.3937575319745687  0.7880623654821117  0.7596465446540243  1.0000
  H   H104      1.0  0.426171384875419  0.8124957085485931  0.7686726814953234  1.0000
  C   C167      1.0  0.361638818498406  0.799696287129269  0.7183175970472051  1.0000
  C   C168      1.0  0.31898525339634226  0.7684243830351816  0.7075996594711829  1.0000
  H   H105      1.0  0.2935200702981369  0.7775336107582319  0.6763071866171421  1.0000
  C   C169      1.0  0.3832746434842126  0.1610587862988799  0.44908717761526873  1.0000
  C   C170      1.0  0.3353806754499943  0.174233275958724  0.42983647243513823  1.0000
  H   H106      1.0  0.30279748828535874  0.149937271415565  0.4359985160157455  1.0000
  C   C171      1.0  0.17079402811986763  0.45367665699585324  0.36978237068529624  1.0000
  C   C172      1.0  0.20309236992328605  0.44355713843529426  0.4115126559776736  1.0000
  H   H107      1.0  0.19414536057984408  0.457170364182408  0.4490269837479231  1.0000
  C   C173      1.0  0.18372900931704383  0.43617916121367495  0.321412816222471  1.0000
  H   H108      1.0  0.15951894444250114  0.44359553430585164  0.2885759775690497  1.0000
  C   C174      1.0  0.22825643781309146  0.4100656682993948  0.3145645794448435  1.0000
  H   H109      1.0  0.236876767453789  0.3969109804806996  0.27681302137450703  1.0000
  C   C175      1.0  0.26108957175120995  0.4006518182467603  0.35588543003656686  1.0000
  C   C176      1.0  0.24783336704292216  0.41703418378881696  0.40461308805497104  1.0000
  H   H110      1.0  0.27266487357677927  0.4103031362570884  0.4370474070725884  1.0000
  C   C177      1.0  0.46108017442223853  0.3740846404954073  0.15737881067304882  1.0000
  C   C178      1.0  0.4516186043863834  0.41624273242553356  0.18872758315724414  1.0000
  H   H111      1.0  0.46622242721207735  0.45363866437424105  0.17945229411395808  1.0000
  C   C179      1.0  0.4245196875202957  0.40993525902714556  0.23318652942489068  1.0000
  H   H112      1.0  0.41839062997275345  0.44261532488617505  0.25746004221854263  1.0000
  C   C180      1.0  0.40693313513786006  0.3614020747739765  0.24705323450933003  1.0000
  C   C181      1.0  0.4153109680257885  0.3197536529455342  0.21490111833806333  1.0000
  H   H113      1.0  0.400964816643502  0.2822374405024738  0.22405456764218057  1.0000
  C   C182      1.0  0.4419710321779758  0.32598848979900386  0.17066031820385416  1.0000
  H   H114      1.0  0.4483270981807972  0.29290029321972766  0.14706287160285428  1.0000
  C   C183      1.0  0.42470801787579476  0.19345037894494876  0.44016210143016776  1.0000
  H   H115      1.0  0.4619011086443773  0.18429146751721293  0.4549904523431344  1.0000
  C   C184      1.0  0.41793000998667773  0.238667122851042  0.41322184196486006  1.0000
  H   H116      1.0  0.45006836503061615  0.26365878346979466  0.4073855239325535  1.0000
  C   C185      1.0  0.3696360766175655  0.2522632924163649  0.39531779236272585  1.0000
  C   C186      1.0  0.32866444258870825  0.21925386583994072  0.40338645662071143  1.0000
  H   H117      1.0  0.29131436136301647  0.22826900564291314  0.38889742661148174  1.0000
  C   C187      1.0  0.3081706167001664  0.37246083672252955  0.34766256317933747  1.0000
  C   C188      1.0  0.33833916961667776  0.3838625186070236  0.3061810877924227  1.0000
  H   H118      1.0  0.32858153134710566  0.41523732954333564  0.2817252311715906  1.0000
  C   C189      1.0  0.3793874398483163  0.3534094988351483  0.2945277663400089  1.0000
  C   C190      1.0  0.3910839164806531  0.3120092128242203  0.32573434670521384  1.0000
  H   H119      1.0  0.42210264678657244  0.2877351055916365  0.31646645352789743  1.0000
  C   C191      1.0  0.36135314973680466  0.30001386055094  0.3671193971411353  1.0000
  C   C192      1.0  0.3203558801317234  0.33087602889151574  0.37823371052923427  1.0000
  H   H120      1.0  0.29656261464450484  0.3211810116466295  0.40947688964552764  1.0000
  In  In1       1.0  0.5597964649184951  0.7141260795383981  0.04547125527089703  1.0000
  O   O1        1.0  0.6044132457085384  0.6764443628303733  0.9987795125770094  1.0000
  O   O2        1.0  0.6068666644753232  0.7588732361878469  0.010276018300401812  1.0000
  O   O3        1.0  0.6033916103716359  0.7564737581902057  0.09056846389426534  1.0000
  O   O4        1.0  0.5996003730042955  0.6736227222716619  0.09614292196912327  1.0000
  O   O5        1.0  0.5144736464886174  0.758519187907095  0.08228894509833275  1.0000
  O   O6        1.0  0.513599762772457  0.6759699356088883  0.09073063829566667  1.0000
  O   O7        1.0  0.5185157377427264  0.6747508204394661  0.9929465498975459  1.0000
  O   O8        1.0  0.5182567755492667  0.7575125710685118  0.0019488191269634303  1.0000
  C   C193      1.0  0.6246812850204017  0.7201341721020439  0.9859794071767063  1.0000
  C   C194      1.0  0.618805132671581  0.7165404613689729  0.1147665069053782  1.0000
  C   C195      1.0  0.4951318095672338  0.7195361360206278  0.10518107658644159  1.0000
  C   C196      1.0  0.5014682162808155  0.7181128823371562  0.9758886425944409  1.0000
  In  In2       1.0  0.7234870943452687  0.045604852572636245  0.5527940984945172  1.0000
  O   O9        1.0  0.7682209887594045  0.010149621674878428  0.6004687929790388  1.0000
  O   O10       1.0  0.6866629094826701  0.9969909070260892  0.5969700904481696  1.0000
  O   O11       1.0  0.6851647868216657  0.9929240072165664  0.5107356902070176  1.0000
  O   O12       1.0  0.7669883448550332  0.0037515441559357043  0.5112918787656935  1.0000
  O   O13       1.0  0.6859787412719542  0.09174106968125499  0.5057458791360323  1.0000
  O   O14       1.0  0.767810870290258  0.08407763018806677  0.5084520039769631  1.0000
  O   O15       1.0  0.7645658563942499  0.09014726595425879  0.5980726703689881  1.0000
  O   O16       1.0  0.682530057160266  0.0951699429985798  0.5918936966533069  1.0000
  C   C197      1.0  0.7301812825132497  0.9843722353808957  0.6175961697736115  1.0000
  C   C198      1.0  0.7283377789213358  0.9770288443610617  0.49400681305991917  1.0000
  C   C199      1.0  0.7293365625281438  0.10703863403777629  0.48817612796514237  1.0000
  C   C200      1.0  0.7247241400364156  0.11377071037277622  0.6124542148613081  1.0000
  In  In3       1.0  0.5531905110174614  0.3796224601313225  0.04774284873988673  1.0000
  O   O17       1.0  0.508531572186558  0.33774268389156165  0.08879790809887007  1.0000
  O   O18       1.0  0.5137449261204786  0.4205964117451188  0.09639533525341679  1.0000
  O   O19       1.0  0.5078452849189677  0.41625499820508177  0.9997677304397573  1.0000
  O   O20       1.0  0.508170073115849  0.3335581043975025  0.007476658123056534  1.0000
  O   O21       1.0  0.5945733192667102  0.4208101057093407  0.0004743753436620146  1.0000
  O   O22       1.0  0.5962382517105304  0.33796006783700866  0.005522897477228117  1.0000
  O   O23       1.0  0.5959962241267989  0.3331944855607237  0.08674796293356887  1.0000
  O   O24       1.0  0.5997645599860822  0.415714031516156  0.09728864536492174  1.0000
  C   C201      1.0  0.4936324060228501  0.3781513576129484  0.11291708125965286  1.0000
  C   C202      1.0  0.4891040055425201  0.3723401505209477  0.9836496828056052  1.0000
  C   C203      1.0  0.6131604879278051  0.37839889628325357  0.9828744693403679  1.0000
  C   C204      1.0  0.6166420165753378  0.37155611597078403  0.11196169717300465  1.0000
  In  In4       1.0  0.3897853617881397  0.0486935483163132  0.5407440460806401  1.0000
  O   O25       1.0  0.42443897367900335  0.09841844160074706  0.5880708727098949  1.0000
  O   O26       1.0  0.34283060778016045  0.085272121426116  0.583532015716798  1.0000
  O   O27       1.0  0.34778099640970545  0.005322486966963691  0.5830201730709937  1.0000
  O   O28       1.0  0.4298892428637116  0.00027853177495296144  0.5828328317201419  1.0000
  O   O29       1.0  0.34549710032850484  0.009453600793632555  0.4932234350269355  1.0000
  O   O30       1.0  0.4273201887234205  0.0016291487930772952  0.4965760529958474  1.0000
  O   O31       1.0  0.43002446507979186  0.09974032523754527  0.5026400714628441  1.0000
  O   O32       1.0  0.3482296229489034  0.08954092431303758  0.49477487949202587  1.0000
  C   C205      1.0  0.38030171498831394  0.1116710071162231  0.6043247070507088  1.0000
  C   C206      1.0  0.3875936907931636  0.9821319935543136  0.6005474015221953  1.0000
  C   C207      1.0  0.3843425204123056  0.9861062454898923  0.4755159819994701  1.0000
  C   C208      1.0  0.3878895310455566  0.11550689617007405  0.4812770997561634  1.0000
  In  In5       1.0  0.05398297344586172  0.5495434212174838  0.7141875925341999  1.0000
  O   O33       1.0  0.09308031761783556  0.5046689222030936  0.7589388750422192  1.0000
  O   O34       1.0  0.0977665389799456  0.502386735389712  0.6763856622396267  1.0000
  O   O35       1.0  0.10238000192313804  0.5899748334052607  0.6733629404957554  1.0000
  O   O36       1.0  0.09950421216853803  0.5935629543894806  0.756007937868199  1.0000
  O   O37       1.0  0.006111904459845663  0.5954618145614667  0.6785439827338816  1.0000
  O   O38       1.0  0.01956372594979272  0.5954341547944487  0.7607162451662253  1.0000
  O   O39       1.0  0.012591055621761438  0.5074254175904122  0.7584374273536534  1.0000
  O   O40       1.0  0.0010188528515824302  0.508250082141394  0.6761458261246126  1.0000
  C   C209      1.0  0.11400961089428853  0.48410126301092393  0.7197280475094009  1.0000
  C   C210      1.0  0.12198201269997443  0.6093975530289528  0.7156369202221234  1.0000
  C   C211      1.0  0.99380377101626  0.6142527673466064  0.7225932944170682  1.0000
  C   C212      1.0  0.9854545404412182  0.49075857487095004  0.7194503575992407  1.0000
  In  In6       1.0  0.05944711808727576  0.5447160843679477  0.3766302910247287  1.0000
  O   O41       1.0  0.11034914603435086  0.5055133065426317  0.4173065189750438  1.0000
  O   O42       1.0  0.09941950508659796  0.49958550244504957  0.3349685376554437  1.0000
  O   O43       1.0  0.09609231942535637  0.5887295203716245  0.33040956903406027  1.0000
  O   O44       1.0  0.1094031459132234  0.5912848484880869  0.41261373152779734  1.0000
  O   O45       1.0  0.015913816931168112  0.5887905790767548  0.3360035509033319  1.0000
  O   O46       1.0  0.012764620239090085  0.5859648694884264  0.41857457320220554  1.0000
  O   O47       1.0  0.013556887165660614  0.4993078191990613  0.4152154862262495  1.0000
  O   O48       1.0  0.018789502946064074  0.4983499827383482  0.3327213241376247  1.0000
  C   C213      1.0  0.1255491883899022  0.4853676902064723  0.3746641497888426  1.0000
  C   C214      1.0  0.12250973519569158  0.6085329173792257  0.3682781727745575  1.0000
  C   C215      1.0  0.9939695462436683  0.6050293092681438  0.37636421963353595  1.0000
  C   C216      1.0  0.9965285011747921  0.47977156255592224  0.37187647703621624  1.0000
  C   C217      1.0  0.5678953692793606  0.07796479720185157  0.5148916327500073  1.0000
  H   H121      1.0  0.5433455343042145  0.10040862157760633  0.4889639598011587  1.0000
  H   H122      1.0  0.5922233818564553  0.10502485772088344  0.5380034339076222  1.0000
  H   H123      1.0  0.5932811856360255  0.054630858976449925  0.4914205173690103  1.0000
  C   C218      1.0  0.569800690716328  0.015811977258731513  0.5813814948694902  1.0000
  H   H124      1.0  0.5943880186441967  0.9902814552548251  0.5593274783077207  1.0000
  H   H125      1.0  0.5950605371427302  0.04105605589932115  0.6055460945837061  1.0000
  H   H126      1.0  0.5467784901166123  0.9918345655322253  0.6066791789305637  1.0000
  N   N1        1.0  0.5370974499838269  0.04557662456894107  0.547411186678509  1.0000
  H   H127      1.0  0.5128210709281004  0.06804924391640466  0.5686147294365966  1.0000
  H   H128      1.0  0.5140659110526045  0.020926435128434617  0.5248637063684617  1.0000
  C   C219      1.0  0.5259391553220579  0.5581512418954281  0.0793481729458971  1.0000
  H   H129      1.0  0.5018686505082347  0.582857522103004  0.05495453412846415  1.0000
  H   H130      1.0  0.5008763313757798  0.5334825868370717  0.10199591739433328  1.0000
  H   H131      1.0  0.5483245288346208  0.5835585880648353  0.10603240839327369  1.0000
  C   C220      1.0  0.5915532026946145  0.5596767957621283  0.01808447541471825  1.0000
  H   H132      1.0  0.568669954478098  0.5835035118841383  0.9917119414424405  1.0000
  H   H133      1.0  0.6152060191595041  0.5860345806403121  0.042683289666156685  1.0000
  H   H134      1.0  0.617043480565502  0.5362392529895141  0.9951098874810397  1.0000
  N   N2        1.0  0.559063935046931  0.5269206114386757  0.048556275884742955  1.0000
  H   H135      1.0  0.5812148363661879  0.5037900272171613  0.07215298839363793  1.0000
  H   H136      1.0  0.537306123695444  0.5023822690561367  0.024656987259531245  1.0000
  C   C221      1.0  0.12102796768243028  0.5524042098662475  0.872367938756556  1.0000
  H   H137      1.0  0.13974449898269395  0.5812144251944745  0.8982116524465458  1.0000
  H   H138      1.0  0.12308358293277447  0.5141555672962621  0.8899127490651223  1.0000
  H   H139      1.0  0.14283971698682205  0.5508541548611042  0.8369158204297481  1.0000
  C   C222      1.0  0.03881208048045282  0.5680988771248436  0.9062440128431839  1.0000
  H   H140      1.0  0.9991133756261499  0.5778791799968641  0.8961768741817145  1.0000
  H   H141      1.0  0.03799934554146866  0.5306689465793294  0.9256227964752555  1.0000
  H   H142      1.0  0.0542116857423307  0.597762423151923  0.9332589632742146  1.0000
  N   N3        1.0  0.0685290721738173  0.5657530846437324  0.8601662500958027  1.0000
  H   H143      1.0  0.06753666956805011  0.6007912643173596  0.8414422124852504  1.0000
  H   H144      1.0  0.05237762073450209  0.5386612716829159  0.8347393640458803  1.0000
  C   C223      1.0  0.07686163161899089  0.5096091440344345  0.553943021506467  1.0000
  H   H145      1.0  0.10951858475155417  0.5259492318372584  0.5765846397860722  1.0000
  H   H146      1.0  0.049714562040505984  0.49308374470832506  0.5810184888841214  1.0000
  H   H147      1.0  0.09073448085812949  0.4782644827988131  0.5296195992088346  1.0000
  C   C224      1.0  0.03432926093660682  0.589956732622323  0.5542140247995516  1.0000
  H   H148      1.0  0.016879974317117078  0.6197248222109836  0.5300994254773488  1.0000
  H   H149      1.0  0.005370513089284485  0.5755103739593469  0.580508112902993  1.0000
  H   H150      1.0  0.06547270699838845  0.6081022490297002  0.5776657927849107  1.0000
  N   N4        1.0  0.052961486123187525  0.5485702870563102  0.5222562086132664  1.0000
  H   H151      1.0  0.07877133725139626  0.562921472657259  0.49627289561230054  1.0000
  H   H152      1.0  0.022923881405449986  0.5322391035080267  0.5005440697349888  1.0000
  C   C225      1.0  0.5522217067026297  0.22007120139836703  0.10572043159918598  1.0000
  H   H153      1.0  0.5903420565074927  0.2032243790974329  0.10898766049625852  1.0000
  H   H154      1.0  0.5529450294801455  0.25518700901269165  0.12988172102671758  1.0000
  H   H155      1.0  0.5239272735069435  0.19322688940750815  0.12139439098817184  1.0000
  C   C226      1.0  0.5366893064605146  0.1870375275095171  0.020437753773822287  1.0000
  H   H156      1.0  0.5735475901414026  0.16741219162307772  0.020712312963171886  1.0000
  H   H157      1.0  0.506937938913484  0.15992397734832545  0.032937780158277974  1.0000
  H   H158      1.0  0.5274063343536903  0.19753358204955798  0.9804731033326973  1.0000
  N   N5        1.0  0.5393296379077055  0.23295212067644447  0.05283657600540481  1.0000
  H   H159      1.0  0.5048203272449765  0.2518670588483998  0.05108326519150763  1.0000
  H   H160      1.0  0.5664350447018  0.25851677214124447  0.0391942081324268  1.0000
  C   C227      1.0  0.20404188832190367  0.026173688937420225  0.4991239329196759  1.0000
  H   H161      1.0  0.21955542995284813  0.02032355847456979  0.4607411222296897  1.0000
  H   H162      1.0  0.17834748652744087  0.9933395756092884  0.5067283591227211  1.0000
  H   H163      1.0  0.18182294819366396  0.06171083920055076  0.4980732436158078  1.0000
  C   C228      1.0  0.22606595333816534  0.03843652977730039  0.5883292891544202  1.0000
  H   H164      1.0  0.20084817185397122  0.006443810486928658  0.599522123562038  1.0000
  H   H165      1.0  0.2581124356641332  0.04102135880185287  0.6166214809034646  1.0000
  H   H166      1.0  0.20536789714746936  0.07481526075907308  0.5905144489606682  1.0000
  N   N6        1.0  0.24544455411953345  0.030057682462009128  0.5373325289159893  1.0000
  H   H167      1.0  0.26680528912554785  0.9968200195187921  0.5367985187787974  1.0000
  H   H168      1.0  0.2700304761668532  0.06014923261527705  0.5283467347161263  1.0000
