# Generated by pormake.
# Topology pto, (3,4)-cn, num edge types: 1
# Building blocks:
#     Node 0, Type 0, BuildingBlock: 3c_BTB, # of connection points: 3
#     Node 1, Type 0, BuildingBlock: 3c_BTB, # of connection points: 3
#     Node 2, Type 0, BuildingBlock: 3c_BTB, # of connection points: 3
#     Node 3, Type 0, BuildingBlock: 3c_BTB, # of connection points: 3
#     Node 4, Type 0, BuildingBlock: 3c_BTB, # of connection points: 3
#     Node 5, Type 0, BuildingBlock: 3c_BTB, # of connection points: 3
#     Node 6, Type 0, BuildingBlock: 3c_BTB, # of connection points: 3
#     Node 7, Type 0, BuildingBlock: 3c_BTB, # of connection points: 3
#     Node 8, Type 1, BuildingBlock: 4c_In, # of connection points: 4
#     Node 9, Type 1, BuildingBlock: 4c_In, # of connection points: 4
#     Node 10, Type 1, BuildingBlock: 4c_In, # of connection points: 4
#     Node 11, Type 1, BuildingBlock: 4c_In, # of connection points: 4
#     Node 12, Type 1, BuildingBlock: 4c_In, # of connection points: 4
#     Node 13, Type 1, BuildingBlock: 4c_In, # of connection points: 4
#     Edge 14, Type (np.int64(0), np.int64(1)), None
#     Edge 15, Type (np.int64(0), np.int64(1)), None
#     Edge 16, Type (np.int64(0), np.int64(1)), None
#     Edge 17, Type (np.int64(0), np.int64(1)), None
#     Edge 18, Type (np.int64(0), np.int64(1)), None
#     Edge 19, Type (np.int64(0), np.int64(1)), None
#     Edge 20, Type (np.int64(0), np.int64(1)), None
#     Edge 21, Type (np.int64(0), np.int64(1)), None
#     Edge 22, Type (np.int64(0), np.int64(1)), None
#     Edge 23, Type (np.int64(0), np.int64(1)), None
#     Edge 24, Type (np.int64(0), np.int64(1)), None
#     Edge 25, Type (np.int64(0), np.int64(1)), None
#     Edge 26, Type (np.int64(0), np.int64(1)), None
#     Edge 27, Type (np.int64(0), np.int64(1)), None
#     Edge 28, Type (np.int64(0), np.int64(1)), None
#     Edge 29, Type (np.int64(0), np.int64(1)), None
#     Edge 30, Type (np.int64(0), np.int64(1)), None
#     Edge 31, Type (np.int64(0), np.int64(1)), None
#     Edge 32, Type (np.int64(0), np.int64(1)), None
#     Edge 33, Type (np.int64(0), np.int64(1)), None
#     Edge 34, Type (np.int64(0), np.int64(1)), None
#     Edge 35, Type (np.int64(0), np.int64(1)), None
#     Edge 36, Type (np.int64(0), np.int64(1)), None
#     Edge 37, Type (np.int64(0), np.int64(1)), None
# Relax obj value: 0.048
# Max RMSD: 0.513
# Mean RMSD: 0.172
data_pto-4c_In-3c_BTB
_symmetry_space_group_name_H-M    P1
_symmetry_Int_Tables_number       1
_symmetry_cell_setting            triclinic
loop_
_symmetry_equiv_pos_as_xyz
'x, y, z'
_cell_length_a     28.586
_cell_length_b     28.797
_cell_length_c     28.537
_cell_angle_alpha  91.798
_cell_angle_beta   90.016
_cell_angle_gamma  90.168
loop_
_atom_site_label
_atom_site_type_symbol
_atom_site_fract_x
_atom_site_fract_y
_atom_site_fract_z
_atom_type_partial_charge
C0 C 0.44098 0.71229 0.16124 0.04680
C1 C 0.39653 0.69309 0.15174 -0.12780
H2 H 0.38631 0.68285 0.11420 0.11210
C3 C 0.16124 0.56534 0.30721 0.04680
C4 C 0.17921 0.58071 0.26614 -0.12780
H5 H 0.16294 0.56889 0.23127 0.11210
C6 C 0.18258 0.57832 0.34756 -0.12780
H7 H 0.16989 0.56407 0.38215 0.11210
C8 C 0.21921 0.60827 0.34823 -0.13180
H9 H 0.23663 0.61877 0.38292 0.10780
C10 C 0.23517 0.62572 0.30801 0.02200
C11 C 0.21684 0.61033 0.26710 -0.13180
H12 H 0.23258 0.62190 0.23265 0.10780
C13 C 0.31179 0.84310 0.44764 0.04680
C14 C 0.27148 0.81985 0.43563 -0.12780
H15 H 0.23697 0.83018 0.45300 0.11210
C16 C 0.27023 0.78457 0.40363 -0.13180
H17 H 0.23528 0.76845 0.39265 0.10780
C18 C 0.31123 0.76692 0.38322 0.02200
C19 C 0.35202 0.78673 0.39918 -0.13180
H20 H 0.38708 0.77189 0.38709 0.10780
C21 C 0.35195 0.82449 0.42978 -0.12780
H22 H 0.38722 0.84030 0.44014 0.11210
C23 C 0.45356 0.72239 0.20736 -0.12780
H24 H 0.49016 0.73605 0.21587 0.11210
C25 C 0.42151 0.71593 0.24375 -0.13180
H26 H 0.43182 0.72512 0.28151 0.10780
C27 C 0.37815 0.69896 0.23574 0.02200
C28 C 0.36609 0.68740 0.19058 -0.13180
H29 H 0.32997 0.67232 0.18246 0.10780
C30 C 0.27516 0.66261 0.30892 -0.03390
C31 C 0.27636 0.69564 0.34397 -0.07610
H32 H 0.24850 0.69596 0.37254 0.10290
C33 C 0.31108 0.72876 0.34516 -0.03390
C34 C 0.34235 0.72902 0.30921 -0.07610
H35 H 0.37038 0.75722 0.30821 0.10290
C36 C 0.34296 0.69735 0.27313 -0.03390
C37 C 0.30759 0.66394 0.27354 -0.07610
H38 H 0.30611 0.63719 0.24327 0.10290
C39 C 0.70977 0.15280 0.45110 0.04680
C40 C 0.72849 0.19701 0.46235 -0.12780
H41 H 0.73902 0.20637 0.50000 0.11210
C42 C 0.85181 0.43668 0.31530 0.04680
C43 C 0.83704 0.41753 0.35592 -0.12780
H44 H 0.84903 0.43299 0.39119 0.11210
C45 C 0.83867 0.41630 0.27430 -0.12780
H46 H 0.85247 0.43002 0.23990 0.11210
C47 C 0.80910 0.37946 0.27276 -0.13180
H48 H 0.79846 0.36288 0.23754 0.10780
C49 C 0.79220 0.36230 0.31274 0.02200
C50 C 0.80780 0.37970 0.35401 -0.13180
H51 H 0.79675 0.36301 0.38800 0.10780
C52 C 0.57321 0.28617 0.17774 0.04680
C53 C 0.59609 0.32626 0.19109 -0.12780
H54 H 0.58498 0.36080 0.17614 0.11210
C55 C 0.63191 0.32728 0.22169 -0.13180
H56 H 0.64769 0.36196 0.23400 0.10780
C57 C 0.65052 0.28635 0.23902 0.02200
C58 C 0.63106 0.24594 0.22154 -0.13180
H59 H 0.64666 0.21107 0.23102 0.10780
C60 C 0.59274 0.24615 0.19252 -0.12780
H61 H 0.57728 0.21115 0.18081 0.11210
C62 C 0.69933 0.14132 0.40473 -0.12780
H63 H 0.68608 0.10498 0.39469 0.11210
C64 C 0.70497 0.17417 0.36994 -0.13180
H65 H 0.69550 0.16475 0.33201 0.10780
C66 C 0.72145 0.21729 0.37973 0.02200
C67 C 0.73335 0.22830 0.42506 -0.13180
H68 H 0.74804 0.26421 0.43462 0.10780
C69 C 0.75568 0.32200 0.31104 -0.03390
C70 C 0.72210 0.32116 0.27731 -0.07610
H71 H 0.72106 0.34954 0.25038 0.10290
C72 C 0.68930 0.28616 0.27549 -0.03390
C73 C 0.68989 0.25421 0.30962 -0.07610
H74 H 0.66196 0.22589 0.31016 0.10290
C75 C 0.72214 0.25321 0.34433 -0.03390
C76 C 0.75520 0.28889 0.34458 -0.07610
H77 H 0.78242 0.29003 0.37381 0.10290
C78 C 0.43896 0.28710 0.87477 0.04680
C79 C 0.39457 0.30627 0.88407 -0.12780
H80 H 0.38427 0.31651 0.92156 0.11210
C81 C 0.16055 0.43382 0.72755 0.04680
C82 C 0.17829 0.41848 0.76870 -0.12780
H83 H 0.16195 0.43030 0.80349 0.11210
C84 C 0.18197 0.42084 0.68729 -0.12780
H85 H 0.16950 0.43508 0.65264 0.11210
C86 C 0.21844 0.39092 0.68679 -0.13180
H87 H 0.23594 0.38042 0.65217 0.10780
C88 C 0.23416 0.37349 0.72708 0.02200
C89 C 0.21577 0.38888 0.76791 -0.13180
H90 H 0.23131 0.37733 0.80243 0.10780
C91 C 0.31012 0.15612 0.58785 0.04680
C92 C 0.26990 0.17935 0.59967 -0.12780
H93 H 0.23539 0.16899 0.58216 0.11210
C94 C 0.26872 0.21464 0.63166 -0.13180
H95 H 0.23382 0.23073 0.64248 0.10780
C96 C 0.30974 0.23232 0.65225 0.02200
C97 C 0.35048 0.21253 0.63646 -0.13180
H98 H 0.38558 0.22739 0.64870 0.10780
C99 C 0.35033 0.17476 0.60587 -0.12780
H100 H 0.38554 0.15897 0.59567 0.11210
C101 C 0.45166 0.27699 0.82871 -0.12780
H102 H 0.48821 0.26335 0.82036 0.11210
C103 C 0.41978 0.28342 0.79217 -0.13180
H104 H 0.43017 0.27422 0.75446 0.10780
C105 C 0.37648 0.30036 0.79999 0.02200
C106 C 0.36431 0.31193 0.84510 -0.13180
H107 H 0.32824 0.32699 0.85306 0.10780
C108 C 0.27396 0.33662 0.72635 -0.03390
C109 C 0.27511 0.30358 0.69132 -0.07610
H110 H 0.24735 0.30324 0.66263 0.10290
C111 C 0.30966 0.27049 0.69029 -0.03390
C112 C 0.34078 0.27025 0.72637 -0.07610
H113 H 0.36866 0.24207 0.72750 0.10290
C114 C 0.34144 0.30194 0.76245 -0.03390
C115 C 0.30624 0.33532 0.76188 -0.07610
H116 H 0.30480 0.36209 0.79213 0.10290
C117 C 0.71181 0.85070 0.58041 0.04680
C118 C 0.73040 0.80654 0.56923 -0.12780
H119 H 0.74075 0.79711 0.53156 0.11210
C120 C 0.85393 0.56782 0.71657 0.04680
C121 C 0.83901 0.58678 0.67594 -0.12780
H122 H 0.85082 0.57126 0.64067 0.11210
C123 C 0.84100 0.58826 0.75755 -0.12780
H124 H 0.85493 0.57470 0.79195 0.11210
C125 C 0.81151 0.62499 0.75909 -0.13180
H126 H 0.80105 0.64163 0.79430 0.10780
C127 C 0.79446 0.64196 0.71912 0.02200
C128 C 0.80985 0.62450 0.67784 -0.13180
H129 H 0.79869 0.64104 0.64384 0.10780
C130 C 0.57620 0.71764 0.85471 0.04680
C131 C 0.59896 0.67760 0.84140 -0.12780
H132 H 0.58785 0.64307 0.85650 0.11210
C133 C 0.63463 0.67663 0.81066 -0.13180
H134 H 0.65030 0.64198 0.79841 0.10780
C135 C 0.65325 0.71757 0.79314 0.02200
C136 C 0.63394 0.75796 0.81056 -0.13180
H137 H 0.64956 0.79285 0.80092 0.10780
C138 C 0.59575 0.75769 0.83973 -0.12780
H139 H 0.58040 0.79266 0.85140 0.11210
C140 C 0.70160 0.86228 0.62679 -0.12780
H141 H 0.68845 0.89859 0.63676 0.11210
C142 C 0.70733 0.82956 0.66166 -0.13180
H143 H 0.69804 0.83905 0.69960 0.10780
C144 C 0.72368 0.78648 0.65194 0.02200
C145 C 0.73537 0.77537 0.60660 -0.13180
H146 H 0.74995 0.73950 0.59709 0.10780
C147 C 0.75803 0.68211 0.72083 -0.03390
C148 C 0.72460 0.68293 0.75469 -0.07610
H149 H 0.72362 0.65463 0.78171 0.10290
C150 C 0.69187 0.71780 0.75652 -0.03390
C151 C 0.69237 0.74965 0.72229 -0.07610
H152 H 0.66449 0.77786 0.72176 0.10290
C153 C 0.72447 0.75067 0.68745 -0.03390
C154 C 0.75746 0.71512 0.68719 -0.07610
H155 H 0.78455 0.71400 0.65786 0.10290
C156 C 0.93578 0.65842 0.22412 0.04680
C157 C 0.91693 0.67141 0.18092 -0.12780
H158 H 0.93285 0.65739 0.14672 0.11210
C159 C 0.65733 0.80050 0.07238 0.04680
C160 C 0.70117 0.78331 0.06429 -0.12780
H161 H 0.71251 0.77321 0.02706 0.11210
C162 C 0.64439 0.81011 0.11694 -0.12780
H163 H 0.60722 0.82215 0.12497 0.11210
C164 C 0.67471 0.80582 0.15300 -0.13180
H165 H 0.66287 0.81426 0.19044 0.10780
C166 C 0.71887 0.79159 0.14480 0.02200
C167 C 0.73133 0.77827 0.10112 -0.13180
H168 H 0.76736 0.76257 0.09432 0.10780
C169 C 0.79525 0.93414 0.36151 0.04680
C170 C 0.77641 0.94088 0.31816 -0.12780
H171 H 0.76237 0.97651 0.30903 0.11210
C172 C 0.77346 0.90697 0.28478 -0.13180
H173 H 0.76034 0.91521 0.24825 0.10780
C174 C 0.78622 0.86127 0.29386 0.02200
C175 C 0.80007 0.85348 0.33883 -0.13180
H176 H 0.80748 0.81657 0.35006 0.10780
C177 C 0.80537 0.88932 0.37130 -0.12780
H178 H 0.81878 0.88044 0.40755 0.11210
C179 C 0.91450 0.67404 0.26529 -0.12780
H180 H 0.92804 0.66222 0.30053 0.11210
C181 C 0.87631 0.70437 0.26391 -0.13180
H182 H 0.85952 0.71775 0.29794 0.10780
C183 C 0.85828 0.71865 0.22318 0.02200
C184 C 0.87803 0.70211 0.18246 -0.13180
H185 H 0.86335 0.71286 0.14728 0.10780
C186 C 0.75478 0.78968 0.18577 -0.03390
C187 C 0.75406 0.82332 0.22023 -0.07610
H188 H 0.72712 0.85237 0.21919 0.10290
C189 C 0.78573 0.82251 0.25643 -0.03390
C190 C 0.81907 0.78886 0.25537 -0.07610
H191 H 0.84701 0.78841 0.28387 0.10290
C192 C 0.82194 0.75452 0.22198 -0.03390
C193 C 0.78880 0.75618 0.18623 -0.07610
H194 H 0.79054 0.72855 0.15679 0.10290
C195 C 0.93623 0.34622 0.80605 0.04680
C196 C 0.91725 0.33330 0.84924 -0.12780
H197 H 0.93315 0.34744 0.88345 0.11210
C198 C 0.65695 0.20394 0.95748 0.04680
C199 C 0.70084 0.22125 0.96563 -0.12780
H200 H 0.71215 0.23147 0.00286 0.11210
C201 C 0.64405 0.19419 0.91290 -0.12780
H202 H 0.60685 0.18205 0.90481 0.11210
C203 C 0.67446 0.19845 0.87690 -0.13180
H204 H 0.66266 0.18989 0.83945 0.10780
C205 C 0.71866 0.21279 0.88518 0.02200
C206 C 0.73109 0.22626 0.92886 -0.13180
H207 H 0.76716 0.24205 0.93571 0.10780
C208 C 0.79490 0.06987 0.66901 0.04680
C209 C 0.77596 0.06319 0.71234 -0.12780
H210 H 0.76177 0.02756 0.72153 0.11210
C211 C 0.77307 0.09719 0.74562 -0.13180
H212 H 0.75985 0.08901 0.78214 0.10780
C213 C 0.78603 0.14288 0.73646 0.02200
C214 C 0.79999 0.15059 0.69150 -0.13180
H215 H 0.80756 0.18748 0.68019 0.10780
C216 C 0.80521 0.11468 0.65914 -0.12780
H217 H 0.81873 0.12349 0.62290 0.11210
C218 C 0.91496 0.33045 0.76487 -0.12780
H219 H 0.92862 0.34221 0.72962 0.11210
C220 C 0.87665 0.30004 0.76622 -0.13180
H221 H 0.85988 0.28654 0.73219 0.10780
C222 C 0.85850 0.28583 0.80695 0.02200
C223 C 0.87823 0.30251 0.84768 -0.13180
H224 H 0.86345 0.29183 0.88285 0.10780
C225 C 0.75466 0.21468 0.84429 -0.03390
C226 C 0.75387 0.18095 0.80991 -0.07610
H227 H 0.72682 0.15185 0.81096 0.10290
C228 C 0.78561 0.18174 0.77379 -0.03390
C229 C 0.81908 0.21546 0.77485 -0.07610
H230 H 0.84707 0.21589 0.74641 0.10290
C231 C 0.82202 0.24988 0.80816 -0.03390
C232 C 0.78880 0.24825 0.84382 -0.07610
H233 H 0.79060 0.27596 0.87320 0.10290
C234 C 0.22266 0.92814 0.65731 0.04680
C235 C 0.17958 0.90816 0.66966 -0.12780
H236 H 0.14554 0.92284 0.65562 0.11210
C237 C 0.07368 0.64773 0.79312 0.04680
C238 C 0.06503 0.69091 0.77672 -0.12780
H239 H 0.02795 0.70099 0.76651 0.11210
C240 C 0.11815 0.63629 0.80286 -0.12780
H241 H 0.12675 0.59970 0.81422 0.11210
C242 C 0.15344 0.66748 0.79949 -0.13180
H243 H 0.19082 0.65692 0.80802 0.10780
C244 C 0.14455 0.71100 0.78609 0.02200
C245 C 0.10112 0.72197 0.77260 -0.13180
H246 H 0.09392 0.75744 0.75753 0.10780
C247 C 0.35322 0.79412 0.93323 0.04680
C248 C 0.31022 0.77412 0.93927 -0.12780
H249 H 0.30016 0.76007 0.97481 0.11210
C250 C 0.27830 0.77001 0.90475 -0.13180
H251 H 0.24190 0.75590 0.91248 0.10780
C252 C 0.28874 0.78275 0.85902 0.02200
C253 C 0.33352 0.79784 0.85182 -0.13180
H254 H 0.34592 0.80537 0.81485 0.10780
C255 C 0.36440 0.80426 0.88833 -0.12780
H256 H 0.40053 0.81865 0.87996 0.11210
C257 C 0.26374 0.90834 0.67289 -0.12780
H258 H 0.29898 0.92282 0.66154 0.11210
C259 C 0.26229 0.87053 0.70261 -0.13180
H260 H 0.29621 0.85498 0.71597 0.10780
C261 C 0.22161 0.85145 0.71629 0.02200
C262 C 0.18105 0.86973 0.69975 -0.13180
H263 H 0.14595 0.85413 0.70998 0.10780
C264 C 0.18450 0.74790 0.78529 -0.03390
C265 C 0.21762 0.74839 0.81946 -0.07610
H266 H 0.21624 0.72175 0.84813 0.10290
C267 C 0.25288 0.78093 0.81963 -0.03390
C268 C 0.25216 0.81384 0.78645 -0.07610
H269 H 0.27983 0.84245 0.78685 0.10290
C270 C 0.22007 0.81551 0.75163 -0.03390
C271 C 0.18528 0.78152 0.75227 -0.07610
H272 H 0.15690 0.78222 0.72423 0.10290
C273 C 0.22106 0.07650 0.37128 0.04680
C274 C 0.17800 0.09629 0.35894 -0.12780
H275 H 0.14396 0.08150 0.37305 0.11210
C276 C 0.07235 0.35601 0.23502 0.04680
C277 C 0.06365 0.31283 0.25153 -0.12780
H278 H 0.02657 0.30263 0.26181 0.11210
C279 C 0.11682 0.36760 0.22520 -0.12780
H280 H 0.12547 0.40421 0.21375 0.11210
C281 C 0.15206 0.33657 0.22860 -0.13180
H282 H 0.18944 0.34726 0.22000 0.10780
C283 C 0.14312 0.29304 0.24211 0.02200
C284 C 0.09969 0.28193 0.25567 -0.13180
H285 H 0.09245 0.24646 0.27083 0.10780
C286 C 0.35135 0.21044 0.09489 0.04680
C287 C 0.30838 0.23025 0.08885 -0.12780
H288 H 0.29828 0.24418 0.05329 0.11210
C289 C 0.27653 0.23431 0.12341 -0.13180
H290 H 0.24015 0.24826 0.11569 0.10780
C291 C 0.28703 0.22171 0.16916 0.02200
C292 C 0.33180 0.20682 0.17634 -0.13180
H293 H 0.34426 0.19941 0.21331 0.10780
C294 C 0.36260 0.20044 0.13980 -0.12780
H295 H 0.39872 0.18621 0.14816 0.11210
C296 C 0.26216 0.09643 0.35560 -0.12780
H297 H 0.29739 0.08211 0.36694 0.11210
C298 C 0.26072 0.13416 0.32580 -0.13180
H299 H 0.29465 0.14982 0.31236 0.10780
C300 C 0.22005 0.15305 0.31213 0.02200
C301 C 0.17949 0.13465 0.32876 -0.13180
H302 H 0.14440 0.15009 0.31853 0.10780
C303 C 0.18299 0.25631 0.24294 -0.03390
C304 C 0.21605 0.25587 0.20873 -0.07610
H305 H 0.21466 0.28245 0.18000 0.10290
C306 C 0.25125 0.22347 0.20858 -0.03390
C307 C 0.25053 0.19063 0.24184 -0.07610
H308 H 0.27816 0.16214 0.24147 0.10290
C309 C 0.21851 0.18891 0.27671 -0.03390
C310 C 0.18377 0.22276 0.27603 -0.07610
H311 H 0.15545 0.22200 0.30412 0.10290
In312 In 0.50085 0.76863 0.00542 0.73440
O313 O 0.54997 0.75580 0.93602 -0.49240
O314 O 0.52980 0.82502 0.96318 -0.49240
O315 O 0.56819 0.77620 0.04981 -0.49240
O316 O 0.54298 0.70665 0.03060 -0.49240
O317 O 0.47273 0.82983 0.04820 -0.49240
O318 O 0.45774 0.75932 0.07136 -0.49240
O319 O 0.46285 0.70529 0.97350 -0.49240
O320 O 0.43452 0.77428 0.96116 -0.49240
C321 C 0.55174 0.79931 0.93498 0.56890
C322 C 0.57223 0.73336 0.05164 0.56890
C323 C 0.45496 0.80309 0.07649 0.56890
C324 C 0.43346 0.73057 0.95457 0.56890
In325 In 0.74986 0.00443 0.51585 0.73440
O326 O 0.76315 0.93547 0.56198 -0.49240
O327 O 0.69330 0.96216 0.54600 -0.49240
O328 O 0.74279 0.95626 0.44995 -0.49240
O329 O 0.81261 0.97465 0.47523 -0.49240
O330 O 0.68801 0.04394 0.48807 -0.49240
O331 O 0.75889 0.06702 0.47014 -0.49240
O332 O 0.81331 0.03039 0.55784 -0.49240
O333 O 0.74362 0.05146 0.58163 -0.49240
C334 C 0.71936 0.93267 0.56347 0.56890
C335 C 0.78595 0.95389 0.44561 0.56890
C336 C 0.71480 0.07054 0.46758 0.56890
C337 C 0.78761 0.05105 0.58696 0.56890
In338 In 0.50592 0.23877 0.02717 0.73440
O339 O 0.43629 0.22704 0.07532 -0.49240
O340 O 0.46409 0.29586 0.05927 -0.49240
O341 O 0.45752 0.24480 0.96282 -0.49240
O342 O 0.47513 0.17586 0.98677 -0.49240
O343 O 0.54651 0.29929 0.99883 -0.49240
O344 O 0.56883 0.22837 0.97939 -0.49240
O345 O 0.53122 0.17642 0.06767 -0.49240
O346 O 0.55333 0.24594 0.09158 -0.49240
C347 C 0.43405 0.27057 0.07738 0.56890
C348 C 0.45457 0.20187 0.95808 0.56890
C349 C 0.57294 0.27207 0.97720 0.56890
C350 C 0.55235 0.20237 0.09644 0.56890
In351 In 0.27075 0.00010 0.51237 0.73440
O352 O 0.28339 0.06925 0.56412 -0.49240
O353 O 0.21378 0.04364 0.54342 -0.49240
O354 O 0.26433 0.95668 0.57816 -0.49240
O355 O 0.33389 0.97470 0.55311 -0.49240
O356 O 0.20930 0.95981 0.48305 -0.49240
O357 O 0.28043 0.93575 0.46659 -0.49240
O358 O 0.33378 0.03180 0.47504 -0.49240
O359 O 0.26388 0.04540 0.44769 -0.49240
C360 C 0.23958 0.07101 0.56627 0.56890
C361 C 0.30753 0.95411 0.58180 0.56890
C362 C 0.23637 0.93142 0.46396 0.56890
C363 C 0.30781 0.05119 0.44653 0.56890
In364 In 0.00010 0.49600 0.75752 0.73440
O365 O 0.06993 0.44875 0.77213 -0.49240
O366 O 0.04313 0.46176 0.70168 -0.49240
O367 O 0.04954 0.55928 0.74923 -0.49240
O368 O 0.03090 0.53854 0.81965 -0.49240
O369 O 0.96109 0.52155 0.69479 -0.49240
O370 O 0.93793 0.54380 0.76533 -0.49240
O371 O 0.97438 0.45863 0.82189 -0.49240
O372 O 0.95306 0.43210 0.75249 -0.49240
C373 C 0.07274 0.44487 0.72829 0.56890
C374 C 0.05195 0.56577 0.79239 0.56890
C375 C 0.93441 0.54413 0.72108 0.56890
C376 C 0.95344 0.42913 0.79669 0.56890
In377 In 0.99990 0.50747 0.26874 0.73440
O378 O 0.04841 0.43968 0.28277 -0.49240
O379 O 0.02825 0.46128 0.21253 -0.49240
O380 O 0.06698 0.55081 0.26064 -0.49240
O381 O 0.04179 0.53714 0.33099 -0.49240
O382 O 0.97146 0.54515 0.20634 -0.49240
O383 O 0.95662 0.57352 0.27709 -0.49240
O384 O 0.96147 0.48074 0.33297 -0.49240
O385 O 0.93302 0.46323 0.26351 -0.49240
C386 C 0.05012 0.43531 0.23891 0.56890
C387 C 0.07108 0.55591 0.30382 0.56890
C388 C 0.95381 0.57523 0.23287 0.56890
C389 C 0.93198 0.46007 0.30768 0.56890
loop_
_geom_bond_atom_site_label_1
_geom_bond_atom_site_label_2
_geom_bond_distance
_geom_bond_site_symmetry_2
_ccdc_geom_bond_type
C0 C1 1.407 . A
C0 C23 1.386 . A
C1 H2 1.140 . S
C1 C28 1.422 . A
C3 C4 1.366 . A
C3 C6 1.345 . A
C4 H5 1.140 . S
C4 C11 1.371 . A
C6 H7 1.140 . S
C6 C8 1.354 . A
C8 H9 1.140 . S
C8 C10 1.347 . A
C10 C11 1.341 . A
C10 C30 1.558 . S
C11 H12 1.140 . S
C13 C14 1.369 . A
C13 C21 1.361 . A
C14 H15 1.140 . S
C14 C16 1.345 . A
C16 H17 1.140 . S
C16 C18 1.399 . A
C18 C19 1.368 . A
C18 C33 1.521 . S
C19 H20 1.140 . S
C19 C21 1.373 . A
C21 H22 1.140 . S
C23 H24 1.140 . S
C23 C25 1.402 . A
C25 H26 1.140 . S
C25 C27 1.348 . A
C27 C28 1.365 . A
C27 C36 1.468 . S
C28 H29 1.140 . S
C30 C31 1.359 . A
C30 C37 1.372 . A
C31 H32 1.140 . S
C31 C33 1.374 . A
C33 C34 1.361 . A
C34 H35 1.140 . S
C34 C36 1.354 . A
C36 C37 1.394 . A
C37 H38 1.140 . S
C39 C40 1.407 . A
C39 C62 1.386 . A
C40 H41 1.140 . S
C40 C67 1.422 . A
C42 C43 1.366 . A
C42 C45 1.345 . A
C43 H44 1.140 . S
C43 C50 1.371 . A
C45 H46 1.140 . S
C45 C47 1.354 . A
C47 H48 1.140 . S
C47 C49 1.347 . A
C49 C50 1.341 . A
C49 C69 1.558 . S
C50 H51 1.140 . S
C52 C53 1.369 . A
C52 C60 1.361 . A
C53 H54 1.140 . S
C53 C55 1.345 . A
C55 H56 1.140 . S
C55 C57 1.399 . A
C57 C58 1.368 . A
C57 C72 1.521 . S
C58 H59 1.140 . S
C58 C60 1.373 . A
C60 H61 1.140 . S
C62 H63 1.140 . S
C62 C64 1.402 . A
C64 H65 1.140 . S
C64 C66 1.348 . A
C66 C67 1.365 . A
C66 C75 1.468 . S
C67 H68 1.140 . S
C69 C70 1.359 . A
C69 C76 1.372 . A
C70 H71 1.140 . S
C70 C72 1.374 . A
C72 C73 1.361 . A
C73 H74 1.140 . S
C73 C75 1.354 . A
C75 C76 1.394 . A
C76 H77 1.140 . S
C78 C79 1.407 . A
C78 C101 1.386 . A
C79 H80 1.140 . S
C79 C106 1.422 . A
C81 C82 1.366 . A
C81 C84 1.345 . A
C82 H83 1.140 . S
C82 C89 1.371 . A
C84 H85 1.140 . S
C84 C86 1.354 . A
C86 H87 1.140 . S
C86 C88 1.347 . A
C88 C89 1.341 . A
C88 C108 1.558 . S
C89 H90 1.140 . S
C91 C92 1.369 . A
C91 C99 1.361 . A
C92 H93 1.140 . S
C92 C94 1.345 . A
C94 H95 1.140 . S
C94 C96 1.399 . A
C96 C97 1.368 . A
C96 C111 1.521 . S
C97 H98 1.140 . S
C97 C99 1.373 . A
C99 H100 1.140 . S
C101 H102 1.140 . S
C101 C103 1.402 . A
C103 H104 1.140 . S
C103 C105 1.348 . A
C105 C106 1.365 . A
C105 C114 1.468 . S
C106 H107 1.140 . S
C108 C109 1.359 . A
C108 C115 1.372 . A
C109 H110 1.140 . S
C109 C111 1.374 . A
C111 C112 1.361 . A
C112 H113 1.140 . S
C112 C114 1.354 . A
C114 C115 1.394 . A
C115 H116 1.140 . S
C117 C118 1.407 . A
C117 C140 1.386 . A
C118 H119 1.140 . S
C118 C145 1.422 . A
C120 C121 1.366 . A
C120 C123 1.345 . A
C121 H122 1.140 . S
C121 C128 1.371 . A
C123 H124 1.140 . S
C123 C125 1.354 . A
C125 H126 1.140 . S
C125 C127 1.347 . A
C127 C128 1.341 . A
C127 C147 1.558 . S
C128 H129 1.140 . S
C130 C131 1.369 . A
C130 C138 1.361 . A
C131 H132 1.140 . S
C131 C133 1.345 . A
C133 H134 1.140 . S
C133 C135 1.399 . A
C135 C136 1.368 . A
C135 C150 1.521 . S
C136 H137 1.140 . S
C136 C138 1.373 . A
C138 H139 1.140 . S
C140 H141 1.140 . S
C140 C142 1.402 . A
C142 H143 1.140 . S
C142 C144 1.348 . A
C144 C145 1.365 . A
C144 C153 1.468 . S
C145 H146 1.140 . S
C147 C148 1.359 . A
C147 C154 1.372 . A
C148 H149 1.140 . S
C148 C150 1.374 . A
C150 C151 1.361 . A
C151 H152 1.140 . S
C151 C153 1.354 . A
C153 C154 1.394 . A
C154 H155 1.140 . S
C156 C157 1.407 . A
C156 C179 1.386 . A
C157 H158 1.140 . S
C157 C184 1.422 . A
C159 C160 1.366 . A
C159 C162 1.345 . A
C160 H161 1.140 . S
C160 C167 1.371 . A
C162 H163 1.140 . S
C162 C164 1.354 . A
C164 H165 1.140 . S
C164 C166 1.347 . A
C166 C167 1.341 . A
C166 C186 1.558 . S
C167 H168 1.140 . S
C169 C170 1.369 . A
C169 C177 1.361 . A
C170 H171 1.140 . S
C170 C172 1.345 . A
C172 H173 1.140 . S
C172 C174 1.399 . A
C174 C175 1.368 . A
C174 C189 1.521 . S
C175 H176 1.140 . S
C175 C177 1.373 . A
C177 H178 1.140 . S
C179 H180 1.140 . S
C179 C181 1.402 . A
C181 H182 1.140 . S
C181 C183 1.348 . A
C183 C184 1.365 . A
C183 C192 1.468 . S
C184 H185 1.140 . S
C186 C187 1.359 . A
C186 C193 1.372 . A
C187 H188 1.140 . S
C187 C189 1.374 . A
C189 C190 1.361 . A
C190 H191 1.140 . S
C190 C192 1.354 . A
C192 C193 1.394 . A
C193 H194 1.140 . S
C195 C196 1.407 . A
C195 C218 1.386 . A
C196 H197 1.140 . S
C196 C223 1.422 . A
C198 C199 1.366 . A
C198 C201 1.345 . A
C199 H200 1.140 1_556 S
C199 C206 1.371 . A
C201 H202 1.140 . S
C201 C203 1.354 . A
C203 H204 1.140 . S
C203 C205 1.347 . A
C205 C206 1.341 . A
C205 C225 1.558 . S
C206 H207 1.140 . S
C208 C209 1.369 . A
C208 C216 1.361 . A
C209 H210 1.140 . S
C209 C211 1.345 . A
C211 H212 1.140 . S
C211 C213 1.399 . A
C213 C214 1.368 . A
C213 C228 1.521 . S
C214 H215 1.140 . S
C214 C216 1.373 . A
C216 H217 1.140 . S
C218 H219 1.140 . S
C218 C220 1.402 . A
C220 H221 1.140 . S
C220 C222 1.348 . A
C222 C223 1.365 . A
C222 C231 1.468 . S
C223 H224 1.140 . S
C225 C226 1.359 . A
C225 C232 1.372 . A
C226 H227 1.140 . S
C226 C228 1.374 . A
C228 C229 1.361 . A
C229 H230 1.140 . S
C229 C231 1.354 . A
C231 C232 1.394 . A
C232 H233 1.140 . S
C234 C235 1.407 . A
C234 C257 1.386 . A
C235 H236 1.140 . S
C235 C262 1.422 . A
C237 C238 1.366 . A
C237 C240 1.345 . A
C238 H239 1.140 . S
C238 C245 1.371 . A
C240 H241 1.140 . S
C240 C242 1.354 . A
C242 H243 1.140 . S
C242 C244 1.347 . A
C244 C245 1.341 . A
C244 C264 1.558 . S
C245 H246 1.140 . S
C247 C248 1.369 . A
C247 C255 1.361 . A
C248 H249 1.140 . S
C248 C250 1.345 . A
C250 H251 1.140 . S
C250 C252 1.399 . A
C252 C253 1.368 . A
C252 C267 1.521 . S
C253 H254 1.140 . S
C253 C255 1.373 . A
C255 H256 1.140 . S
C257 H258 1.140 . S
C257 C259 1.402 . A
C259 H260 1.140 . S
C259 C261 1.348 . A
C261 C262 1.365 . A
C261 C270 1.468 . S
C262 H263 1.140 . S
C264 C265 1.359 . A
C264 C271 1.372 . A
C265 H266 1.140 . S
C265 C267 1.374 . A
C267 C268 1.361 . A
C268 H269 1.140 . S
C268 C270 1.354 . A
C270 C271 1.394 . A
C271 H272 1.140 . S
C273 C274 1.407 . A
C273 C296 1.386 . A
C274 H275 1.140 . S
C274 C301 1.422 . A
C276 C277 1.366 . A
C276 C279 1.345 . A
C277 H278 1.140 . S
C277 C284 1.371 . A
C279 H280 1.140 . S
C279 C281 1.354 . A
C281 H282 1.140 . S
C281 C283 1.347 . A
C283 C284 1.341 . A
C283 C303 1.558 . S
C284 H285 1.140 . S
C286 C287 1.369 . A
C286 C294 1.361 . A
C287 H288 1.140 . S
C287 C289 1.345 . A
C289 H290 1.140 . S
C289 C291 1.399 . A
C291 C292 1.368 . A
C291 C306 1.521 . S
C292 H293 1.140 . S
C292 C294 1.373 . A
C294 H295 1.140 . S
C296 H297 1.140 . S
C296 C298 1.402 . A
C298 H299 1.140 . S
C298 C300 1.348 . A
C300 C301 1.365 . A
C300 C309 1.468 . S
C301 H302 1.140 . S
C303 C304 1.359 . A
C303 C310 1.372 . A
C304 H305 1.140 . S
C304 C306 1.374 . A
C306 C307 1.361 . A
C307 H308 1.140 . S
C307 C309 1.354 . A
C309 C310 1.394 . A
C310 H311 1.140 . S
In312 O313 2.447 1_554 S
In312 O314 2.211 1_554 S
In312 O315 2.310 . S
In312 O316 2.290 . S
In312 O317 2.262 . S
In312 O318 2.272 . S
In312 O319 2.285 1_554 S
In312 O320 2.287 1_554 S
O313 C321 1.255 . A
O314 C321 1.247 . A
O315 C322 1.242 . A
O316 C322 1.272 . A
O317 C323 1.241 . A
O318 C323 1.267 . A
O319 C324 1.247 . A
O320 C324 1.267 . A
In325 O326 2.447 1_545 S
In325 O327 2.211 1_545 S
In325 O328 2.310 1_545 S
In325 O329 2.290 1_545 S
In325 O330 2.262 . S
In325 O331 2.272 . S
In325 O332 2.285 . S
In325 O333 2.287 . S
O326 C334 1.255 . A
O327 C334 1.247 . A
O328 C335 1.242 . A
O329 C335 1.272 . A
O330 C336 1.241 . A
O331 C336 1.267 . A
O332 C337 1.247 . A
O333 C337 1.267 . A
In338 O339 2.447 . S
In338 O340 2.211 . S
In338 O341 2.310 1_554 S
In338 O342 2.290 1_554 S
In338 O343 2.262 1_554 S
In338 O344 2.272 1_554 S
In338 O345 2.285 . S
In338 O346 2.287 . S
O339 C347 1.255 . A
O340 C347 1.247 . A
O341 C348 1.242 . A
O342 C348 1.272 . A
O343 C349 1.241 . A
O344 C349 1.267 . A
O345 C350 1.247 . A
O346 C350 1.267 . A
In351 O352 2.467 . S
In351 O353 2.225 . S
In351 O354 2.295 1_545 S
In351 O355 2.281 1_545 S
In351 O356 2.249 1_545 S
In351 O357 2.251 1_545 S
In351 O358 2.295 . S
In351 O359 2.302 . S
O352 C360 1.255 . A
O353 C360 1.247 . A
O354 C361 1.242 . A
O355 C361 1.272 . A
O356 C362 1.241 . A
O357 C362 1.267 . A
O358 C363 1.247 . A
O359 C363 1.267 . A
In364 O365 2.462 . S
In364 O366 2.221 . S
In364 O367 2.321 . S
In364 O368 2.297 . S
In364 O369 2.253 1_455 S
In364 O370 2.258 1_455 S
In364 O371 2.279 1_455 S
In364 O372 2.277 1_455 S
O365 C373 1.255 . A
O366 C373 1.247 . A
O367 C374 1.242 . A
O368 C374 1.272 . A
O369 C375 1.241 . A
O370 C375 1.267 . A
O371 C376 1.247 . A
O372 C376 1.267 . A
In377 O378 2.441 1_655 S
In377 O379 2.207 1_655 S
In377 O380 2.301 1_655 S
In377 O381 2.284 1_655 S
In377 O382 2.266 . S
In377 O383 2.278 . S
In377 O384 2.290 . S
In377 O385 2.296 . S
O378 C386 1.255 . A
O379 C386 1.247 . A
O380 C387 1.242 . A
O381 C387 1.272 . A
O382 C388 1.241 . A
O383 C388 1.267 . A
O384 C389 1.247 . A
O385 C389 1.267 . A
C323 C0 3.638 . S
C336 C39 2.434 . S
C78 C348 3.499 . S
C13 C362 3.360 . S
C130 C321 3.308 . S
C350 C52 3.347 . S
C169 C335 2.464 . S
C349 C198 3.145 . S
C361 C234 3.344 . S
C376 C195 2.459 . S
C374 C237 2.438 . S
C156 C388 2.472 . S
C276 C386 2.371 . S
C387 C3 2.592 . S
C375 C120 2.406 . S
C334 C117 2.433 . S
C91 C360 3.214 . S
C363 C273 3.376 . S
C324 C247 3.013 . S
C322 C159 3.147 . S
C337 C208 2.396 . S
C286 C347 2.978 . S
C42 C389 2.399 . S
C373 C81 2.531 . S
