data_image0
_chemical_formula_structural       FeS2FeS2FeS2FeSFeS3C3FeS2C6H4C6H5CH2C7H5C2HC3HC2HCH2C2HCHC2H2N2C4H2CH5CHCHC3SHC2H3CH2C2H4CHCH5CH8SNH4CH6NH2FeS2FeS2FeSFeS3H2CFeS2HC8H4C6H4C7H3CHC2H4CH2CH4CHSH2CH4NC7NCH11C2H2NCSCHC3H6SCFeC2SC2H2FeHNC3H2FeSHCSHFeS2C5H2CH3C2HCSHC4SH2CHFeH2C2H3CHC3HCFeCHCSHC2HCH2CNC2HSHCH2CSH2NC2H2CH5CFeSFeS2FeHFeCS2HSC2SHFeSHSH5CH2CHCHCFe2C6H6CH2CH2CSCNHCH6NC5HFeHCH2CH3CHC2HSCH2CH2FeS2HCSHSCH2C2HFeHCH2C2HCHC2HC3H3CH2CHCH3SHC3SHCNH8C4HCH2C3NSH2FeCH4FeHC2NCH2SC2SCH2SC3H3FeCHSCS3H2FeS2CFeC3H4C5HC2HC4H3CHNC4FeH2C2FeH3CSH4CHSHC2H3CH2CHCH4C3HCHC2H2CHCFeHCNCFeS2FeSFeHFeNS2CSC2SHFe2S2CH2CH5C6H4CHCHCH2CH2C2H2C3H2CH2CHC2NH2CHCH5SHC2HCH3C2H2CHS2CH2CH2C2SFeS2CHSC2HC2H3CHC2H4C3HCH4CH5SH3CHC3HCHNHCH2CHC2HCH2NCHC2SC2H2FeS2FeS2FeS2FeSFeS3HSCHS2C6H4C6H5CH2C7H4CH5CNC2HC2H2FeC2H6C3H4NC9H4CH7CH2NC3HCFeHCH4CH2C3H3NH5SC3H4FeS2FeS2FeSFeS3FeS2HSH3SC6H4C6H4C6H4CHC2HC2HC3H2CH2CHCHCNHCH3CHCHFeH2CH2SH2C3NC6H12C3HCH3NCHSHCH4FeH
_chemical_formula_sum              "Fe56 S112 C420 H504 N28"
_cell_length_a       35.3108
_cell_length_b       34.8775
_cell_length_c       49.1167
_cell_angle_alpha    90.2105
_cell_angle_beta     90.0611
_cell_angle_gamma    89.9604

_space_group_name_H-M_alt    "P 1"
_space_group_IT_number       1

loop_
  _space_group_symop_operation_xyz
  'x, y, z'

loop_
  _atom_site_type_symbol
  _atom_site_label
  _atom_site_symmetry_multiplicity
  _atom_site_fract_x
  _atom_site_fract_y
  _atom_site_fract_z
  _atom_site_occupancy
  Fe  Fe1       1.0  0.47800  0.04127  0.21079  1.0000
  S   S1        1.0  0.47142  0.04102  0.25599  1.0000
  S   S2        1.0  0.44641  0.07989  0.18093  1.0000
  Fe  Fe2       1.0  0.25697  0.20252  0.14857  1.0000
  S   S3        1.0  0.22062  0.16911  0.11930  1.0000
  S   S4        1.0  0.29012  0.17298  0.18297  1.0000
  Fe  Fe3       1.0  0.21866  0.27913  0.13192  1.0000
  S   S5        1.0  0.18091  0.25075  0.10102  1.0000
  S   S6        1.0  0.21115  0.34309  0.14049  1.0000
  Fe  Fe4       1.0  0.17271  0.20626  0.13321  1.0000
  S   S7        1.0  0.11387  0.18961  0.14595  1.0000
  Fe  Fe5       1.0  0.23227  0.21648  0.08899  1.0000
  S   S8        1.0  0.24372  0.19276  0.04616  1.0000
  S   S9        1.0  0.20735  0.23639  0.16470  1.0000
  S   S10       1.0  0.27181  0.24817  0.11772  1.0000
  C   C1        1.0  0.13277  0.50268  0.21619  1.0000
  C   C2        1.0  0.18337  0.07116  0.24805  1.0000
  C   C3        1.0  0.22551  0.46952  0.21702  1.0000
  Fe  Fe6       1.0  0.03718  0.45978  0.21388  1.0000
  S   S11       1.0  0.06488  0.40194  0.20475  1.0000
  S   S12       1.0  0.04217  0.48037  0.25727  1.0000
  C   C4        1.0  0.16887  0.35940  0.15640  1.0000
  C   C5        1.0  0.16001  0.39879  0.15685  1.0000
  C   C6        1.0  0.12761  0.41247  0.17073  1.0000
  C   C7        1.0  0.10421  0.38686  0.18475  1.0000
  C   C8        1.0  0.11289  0.34753  0.18391  1.0000
  C   C9        1.0  0.14474  0.33384  0.16969  1.0000
  H   H1        1.0  0.17846  0.41878  0.14656  1.0000
  H   H2        1.0  0.12110  0.44272  0.17081  1.0000
  H   H3        1.0  0.09509  0.32737  0.19447  1.0000
  H   H4        1.0  0.15101  0.30349  0.16942  1.0000
  C   C10       1.0  0.10080  0.14120  0.14515  1.0000
  C   C11       1.0  0.12408  0.11331  0.13332  1.0000
  C   C12       1.0  0.11301  0.07465  0.13355  1.0000
  C   C13       1.0  0.07915  0.06391  0.14626  1.0000
  C   C14       1.0  0.05611  0.09182  0.15824  1.0000
  C   C15       1.0  0.06666  0.13045  0.15732  1.0000
  H   H5        1.0  0.15050  0.12152  0.12408  1.0000
  H   H6        1.0  0.13084  0.05299  0.12431  1.0000
  H   H7        1.0  0.02982  0.08365  0.16794  1.0000
  H   H8        1.0  0.04845  0.15196  0.16632  1.0000
  H   H9        1.0  0.13059  0.08763  0.20602  1.0000
  C   C16       1.0  0.23709  0.21213  0.01295  1.0000
  H   H10       1.0  0.14107  0.17480  0.08565  1.0000
  H   H11       1.0  0.22737  0.27039  0.02566  1.0000
  C   C17       1.0  0.22972  0.25103  0.00848  1.0000
  C   C18       1.0  0.40267  0.10521  0.18220  1.0000
  C   C19       1.0  0.38823  0.12106  0.15802  1.0000
  C   C20       1.0  0.35384  0.14167  0.15783  1.0000
  C   C21       1.0  0.33351  0.14695  0.18195  1.0000
  C   C22       1.0  0.34792  0.13106  0.20621  1.0000
  C   C23       1.0  0.38229  0.11029  0.20638  1.0000
  H   H12       1.0  0.40381  0.11745  0.13920  1.0000
  H   H13       1.0  0.34326  0.15374  0.13902  1.0000
  H   H14       1.0  0.33258  0.13529  0.22503  1.0000
  H   H15       1.0  0.39319  0.09862  0.22519  1.0000
  H   H16       1.0  0.45569  0.12701  0.26210  1.0000
  C   C24       1.0  0.17297  0.42851  0.22942  1.0000
  C   C25       1.0  0.34770  0.01682  0.19003  1.0000
  H   H17       1.0  0.03526  0.36077  0.26133  1.0000
  C   C26       1.0  0.03948  0.07336  0.08201  1.0000
  C   C27       1.0  0.14971  0.49523  0.26346  1.0000
  C   C28       1.0  0.24012  0.10538  0.23496  1.0000
  H   H18       1.0  0.24438  0.37614  0.20142  1.0000
  C   C29       1.0  0.07372  0.13326  0.07838  1.0000
  C   C30       1.0  0.19224  0.11871  0.18483  1.0000
  H   H19       1.0  0.19599  0.13127  0.05197  1.0000
  C   C31       1.0  0.19345  0.39650  0.22056  1.0000
  H   H20       1.0  0.18730  0.08865  0.17801  1.0000
  H   H21       1.0  0.04201  0.28723  0.20314  1.0000
  C   C32       1.0  0.22943  0.40090  0.20950  1.0000
  C   C33       1.0  0.24554  0.43726  0.20793  1.0000
  H   H22       1.0  0.12492  0.12123  0.23398  1.0000
  C   C34       1.0  0.03873  0.33045  0.25449  1.0000
  H   H23       1.0  0.11467  0.06237  0.04020  1.0000
  C   C35       1.0  0.24363  0.05538  0.26887  1.0000
  C   C36       1.0  0.09547  0.07711  0.05377  1.0000
  H   H24       1.0  0.48735  0.20313  0.21765  1.0000
  H   H25       1.0  0.07559  0.16267  0.08524  1.0000
  N   N1        1.0  0.13503  0.13701  0.05104  1.0000
  N   N2        1.0  0.17862  0.12486  0.21305  1.0000
  C   C37       1.0  0.13721  0.11719  0.21331  1.0000
  C   C38       1.0  0.18414  0.16587  0.22028  1.0000
  C   C39       1.0  0.17000  0.11526  0.05775  1.0000
  C   C40       1.0  0.20042  0.10029  0.23199  1.0000
  H   H26       1.0  0.15754  0.15746  0.01295  1.0000
  H   H27       1.0  0.17187  0.10939  0.07992  1.0000
  C   C41       1.0  0.36093  0.01341  0.23783  1.0000
  H   H28       1.0  0.37818  0.02222  0.18540  1.0000
  H   H29       1.0  0.16507  0.19066  0.05567  1.0000
  H   H30       1.0  0.05371  0.22137  0.18839  1.0000
  H   H31       1.0  0.18060  0.36827  0.22097  1.0000
  H   H32       1.0  0.25998  0.03817  0.28296  1.0000
  C   C42       1.0  0.02998  0.26440  0.21516  1.0000
  H   H33       1.0  0.16620  0.18503  0.20748  1.0000
  C   C43       1.0  0.06526  0.05603  0.06441  1.0000
  H   H34       1.0  0.24624  0.15743  0.99341  1.0000
  C   C44       1.0  0.47464  0.18950  0.23588  1.0000
  C   C45       1.0  0.18830  0.46609  0.22785  1.0000
  C   C46       1.0  0.26129  0.08324  0.25312  1.0000
  S   S13       1.0  0.05683  0.04621  0.22234  1.0000
  H   H35       1.0  0.46393  0.21272  0.24946  1.0000
  C   C47       1.0  0.03687  0.22674  0.20653  1.0000
  C   C48       1.0  0.00796  0.27242  0.23871  1.0000
  H   H36       1.0  0.33459  0.04566  0.19259  1.0000
  H   H37       1.0  0.19109  0.02755  0.27854  1.0000
  H   H38       1.0  0.25506  0.12678  0.22330  1.0000
  C   C49       1.0  0.13269  0.14131  0.02107  1.0000
  H   H39       1.0  0.11507  0.19504  0.05734  1.0000
  H   H40       1.0  0.29148  0.08801  0.25511  1.0000
  C   C50       1.0  0.10132  0.11611  0.06108  1.0000
  C   C51       1.0  0.13905  0.17597  0.06303  1.0000
  H   H41       1.0  0.13223  0.11317  0.01039  1.0000
  H   H42       1.0  0.10665  0.15723  0.01511  1.0000
  H   H43       1.0  0.12158  0.13700  0.19960  1.0000
  H   H44       1.0  0.21382  0.17555  0.21697  1.0000
  C   C52       1.0  0.20480  0.04943  0.26636  1.0000
  H   H45       1.0  0.15350  0.06442  0.24698  1.0000
  C   C53       1.0  0.47995  0.14282  0.27133  1.0000
  H   H46       1.0  0.05349  0.31434  0.27089  1.0000
  H   H47       1.0  0.17677  0.17132  0.24197  1.0000
  H   H48       1.0  0.17749  0.13811  0.17035  1.0000
  H   H49       1.0  0.27343  0.44047  0.19899  1.0000
  H   H50       1.0  0.05804  0.33146  0.23667  1.0000
  C   C54       1.0  0.04336  0.11201  0.08861  1.0000
  H   H51       1.0  0.46811  0.16239  0.28712  1.0000
  H   H52       1.0  0.22294  0.12490  0.18255  1.0000
  H   H53       1.0  0.17194  0.08746  0.04680  1.0000
  H   H54       1.0  0.11374  0.47730  0.21718  1.0000
  H   H55       1.0  0.39131  0.01970  0.23366  1.0000
  H   H56       1.0  0.01690  0.05661  0.09103  1.0000
  H   H57       1.0  0.06218  0.02586  0.05950  1.0000
  H   H58       1.0  0.44974  0.17310  0.22807  1.0000
  S   S14       1.0  0.06598  0.01563  0.14795  1.0000
  N   N3        1.0  0.16491  0.49974  0.23548  1.0000
  H   H59       1.0  0.14429  0.42362  0.23628  1.0000
  H   H60       1.0  0.49478  0.11804  0.22172  1.0000
  H   H61       1.0  0.02704  0.16673  0.21439  1.0000
  H   H62       1.0  0.34637  0.04109  0.24196  1.0000
  C   C55       1.0  0.02207  0.19600  0.22109  1.0000
  H   H63       1.0  0.14292  0.50486  0.19479  1.0000
  H   H64       1.0  0.27569  0.02003  0.19016  1.0000
  H   H65       1.0  0.02356  0.12521  0.10268  1.0000
  H   H66       1.0  0.49779  0.12068  0.28152  1.0000
  H   H67       1.0  0.13007  0.47052  0.26527  1.0000
  H   H68       1.0  0.17302  0.49114  0.27846  1.0000
  N   N4        1.0  0.50178  0.16434  0.25053  1.0000
  H   H69       1.0  0.23949  0.49681  0.21476  1.0000
  H   H70       1.0  0.00236  0.33759  0.20729  1.0000
  Fe  Fe7       1.0  0.22321  0.22719  0.88525  1.0000
  S   S15       1.0  0.24846  0.25244  0.84701  1.0000
  S   S16       1.0  0.22832  0.26036  0.92550  1.0000
  Fe  Fe8       1.0  0.18376  0.16572  0.85306  1.0000
  S   S17       1.0  0.20446  0.18661  0.81282  1.0000
  S   S18       1.0  0.14738  0.11310  0.85482  1.0000
  Fe  Fe9       1.0  0.26096  0.19167  0.83361  1.0000
  S   S19       1.0  0.31400  0.17987  0.80756  1.0000
  Fe  Fe10      1.0  0.19060  0.24567  0.82839  1.0000
  S   S20       1.0  0.16950  0.29010  0.79743  1.0000
  S   S21       1.0  0.24080  0.16707  0.87355  1.0000
  S   S22       1.0  0.16452  0.22380  0.86707  1.0000
  H   H71       1.0  0.10354  0.23762  0.77495  1.0000
  H   H72       1.0  0.02063  0.36300  0.71328  1.0000
  C   C56       1.0  0.03175  0.20284  0.73592  1.0000
  Fe  Fe11      1.0  0.02231  0.45833  0.76135  1.0000
  S   S23       1.0  0.04112  0.42005  0.79677  1.0000
  S   S24       1.0  0.04333  0.44843  0.71900  1.0000
  H   H73       1.0  0.09379  0.44136  0.85533  1.0000
  C   C57       1.0  0.12167  0.43048  0.85013  1.0000
  C   C58       1.0  0.18800  0.12921  0.72491  1.0000
  C   C59       1.0  0.13328  0.32574  0.79780  1.0000
  C   C60       1.0  0.13116  0.35180  0.77602  1.0000
  C   C61       1.0  0.10285  0.38038  0.77512  1.0000
  C   C62       1.0  0.07638  0.38347  0.79619  1.0000
  C   C63       1.0  0.07816  0.35710  0.81779  1.0000
  C   C64       1.0  0.10621  0.32824  0.81853  1.0000
  H   H74       1.0  0.15174  0.35002  0.75975  1.0000
  H   H75       1.0  0.10201  0.40047  0.75841  1.0000
  H   H76       1.0  0.05771  0.35907  0.83413  1.0000
  H   H77       1.0  0.10665  0.30786  0.83505  1.0000
  C   C65       1.0  0.34190  0.13818  0.80052  1.0000
  C   C66       1.0  0.37177  0.14080  0.78159  1.0000
  C   C67       1.0  0.39395  0.10844  0.77463  1.0000
  C   C68       1.0  0.38664  0.07286  0.78660  1.0000
  C   C69       1.0  0.35660  0.07018  0.80539  1.0000
  C   C70       1.0  0.33445  0.10254  0.81236  1.0000
  H   H78       1.0  0.37792  0.16818  0.77228  1.0000
  H   H79       1.0  0.41691  0.11114  0.76020  1.0000
  H   H80       1.0  0.35080  0.04297  0.81501  1.0000
  H   H81       1.0  0.31185  0.09999  0.82710  1.0000
  C   C71       1.0  0.14622  0.05127  0.77306  1.0000
  C   C72       1.0  0.16210  0.03364  0.79592  1.0000
  C   C73       1.0  0.16274  0.05291  0.82100  1.0000
  C   C74       1.0  0.14839  0.09019  0.82310  1.0000
  C   C75       1.0  0.13320  0.10819  0.80011  1.0000
  C   C76       1.0  0.13155  0.08845  0.77518  1.0000
  C   C77       1.0  0.16607  0.19500  0.72722  1.0000
  H   H82       1.0  0.17437  0.03897  0.83881  1.0000
  H   H83       1.0  0.12197  0.13698  0.80173  1.0000
  H   H84       1.0  0.11901  0.10201  0.75756  1.0000
  C   C78       1.0  0.23042  0.24065  0.95894  1.0000
  H   H85       1.0  0.02770  0.08789  0.87446  1.0000
  C   C79       1.0  0.23670  0.20157  0.96346  1.0000
  C   C80       1.0  0.07821  0.23743  0.76234  1.0000
  H   H86       1.0  0.23987  0.18233  0.94628  1.0000
  H   H87       1.0  0.07832  0.17615  0.75692  1.0000
  H   H88       1.0  0.21903  0.09519  0.78310  1.0000
  H   H89       1.0  0.25005  0.18664  0.75969  1.0000
  C   C81       1.0  0.06411  0.20290  0.75221  1.0000
  H   H90       1.0  0.07196  0.29794  0.76461  1.0000
  H   H91       1.0  0.29143  0.13007  0.71809  1.0000
  C   C82       1.0  0.17316  0.42622  0.81811  1.0000
  H   H92       1.0  0.22200  0.29549  0.97845  1.0000
  H   H93       1.0  0.26785  0.08025  0.78359  1.0000
  H   H94       1.0  0.12341  0.46096  0.81222  1.0000
  H   H95       1.0  0.13519  0.14918  0.70805  1.0000
  C   C83       1.0  0.22606  0.17749  0.74756  1.0000
  H   H96       1.0  0.06729  0.09503  0.85200  1.0000
  S   S25       1.0  0.14438  0.02647  0.74204  1.0000
  H   H97       1.0  0.18537  0.43400  0.79866  1.0000
  H   H98       1.0  0.03839  0.10825  0.81407  1.0000
  C   C84       1.0  0.24486  0.07195  0.73329  1.0000
  H   H99       1.0  0.24395  0.07512  0.71076  1.0000
  H   H100      1.0  0.26810  0.05149  0.73811  1.0000
  H   H101      1.0  0.21832  0.05780  0.74010  1.0000
  H   H102      1.0  0.20213  0.23440  0.74883  1.0000
  N   N5        1.0  0.19323  0.35859  0.87768  1.0000
  C   C85       1.0  0.19538  0.37222  0.90634  1.0000
  C   C86       1.0  0.16986  0.32340  0.87674  1.0000
  C   C87       1.0  0.23228  0.34800  0.86926  1.0000
  C   C88       1.0  0.17552  0.38800  0.86006  1.0000
  C   C89       1.0  0.19161  0.39976  0.83488  1.0000
  C   C90       1.0  0.13981  0.40403  0.86705  1.0000
  C   C91       1.0  0.22180  0.13868  0.73925  1.0000
  N   N6        1.0  0.03561  0.04246  0.84514  1.0000
  C   C92       1.0  0.16079  0.15714  0.71891  1.0000
  H   H103      1.0  0.16706  0.37569  0.91581  1.0000
  H   H104      1.0  0.21071  0.35128  0.91955  1.0000
  H   H105      1.0  0.21053  0.40013  0.90772  1.0000
  H   H106      1.0  0.14018  0.32862  0.88324  1.0000
  H   H107      1.0  0.18141  0.30083  0.89034  1.0000
  H   H108      1.0  0.16899  0.31132  0.85576  1.0000
  H   H109      1.0  0.25134  0.37338  0.86918  1.0000
  H   H110      1.0  0.24505  0.32641  0.88330  1.0000
  H   H111      1.0  0.23266  0.33443  0.84870  1.0000
  H   H112      1.0  0.21794  0.38826  0.82727  1.0000
  H   H113      1.0  0.12498  0.39525  0.88520  1.0000
  C   C93       1.0  0.01324  0.23728  0.72975  1.0000
  C   C94       1.0  0.19856  0.20512  0.74163  1.0000
  H   H114      1.0  0.18148  0.10027  0.71854  1.0000
  H   H115      1.0  0.31110  0.10097  0.74494  1.0000
  N   N7        1.0  0.25042  0.10957  0.74702  1.0000
  C   C95       1.0  0.24822  0.10326  0.77678  1.0000
  S   S26       1.0  0.05311  0.02860  0.69433  1.0000
  C   C96       1.0  0.01209  0.09261  0.81230  1.0000
  H   H116      1.0  0.25592  0.12946  0.78846  1.0000
  C   C97       1.0  0.13832  0.44156  0.82573  1.0000
  C   C98       1.0  0.28918  0.12292  0.74008  1.0000
  C   C99       1.0  0.02670  0.27302  0.74000  1.0000
  H   H117      1.0  0.29782  0.14870  0.75188  1.0000
  H   H118      1.0  0.14478  0.21650  0.72281  1.0000
  H   H119      1.0  0.07134  0.06157  0.87844  1.0000
  H   H120      1.0  0.02171  0.33619  0.77303  1.0000
  H   H121      1.0  0.09085  0.01653  0.84109  1.0000
  H   H122      1.0  0.04461  0.32155  0.70016  1.0000
  S   S27       1.0  0.41332  0.03066  0.77872  1.0000
  C   C100      1.0  0.22673  0.26520  0.98163  1.0000
  Fe  Fe12      1.0  0.00586  0.04654  0.72221  1.0000
  C   C101      1.0  0.05988  0.27195  0.75634  1.0000
  C   C102      1.0  0.00594  0.05800  0.82686  1.0000
  S   S28       1.0  0.03846  0.03588  0.76054  1.0000
  C   C103      1.0  0.05084  0.07305  0.86325  1.0000
  C   C104      1.0  0.03440  0.33548  0.71922  1.0000
  H   H123      1.0  0.02090  0.17587  0.72793  1.0000
  H   H124      1.0  0.05961  0.34334  0.73160  1.0000
  Fe  Fe13      1.0  0.08353  0.01369  0.73294  1.0000
  H   H125      1.0  0.07873  0.04929  0.81456  1.0000
  N   N8        1.0  0.00790  0.31011  0.73413  1.0000
  C   C105      1.0  0.06698  0.02711  0.82834  1.0000
  C   C106      1.0  0.24028  0.18751  0.99027  1.0000
  C   C107      1.0  0.02180  0.01097  0.86285  1.0000
  H   H126      1.0  0.09719  0.57094  0.30100  1.0000
  H   H127      1.0  0.11513  0.52844  0.22046  1.0000
  Fe  Fe14      1.0  0.47169  0.97650  0.25237  1.0000
  S   S29       1.0  0.42323  0.95395  0.27919  1.0000
  H   H128      1.0  0.06941  0.68751  0.28994  1.0000
  C   C108      1.0  0.11217  0.74801  0.30365  1.0000
  S   S30       1.0  0.05223  0.95300  0.21249  1.0000
  H   H129      1.0  0.06052  0.73916  0.21581  1.0000
  Fe  Fe15      1.0  0.04045  0.54040  0.24021  1.0000
  S   S31       1.0  0.12172  0.98758  0.26792  1.0000
  S   S32       1.0  0.07851  0.59340  0.24475  1.0000
  C   C109      1.0  0.34330  0.85013  0.29085  1.0000
  C   C110      1.0  0.15780  0.64701  0.30930  1.0000
  C   C111      1.0  0.36359  0.91504  0.30226  1.0000
  C   C112      1.0  0.39252  0.91366  0.28255  1.0000
  C   C113      1.0  0.39624  0.88055  0.26661  1.0000
  H   H130      1.0  0.37543  0.82330  0.25870  1.0000
  H   H131      1.0  0.01448  0.77973  0.19321  1.0000
  C   C114      1.0  0.36381  0.95638  0.20998  1.0000
  H   H132      1.0  0.16753  0.56121  0.24143  1.0000
  H   H133      1.0  0.06371  0.94034  0.29172  1.0000
  H   H134      1.0  0.36038  0.94048  0.31471  1.0000
  C   C115      1.0  0.30292  0.98441  0.22149  1.0000
  C   C116      1.0  0.02680  0.82548  0.27448  1.0000
  H   H135      1.0  0.03680  0.69175  0.31828  1.0000
  C   C117      1.0  0.12951  0.64635  0.26406  1.0000
  S   S33       1.0  0.03950  0.51942  0.19660  1.0000
  H   H136      1.0  0.12684  0.65915  0.24411  1.0000
  C   C118      1.0  0.10887  0.61294  0.27015  1.0000
  C   C119      1.0  0.11297  0.59649  0.29590  1.0000
  C   C120      1.0  0.25646  0.95047  0.24985  1.0000
  C   C121      1.0  0.37189  0.84898  0.27086  1.0000
  S   S34       1.0  0.31461  0.80863  0.29597  1.0000
  H   H137      1.0  0.41829  0.87892  0.25138  1.0000
  H   H138      1.0  0.01112  0.71577  0.27898  1.0000
  C   C122      1.0  0.15952  0.93238  0.29667  1.0000
  H   H139      1.0  0.12100  0.77833  0.30640  1.0000
  Fe  Fe16      1.0  0.03950  0.00629  0.18894  1.0000
  H   H140      1.0  0.21107  0.00351  0.20220  1.0000
  H   H141      1.0  0.13214  0.73087  0.31634  1.0000
  C   C123      1.0  0.29398  0.95953  0.24342  1.0000
  C   C124      1.0  0.05084  0.80377  0.29102  1.0000
  H   H142      1.0  0.18517  0.94639  0.29007  1.0000
  H   H143      1.0  0.07276  0.81893  0.30201  1.0000
  H   H144      1.0  0.39328  0.96158  0.20289  1.0000
  C   C125      1.0  0.06557  0.69932  0.31084  1.0000
  H   H145      1.0  0.34934  0.93839  0.19435  1.0000
  C   C126      1.0  0.18578  0.53674  0.23477  1.0000
  C   C127      1.0  0.23445  0.99115  0.21355  1.0000
  C   C128      1.0  0.27188  0.00040  0.20688  1.0000
  H   H146      1.0  0.19760  0.95917  0.23994  1.0000
  C   C129      1.0  0.09320  0.89715  0.31480  1.0000
  Fe  Fe17      1.0  0.06532  0.99311  0.24690  1.0000
  C   C130      1.0  0.13750  0.61332  0.31526  1.0000
  H   H147      1.0  0.11703  0.74023  0.28195  1.0000
  C   C131      1.0  0.03537  0.72630  0.20695  1.0000
  S   S35       1.0  0.47559  0.97712  0.20645  1.0000
  H   H148      1.0  0.45880  0.84974  0.30413  1.0000
  C   C132      1.0  0.33901  0.88365  0.30631  1.0000
  C   C133      1.0  0.12848  0.88212  0.32230  1.0000
  H   H149      1.0  0.36036  0.99640  0.25694  1.0000
  C   C134      1.0  0.09103  0.92905  0.29760  1.0000
  H   H150      1.0  0.05071  0.66895  0.21910  1.0000
  H   H151      1.0  0.16985  0.68870  0.27837  1.0000
  C   C135      1.0  0.22675  0.96614  0.23488  1.0000
  N   N9        1.0  0.07219  0.74140  0.31160  1.0000
  C   C136      1.0  0.15377  0.66333  0.28349  1.0000
  C   C137      1.0  0.12417  0.94689  0.28871  1.0000
  H   H152      1.0  0.25037  0.93097  0.26647  1.0000
  S   S36       1.0  0.20797  0.77635  0.30984  1.0000
  H   H153      1.0  0.36669  0.93895  0.22877  1.0000
  C   C138      1.0  0.02988  0.68682  0.20893  1.0000
  H   H154      1.0  0.31599  0.94661  0.25570  1.0000
  H   H155      1.0  0.13304  0.52086  0.26994  1.0000
  C   C139      1.0  0.04659  0.76345  0.29354  1.0000
  S   S37       1.0  0.00604  0.99356  0.26374  1.0000
  H   H156      1.0  0.33534  0.00273  0.17171  1.0000
  H   H157      1.0  0.21072  0.53633  0.24866  1.0000
  N   N10       1.0  0.34297  0.99279  0.21475  1.0000
  C   C140      1.0  0.00862  0.74935  0.19371  1.0000
  C   C141      1.0  0.16170  0.89956  0.31308  1.0000
  H   H158      1.0  0.19528  0.54392  0.21380  1.0000
  H   H159      1.0  0.18899  0.88817  0.31898  1.0000
  C   C142      1.0  0.01662  0.74620  0.27845  1.0000
  H   H160      1.0  0.31695  0.88537  0.32151  1.0000
  H   H161      1.0  0.03066  0.85632  0.27296  1.0000
  H   H162      1.0  0.06744  0.88413  0.32225  1.0000
  H   H163      1.0  0.08597  0.68368  0.32416  1.0000
  H   H164      1.0  0.41759  0.80193  0.32386  1.0000
  C   C143      1.0  0.44527  0.85556  0.32352  1.0000
  Fe  Fe18      1.0  0.20291  0.82298  0.62292  1.0000
  S   S38       1.0  0.18776  0.88533  0.62434  1.0000
  Fe  Fe19      1.0  0.21985  0.75552  0.58643  1.0000
  S   S39       1.0  0.23607  0.71783  0.62211  1.0000
  S   S40       1.0  0.20914  0.73472  0.54293  1.0000
  Fe  Fe20      1.0  0.18454  0.74178  0.64325  1.0000
  H   H165      1.0  0.19474  0.81822  0.49241  1.0000
  Fe  Fe21      1.0  0.26717  0.77019  0.63814  1.0000
  C   C144      1.0  0.07495  0.87982  0.63872  1.0000
  S   S41       1.0  0.16623  0.77599  0.60680  1.0000
  S   S42       1.0  0.25552  0.80524  0.60063  1.0000
  H   H166      1.0  0.32800  0.83150  0.35222  1.0000
  S   S43       1.0  0.18576  0.76143  0.37463  1.0000
  C   C145      1.0  0.14538  0.90233  0.49497  1.0000
  C   C146      1.0  0.33745  0.82429  0.37318  1.0000
  S   S44       1.0  0.24225  0.83303  0.35828  1.0000
  H   H167      1.0  0.36283  0.90038  0.64682  1.0000
  Fe  Fe22      1.0  0.24452  0.78064  0.38521  1.0000
  S   S45       1.0  0.27167  0.78955  0.42717  1.0000
  H   H168      1.0  0.41729  0.78896  0.40227  1.0000
  S   S46       1.0  0.27098  0.74334  0.35276  1.0000
  H   H169      1.0  0.03740  0.74985  0.34710  1.0000
  H   H170      1.0  0.21436  0.87803  0.54345  1.0000
  H   H171      1.0  0.35487  0.74995  0.36881  1.0000
  H   H172      1.0  0.15226  0.91226  0.55200  1.0000
  H   H173      1.0  0.16410  0.64316  0.64645  1.0000
  C   C147      1.0  0.14174  0.89556  0.63545  1.0000
  H   H174      1.0  0.15805  0.94957  0.65332  1.0000
  H   H175      1.0  0.38598  0.82579  0.41464  1.0000
  C   C148      1.0  0.43198  0.89943  0.36030  1.0000
  H   H176      1.0  0.36268  0.77375  0.33737  1.0000
  C   C149      1.0  0.11178  0.87029  0.63029  1.0000
  H   H177      1.0  0.11681  0.84382  0.61939  1.0000
  C   C150      1.0  0.34371  0.84269  0.65455  1.0000
  Fe  Fe23      1.0  0.26562  0.79493  0.32524  1.0000
  Fe  Fe24      1.0  0.18559  0.81040  0.34525  1.0000
  C   C151      1.0  0.25419  0.77352  0.45915  1.0000
  C   C152      1.0  0.27241  0.78561  0.48321  1.0000
  C   C153      1.0  0.25930  0.77389  0.50903  1.0000
  C   C154      1.0  0.22783  0.74969  0.51105  1.0000
  C   C155      1.0  0.20978  0.73742  0.48698  1.0000
  C   C156      1.0  0.22268  0.74942  0.46119  1.0000
  H   H178      1.0  0.29685  0.80420  0.48189  1.0000
  H   H179      1.0  0.27368  0.78336  0.52731  1.0000
  H   H180      1.0  0.18550  0.71860  0.48827  1.0000
  H   H181      1.0  0.20842  0.73975  0.44291  1.0000
  H   H182      1.0  0.10812  0.88750  0.54455  1.0000
  H   H183      1.0  0.21322  0.82742  0.53651  1.0000
  C   C157      1.0  0.18444  0.85465  0.45873  1.0000
  H   H184      1.0  0.33531  0.85071  0.38577  1.0000
  H   H185      1.0  0.31663  0.80375  0.38171  1.0000
  C   C158      1.0  0.16772  0.88824  0.44932  1.0000
  H   H186      1.0  0.19595  0.84512  0.56808  1.0000
  H   H187      1.0  0.13657  0.87409  0.57300  1.0000
  C   C159      1.0  0.14831  0.91207  0.46740  1.0000
  S   S47       1.0  0.18808  0.66705  0.33459  1.0000
  C   C160      1.0  0.40235  0.83564  0.36020  1.0000
  N   N11       1.0  0.37610  0.80785  0.37291  1.0000
  H   H188      1.0  0.15487  0.79518  0.52538  1.0000
  C   C161      1.0  0.18158  0.84466  0.48617  1.0000
  H   H189      1.0  0.12994  0.92205  0.50780  1.0000
  H   H190      1.0  0.36883  0.77834  0.41115  1.0000
  H   H191      1.0  0.11055  0.82036  0.52542  1.0000
  H   H192      1.0  0.16978  0.89571  0.42795  1.0000
  H   H193      1.0  0.40247  0.75646  0.35724  1.0000
  H   H194      1.0  0.13443  0.80941  0.55683  1.0000
  N   N12       1.0  0.15885  0.85608  0.53401  1.0000
  C   C162      1.0  0.19723  0.85149  0.54591  1.0000
  C   C163      1.0  0.13793  0.88383  0.55144  1.0000
  C   C164      1.0  0.13878  0.81876  0.53544  1.0000
  C   C165      1.0  0.16195  0.86805  0.50518  1.0000
  C   C166      1.0  0.37419  0.77043  0.35838  1.0000
  H   H195      1.0  0.14323  0.57599  0.65393  1.0000
  Fe  Fe25      1.0  0.21130  0.72806  0.33987  1.0000
  H   H196      1.0  0.19965  0.83611  0.44466  1.0000
  C   C167      1.0  0.42141  0.82820  0.33522  1.0000
  H   H197      1.0  0.27275  0.65210  0.65141  1.0000
  H   H198      1.0  0.13537  0.93821  0.45994  1.0000
  C   C168      1.0  0.06840  0.91379  0.65329  1.0000
  H   H199      1.0  0.08635  0.73885  0.35435  1.0000
  H   H200      1.0  0.39402  0.88028  0.39092  1.0000
  H   H201      1.0  0.05165  0.86060  0.63439  1.0000
  C   C169      1.0  0.38773  0.79997  0.40140  1.0000
  H   H202      1.0  0.07341  0.78534  0.34281  1.0000
  C   C170      1.0  0.40832  0.87219  0.37233  1.0000
  C   C171      1.0  0.06704  0.75435  0.34016  1.0000
  H   H203      1.0  0.32124  0.84394  0.63960  1.0000
  S   S48       1.0  0.13006  0.84168  0.34336  1.0000
  C   C172      1.0  0.45042  0.89111  0.33595  1.0000
  H   H204      1.0  0.14056  0.60035  0.33514  1.0000
  H   H205      1.0  0.46789  0.91268  0.32623  1.0000
  C   C173      1.0  0.13497  0.92990  0.64940  1.0000
  H   H206      1.0  0.43552  0.92744  0.36959  1.0000
  H   H207      1.0  0.33397  0.88834  0.74990  1.0000
  Fe  Fe26      1.0  0.46870  0.94234  0.71160  1.0000
  S   S49       1.0  0.46568  0.94370  0.75734  1.0000
  S   S50       1.0  0.42500  0.91591  0.68237  1.0000
  H   H208      1.0  0.22243  0.69978  0.70956  1.0000
  C   C174      1.0  0.37919  0.80800  0.68856  1.0000
  S   S51       1.0  0.09152  0.54090  0.69141  1.0000
  H   H209      1.0  0.30690  0.64015  0.72265  1.0000
  S   S52       1.0  0.06260  0.95338  0.73480  1.0000
  C   C175      1.0  0.07215  0.80555  0.75708  1.0000
  H   H210      1.0  0.33027  0.94098  0.78364  1.0000
  H   H211      1.0  0.09149  0.78276  0.76231  1.0000
  C   C176      1.0  0.39712  0.87378  0.67782  1.0000
  C   C177      1.0  0.40261  0.84033  0.69302  1.0000
  H   H212      1.0  0.10843  0.79802  0.67009  1.0000
  Fe  Fe27      1.0  0.02797  0.96957  0.69843  1.0000
  H   H213      1.0  0.42523  0.83915  0.70786  1.0000
  C   C178      1.0  0.27054  0.96652  0.75013  1.0000
  H   H214      1.0  0.10632  0.87622  0.69562  1.0000
  H   H215      1.0  0.04323  0.79920  0.79551  1.0000
  C   C179      1.0  0.18977  0.59055  0.72317  1.0000
  C   C180      1.0  0.24990  0.94746  0.69678  1.0000
  H   H216      1.0  0.04387  0.00152  0.87759  1.0000
  C   C181      1.0  0.35101  0.90782  0.73689  1.0000
  H   H217      1.0  0.17304  0.00474  0.79446  1.0000
  C   C182      1.0  0.28760  0.94357  0.70514  1.0000
  C   C183      1.0  0.10338  0.58996  0.68569  1.0000
  H   H218      1.0  0.26396  0.58884  0.66522  1.0000
  C   C184      1.0  0.12744  0.66687  0.67718  1.0000
  C   C185      1.0  0.09979  0.65807  0.69684  1.0000
  C   C186      1.0  0.08773  0.61991  0.70104  1.0000
  H   H219      1.0  0.08757  0.68086  0.70895  1.0000
  H   H220      1.0  0.06668  0.61357  0.71636  1.0000
  H   H221      1.0  0.38417  0.78206  0.70002  1.0000
  C   C187      1.0  0.34670  0.95901  0.76926  1.0000
  H   H222      1.0  0.16781  0.59070  0.73860  1.0000
  H   H223      1.0  0.14790  0.79966  0.73958  1.0000
  C   C188      1.0  0.04697  0.85466  0.72741  1.0000
  H   H224      1.0  0.13740  0.86766  0.72369  1.0000
  C   C189      1.0  0.24058  0.62387  0.69857  1.0000
  H   H225      1.0  0.30774  0.93305  0.69026  1.0000
  H   H226      1.0  0.04645  0.87081  0.70866  1.0000
  H   H227      1.0  0.30643  0.69101  0.71636  1.0000
  S   S53       1.0  0.46541  0.00660  0.70755  1.0000
  H   H228      1.0  0.09374  0.96489  0.66996  1.0000
  C   C190      1.0  0.07475  0.82599  0.73211  1.0000
  C   C191      1.0  0.04431  0.81455  0.77638  1.0000
  C   C192      1.0  0.29912  0.95289  0.73212  1.0000
  S   S54       1.0  0.32111  0.76740  0.66375  1.0000
  H   H229      1.0  0.19342  0.96422  0.70839  1.0000
  C   C193      1.0  0.01958  0.86368  0.74695  1.0000
  N   N13       1.0  0.33923  0.94837  0.74042  1.0000
  H   H230      1.0  0.15586  0.78590  0.70494  1.0000
  H   H231      1.0  0.34772  0.89777  0.71559  1.0000
  H   H232      1.0  0.27107  0.66999  0.73766  1.0000
  H   H233      1.0  0.21146  0.98067  0.75550  1.0000
  H   H234      1.0  0.12082  0.76118  0.72377  1.0000
  H   H235      1.0  0.36259  0.96459  0.70129  1.0000
  H   H236      1.0  0.31060  0.63341  0.67250  1.0000
  H   H237      1.0  0.21790  0.68708  0.67453  1.0000
  C   C194      1.0  0.08693  0.80323  0.68632  1.0000
  C   C195      1.0  0.13090  0.59887  0.66594  1.0000
  C   C196      1.0  0.19360  0.55870  0.70624  1.0000
  C   C197      1.0  0.28807  0.66522  0.71892  1.0000
  H   H238      1.0  0.14834  0.84959  0.69014  1.0000
  C   C198      1.0  0.23293  0.97031  0.74151  1.0000
  H   H239      1.0  0.38153  0.90362  0.74200  1.0000
  H   H240      1.0  0.05723  0.00288  0.81525  1.0000
  C   C199      1.0  0.13343  0.79010  0.72061  1.0000
  C   C200      1.0  0.12500  0.85442  0.70506  1.0000
  C   C201      1.0  0.22264  0.96096  0.71492  1.0000
  N   N14       1.0  0.10458  0.81836  0.71157  1.0000
  S   S55       1.0  0.02514  0.52333  0.75828  1.0000
  H   H241      1.0  0.25520  0.71879  0.68568  1.0000
  H   H242      1.0  0.39388  0.97084  0.72920  1.0000
  Fe  Fe28      1.0  0.04226  0.51299  0.71459  1.0000
  C   C202      1.0  0.23886  0.69252  0.69101  1.0000
  H   H243      1.0  0.20863  0.64667  0.73310  1.0000
  H   H244      1.0  0.07252  0.77536  0.69007  1.0000
  H   H245      1.0  0.24176  0.93986  0.67610  1.0000
  H   H246      1.0  0.01444  0.98483  0.85082  1.0000
  Fe  Fe29      1.0  0.01408  0.97665  0.75902  1.0000
  H   H247      1.0  0.30551  0.68376  0.66762  1.0000
  C   C203      1.0  0.28921  0.65665  0.67050  1.0000
  C   C204      1.0  0.34965  0.80893  0.66925  1.0000
  N   N15       1.0  0.26390  0.65874  0.69464  1.0000
  C   C205      1.0  0.21302  0.62258  0.71961  1.0000
  H   H248      1.0  0.27647  0.97444  0.77098  1.0000
  H   H249      1.0  0.37717  0.95511  0.77468  1.0000
  S   S56       1.0  0.21668  0.79158  0.66115  1.0000
  C   C206      1.0  0.36357  0.97294  0.72315  1.0000
  C   C207      1.0  0.01833  0.84381  0.77142  1.0000
  S   S57       1.0  0.14208  0.71549  0.67327  1.0000
  C   C208      1.0  0.14290  0.63700  0.66169  1.0000
  H   H250      1.0  0.06564  0.82331  0.67776  1.0000
  H   H251      1.0  0.34042  0.98983  0.77321  1.0000
  S   S58       1.0  0.02328  0.92367  0.66639  1.0000
  C   C209      1.0  0.22071  0.55871  0.68568  1.0000
  C   C210      1.0  0.09850  0.93869  0.65870  1.0000
  C   C211      1.0  0.24400  0.59068  0.68179  1.0000
  H   H252      1.0  0.35545  0.00368  0.72489  1.0000
  H   H253      1.0  0.17465  0.53443  0.70853  1.0000
  H   H254      1.0  0.22299  0.53405  0.67226  1.0000
  Fe  Fe30      1.0  0.46376  0.00817  0.75333  1.0000
  C   C212      1.0  0.36746  0.87469  0.65867  1.0000
  H   H255      1.0  0.79482  0.04468  0.27900  1.0000
  S   S59       1.0  0.79921  0.20566  0.30180  1.0000
  C   C213      1.0  0.88070  0.11376  0.31253  1.0000
  S   S60       1.0  0.56623  0.07064  0.29197  1.0000
  S   S61       1.0  0.54175  0.04258  0.21326  1.0000
  S   S62       1.0  0.69480  0.19961  0.29438  1.0000
  H   H256      1.0  0.95666  0.32155  0.21891  1.0000
  H   H257      1.0  0.69320  0.02336  0.20447  1.0000
  Fe  Fe31      1.0  0.97825  0.48203  0.25622  1.0000
  S   S63       1.0  0.97341  0.45940  0.21374  1.0000
  S   S64       1.0  0.94181  0.45754  0.29045  1.0000
  C   C214      1.0  0.91607  0.41357  0.28975  1.0000
  Fe  Fe32      1.0  0.53501  0.03757  0.25841  1.0000
  C   C215      1.0  0.87463  0.34359  0.29028  1.0000
  C   C216      1.0  0.88890  0.35877  0.26580  1.0000
  C   C217      1.0  0.90955  0.39340  0.26550  1.0000
  H   H258      1.0  0.65460  0.16368  0.25027  1.0000
  H   H259      1.0  0.88411  0.34339  0.24693  1.0000
  H   H260      1.0  0.92036  0.40441  0.24651  1.0000
  H   H261      1.0  0.92166  0.16341  0.26090  1.0000
  C   C218      1.0  0.57499  0.20606  0.30003  1.0000
  C   C219      1.0  0.65015  0.14258  0.31761  1.0000
  C   C220      1.0  0.93373  0.10429  0.27025  1.0000
  C   C221      1.0  0.91548  0.13960  0.27421  1.0000
  C   C222      1.0  0.75573  0.10420  0.30063  1.0000
  H   H262      1.0  0.76307  0.12292  0.23310  1.0000
  C   C223      1.0  0.62116  0.11477  0.31652  1.0000
  C   C224      1.0  0.66474  0.02312  0.24299  1.0000
  H   H263      1.0  0.54892  0.21437  0.22375  1.0000
  C   C225      1.0  0.66206  0.16080  0.29380  1.0000
  C   C226      1.0  0.64572  0.14969  0.26882  1.0000
  C   C227      1.0  0.61735  0.12122  0.26765  1.0000
  C   C228      1.0  0.60429  0.10417  0.29162  1.0000
  H   H264      1.0  0.98906  0.17867  0.25548  1.0000
  H   H265      1.0  0.81903  0.08957  0.27554  1.0000
  H   H266      1.0  0.60522  0.11308  0.24828  1.0000
  C   C229      1.0  0.58534  0.23308  0.25558  1.0000
  H   H267      1.0  0.81087  0.47020  0.24095  1.0000
  N   N16       1.0  0.75814  0.09281  0.27150  1.0000
  C   C230      1.0  0.89864  0.07829  0.30850  1.0000
  C   C231      1.0  0.69565  0.05790  0.27960  1.0000
  C   C232      1.0  0.82764  0.48732  0.25587  1.0000
  C   C233      1.0  0.72628  0.06825  0.26232  1.0000
  Fe  Fe33      1.0  0.74392  0.21326  0.32353  1.0000
  H   H268      1.0  0.86759  0.47278  0.21107  1.0000
  H   H269      1.0  0.80733  0.50188  0.26973  1.0000
  C   C234      1.0  0.54455  0.18463  0.28992  1.0000
  C   C235      1.0  0.92515  0.07353  0.28738  1.0000
  Fe  Fe34      1.0  0.99620  0.04342  0.23571  1.0000
  H   H270      1.0  0.80096  0.06615  0.24603  1.0000
  H   H271      1.0  0.73001  0.12166  0.30484  1.0000
  H   H272      1.0  0.94842  0.30386  0.26825  1.0000
  C   C236      1.0  0.69435  0.03258  0.22556  1.0000
  S   S65       1.0  0.96731  0.10010  0.24393  1.0000
  H   H273      1.0  0.89220  0.05451  0.32179  1.0000
  H   H274      1.0  0.93913  0.04622  0.28447  1.0000
  H   H275      1.0  0.87584  0.17195  0.29844  1.0000
  H   H276      1.0  0.97284  0.34655  0.27822  1.0000
  C   C237      1.0  0.88921  0.14440  0.29535  1.0000
  H   H277      1.0  0.78014  0.12239  0.30683  1.0000
  S   S66       1.0  0.85055  0.29869  0.28925  1.0000
  H   H278      1.0  0.75608  0.07888  0.31434  1.0000
  C   C238      1.0  0.51744  0.13607  0.23100  1.0000
  C   C239      1.0  0.72480  0.05462  0.23503  1.0000
  H   H279      1.0  0.53119  0.16538  0.30413  1.0000
  H   H280      1.0  0.84406  0.46672  0.26865  1.0000
  H   H281      1.0  0.53786  0.11663  0.24136  1.0000
  C   C240      1.0  0.59531  0.23021  0.28292  1.0000
  H   H282      1.0  0.60193  0.25118  0.24224  1.0000
  H   H283      1.0  0.74686  0.06165  0.22066  1.0000
  C   C241      1.0  0.66555  0.03551  0.26997  1.0000
  H   H284      1.0  0.58387  0.20285  0.32105  1.0000
  C   C242      1.0  0.79466  0.07232  0.26775  1.0000
  H   H285      1.0  0.53268  0.14987  0.21386  1.0000
  H   H286      1.0  0.61971  0.24570  0.29071  1.0000
  H   H287      1.0  0.89811  0.47314  0.23999  1.0000
  H   H288      1.0  0.78221  0.14787  0.26157  1.0000
  C   C243      1.0  0.75881  0.12848  0.25514  1.0000
  C   C244      1.0  0.90125  0.39879  0.31415  1.0000
  C   C245      1.0  0.99321  0.24033  0.25304  1.0000
  H   H289      1.0  0.98969  0.30151  0.29009  1.0000
  C   C246      1.0  0.88082  0.36395  0.31448  1.0000
  H   H290      1.0  0.73183  0.14477  0.25742  1.0000
  C   C247      1.0  0.55486  0.21192  0.24525  1.0000
  C   C248      1.0  0.53325  0.18726  0.26216  1.0000
  H   H291      1.0  0.69370  0.06742  0.30050  1.0000
  H   H292      1.0  0.97577  0.24325  0.27097  1.0000
  C   C249      1.0  0.97713  0.31605  0.27210  1.0000
  H   H293      1.0  0.64205  0.02867  0.28335  1.0000
  C   C250      1.0  0.88127  0.49199  0.22632  1.0000
  Fe  Fe35      1.0  0.81861  0.26143  0.32036  1.0000
  H   H294      1.0  0.97765  0.36495  0.23195  1.0000
  C   C251      1.0  0.98381  0.33494  0.22548  1.0000
  N   N17       1.0  0.00179  0.31258  0.24769  1.0000
  C   C252      1.0  0.00046  0.20281  0.24429  1.0000
  Fe  Fe36      1.0  0.76786  0.20370  0.58102  1.0000
  S   S67       1.0  0.74104  0.23619  0.61611  1.0000
  S   S68       1.0  0.74203  0.19790  0.53810  1.0000
  Fe  Fe37      1.0  0.82286  0.16387  0.61925  1.0000
  S   S69       1.0  0.86387  0.11465  0.62018  1.0000
  Fe  Fe38      1.0  0.74274  0.18068  0.63952  1.0000
  H   H295      1.0  0.86235  0.12586  0.46293  1.0000
  Fe  Fe39      1.0  0.80106  0.24630  0.63103  1.0000
  N   N18       1.0  0.86912  0.16931  0.43208  1.0000
  S   S70       1.0  0.76535  0.14768  0.60395  1.0000
  S   S71       1.0  0.82765  0.21763  0.59420  1.0000
  C   C253      1.0  0.93127  0.16425  0.36886  1.0000
  S   S72       1.0  0.76288  0.18151  0.36105  1.0000
  C   C254      1.0  0.63091  0.18445  0.55483  1.0000
  C   C255      1.0  0.60297  0.16625  0.59942  1.0000
  S   S73       1.0  0.84299  0.23162  0.35702  1.0000
  H   H296      1.0  0.88150  0.10844  0.43176  1.0000
  Fe  Fe40      1.0  0.81899  0.17723  0.33977  1.0000
  Fe  Fe41      1.0  0.78505  0.23852  0.37608  1.0000
  S   S74       1.0  0.78711  0.26148  0.42003  1.0000
  S   S75       1.0  0.76158  0.27154  0.33989  1.0000
  C   C256      1.0  0.65823  0.09764  0.65189  1.0000
  H   H297      1.0  0.67505  0.09928  0.63357  1.0000
  H   H298      1.0  0.82161  0.18877  0.40864  1.0000
  C   C257      1.0  0.94741  0.20062  0.36833  1.0000
  H   H299      1.0  0.80978  0.15460  0.43436  1.0000
  H   H300      1.0  0.84272  0.19006  0.46912  1.0000
  H   H301      1.0  0.60407  0.19812  0.54799  1.0000
  H   H302      1.0  0.86998  0.35278  0.33347  1.0000
  H   H303      1.0  0.85294  0.22624  0.44490  1.0000
  C   C258      1.0  0.75730  0.21430  0.50548  1.0000
  C   C259      1.0  0.74334  0.19604  0.48186  1.0000
  C   C260      1.0  0.75265  0.20948  0.45558  1.0000
  C   C261      1.0  0.77537  0.24205  0.45255  1.0000
  C   C262      1.0  0.78948  0.26017  0.47616  1.0000
  C   C263      1.0  0.78094  0.24618  0.50242  1.0000
  H   H304      1.0  0.72485  0.17151  0.48391  1.0000
  H   H305      1.0  0.74135  0.19531  0.43771  1.0000
  H   H306      1.0  0.80697  0.28547  0.47414  1.0000
  H   H307      1.0  0.79163  0.26085  0.52028  1.0000
  C   C264      1.0  0.57545  0.14340  0.58576  1.0000
  H   H308      1.0  0.90807  0.23938  0.42461  1.0000
  C   C265      1.0  0.85496  0.41724  0.63006  1.0000
  H   H309      1.0  0.66940  0.13487  0.58673  1.0000
  C   C266      1.0  0.54652  0.12548  0.62860  1.0000
  H   H310      1.0  0.80624  0.38386  0.61873  1.0000
  H   H311      1.0  0.83263  0.13923  0.40360  1.0000
  C   C267      1.0  0.83175  0.16250  0.41914  1.0000
  H   H312      1.0  0.94621  0.34386  0.63641  1.0000
  H   H313      1.0  0.93718  0.14398  0.35258  1.0000
  C   C268      1.0  0.60064  0.16796  0.62827  1.0000
  C   C269      1.0  0.86393  0.19896  0.45357  1.0000
  H   H314      1.0  0.89086  0.20504  0.46454  1.0000
  H   H315      1.0  0.52575  0.10901  0.63988  1.0000
  C   C270      1.0  0.91401  0.21722  0.40983  1.0000
  C   C271      1.0  0.88151  0.13354  0.44576  1.0000
  C   C272      1.0  0.90645  0.15414  0.38978  1.0000
  H   H316      1.0  0.60983  0.24140  0.59026  1.0000
  H   H317      1.0  0.87403  0.40094  0.61714  1.0000
  C   C273      1.0  0.54775  0.12334  0.60029  1.0000
  H   H318      1.0  0.52745  0.10544  0.58961  1.0000
  H   H319      1.0  0.65466  0.20007  0.54475  1.0000
  C   C274      1.0  0.57265  0.14809  0.64252  1.0000
  H   H320      1.0  0.66218  0.15100  0.33699  1.0000
  C   C275      1.0  0.88988  0.32284  0.64484  1.0000
  C   C276      1.0  0.67031  0.16586  0.59220  1.0000
  N   N19       1.0  0.63451  0.18540  0.58499  1.0000
  H   H321      1.0  0.63245  0.15465  0.54670  1.0000
  H   H322      1.0  0.67659  0.16792  0.61433  1.0000
  C   C277      1.0  0.81676  0.40758  0.63093  1.0000
  H   H323      1.0  0.89385  0.12594  0.38872  1.0000
  C   C278      1.0  0.63727  0.22629  0.59335  1.0000
  H   H324      1.0  0.57508  0.13996  0.56393  1.0000
  H   H325      1.0  0.91065  0.13670  0.45417  1.0000
  H   H326      1.0  0.69477  0.17870  0.58136  1.0000
  H   H327      1.0  0.64561  0.22983  0.61505  1.0000
  H   H328      1.0  0.90585  0.41421  0.33303  1.0000
  S   S76       1.0  0.84754  0.11933  0.33897  1.0000
  H   H329      1.0  0.65941  0.24180  0.58152  1.0000
  C   C279      1.0  0.89611  0.11309  0.64736  1.0000
  C   C280      1.0  0.93891  0.22700  0.38881  1.0000
  H   H330      1.0  0.88925  0.30379  0.62741  1.0000
  C   C281      1.0  0.89686  0.18032  0.41088  1.0000
  H   H331      1.0  0.62137  0.18346  0.64023  1.0000
  H   H332      1.0  0.95105  0.25552  0.38811  1.0000
  H   H333      1.0  0.91645  0.05691  0.63629  1.0000
  C   C282      1.0  0.91852  0.08030  0.65076  1.0000
  C   C283      1.0  0.92214  0.34576  0.64997  1.0000
  H   H334      1.0  0.61137  0.10174  0.33519  1.0000
  H   H335      1.0  0.96608  0.20852  0.35179  1.0000
  C   C284      1.0  0.86919  0.44621  0.64692  1.0000
  H   H336      1.0  0.89948  0.45075  0.64663  1.0000
  S   S77       1.0  0.80059  0.19291  0.65658  1.0000
  S   S78       1.0  0.81435  0.30242  0.65377  1.0000
  C   C285      1.0  0.79244  0.42741  0.64829  1.0000
  H   H337      1.0  0.76286  0.41919  0.64919  1.0000
  H   H338      1.0  0.62401  0.05052  0.63723  1.0000
  C   C286      1.0  0.62933  0.06983  0.65410  1.0000
  H   H339      1.0  0.69270  0.00866  0.64973  1.0000
  H   H340      1.0  0.88207  0.16892  0.66332  1.0000
  C   C287      1.0  0.95193  0.08645  0.78902  1.0000
  C   C288      1.0  0.86703  0.01332  0.74405  1.0000
  S   S79       1.0  0.56928  0.03296  0.67839  1.0000
  Fe  Fe42      1.0  0.98180  0.44841  0.70684  1.0000
  S   S80       1.0  0.96045  0.45585  0.74952  1.0000
  S   S81       1.0  0.96379  0.40155  0.67640  1.0000
  C   C289      1.0  0.78892  0.08932  0.67769  1.0000
  H   H341      1.0  0.93190  0.09682  0.77398  1.0000
  S   S82       1.0  0.97551  0.10332  0.72030  1.0000
  C   C290      1.0  0.92311  0.37174  0.67198  1.0000
  C   C291      1.0  0.80212  0.03430  0.73808  1.0000
  H   H342      1.0  0.78595  0.47038  0.67835  1.0000
  C   C292      1.0  0.85930  0.35126  0.68395  1.0000
  C   C293      1.0  0.89192  0.37337  0.68948  1.0000
  H   H343      1.0  0.81701  0.09834  0.66968  1.0000
  H   H344      1.0  0.99653  0.02008  0.87476  1.0000
  H   H345      1.0  0.89262  0.39196  0.70706  1.0000
  C   C294      1.0  0.81366  0.06416  0.72019  1.0000
  H   H346      1.0  0.77590  0.15272  0.70859  1.0000
  C   C295      1.0  0.92397  0.14055  0.68821  1.0000
  C   C296      1.0  0.94610  0.10752  0.69168  1.0000
  H   H347      1.0  0.98248  0.35724  0.75629  1.0000
  H   H348      1.0  0.73652  0.05646  0.70887  1.0000
  H   H349      1.0  0.92603  0.16386  0.70271  1.0000
  H   H350      1.0  0.72742  0.10648  0.70652  1.0000
  C   C297      1.0  0.64234  0.12072  0.69685  1.0000
  C   C298      1.0  0.61397  0.09238  0.69929  1.0000
  C   C299      1.0  0.60675  0.06722  0.67766  1.0000
  H   H351      1.0  0.98852  0.23503  0.71687  1.0000
  C   C300      1.0  0.94349  0.07750  0.67287  1.0000
  H   H352      1.0  0.64676  0.14081  0.71340  1.0000
  H   H353      1.0  0.59685  0.09089  0.71751  1.0000
  H   H354      1.0  0.86695  0.45389  0.71588  1.0000
  H   H355      1.0  0.82488  0.14046  0.70836  1.0000
  C   C301      1.0  0.84526  0.46705  0.66491  1.0000
  H   H356      1.0  0.78386  0.05961  0.67037  1.0000
  H   H357      1.0  0.77287  0.02969  0.74349  1.0000
  H   H358      1.0  0.95151  0.28786  0.72738  1.0000
  H   H359      1.0  0.79769  0.13404  0.73891  1.0000
  H   H360      1.0  0.96058  0.05200  0.67539  1.0000
  S   S83       1.0  0.52768  0.01355  0.75631  1.0000
  H   H361      1.0  0.76767  0.10835  0.66774  1.0000
  H   H362      1.0  0.97934  0.29460  0.69669  1.0000
  H   H363      1.0  0.64667  0.01973  0.74387  1.0000
  C   C302      1.0  0.98531  0.10660  0.79382  1.0000
  H   H364      1.0  0.74278  0.08780  0.73821  1.0000
  C   C303      1.0  0.66430  0.12392  0.67303  1.0000
  C   C304      1.0  0.85297  0.06702  0.71470  1.0000
  C   C305      1.0  0.87917  0.04210  0.72658  1.0000
  H   H365      1.0  0.97756  0.31095  0.77214  1.0000
  C   C306      1.0  0.89895  0.14335  0.66603  1.0000
  H   H366      1.0  0.86380  0.08871  0.70116  1.0000
  N   N20       1.0  0.78677  0.09174  0.70784  1.0000
  H   H367      1.0  0.95926  0.33458  0.71402  1.0000
  C   C307      1.0  0.79681  0.13135  0.71634  1.0000
  H   H368      1.0  0.83478  0.35395  0.69700  1.0000
  H   H369      1.0  0.91955  0.03614  0.79842  1.0000
  C   C308      1.0  0.74674  0.08502  0.71582  1.0000
  H   H370      1.0  0.90844  0.45927  0.69511  1.0000
  C   C309      1.0  0.80625  0.45680  0.66505  1.0000
  C   C310      1.0  0.94510  0.05228  0.80272  1.0000
  H   H371      1.0  0.90913  0.04522  0.72217  1.0000
  C   C311      1.0  0.88441  0.47505  0.70456  1.0000
  H   H372      1.0  0.81532  0.50047  0.71277  1.0000
  H   H373      1.0  0.99111  0.13236  0.78223  1.0000
  N   N21       1.0  0.86149  0.49560  0.68404  1.0000
  C   C312      1.0  0.97158  0.03809  0.82133  1.0000
  H   H374      1.0  0.89674  0.49506  0.71980  1.0000
  C   C313      1.0  0.97305  0.30627  0.71734  1.0000
  C   C314      1.0  0.99694  0.32929  0.75999  1.0000
  S   S84       1.0  0.69802  0.16189  0.67072  1.0000
  C   C315      1.0  0.85787  0.32606  0.66148  1.0000
  C   C316      1.0  0.82859  0.00929  0.74971  1.0000
  H   H375      1.0  0.57206  0.14908  0.66460  1.0000
  H   H376      1.0  0.96494  0.01081  0.83048  1.0000
  Fe  Fe43      1.0  0.53938  0.97796  0.21238  1.0000
  S   S85       1.0  0.53542  0.97289  0.25825  1.0000
  S   S86       1.0  0.58402  0.95587  0.18201  1.0000
  Fe  Fe44      1.0  0.82189  0.81819  0.12230  1.0000
  S   S87       1.0  0.79859  0.79252  0.16022  1.0000
  S   S88       1.0  0.86336  0.86709  0.12308  1.0000
  Fe  Fe45      1.0  0.77650  0.76629  0.08525  1.0000
  S   S89       1.0  0.75013  0.73590  0.12137  1.0000
  S   S90       1.0  0.75550  0.74858  0.04273  1.0000
  Fe  Fe46      1.0  0.74236  0.79498  0.13930  1.0000
  S   S91       1.0  0.69069  0.80926  0.16547  1.0000
  Fe  Fe47      1.0  0.80874  0.73572  0.13968  1.0000
  S   S92       1.0  0.83427  0.69496  0.17119  1.0000
  S   S93       1.0  0.76490  0.82516  0.10242  1.0000
  S   S94       1.0  0.83577  0.76169  0.10249  1.0000
  H   H377      1.0  0.68292  0.79321  0.10561  1.0000
  S   S95       1.0  0.95529  0.90493  0.23055  1.0000
  C   C317      1.0  0.82546  0.92047  0.22622  1.0000
  H   H378      1.0  0.73782  0.85726  0.20248  1.0000
  S   S96       1.0  0.93935  0.54607  0.16704  1.0000
  S   S97       1.0  0.97681  0.54440  0.24353  1.0000
  C   C318      1.0  0.93029  0.89396  0.20059  1.0000
  C   C319      1.0  0.90141  0.86645  0.20122  1.0000
  C   C320      1.0  0.88034  0.85831  0.17765  1.0000
  C   C321      1.0  0.88839  0.87725  0.15326  1.0000
  C   C322      1.0  0.91752  0.90444  0.15264  1.0000
  C   C323      1.0  0.93849  0.91271  0.17621  1.0000
  H   H379      1.0  0.89487  0.85204  0.22010  1.0000
  H   H380      1.0  0.85788  0.83758  0.17849  1.0000
  H   H381      1.0  0.92406  0.91908  0.13383  1.0000
  H   H382      1.0  0.96115  0.93348  0.17542  1.0000
  C   C324      1.0  0.86514  0.65485  0.16913  1.0000
  C   C325      1.0  0.87410  0.63704  0.14442  1.0000
  C   C326      1.0  0.89748  0.60421  0.14410  1.0000
  C   C327      1.0  0.91275  0.58929  0.16834  1.0000
  C   C328      1.0  0.90475  0.60787  0.19296  1.0000
  C   C329      1.0  0.88070  0.64016  0.19336  1.0000
  H   H383      1.0  0.86226  0.64791  0.12564  1.0000
  H   H384      1.0  0.90342  0.58996  0.12496  1.0000
  H   H385      1.0  0.91619  0.59673  0.21174  1.0000
  H   H386      1.0  0.87383  0.65365  0.21260  1.0000
  H   H387      1.0  0.75666  0.88089  0.23150  1.0000
  C   C330      1.0  0.76831  0.76703  0.01015  1.0000
  H   H388      1.0  0.57775  0.84810  0.14397  1.0000
  H   H389      1.0  0.81173  0.80525  0.02464  1.0000
  C   C331      1.0  0.79698  0.79429  0.00694  1.0000
  C   C332      1.0  0.61469  0.91558  0.17874  1.0000
  C   C333      1.0  0.61302  0.88422  0.19635  1.0000
  C   C334      1.0  0.63683  0.85224  0.19208  1.0000
  C   C335      1.0  0.66284  0.85127  0.17039  1.0000
  C   C336      1.0  0.66502  0.88290  0.15303  1.0000
  C   C337      1.0  0.64102  0.91479  0.15719  1.0000
  H   H390      1.0  0.59289  0.88430  0.21294  1.0000
  H   H391      1.0  0.63475  0.82786  0.20557  1.0000
  H   H392      1.0  0.68435  0.88242  0.13597  1.0000
  H   H393      1.0  0.64227  0.93874  0.14327  1.0000
  C   C338      1.0  0.80326  0.56596  0.23637  1.0000
  H   H394      1.0  0.91776  0.71215  0.14469  1.0000
  H   H395      1.0  0.54965  0.90155  0.11813  1.0000
  H   H396      1.0  0.71117  0.91969  0.19095  1.0000
  H   H397      1.0  0.83518  0.62576  0.01955  1.0000
  H   H398      1.0  0.61202  0.86852  0.04729  1.0000
  C   C339      1.0  0.73840  0.93424  0.19593  1.0000
  N   N22       1.0  0.94621  0.75672  0.16804  1.0000
  C   C340      1.0  0.91260  0.75932  0.18597  1.0000
  C   C341      1.0  0.95899  0.79640  0.16187  1.0000
  H   H399      1.0  0.74089  0.95929  0.18210  1.0000
  C   C342      1.0  0.80604  0.92825  0.20143  1.0000
  C   C343      1.0  0.97554  0.73319  0.18172  1.0000
  H   H400      1.0  0.76333  0.61207  0.23027  1.0000
  H   H401      1.0  0.91916  0.77504  0.20515  1.0000
  Fe  Fe48      1.0  0.99211  0.95765  0.22678  1.0000
  C   C344      1.0  0.85397  0.97768  0.19227  1.0000
  C   C345      1.0  0.97063  0.69297  0.18454  1.0000
  H   H402      1.0  0.88868  0.77431  0.17573  1.0000
  H   H403      1.0  0.70690  0.81553  0.05075  1.0000
  H   H404      1.0  0.56652  0.91100  0.06970  1.0000
  H   H405      1.0  0.93743  0.81259  0.14994  1.0000
  H   H406      1.0  0.96366  0.81376  0.18065  1.0000
  H   H407      1.0  0.78737  0.85282  0.20944  1.0000
  C   C346      1.0  0.78886  0.59435  0.19266  1.0000
  C   C347      1.0  0.87387  0.53743  0.26255  1.0000
  C   C348      1.0  0.85826  0.94059  0.23344  1.0000
  H   H408      1.0  0.90179  0.51090  0.21561  1.0000
  H   H409      1.0  0.77408  0.61567  0.18061  1.0000
  H   H410      1.0  0.80065  0.87894  0.16082  1.0000
  H   H411      1.0  0.87363  0.93333  0.25187  1.0000
  N   N23       1.0  0.65184  0.80844  0.06939  1.0000
  C   C349      1.0  0.66889  0.77942  0.08779  1.0000
  C   C350      1.0  0.63472  0.78759  0.04607  1.0000
  C   C351      1.0  0.68303  0.83295  0.05907  1.0000
  C   C352      1.0  0.62282  0.83268  0.08285  1.0000
  C   C353      1.0  0.61158  0.82750  0.11042  1.0000
  C   C354      1.0  0.60525  0.86309  0.06838  1.0000
  C   C355      1.0  0.58514  0.85190  0.12270  1.0000
  C   C356      1.0  0.57906  0.88749  0.08097  1.0000
  C   C357      1.0  0.56927  0.88210  0.10815  1.0000
  H   H412      1.0  0.98546  0.79629  0.14958  1.0000
  H   H413      1.0  0.94588  0.67866  0.17657  1.0000
  H   H414      1.0  0.64740  0.75874  0.09536  1.0000
  H   H415      1.0  0.61070  0.76932  0.05286  1.0000
  C   C358      1.0  0.99252  0.76826  0.26210  1.0000
  H   H416      1.0  0.62375  0.80732  0.03018  1.0000
  H   H417      1.0  0.69456  0.85152  0.07557  1.0000
  H   H418      1.0  0.91571  0.75794  0.12973  1.0000
  H   H419      1.0  0.67389  0.85195  0.04220  1.0000
  H   H420      1.0  0.62338  0.80543  0.12328  1.0000
  H   H421      1.0  0.81643  0.89852  0.24018  1.0000
  H   H422      1.0  0.77281  0.91874  0.14963  1.0000
  C   C359      1.0  0.77375  0.89477  0.16442  1.0000
  H   H423      1.0  0.85477  0.52531  0.18462  1.0000
  H   H424      1.0  0.75000  0.87538  0.15862  1.0000
  N   N24       1.0  0.77103  0.90777  0.19321  1.0000
  C   C360      1.0  0.76313  0.87328  0.20999  1.0000
  C   C361      1.0  0.81420  0.56928  0.18018  1.0000
  C   C362      1.0  0.78312  0.59246  0.22067  1.0000
  H   H425      1.0  0.80755  0.96606  0.16603  1.0000
  C   C363      1.0  0.83474  0.54289  0.19568  1.0000
  Fe  Fe49      1.0  0.97614  0.52140  0.20092  1.0000
  H   H426      1.0  0.97891  0.82497  0.24752  1.0000
  C   C364      1.0  0.82095  0.95802  0.18494  1.0000
  H   H427      1.0  0.90186  0.73048  0.19174  1.0000
  H   H428      1.0  0.73600  0.94546  0.21711  1.0000
  H   H429      1.0  0.79797  0.56572  0.25802  1.0000
  H   H430      1.0  0.69092  0.76198  0.07725  1.0000
  C   C365      1.0  0.84137  0.64005  0.00050  1.0000
  H   H431      1.0  0.85477  0.55192  0.27728  1.0000
  H   H432      1.0  0.95961  0.73174  0.12900  1.0000
  C   C366      1.0  0.93455  0.73878  0.14181  1.0000
  C   C367      1.0  0.87260  0.96891  0.21645  1.0000
  C   C368      1.0  0.83030  0.54085  0.22444  1.0000
  H   H433      1.0  0.81898  0.57120  0.15841  1.0000
  H   H434      1.0  0.96974  0.75458  0.25090  1.0000
  H   H435      1.0  0.99325  0.63945  0.19936  1.0000
  N   N25       1.0  0.85294  0.51476  0.24178  1.0000
  H   H436      1.0  0.65587  0.76861  0.03581  1.0000
  H   H437      1.0  0.89873  0.98347  0.22181  1.0000
  H   H438      1.0  0.89162  0.55985  0.25276  1.0000
  H   H439      1.0  0.89302  0.51904  0.27497  1.0000
  H   H440      1.0  0.81323  0.69234  0.01217  1.0000
  S   S98       1.0  0.97785  0.00774  0.19989  1.0000
  C   C369      1.0  0.99763  0.80779  0.26010  1.0000
  C   C370      1.0  0.99751  0.67022  0.19780  1.0000
  C   C371      1.0  0.82912  0.67752  0.99636  1.0000
  H   H441      1.0  0.64078  0.00661  0.23551  1.0000
  H   H442      1.0  0.86568  0.99936  0.17893  1.0000
  H   H443      1.0  0.87083  0.53715  0.65244  1.0000
  H   H444      1.0  0.76037  0.99254  0.65665  1.0000
  Fe  Fe50      1.0  0.73970  0.78260  0.82998  1.0000
  S   S99       1.0  0.76377  0.83525  0.84989  1.0000
  S   S100      1.0  0.68181  0.78235  0.80881  1.0000
  Fe  Fe51      1.0  0.81541  0.73704  0.83514  1.0000
  S   S101      1.0  0.84370  0.78821  0.85438  1.0000
  S   S102      1.0  0.85805  0.68704  0.83389  1.0000
  Fe  Fe52      1.0  0.79091  0.79439  0.87992  1.0000
  S   S103      1.0  0.80460  0.80866  0.92463  1.0000
  Fe  Fe53      1.0  0.81405  0.82376  0.82319  1.0000
  S   S104      1.0  0.83587  0.86719  0.79313  1.0000
  S   S105      1.0  0.76331  0.74173  0.86193  1.0000
  S   S106      1.0  0.78936  0.77258  0.80204  1.0000
  Fe  Fe54      1.0  0.52952  0.94871  0.75694  1.0000
  S   S107      1.0  0.57274  0.92695  0.78844  1.0000
  S   S108      1.0  0.53282  0.94250  0.71130  1.0000
  H   H445      1.0  0.64588  0.99335  0.68430  1.0000
  S   S109      1.0  0.91508  0.56264  0.74624  1.0000
  H   H446      1.0  0.78115  0.96203  0.69957  1.0000
  H   H447      1.0  0.69287  0.97225  0.76913  1.0000
  H   H448      1.0  0.88897  0.75082  0.91040  1.0000
  S   S110      1.0  0.97753  0.98892  0.72262  1.0000
  C   C372      1.0  0.88069  0.88860  0.79568  1.0000
  C   C373      1.0  0.89300  0.91097  0.77385  1.0000
  C   C374      1.0  0.92888  0.92785  0.77431  1.0000
  C   C375      1.0  0.95252  0.92333  0.79682  1.0000
  C   C376      1.0  0.94032  0.90088  0.81881  1.0000
  C   C377      1.0  0.90444  0.88325  0.81818  1.0000
  H   H449      1.0  0.87480  0.91493  0.75634  1.0000
  H   H450      1.0  0.93806  0.94446  0.75723  1.0000
  H   H451      1.0  0.95854  0.89720  0.83633  1.0000
  H   H452      1.0  0.89498  0.86604  0.83515  1.0000
  C   C378      1.0  0.87298  0.65243  0.80920  1.0000
  C   C379      1.0  0.90469  0.62930  0.81503  1.0000
  C   C380      1.0  0.91825  0.60200  0.79604  1.0000
  C   C381      1.0  0.90009  0.59726  0.77091  1.0000
  C   C382      1.0  0.86848  0.62055  0.76503  1.0000
  C   C383      1.0  0.85502  0.64797  0.78397  1.0000
  H   H453      1.0  0.91893  0.63242  0.83442  1.0000
  H   H454      1.0  0.94249  0.58434  0.80095  1.0000
  H   H455      1.0  0.85405  0.61713  0.74574  1.0000
  H   H456      1.0  0.83041  0.66516  0.77918  1.0000
  C   C384      1.0  0.65280  0.82337  0.80242  1.0000
  C   C385      1.0  0.62465  0.82163  0.78207  1.0000
  C   C386      1.0  0.60015  0.85300  0.77718  1.0000
  C   C387      1.0  0.60287  0.88625  0.79312  1.0000
  C   C388      1.0  0.63098  0.88793  0.81346  1.0000
  C   C389      1.0  0.65607  0.85702  0.81785  1.0000
  H   H457      1.0  0.62163  0.79569  0.77012  1.0000
  H   H458      1.0  0.57866  0.85104  0.76154  1.0000
  H   H459      1.0  0.63331  0.91334  0.82606  1.0000
  H   H460      1.0  0.67719  0.85878  0.83377  1.0000
  C   C390      1.0  0.78854  0.79311  0.95723  1.0000
  H   H461      1.0  0.99221  0.78816  0.69305  1.0000
  C   C391      1.0  0.75952  0.76616  0.96045  1.0000
  C   C392      1.0  0.92480  0.84643  0.71966  1.0000
  H   H462      1.0  0.74494  0.75508  0.94271  1.0000
  C   C393      1.0  0.80699  0.80716  0.98067  1.0000
  C   C394      1.0  0.88244  0.73554  0.92972  1.0000
  H   H463      1.0  0.81337  0.53370  0.68442  1.0000
  C   C395      1.0  0.75157  0.96957  0.69677  1.0000
  C   C396      1.0  0.82759  0.70433  0.91061  1.0000
  C   C397      1.0  0.63094  0.99289  0.73922  1.0000
  H   H464      1.0  0.91290  0.87485  0.71698  1.0000
  H   H465      1.0  0.81939  0.98670  0.76336  1.0000
  C   C398      1.0  0.67366  0.94954  0.76125  1.0000
  H   H466      1.0  0.65325  0.90150  0.72084  1.0000
  H   H467      1.0  0.81238  0.67687  0.90681  1.0000
  C   C399      1.0  0.83251  0.51854  0.69883  1.0000
  H   H468      1.0  0.62052  0.93363  0.70458  1.0000
  C   C400      1.0  0.95420  0.83417  0.70288  1.0000
  H   H469      1.0  0.86388  0.75558  0.94123  1.0000
  C   C401      1.0  0.96950  0.79765  0.70629  1.0000
  N   N26       1.0  0.86423  0.69781  0.92455  1.0000
  H   H470      1.0  0.90918  0.73220  0.94147  1.0000
  C   C402      1.0  0.70190  0.99572  0.66869  1.0000
  H   H471      1.0  0.89726  0.54591  0.68330  1.0000
  H   H472      1.0  0.83173  0.71843  0.89056  1.0000
  H   H473      1.0  0.96523  0.85312  0.68727  1.0000
  C   C403      1.0  0.68610  0.97020  0.71386  1.0000
  H   H474      1.0  0.87545  0.64921  0.89828  1.0000
  C   C404      1.0  0.73995  0.98675  0.67260  1.0000
  H   H475      1.0  0.89494  0.69293  0.88663  1.0000
  Fe  Fe55      1.0  0.96494  0.51998  0.74259  1.0000
  H   H476      1.0  0.80840  0.72320  0.92259  1.0000
  H   H477      1.0  0.68901  0.92164  0.76046  1.0000
  C   C405      1.0  0.88908  0.67622  0.90547  1.0000
  H   H478      1.0  0.82946  0.82800  0.97849  1.0000
  H   H479      1.0  0.96873  0.74540  0.72800  1.0000
  S   S111      1.0  0.99730  0.94547  0.79757  1.0000
  H   H480      1.0  0.96130  0.72809  0.77368  1.0000
  H   H481      1.0  0.61200  0.99846  0.72162  1.0000
  C   C406      1.0  0.74959  0.75318  0.98674  1.0000
  C   C407      1.0  0.67527  0.98725  0.68882  1.0000
  C   C408      1.0  0.63496  0.92709  0.72418  1.0000
  N   N27       1.0  0.91018  0.76024  0.76588  1.0000
  C   C409      1.0  0.91167  0.78041  0.79255  1.0000
  C   C410      1.0  0.87010  0.75112  0.75961  1.0000
  C   C411      1.0  0.93083  0.72335  0.76901  1.0000
  C   C412      1.0  0.92581  0.78511  0.74422  1.0000
  C   C413      1.0  0.95570  0.77333  0.72663  1.0000
  C   C414      1.0  0.91056  0.82225  0.73985  1.0000
  H   H482      1.0  0.87042  0.59161  0.98329  1.0000
  H   H483      1.0  0.94080  0.79070  0.79716  1.0000
  H   H484      1.0  0.89246  0.80562  0.79332  1.0000
  H   H485      1.0  0.90237  0.76151  0.80955  1.0000
  H   H486      1.0  0.86741  0.73630  0.73959  1.0000
  H   H487      1.0  0.85202  0.77727  0.75889  1.0000
  H   H488      1.0  0.85748  0.73210  0.77537  1.0000
  H   H489      1.0  0.91923  0.70606  0.78609  1.0000
  H   H490      1.0  0.92820  0.70493  0.75053  1.0000
  H   H491      1.0  0.91694  0.66950  0.91490  1.0000
  H   H492      1.0  0.65134  0.94558  0.77696  1.0000
  H   H493      1.0  0.88720  0.83280  0.75197  1.0000
  C   C415      1.0  0.85727  0.67765  0.95057  1.0000
  C   C416      1.0  0.83687  0.69603  0.97181  1.0000
  C   C417      1.0  0.86903  0.63921  0.95533  1.0000
  H   H494      1.0  0.61129  0.98732  0.75653  1.0000
  C   C418      1.0  0.86124  0.62093  0.98003  1.0000
  H   H495      1.0  0.88749  0.99414  0.75322  1.0000
  H   H496      1.0  0.73588  0.94687  0.73505  1.0000
  H   H497      1.0  0.88404  0.62256  0.94024  1.0000
  N   N28       1.0  0.65716  0.96016  0.73444  1.0000
  C   C419      1.0  0.72517  0.96118  0.71715  1.0000
  H   H498      1.0  0.61243  0.91864  0.73879  1.0000
  S   S112      1.0  0.98259  0.51199  0.69863  1.0000
  H   H499      1.0  0.82632  0.72484  0.96952  1.0000
  C   C420      1.0  0.88632  0.52305  0.66941  1.0000
  H   H500      1.0  0.99941  0.88658  0.74321  1.0000
  H   H501      1.0  0.91201  0.50918  0.66080  1.0000
  H   H502      1.0  0.84582  0.54078  0.71216  1.0000
  H   H503      1.0  0.99735  0.85146  0.78661  1.0000
  Fe  Fe56      1.0  0.52931  0.00705  0.71059  1.0000
  H   H504      1.0  0.72742  0.73202  0.98891  1.0000
