data_image0
_chemical_formula_structural       C4SCFeSCH3CH2C3H7NHC2HC2NSCHCHC2H3CFeSH2CH2CNC2HSH3FeS2C2FeSHSCH3SH2C7HFeHCFeHCHCH2NHC3SHCHCH3CHC3H2C2HCH2SCSFeSC2H5C4H4CFeS2FeS2FeS2CSC2H3C6H4C6H2CH2C3NC9H9CH2NHCHC2H2CH7C2H2FeH4SCHSH2SH2CHFeS2FeS2FeSFeS3CSHC3H2C6H5CSHC2HC2H2C2HNHCH3FeHCH4CH2NC9H8C2H3C3H2C2HCH2CH4CHCH2CHC3H3NCH3CH3C2H3NC3HSC2HCHCH2SHC3HC2H4C2FeCHCHS4C2HCHCNC2HC2FeH3CH5SHFeH2CSHCHC4SHSCHCSCFeC2HSC2FeHCHCSCHCHSCH4CH2FeNC3H5FeH4CHCHCFeS2FeS2FeSFeS3H3C6HSHC2H2C2HC6H4CH4C2HFeCH2CH2CH3C2SH5NC5H7CH2NHCH3SHCSH2NC5H2C2HFeHCFeCH4FeHSC2HS2FeSFeSCHC4HC2H3C2FeNHNCHC4H3SH5SHC3H6CSHC2H4C2H3S2CSHFeCH5C2HNC5H2CH6CHSHCFeC2H4
_chemical_formula_sum              "C270 S72 Fe36 H324 N18"
_cell_length_a       36.1633
_cell_length_b       36.5005
_cell_length_c       31.6244
_cell_angle_alpha    90.5354
_cell_angle_beta     89.6398
_cell_angle_gamma    119.583

_space_group_name_H-M_alt    "P 1"
_space_group_IT_number       1

loop_
  _space_group_symop_operation_xyz
  'x, y, z'

loop_
  _atom_site_type_symbol
  _atom_site_label
  _atom_site_symmetry_multiplicity
  _atom_site_fract_x
  _atom_site_fract_y
  _atom_site_fract_z
  _atom_site_occupancy
  C   C1        1.0  0.33670  0.05090  0.29971  1.0000
  C   C2        1.0  0.34545  0.12739  0.15938  1.0000
  C   C3        1.0  0.12071  0.15874  0.00360  1.0000
  C   C4        1.0  0.09083  0.42717  0.44534  1.0000
  S   S1        1.0  0.09932  0.18700  0.03008  1.0000
  C   C5        1.0  0.06974  0.42049  0.40669  1.0000
  Fe  Fe1       1.0  0.04340  0.19050  0.00286  1.0000
  S   S2        1.0  0.17905  0.02383  0.03452  1.0000
  C   C6        1.0  0.14444  0.14472  0.02656  1.0000
  H   H1        1.0  0.28781  0.02913  0.37028  1.0000
  H   H2        1.0  0.08395  0.38390  0.30700  1.0000
  H   H3        1.0  0.14864  0.15062  0.06026  1.0000
  C   C7        1.0  0.31345  0.05773  0.12682  1.0000
  H   H4        1.0  0.04558  0.31832  0.39043  1.0000
  H   H5        1.0  0.30296  0.10760  0.10544  1.0000
  C   C8        1.0  0.31914  0.09850  0.12816  1.0000
  C   C9        1.0  0.09522  0.39507  0.46380  1.0000
  C   C10       1.0  0.33483  0.04650  0.15657  1.0000
  H   H6        1.0  0.18093  0.11233  0.02417  1.0000
  H   H7        1.0  0.27844  0.10414  0.25460  1.0000
  H   H8        1.0  0.05949  0.43655  0.32213  1.0000
  H   H9        1.0  0.24012  0.08503  0.18829  1.0000
  H   H10       1.0  0.06218  0.07389  0.02839  1.0000
  H   H11       1.0  0.33115  0.12032  0.30182  1.0000
  H   H12       1.0  0.32569  0.10095  0.35429  1.0000
  N   N1        1.0  0.02948  0.37247  0.34449  1.0000
  H   H13       1.0  0.10240  0.45692  0.46206  1.0000
  C   C11       1.0  0.27315  0.04232  0.26592  1.0000
  C   C12       1.0  0.02725  0.40927  0.32780  1.0000
  H   H14       1.0  0.06607  0.44627  0.39521  1.0000
  C   C13       1.0  0.16270  0.12297  0.00620  1.0000
  C   C14       1.0  0.24412  0.06158  0.20535  1.0000
  N   N2        1.0  0.29692  0.05241  0.30630  1.0000
  S   S3        1.0  0.04255  0.25113  0.99130  1.0000
  C   C15       1.0  0.30883  0.09488  0.32342  1.0000
  H   H15       1.0  0.03358  0.35339  0.28055  1.0000
  C   C16       1.0  0.05014  0.35931  0.31163  1.0000
  H   H16       1.0  0.28033  0.09842  0.32887  1.0000
  C   C17       1.0  0.27117  0.02118  0.33911  1.0000
  C   C18       1.0  0.26620  0.07212  0.24371  1.0000
  H   H17       1.0  0.08181  0.33109  0.45847  1.0000
  H   H18       1.0  0.09819  0.03407  0.99780  1.0000
  H   H19       1.0  0.23991  0.01971  0.34355  1.0000
  C   C19       1.0  0.05285  0.38116  0.38499  1.0000
  Fe  Fe2       1.0  0.23694  0.01557  0.03442  1.0000
  S   S4        1.0  0.28016  0.01927  0.08914  1.0000
  H   H20       1.0  0.33091  0.01975  0.28795  1.0000
  H   H21       1.0  0.33078  0.01510  0.15561  1.0000
  C   C20       1.0  0.03481  0.04182  0.03394  1.0000
  H   H22       1.0  0.04941  0.32939  0.31964  1.0000
  H   H23       1.0  0.03993  0.03091  0.06499  1.0000
  C   C21       1.0  0.07899  0.35618  0.44346  1.0000
  N   N3        1.0  0.03082  0.01265  0.99896  1.0000
  C   C22       1.0  0.05822  0.34923  0.40459  1.0000
  C   C23       1.0  0.22887  0.02161  0.18771  1.0000
  H   H24       1.0  0.21327  0.01415  0.15711  1.0000
  S   S5        1.0  0.02290  0.24228  0.86076  1.0000
  H   H25       1.0  0.12430  0.24667  0.82319  1.0000
  H   H26       1.0  0.13292  0.12685  0.90548  1.0000
  H   H27       1.0  0.11840  0.39671  0.86078  1.0000
  Fe  Fe3       1.0  0.12915  0.44489  0.70676  1.0000
  S   S6        1.0  0.14293  0.42305  0.64471  1.0000
  S   S7        1.0  0.12961  0.42247  0.77412  1.0000
  C   C24       1.0  0.17123  0.34689  0.78819  1.0000
  C   C25       1.0  0.14764  0.30309  0.78796  1.0000
  Fe  Fe4       1.0  0.09564  0.43951  0.61621  1.0000
  S   S8        1.0  0.04682  0.38988  0.57096  1.0000
  H   H28       1.0  0.10798  0.23457  0.94295  1.0000
  S   S9        1.0  0.07903  0.45735  0.67944  1.0000
  C   C26       1.0  0.13569  0.13129  0.93940  1.0000
  H   H29       1.0  0.20809  0.40252  0.82530  1.0000
  H   H30       1.0  0.20934  0.26466  0.88336  1.0000
  H   H31       1.0  0.31469  0.02367  0.77552  1.0000
  S   S10       1.0  0.18349  0.09199  0.93505  1.0000
  H   H32       1.0  0.21596  0.32171  0.93393  1.0000
  H   H33       1.0  0.09872  0.27239  0.91558  1.0000
  C   C27       1.0  0.05590  0.03438  0.92310  1.0000
  C   C28       1.0  0.09660  0.37271  0.79792  1.0000
  C   C29       1.0  0.09853  0.36896  0.84203  1.0000
  C   C30       1.0  0.07538  0.32955  0.86204  1.0000
  C   C31       1.0  0.05034  0.29330  0.83798  1.0000
  C   C32       1.0  0.04811  0.29711  0.79394  1.0000
  C   C33       1.0  0.07087  0.33659  0.77399  1.0000
  H   H34       1.0  0.13073  0.28667  0.75955  1.0000
  Fe  Fe5       1.0  0.19116  0.49101  0.63332  1.0000
  H   H35       1.0  0.06924  0.33892  0.74006  1.0000
  C   C34       1.0  0.18791  0.34613  0.86214  1.0000
  Fe  Fe6       1.0  0.19558  0.04331  0.96676  1.0000
  H   H36       1.0  0.32560  0.03531  0.69959  1.0000
  C   C35       1.0  0.18105  0.30287  0.93926  1.0000
  H   H37       1.0  0.20347  0.36488  0.88975  1.0000
  C   C36       1.0  0.01952  0.39510  0.52688  1.0000
  H   H38       1.0  0.09751  0.16164  0.94190  1.0000
  H   H39       1.0  0.17623  0.28313  0.96774  1.0000
  N   N4        1.0  0.15884  0.27659  0.90166  1.0000
  H   H40       1.0  0.17425  0.22971  0.92319  1.0000
  C   C37       1.0  0.05299  0.05122  0.88452  1.0000
  C   C38       1.0  0.17562  0.24731  0.89405  1.0000
  C   C39       1.0  0.16400  0.30133  0.86300  1.0000
  S   S11       1.0  0.25694  0.04072  0.96827  1.0000
  H   H41       1.0  0.07727  0.32725  0.89592  1.0000
  C   C40       1.0  0.11312  0.25165  0.91256  1.0000
  H   H42       1.0  0.02884  0.26928  0.77504  1.0000
  C   C41       1.0  0.14402  0.28053  0.82470  1.0000
  H   H43       1.0  0.17255  0.36442  0.76013  1.0000
  H   H44       1.0  0.04397  0.46184  0.53338  1.0000
  H   H45       1.0  0.15714  0.22309  0.86961  1.0000
  C   C42       1.0  0.19126  0.36834  0.82515  1.0000
  H   H46       1.0  0.09436  0.22752  0.88817  1.0000
  C   C43       1.0  0.15879  0.11662  0.96241  1.0000
  C   C44       1.0  0.11573  0.15120  0.96001  1.0000
  C   C45       1.0  0.02346  0.43377  0.51531  1.0000
  H   H47       1.0  0.07448  0.05448  0.85891  1.0000
  H   H48       1.0  0.16850  0.32439  0.94779  1.0000
  C   C46       1.0  0.34043  0.02149  0.76009  1.0000
  C   C47       1.0  0.02353  0.06488  0.87926  1.0000
  H   H49       1.0  0.02181  0.07853  0.84955  1.0000
  C   C48       1.0  0.02903  0.03070  0.95777  1.0000
  H   H50       1.0  0.08024  0.02545  0.92515  1.0000
  H   H51       1.0  0.11008  0.39998  0.49463  1.0000
  S   S12       1.0  0.01640  0.16233  0.93979  1.0000
  C   C49       1.0  0.34719  0.02839  0.71661  1.0000
  S   S13       1.0  0.19941  0.94844  0.01160  1.0000
  Fe  Fe7       1.0  0.14348  0.95868  0.00657  1.0000
  S   S14       1.0  0.07910  0.91608  0.03604  1.0000
  C   C50       1.0  0.03382  0.80079  0.02990  1.0000
  C   C51       1.0  0.32845  0.70839  0.48037  1.0000
  H   H52       1.0  0.26253  0.97806  0.26107  1.0000
  H   H53       1.0  0.31811  0.76106  0.47121  1.0000
  H   H54       1.0  0.03940  0.79504  0.09664  1.0000
  H   H55       1.0  0.22491  0.96136  0.19357  1.0000
  H   H56       1.0  0.06787  0.81985  0.02502  1.0000
  C   C52       1.0  0.23561  0.99190  0.20832  1.0000
  C   C53       1.0  0.03151  0.89353  0.00670  1.0000
  C   C54       1.0  0.01764  0.78708  0.07030  1.0000
  C   C55       1.0  0.25733  0.00192  0.24686  1.0000
  H   H57       1.0  0.32542  0.99074  0.46266  1.0000
  H   H58       1.0  0.30484  0.68878  0.45712  1.0000
  H   H59       1.0  0.26507  0.98896  0.33123  1.0000
  H   H60       1.0  0.06858  0.99217  0.03410  1.0000
  C   C56       1.0  0.06724  0.00469  0.00248  1.0000
  Fe  Fe8       1.0  0.28209  0.81339  0.61596  1.0000
  S   S15       1.0  0.28805  0.81941  0.68630  1.0000
  S   S16       1.0  0.23150  0.75416  0.58400  1.0000
  Fe  Fe9       1.0  0.30095  0.88562  0.67756  1.0000
  S   S17       1.0  0.26594  0.91654  0.70839  1.0000
  S   S18       1.0  0.28975  0.87786  0.60712  1.0000
  Fe  Fe10      1.0  0.21675  0.97373  0.94542  1.0000
  S   S19       1.0  0.24473  0.94022  0.90585  1.0000
  S   S20       1.0  0.15697  0.97817  0.93874  1.0000
  C   C57       1.0  0.25893  0.62228  0.72888  1.0000
  S   S21       1.0  0.13582  0.58350  0.68652  1.0000
  C   C58       1.0  0.27168  0.65879  0.57456  1.0000
  C   C59       1.0  0.34250  0.55954  0.61668  1.0000
  H   H61       1.0  0.26067  0.62432  0.76400  1.0000
  H   H62       1.0  0.24766  0.59189  0.57757  1.0000
  H   H63       1.0  0.06076  0.90308  0.94528  1.0000
  C   C60       1.0  0.20775  0.70651  0.61268  1.0000
  C   C61       1.0  0.18547  0.66796  0.59092  1.0000
  C   C62       1.0  0.16545  0.62968  0.61313  1.0000
  C   C63       1.0  0.16627  0.62990  0.65735  1.0000
  C   C64       1.0  0.18848  0.66840  0.67907  1.0000
  C   C65       1.0  0.20977  0.70646  0.65683  1.0000
  H   H64       1.0  0.18370  0.66768  0.55678  1.0000
  H   H65       1.0  0.14794  0.60015  0.59616  1.0000
  H   H66       1.0  0.18844  0.66880  0.71327  1.0000
  H   H67       1.0  0.22625  0.73569  0.67403  1.0000
  C   C66       1.0  0.25981  0.92227  0.76340  1.0000
  C   C67       1.0  0.23689  0.94221  0.77681  1.0000
  C   C68       1.0  0.23209  0.94828  0.82022  1.0000
  C   C69       1.0  0.24983  0.93402  0.85068  1.0000
  C   C70       1.0  0.27236  0.91370  0.83716  1.0000
  C   C71       1.0  0.27744  0.90791  0.79381  1.0000
  H   H68       1.0  0.27371  0.70326  0.72420  1.0000
  H   H69       1.0  0.29529  0.89268  0.78401  1.0000
  C   C72       1.0  0.26222  0.62154  0.59492  1.0000
  H   H70       1.0  0.26256  0.59207  0.65206  1.0000
  H   H71       1.0  0.29755  0.72566  0.58101  1.0000
  C   C73       1.0  0.29873  0.69747  0.64017  1.0000
  C   C74       1.0  0.33719  0.55493  0.70475  1.0000
  C   C75       1.0  0.03109  0.89056  0.96252  1.0000
  N   N5        1.0  0.15846  0.78489  0.70135  1.0000
  C   C76       1.0  0.19042  0.79464  0.73519  1.0000
  C   C77       1.0  0.18194  0.80559  0.66201  1.0000
  C   C78       1.0  0.13198  0.80404  0.71316  1.0000
  C   C79       1.0  0.13110  0.73865  0.69680  1.0000
  C   C80       1.0  0.12444  0.71715  0.65738  1.0000
  C   C81       1.0  0.11046  0.71355  0.73269  1.0000
  C   C82       1.0  0.10035  0.67322  0.65477  1.0000
  C   C83       1.0  0.08677  0.66960  0.72972  1.0000
  C   C84       1.0  0.08216  0.64946  0.69091  1.0000
  H   H72       1.0  0.20731  0.77640  0.73045  1.0000
  H   H73       1.0  0.21477  0.82874  0.73617  1.0000
  H   H74       1.0  0.16005  0.80248  0.63593  1.0000
  H   H75       1.0  0.20202  0.79208  0.65101  1.0000
  H   H76       1.0  0.20353  0.84004  0.66668  1.0000
  H   H77       1.0  0.15174  0.83896  0.71677  1.0000
  H   H78       1.0  0.10740  0.79735  0.68869  1.0000
  H   H79       1.0  0.13879  0.73322  0.62821  1.0000
  H   H80       1.0  0.11320  0.72769  0.76350  1.0000
  C   C85       1.0  0.33425  0.65643  0.71392  1.0000
  H   H81       1.0  0.33264  0.94922  0.52076  1.0000
  H   H82       1.0  0.06500  0.98064  0.97921  1.0000
  N   N6        1.0  0.29509  0.65921  0.70828  1.0000
  H   H83       1.0  0.26360  0.65815  0.54157  1.0000
  C   C86       1.0  0.29980  0.53682  0.68028  1.0000
  H   H84       1.0  0.07254  0.65086  0.75775  1.0000
  C   C87       1.0  0.28739  0.65964  0.66241  1.0000
  C   C88       1.0  0.27036  0.62191  0.63805  1.0000
  H   H85       1.0  0.33497  0.55273  0.73885  1.0000
  H   H86       1.0  0.17613  0.78738  0.76733  1.0000
  C   C89       1.0  0.30240  0.53901  0.63610  1.0000
  H   H87       1.0  0.28617  0.90254  0.86050  1.0000
  H   H88       1.0  0.06519  0.61531  0.68890  1.0000
  H   H89       1.0  0.31296  0.72795  0.65559  1.0000
  H   H90       1.0  0.30288  0.69540  0.76556  1.0000
  H   H91       1.0  0.09730  0.65730  0.62477  1.0000
  H   H92       1.0  0.11518  0.79185  0.74374  1.0000
  H   H93       1.0  0.22313  0.95344  0.75353  1.0000
  C   C90       1.0  0.30073  0.69763  0.73068  1.0000
  C   C91       1.0  0.29067  0.69675  0.59691  1.0000
  H   H94       1.0  0.25803  0.59214  0.72093  1.0000
  H   H95       1.0  0.34471  0.56065  0.58255  1.0000
  Fe  Fe11      1.0  0.13280  0.52264  0.66522  1.0000
  H   H96       1.0  0.21461  0.96386  0.83015  1.0000
  H   H97       1.0  0.22782  0.61921  0.71943  1.0000
  H   H98       1.0  0.34090  0.65461  0.74792  1.0000
  H   H99       1.0  0.31830  0.99861  0.63555  1.0000
  S   S22       1.0  0.14538  0.50600  0.60017  1.0000
  C   C92       1.0  0.33586  0.74909  0.48818  1.0000
  H   H100      1.0  0.33082  0.72617  0.72154  1.0000
  S   S23       1.0  0.18149  0.51169  0.69693  1.0000
  H   H101      1.0  0.26906  0.52049  0.69555  1.0000
  H   H102      1.0  0.33177  0.62805  0.69785  1.0000
  S   S24       1.0  0.25659  0.51664  0.60394  1.0000
  H   H103      1.0  0.34238  0.96625  0.63565  1.0000
  H   H104      1.0  0.01897  0.80229  0.96463  1.0000
  C   C93       1.0  0.34787  0.99798  0.62705  1.0000
  H   H105      1.0  0.34345  0.66085  0.49505  1.0000
  Fe  Fe12      1.0  0.43695  0.14929  0.28356  1.0000
  S   S25       1.0  0.42178  0.15905  0.35045  1.0000
  S   S26       1.0  0.39833  0.15348  0.22866  1.0000
  Fe  Fe13      1.0  0.51652  0.14703  0.31179  1.0000
  S   S27       1.0  0.50619  0.15446  0.38078  1.0000
  S   S28       1.0  0.57396  0.14853  0.28106  1.0000
  Fe  Fe14      1.0  0.43714  0.10824  0.36806  1.0000
  S   S29       1.0  0.38577  0.05628  0.40890  1.0000
  Fe  Fe15      1.0  0.49161  0.20415  0.35785  1.0000
  S   S30       1.0  0.52351  0.26687  0.39215  1.0000
  S   S31       1.0  0.44863  0.09616  0.30019  1.0000
  S   S32       1.0  0.50566  0.19921  0.28995  1.0000
  C   C94       1.0  0.36659  0.11602  0.18931  1.0000
  S   S33       1.0  0.58312  0.43918  0.29580  1.0000
  H   H106      1.0  0.64352  0.30297  0.38117  1.0000
  C   C95       1.0  0.62249  0.17383  0.30932  1.0000
  C   C96       1.0  0.66115  0.18934  0.28733  1.0000
  C   C97       1.0  0.62319  0.17843  0.35333  1.0000
  H   H107      1.0  0.66095  0.18563  0.25335  1.0000
  H   H108      1.0  0.59368  0.16606  0.37074  1.0000
  C   C98       1.0  0.54165  0.31364  0.36298  1.0000
  C   C99       1.0  0.57453  0.35135  0.37966  1.0000
  C   C100      1.0  0.58795  0.38967  0.35877  1.0000
  C   C101      1.0  0.56783  0.39092  0.32166  1.0000
  C   C102      1.0  0.53495  0.35315  0.30483  1.0000
  C   C103      1.0  0.52227  0.31450  0.32510  1.0000
  H   H109      1.0  0.58953  0.35089  0.40898  1.0000
  H   H110      1.0  0.61359  0.41814  0.37170  1.0000
  H   H111      1.0  0.51925  0.35369  0.27604  1.0000
  H   H112      1.0  0.49667  0.28557  0.31217  1.0000
  H   H113      1.0  0.56255  0.46608  0.14639  1.0000
  C   C104      1.0  0.43299  0.03545  0.46307  1.0000
  S   S34       1.0  0.67709  0.50130  0.37881  1.0000
  H   H114      1.0  0.40706  0.12896  0.06467  1.0000
  C   C105      1.0  0.62291  0.36723  0.25451  1.0000
  C   C106      1.0  0.36155  0.07549  0.18734  1.0000
  H   H115      1.0  0.54062  0.48005  0.40837  1.0000
  C   C107      1.0  0.47150  0.32045  0.43617  1.0000
  C   C108      1.0  0.39277  0.02794  0.45069  1.0000
  H   H116      1.0  0.66435  0.42959  0.27840  1.0000
  H   H117      1.0  0.44324  0.02937  0.13349  1.0000
  C   C109      1.0  0.47822  0.34920  0.40436  1.0000
  C   C110      1.0  0.40483  0.03766  0.08889  1.0000
  H   H118      1.0  0.46104  0.05921  0.44705  1.0000
  N   N7        1.0  0.56152  0.45232  0.45605  1.0000
  H   H119      1.0  0.62524  0.27902  0.28149  1.0000
  C   C111      1.0  0.66887  0.34143  0.30730  1.0000
  H   H120      1.0  0.34922  0.15869  0.16044  1.0000
  H   H121      1.0  0.66232  0.20128  0.40919  1.0000
  H   H122      1.0  0.58052  0.46697  0.39082  1.0000
  Fe  Fe16      1.0  0.64088  0.49791  0.32039  1.0000
  H   H123      1.0  0.45089  0.28701  0.43051  1.0000
  C   C112      1.0  0.63467  0.31214  0.28172  1.0000
  H   H124      1.0  0.37805  0.06621  0.20935  1.0000
  H   H125      1.0  0.55438  0.46111  0.20233  1.0000
  H   H126      1.0  0.46460  0.15665  0.11632  1.0000
  H   H127      1.0  0.48657  0.16595  0.18295  1.0000
  C   C113      1.0  0.61187  0.32493  0.25606  1.0000
  H   H128      1.0  0.46253  0.33788  0.37410  1.0000
  H   H129      1.0  0.64084  0.26385  0.34477  1.0000
  N   N8        1.0  0.49452  0.11316  0.16253  1.0000
  C   C114      1.0  0.49963  0.08018  0.18469  1.0000
  C   C115      1.0  0.53551  0.14188  0.14170  1.0000
  C   C116      1.0  0.48591  0.13728  0.19536  1.0000
  C   C117      1.0  0.46004  0.09606  0.13062  1.0000
  C   C118      1.0  0.44878  0.12329  0.10942  1.0000
  C   C119      1.0  0.43719  0.05261  0.11920  1.0000
  C   C120      1.0  0.41621  0.10791  0.07939  1.0000
  C   C121      1.0  0.56951  0.47878  0.41799  1.0000
  C   C122      1.0  0.66219  0.19824  0.37512  1.0000
  H   H130      1.0  0.52498  0.09402  0.20933  1.0000
  H   H131      1.0  0.46985  0.05767  0.20138  1.0000
  H   H132      1.0  0.50922  0.06247  0.16256  1.0000
  H   H133      1.0  0.54294  0.12519  0.11628  1.0000
  H   H134      1.0  0.56234  0.15486  0.16477  1.0000
  H   H135      1.0  0.53520  0.16930  0.12705  1.0000
  H   H136      1.0  0.45406  0.11762  0.20979  1.0000
  H   H137      1.0  0.50997  0.14829  0.22112  1.0000
  C   C123      1.0  0.39432  0.06521  0.06912  1.0000
  C   C124      1.0  0.65639  0.39682  0.27903  1.0000
  H   H138      1.0  0.51124  0.41224  0.38384  1.0000
  H   H139      1.0  0.36823  0.05318  0.04669  1.0000
  H   H140      1.0  0.58523  0.30182  0.23764  1.0000
  C   C125      1.0  0.52940  0.40748  0.44909  1.0000
  C   C126      1.0  0.50668  0.39212  0.41046  1.0000
  C   C127      1.0  0.67896  0.38429  0.30535  1.0000
  H   H141      1.0  0.60479  0.37704  0.23513  1.0000
  H   H142      1.0  0.35760  0.07506  0.27659  1.0000
  C   C128      1.0  0.49233  0.33457  0.47474  1.0000
  C   C129      1.0  0.66317  0.29295  0.36228  1.0000
  H   H143      1.0  0.35505  0.05740  0.32952  1.0000
  C   C130      1.0  0.56516  0.48412  0.17579  1.0000
  H   H144      1.0  0.54224  0.49603  0.17321  1.0000
  H   H145      1.0  0.63605  0.48235  0.15698  1.0000
  C   C131      1.0  0.60267  0.45577  0.46851  1.0000
  H   H146      1.0  0.63122  0.48080  0.21293  1.0000
  H   H147      1.0  0.61296  0.43967  0.44505  1.0000
  H   H148      1.0  0.62851  0.48919  0.47096  1.0000
  H   H149      1.0  0.68045  0.28329  0.38458  1.0000
  C   C132      1.0  0.52054  0.37747  0.48140  1.0000
  H   H150      1.0  0.51606  0.46796  0.48259  1.0000
  C   C133      1.0  0.63829  0.50179  0.18507  1.0000
  H   H151      1.0  0.48722  0.31193  0.49921  1.0000
  H   H152      1.0  0.39774  0.07972  0.60353  1.0000
  C   C134      1.0  0.43697  0.01190  0.49611  1.0000
  H   H153      1.0  0.45351  0.05433  0.64778  1.0000
  C   C135      1.0  0.37994  0.02470  0.69537  1.0000
  C   C136      1.0  0.39086  0.07298  0.63789  1.0000
  C   C137      1.0  0.54714  0.47031  0.49044  1.0000
  H   H154      1.0  0.54320  0.45403  0.52104  1.0000
  H   H155      1.0  0.41745  0.09873  0.65598  1.0000
  H   H156      1.0  0.36168  0.07498  0.64432  1.0000
  N   N9        1.0  0.38582  0.03133  0.64908  1.0000
  C   C138      1.0  0.42373  0.03011  0.63240  1.0000
  H   H157      1.0  0.46826  0.01781  0.50520  1.0000
  H   H158      1.0  0.57045  0.50428  0.49616  1.0000
  H   H159      1.0  0.60123  0.44180  0.49991  1.0000
  C   C139      1.0  0.40500  0.01298  0.72035  1.0000
  H   H160      1.0  0.42772  0.03583  0.59765  1.0000
  H   H161      1.0  0.43001  0.00842  0.70705  1.0000
  H   H162      1.0  0.53603  0.38683  0.51181  1.0000
  C   C140      1.0  0.39747  0.00549  0.76373  1.0000
  C   C141      1.0  0.36527  0.00975  0.78354  1.0000
  H   H163      1.0  0.57870  0.70341  0.40115  1.0000
  H   H164      1.0  0.57898  0.70854  0.47921  1.0000
  H   H165      1.0  0.64285  0.55558  0.04085  1.0000
  N   N10       1.0  0.60898  0.51928  0.18282  1.0000
  C   C142      1.0  0.63893  0.56545  0.07220  1.0000
  C   C143      1.0  0.67586  0.71104  0.41991  1.0000
  C   C144      1.0  0.35669  0.99685  0.47199  1.0000
  H   H166      1.0  0.60200  0.58550  0.42340  1.0000
  S   S35       1.0  0.63686  0.55593  0.33708  1.0000
  C   C145      1.0  0.63062  0.59193  0.15313  1.0000
  C   C146      1.0  0.62161  0.54957  0.14750  1.0000
  H   H167      1.0  0.65160  0.65242  0.12439  1.0000
  C   C147      1.0  0.60438  0.59384  0.45655  1.0000
  H   H168      1.0  0.59463  0.51194  0.42385  1.0000
  C   C148      1.0  0.64834  0.60692  0.07900  1.0000
  H   H169      1.0  0.55120  0.60522  0.45523  1.0000
  H   H170      1.0  0.62930  0.60484  0.18361  1.0000
  S   S36       1.0  0.67208  0.57833  0.46091  1.0000
  H   H171      1.0  0.64213  0.56471  0.23226  1.0000
  C   C149      1.0  0.60605  0.71002  0.46263  1.0000
  C   C150      1.0  0.60976  0.53833  0.22474  1.0000
  C   C151      1.0  0.57558  0.60497  0.47466  1.0000
  H   H172      1.0  0.60076  0.51501  0.25068  1.0000
  C   C152      1.0  0.62534  0.53699  0.10577  1.0000
  C   C153      1.0  0.64355  0.61989  0.11919  1.0000
  H   H173      1.0  0.66020  0.62938  0.05330  1.0000
  H   H174      1.0  0.58682  0.55028  0.22640  1.0000
  H   H175      1.0  0.67195  0.52754  0.18762  1.0000
  H   H176      1.0  0.63781  0.70448  0.36341  1.0000
  C   C154      1.0  0.64020  0.70735  0.39741  1.0000
  C   C155      1.0  0.60589  0.70683  0.41870  1.0000
  Fe  Fe17      1.0  0.67796  0.56217  0.39248  1.0000
  C   C156      1.0  0.67474  0.71394  0.46469  1.0000
  H   H177      1.0  0.38694  0.00433  0.08123  1.0000
  C   C157      1.0  0.63600  0.59354  0.48152  1.0000
  H   H178      1.0  0.61842  0.50519  0.09888  1.0000
  S   S37       1.0  0.37170  0.91188  0.67202  1.0000
  S   S38       1.0  0.40815  0.95212  0.55859  1.0000
  S   S39       1.0  0.38698  0.81308  0.71150  1.0000
  S   S40       1.0  0.42383  0.59884  0.71658  1.0000
  C   C158      1.0  0.37732  0.57571  0.68523  1.0000
  C   C159      1.0  0.37977  0.57782  0.64109  1.0000
  H   H179      1.0  0.41033  0.59240  0.62563  1.0000
  C   C160      1.0  0.42600  0.80438  0.68705  1.0000
  H   H180      1.0  0.41991  0.75856  0.73310  1.0000
  C   C161      1.0  0.40091  0.98058  0.51714  1.0000
  N   N11       1.0  0.40689  0.70260  0.55717  1.0000
  C   C162      1.0  0.43619  0.77536  0.70482  1.0000
  C   C163      1.0  0.44753  0.82637  0.65078  1.0000
  H   H181      1.0  0.44019  0.84908  0.63708  1.0000
  C   C164      1.0  0.36610  0.77447  0.51796  1.0000
  C   C165      1.0  0.39900  0.70316  0.60320  1.0000
  Fe  Fe18      1.0  0.35760  0.84447  0.67376  1.0000
  H   H182      1.0  0.41873  0.69358  0.62205  1.0000
  H   H183      1.0  0.40675  0.73492  0.61495  1.0000
  H   H184      1.0  0.37207  0.80630  0.52365  1.0000
  C   C166      1.0  0.45281  0.73083  0.54859  1.0000
  H   H185      1.0  0.66324  0.60476  0.54398  1.0000
  H   H186      1.0  0.56482  0.59508  0.84187  1.0000
  H   H187      1.0  0.46443  0.76336  0.56076  1.0000
  H   H188      1.0  0.47300  0.71983  0.56419  1.0000
  H   H189      1.0  0.40346  0.65633  0.51188  1.0000
  S   S41       1.0  0.48935  0.66734  0.61884  1.0000
  H   H190      1.0  0.41578  0.64857  0.56437  1.0000
  Fe  Fe19      1.0  0.58210  0.68826  0.69351  1.0000
  H   H191      1.0  0.36508  0.68122  0.61094  1.0000
  H   H192      1.0  0.42092  0.99861  0.63665  1.0000
  C   C167      1.0  0.46788  0.76852  0.68661  1.0000
  S   S42       1.0  0.53100  0.78453  0.62795  1.0000
  H   H193      1.0  0.55631  0.65893  0.77441  1.0000
  C   C168      1.0  0.60221  0.63568  0.89169  1.0000
  H   H194      1.0  0.41157  0.78003  0.56349  1.0000
  C   C169      1.0  0.56968  0.62135  0.86169  1.0000
  C   C170      1.0  0.55359  0.67557  0.88428  1.0000
  C   C171      1.0  0.38862  0.75908  0.54052  1.0000
  C   C172      1.0  0.39657  0.65895  0.54577  1.0000
  S   S43       1.0  0.63590  0.69264  0.73472  1.0000
  H   H195      1.0  0.54337  0.60523  0.77933  1.0000
  S   S44       1.0  0.35102  0.83534  0.60368  1.0000
  C   C173      1.0  0.53002  0.62679  0.78170  1.0000
  H   H196      1.0  0.50596  0.61699  0.75605  1.0000
  C   C174      1.0  0.38182  0.71769  0.53351  1.0000
  S   S45       1.0  0.54232  0.63145  0.53850  1.0000
  C   C175      1.0  0.58596  0.68934  0.91445  1.0000
  Fe  Fe20      1.0  0.53728  0.72848  0.64752  1.0000
  C   C176      1.0  0.36068  0.97328  0.50502  1.0000
  C   C177      1.0  0.61037  0.66965  0.91797  1.0000
  H   H197      1.0  0.47567  0.74628  0.70064  1.0000
  S   S46       1.0  0.53069  0.70280  0.71302  1.0000
  C   C178      1.0  0.63539  0.74050  0.80348  1.0000
  C   C179      1.0  0.47995  0.82030  0.63319  1.0000
  Fe  Fe21      1.0  0.48590  0.64045  0.68267  1.0000
  H   H198      1.0  0.63652  0.68169  0.94028  1.0000
  C   C180      1.0  0.57851  0.61649  0.51762  1.0000
  H   H199      1.0  0.49730  0.83830  0.60582  1.0000
  C   C181      1.0  0.54469  0.64121  0.85661  1.0000
  S   S47       1.0  0.59288  0.71963  0.62978  1.0000
  C   C182      1.0  0.61039  0.61655  0.54241  1.0000
  H   H200      1.0  0.63671  0.77810  0.85714  1.0000
  C   C183      1.0  0.47792  0.58231  0.83285  1.0000
  H   H201      1.0  0.36266  0.63577  0.55265  1.0000
  S   S48       1.0  0.53645  0.62343  0.66764  1.0000
  C   C184      1.0  0.49016  0.65216  0.82044  1.0000
  H   H202      1.0  0.49065  0.56013  0.83221  1.0000
  H   H203      1.0  0.61186  0.74466  0.78650  1.0000
  H   H204      1.0  0.46592  0.64058  0.79473  1.0000
  H   H205      1.0  0.61304  0.62546  0.57546  1.0000
  C   C185      1.0  0.65203  0.71660  0.78536  1.0000
  H   H206      1.0  0.51353  0.68549  0.81270  1.0000
  H   H207      1.0  0.47303  0.65130  0.85007  1.0000
  Fe  Fe22      1.0  0.54396  0.65590  0.60547  1.0000
  N   N12       1.0  0.51125  0.62616  0.82369  1.0000
  C   C186      1.0  0.63885  0.60491  0.52443  1.0000
  C   C187      1.0  0.64968  0.75956  0.84347  1.0000
  C   C188      1.0  0.49033  0.79148  0.65109  1.0000
  H   H208      1.0  0.53675  0.69303  0.88272  1.0000
  H   H209      1.0  0.59348  0.71662  0.93420  1.0000
  H   H210      1.0  0.46352  0.58019  0.86457  1.0000
  H   H211      1.0  0.45184  0.57040  0.80894  1.0000
  H   H212      1.0  0.36244  0.68431  0.70024  1.0000
  Fe  Fe23      1.0  0.35968  0.90091  0.60178  1.0000
  H   H213      1.0  0.45976  0.73300  0.51411  1.0000
  H   H214      1.0  0.62188  0.62101  0.89396  1.0000
  H   H215      1.0  0.35145  0.00065  0.59201  1.0000
  H   H216      1.0  0.63966  0.71480  0.51985  1.0000
  C   C189      1.0  0.35100  0.69271  0.50255  1.0000
  H   H217      1.0  0.41620  0.99557  0.78202  1.0000
  C   C190      1.0  0.68041  0.75466  0.86594  1.0000
  H   H218      1.0  0.35879  0.00296  0.81697  1.0000
  C   C191      1.0  0.64043  0.71367  0.48554  1.0000
  Fe  Fe24      1.0  0.81020  0.28331  0.34566  1.0000
  S   S49       1.0  0.81904  0.28968  0.27534  1.0000
  S   S50       1.0  0.74928  0.24155  0.38139  1.0000
  Fe  Fe25      1.0  0.89911  0.35847  0.36437  1.0000
  S   S51       1.0  0.91372  0.37171  0.29494  1.0000
  S   S52       1.0  0.94481  0.40483  0.41360  1.0000
  Fe  Fe26      1.0  0.84640  0.35901  0.28873  1.0000
  S   S53       1.0  0.82030  0.39369  0.25142  1.0000
  Fe  Fe27      1.0  0.88551  0.30142  0.28730  1.0000
  S   S54       1.0  0.92291  0.27294  0.25589  1.0000
  S   S55       1.0  0.83419  0.35185  0.35821  1.0000
  S   S56       1.0  0.87421  0.28892  0.35757  1.0000
  H   H219      1.0  0.89028  0.13180  0.14059  1.0000
  H   H220      1.0  0.96630  0.33136  0.32110  1.0000
  H   H221      1.0  0.88476  0.16092  0.03154  1.0000
  C   C192      1.0  0.92813  0.26557  0.20090  1.0000
  C   C193      1.0  0.95377  0.24843  0.18785  1.0000
  C   C194      1.0  0.95907  0.24229  0.14457  1.0000
  C   C195      1.0  0.93854  0.25306  0.11377  1.0000
  C   C196      1.0  0.91273  0.26996  0.12686  1.0000
  C   C197      1.0  0.90757  0.27626  0.17011  1.0000
  H   H222      1.0  0.96986  0.24008  0.21138  1.0000
  S   S57       1.0  0.98033  0.15865  0.03681  1.0000
  H   H223      1.0  0.88779  0.28950  0.17957  1.0000
  C   C198      1.0  0.72576  0.36088  0.36068  1.0000
  C   C199      1.0  0.97343  0.39981  0.45671  1.0000
  H   H224      1.0  0.73589  0.33507  0.28286  1.0000
  H   H225      1.0  0.80685  0.34448  0.45019  1.0000
  C   C200      1.0  0.70018  0.20993  0.30905  1.0000
  C   C201      1.0  0.89923  0.02684  0.02584  1.0000
  H   H226      1.0  0.92417  0.05644  0.03825  1.0000
  C   C202      1.0  0.98528  0.33789  0.35052  1.0000
  C   C203      1.0  0.82612  0.47884  0.33856  1.0000
  C   C204      1.0  0.83310  0.44892  0.31706  1.0000
  C   C205      1.0  0.81221  0.43143  0.27891  1.0000
  C   C206      1.0  0.78401  0.44378  0.26264  1.0000
  C   C207      1.0  0.79786  0.49112  0.32244  1.0000
  H   H227      1.0  0.85532  0.44007  0.32957  1.0000
  H   H228      1.0  0.76780  0.43035  0.23311  1.0000
  H   H229      1.0  0.75052  0.38658  0.34117  1.0000
  H   H230      1.0  0.94941  0.33300  0.45027  1.0000
  C   C208      1.0  0.70087  0.21457  0.35306  1.0000
  H   H231      1.0  0.83552  0.11599  0.01744  1.0000
  H   H232      1.0  0.72969  0.22185  0.29170  1.0000
  H   H233      1.0  0.86235  0.38000  0.45626  1.0000
  H   H234      1.0  0.85321  0.17528  0.08979  1.0000
  C   C209      1.0  0.77666  0.47342  0.28443  1.0000
  C   C210      1.0  0.78937  0.01415  0.14202  1.0000
  H   H235      1.0  0.97926  0.22955  0.13507  1.0000
  Fe  Fe28      1.0  0.97676  0.21677  0.02040  1.0000
  C   C211      1.0  0.84777  0.30158  0.46180  1.0000
  H   H236      1.0  0.91792  0.16519  0.09749  1.0000
  H   H237      1.0  0.80192  0.12944  0.08151  1.0000
  C   C212      1.0  0.89458  0.13209  0.10574  1.0000
  H   H238      1.0  0.82216  0.04739  0.02582  1.0000
  H   H239      1.0  0.82821  0.13936  0.13184  1.0000
  C   C213      1.0  0.00047  0.43603  0.48047  1.0000
  H   H240      1.0  0.84985  0.27434  0.47434  1.0000
  H   H241      1.0  0.82289  0.28879  0.43676  1.0000
  H   H242      1.0  0.89676  0.27850  0.10335  1.0000
  C   C214      1.0  0.83330  0.14104  0.09708  1.0000
  C   C215      1.0  0.96980  0.36120  0.46807  1.0000
  S   S58       1.0  0.94294  0.24523  0.05871  1.0000
  H   H243      1.0  0.00998  0.40182  0.29708  1.0000
  H   H244      1.0  0.74295  0.34892  0.38029  1.0000
  H   H245      1.0  0.75514  0.48298  0.27157  1.0000
  H   H246      1.0  0.88277  0.11150  0.02427  1.0000
  H   H247      1.0  0.87863  0.32292  0.44627  1.0000
  N   N13       1.0  0.85407  0.11681  0.08244  1.0000
  C   C216      1.0  0.86457  0.12645  0.03694  1.0000
  C   C217      1.0  0.71462  0.31073  0.30591  1.0000
  C   C218      1.0  0.82630  0.07133  0.09083  1.0000
  C   C219      1.0  0.81340  0.03991  0.05863  1.0000
  C   C220      1.0  0.81318  0.05711  0.13279  1.0000
  H   H248      1.0  0.73466  0.30121  0.32425  1.0000
  H   H249      1.0  0.90947  0.11240  0.09827  1.0000
  H   H250      1.0  0.82210  0.07916  0.15891  1.0000
  H   H251      1.0  0.84293  0.49275  0.36772  1.0000
  H   H252      1.0  0.69185  0.28262  0.28739  1.0000
  H   H253      1.0  0.98353  0.30767  0.35925  1.0000
  H   H254      1.0  0.00597  0.04500  0.03782  1.0000
  C   C221      1.0  0.83299  0.35790  0.47392  1.0000
  H   H255      1.0  0.96903  0.34609  0.37574  1.0000
  H   H256      1.0  0.71155  0.37459  0.38261  1.0000
  N   N14       1.0  0.69283  0.32708  0.33377  1.0000
  H   H257      1.0  0.70414  0.40884  0.32382  1.0000
  C   C222      1.0  0.88277  0.02512  0.98548  1.0000
  H   H258      1.0  0.00355  0.46607  0.47202  1.0000
  H   H259      1.0  0.00957  0.41924  0.34978  1.0000
  H   H260      1.0  0.79605  0.26631  0.52746  1.0000
  S   S59       1.0  0.90090  0.06998  0.95343  1.0000
  H   H261      1.0  0.97340  0.07179  0.90822  1.0000
  C   C223      1.0  0.87199  0.34079  0.52751  1.0000
  S   S60       1.0  0.94540  0.19050  0.95736  1.0000
  H   H262      1.0  0.98942  0.32891  0.51169  1.0000
  H   H263      1.0  0.86170  0.27893  0.54617  1.0000
  N   N15       1.0  0.83802  0.32442  0.49507  1.0000
  C   C224      1.0  0.91198  0.32719  0.58187  1.0000
  C   C225      1.0  0.79652  0.29477  0.51463  1.0000
  C   C226      1.0  0.87984  0.31255  0.55139  1.0000
  C   C227      1.0  0.99641  0.06121  0.91237  1.0000
  C   C228      1.0  0.99262  0.35893  0.50299  1.0000
  H   H264      1.0  0.91827  0.30526  0.59903  1.0000
  H   H265      1.0  0.97656  0.04153  0.97539  1.0000
  C   C229      1.0  0.89849  0.38456  0.53597  1.0000
  C   C230      1.0  0.99878  0.04415  0.95097  1.0000
  H   H266      1.0  0.82528  0.37630  0.49705  1.0000
  Fe  Fe29      1.0  0.95334  0.13492  0.97229  1.0000
  H   H267      1.0  0.78877  0.31024  0.54104  1.0000
  C   C231      1.0  0.93705  0.37019  0.58963  1.0000
  Fe  Fe30      1.0  0.01107  0.22048  0.92949  1.0000
  C   C232      1.0  0.93026  0.39876  0.56682  1.0000
  H   H268      1.0  0.96285  0.38150  0.61235  1.0000
  H   H269      1.0  0.77011  0.28292  0.49115  1.0000
  H   H270      1.0  0.95090  0.43226  0.57206  1.0000
  H   H271      1.0  0.89622  0.40863  0.51850  1.0000
  Fe  Fe31      1.0  0.73481  0.53923  0.33898  1.0000
  H   H272      1.0  0.78053  0.75363  0.39297  1.0000
  S   S61       1.0  0.69879  0.53208  0.27895  1.0000
  C   C233      1.0  0.95408  0.85711  0.00692  1.0000
  C   C234      1.0  0.72393  0.65994  0.20998  1.0000
  H   H273      1.0  0.76038  0.95085  0.11705  1.0000
  S   S62       1.0  0.83962  0.80902  0.04095  1.0000
  S   S63       1.0  0.74059  0.78633  0.02955  1.0000
  Fe  Fe32      1.0  0.80516  0.84491  0.02962  1.0000
  S   S64       1.0  0.82822  0.90594  0.06618  1.0000
  Fe  Fe33      1.0  0.77629  0.75041  0.03424  1.0000
  S   S65       1.0  0.76208  0.69076  0.07011  1.0000
  C   C235      1.0  0.85021  0.95149  0.03456  1.0000
  H   H274      1.0  0.70793  0.73690  0.33862  1.0000
  C   C236      1.0  0.75233  0.75102  0.41015  1.0000
  C   C237      1.0  0.74925  0.68080  0.12457  1.0000
  C   C238      1.0  0.74568  0.64402  0.14248  1.0000
  C   C239      1.0  0.73330  0.63371  0.18504  1.0000
  H   H275      1.0  0.75977  0.75262  0.44440  1.0000
  C   C240      1.0  0.88432  0.68898  0.06531  1.0000
  C   C241      1.0  0.74083  0.70749  0.14980  1.0000
  H   H276      1.0  0.75199  0.62310  0.12316  1.0000
  H   H277      1.0  0.73056  0.60530  0.19834  1.0000
  H   H278      1.0  0.78087  0.97358  0.04340  1.0000
  C   C242      1.0  0.00616  0.79096  0.99591  1.0000
  C   C243      1.0  0.72798  0.69693  0.19220  1.0000
  Fe  Fe34      1.0  0.69798  0.59077  0.30014  1.0000
  N   N16       1.0  0.71283  0.71174  0.39865  1.0000
  H   H279      1.0  0.92486  0.84446  0.02442  1.0000
  N   N17       1.0  0.89812  0.73259  0.05162  1.0000
  C   C244      1.0  0.96215  0.76848  0.00223  1.0000
  H   H280      1.0  0.74962  0.77931  0.40241  1.0000
  C   C245      1.0  0.97369  0.76411  0.07696  1.0000
  C   C246      1.0  0.94452  0.75501  0.04329  1.0000
  C   C247      1.0  0.88262  0.99008  0.05052  1.0000
  C   C248      1.0  0.77788  0.98419  0.10983  1.0000
  H   H281      1.0  0.99299  0.87913  0.06285  1.0000
  H   H282      1.0  0.74337  0.73583  0.13642  1.0000
  H   H283      1.0  0.83780  0.71422  0.02146  1.0000
  S   S66       1.0  0.73896  0.60086  0.35708  1.0000
  H   H284      1.0  0.72035  0.67440  0.44741  1.0000
  H   H285      1.0  0.87595  0.71135  0.98790  1.0000
  H   H286      1.0  0.96274  0.75413  0.10885  1.0000
  H   H287      1.0  0.74486  0.67513  0.39817  1.0000
  H   H288      1.0  0.89472  0.99150  0.08204  1.0000
  S   S67       1.0  0.70524  0.64702  0.26277  1.0000
  H   H289      1.0  0.84937  0.67112  0.07155  1.0000
  C   C249      1.0  0.71674  0.67516  0.41259  1.0000
  C   C250      1.0  0.88802  0.75450  0.08579  1.0000
  C   C251      1.0  0.99289  0.87696  0.02870  1.0000
  H   H290      1.0  0.88146  0.76187  0.00205  1.0000
  H   H291      1.0  0.89164  0.67150  0.04066  1.0000
  H   H292      1.0  0.90012  0.75190  0.11714  1.0000
  H   H293      1.0  0.90032  0.68825  0.09495  1.0000
  H   H294      1.0  0.99136  0.95691  0.03534  1.0000
  H   H295      1.0  0.72083  0.71745  0.21122  1.0000
  C   C252      1.0  0.83414  0.95001  0.99414  1.0000
  S   S68       1.0  0.79071  0.52924  0.35039  1.0000
  H   H296      1.0  0.90201  0.78864  0.07879  1.0000
  C   C253      1.0  0.78951  0.99707  0.06826  1.0000
  C   C254      1.0  0.87241  0.72997  0.01405  1.0000
  H   H297      1.0  0.68801  0.64504  0.40359  1.0000
  H   H298      1.0  0.85306  0.74111  0.08998  1.0000
  H   H299      1.0  0.96234  0.97572  0.00543  1.0000
  H   H300      1.0  0.73799  0.71002  0.33674  1.0000
  C   C255      1.0  0.70981  0.70969  0.35173  1.0000
  C   C256      1.0  0.99109  0.97199  0.00496  1.0000
  H   H301      1.0  0.68182  0.67988  0.34062  1.0000
  H   H302      1.0  0.78036  0.00397  0.17439  1.0000
  H   H303      1.0  0.72797  0.85743  0.85663  1.0000
  S   S69       1.0  0.90472  0.82322  0.93560  1.0000
  S   S70       1.0  0.78230  0.74603  0.96338  1.0000
  C   C257      1.0  0.68284  0.71181  0.80780  1.0000
  S   S71       1.0  0.81281  0.84648  0.95937  1.0000
  H   H304      1.0  0.83650  0.98548  0.93926  1.0000
  Fe  Fe35      1.0  0.84369  0.80731  0.97046  1.0000
  C   C258      1.0  0.91924  0.95134  0.88831  1.0000
  H   H305      1.0  0.99185  0.86613  0.90675  1.0000
  H   H306      1.0  0.83451  0.96091  0.85999  1.0000
  H   H307      1.0  0.76556  0.91038  0.87122  1.0000
  H   H308      1.0  0.69588  0.69336  0.79401  1.0000
  H   H309      1.0  0.76415  0.86723  0.89910  1.0000
  C   C259      1.0  0.99204  0.86961  0.94077  1.0000
  C   C260      1.0  0.76138  0.87830  0.86721  1.0000
  H   H310      1.0  0.95081  0.96990  0.90138  1.0000
  N   N18       1.0  0.79260  0.87712  0.83731  1.0000
  C   C261      1.0  0.79002  0.89541  0.79647  1.0000
  C   C262      1.0  0.77953  0.83216  0.82937  1.0000
  C   C263      1.0  0.83610  0.90195  0.85479  1.0000
  C   C264      1.0  0.85298  0.94535  0.86464  1.0000
  C   C265      1.0  0.86289  0.88439  0.86243  1.0000
  H   H311      1.0  0.90561  0.00241  0.88936  1.0000
  H   H312      1.0  0.92361  0.89488  0.88471  1.0000
  C   C266      1.0  0.90385  0.90898  0.87880  1.0000
  H   H313      1.0  0.81397  0.89628  0.77357  1.0000
  H   H314      1.0  0.75801  0.87672  0.78174  1.0000
  H   H315      1.0  0.79573  0.92812  0.80014  1.0000
  H   H316      1.0  0.80099  0.82862  0.80637  1.0000
  H   H317      1.0  0.74699  0.81455  0.81564  1.0000
  H   H318      1.0  0.77864  0.81579  0.85928  1.0000
  C   C267      1.0  0.89386  0.96952  0.88129  1.0000
  H   H319      1.0  0.85289  0.85156  0.85687  1.0000
  S   S72       1.0  0.69719  0.77958  0.91608  1.0000
  H   H320      1.0  0.72045  0.72644  0.86491  1.0000
  C   C268      1.0  0.95335  0.85242  0.96299  1.0000
  Fe  Fe36      1.0  0.75063  0.78560  0.95893  1.0000
  C   C269      1.0  0.69690  0.73059  0.84796  1.0000
  C   C270      1.0  0.85005  0.98673  0.96996  1.0000
  H   H321      1.0  0.98681  0.94929  0.97908  1.0000
  H   H322      1.0  0.94280  0.76341  0.97455  1.0000
  H   H323      1.0  0.80823  0.92088  0.98213  1.0000
  H   H324      1.0  0.70006  0.71570  0.48411  1.0000
