data_image0
_chemical_formula_structural       C2H2SC2HCSCFeH6C2H3CHCNCH2FeCSCH2C2H2C2HS2CFeS2FeS2FeHFeS4FeS2C2H2C3HC6H7C2H2C2H3C2HC2H3CHCHCH2CH2C2H3C2H4CHC3HNFeCH3NCH2C4HCH3CH3CHSCHFeHC3HNC3H2CHCHC2NCH2C4H6SFeHC2HC2H4CHCH3C2H2C3H5FeS2FeSNFeSFeS3FeCSCHFeS2H2SCHFeSH2SC3HCSHCH2C3H2C6H4CS2CH5C4H2C3H2C7H2SH3CNSHCNC9H8CHCH2C3HCHCFeH5C2H2C2HFeH3SH2CH2NHCSC2H2CH2C2H2CH2C4H2NH2CH2FeHC2HSHC3H2CFeHSH6FeS2FeS2FeSFeS3CH2C6H4NH2CH5C2H2C3H3CH3SC3HC3HCHCNH2CH2SCH2SC4H3C2NC2HCHCHCHCHCH2CH4CH2SH2FeSH2SH3C3HCHSH2C3H6C7H2FeH3C2H2SHCHC6HCH3CNSC2NCHFeC3H5CHCH2C6FeSH2CHCH2CS3FeS2FeSHSHC3SCSC2HFeC2HC6H3CNC9H16S2CH4C2H2CSNC9H13FeSHCHCFeNCHNCH6CHCHC2H2FeHCHSC2H5CSHC4H3CHC2FeS2FeS2FeHFeS3H4CHFeS2NC2HC2HC6H6CSH2CHC2HC2HCHS2H3CHSC2HNHCHCNC8H13CH2C7HCH2C2FeSHCFeH2FeC2H2CHCH3CNHSHCHFeSHCSCS2FeSC2FeSHFeS2FeSFeS3CH4C6H4C2HC6H4CS2CH2SCSC3HCHCH2SHCFeC2H10NH2SHC2HCHNC9H17CFeCHCNC9HCH9SC2HFeCH2Fe2H2C3H3CHCHCHCHS2CSHFeS2FeSFeS3H3CH2FeH4C7H6CHCH6C5HCH2CSHC5HC2FeHC3H4CH2FeNC4HCH4CHCHSNSH3CNCH5CNH10CHSHFeHC4H2CHC2H2SHSC5H3NSCSCH2CFeHSFeHFeHS2HC3HCHC2HCH2CH2SC2HSCH2NH3CH3CHCHCH3
_chemical_formula_sum              "C480 H576 S128 Fe64 N32"
_cell_length_a       52.2705
_cell_length_b       52.6611
_cell_length_c       36.4372
_cell_angle_alpha    87.6686
_cell_angle_beta     88.2182
_cell_angle_gamma    119.016

_space_group_name_H-M_alt    "P 1"
_space_group_IT_number       1

loop_
  _space_group_symop_operation_xyz
  'x, y, z'

loop_
  _atom_site_type_symbol
  _atom_site_label
  _atom_site_symmetry_multiplicity
  _atom_site_fract_x
  _atom_site_fract_y
  _atom_site_fract_z
  _atom_site_occupancy
  C   C1        1.0  0.46952  0.03121  0.39803  1.0000
  C   C2        1.0  0.47034  0.22402  0.48388  1.0000
  H   H1        1.0  0.48321  0.20033  0.44721  1.0000
  H   H2        1.0  0.42164  0.13408  0.43361  1.0000
  S   S1        1.0  0.44325  0.06606  0.40064  1.0000
  C   C3        1.0  0.39922  0.07086  0.48468  1.0000
  C   C4        1.0  0.50394  0.20606  0.49868  1.0000
  H   H3        1.0  0.40752  0.06136  0.46369  1.0000
  C   C5        1.0  0.44336  0.03240  0.40033  1.0000
  S   S2        1.0  0.48327  0.15131  0.39434  1.0000
  C   C6        1.0  0.41462  0.14731  0.50436  1.0000
  Fe  Fe1       1.0  0.48538  0.10940  0.39397  1.0000
  H   H4        1.0  0.45436  0.10397  0.46346  1.0000
  H   H5        1.0  0.45562  0.22592  0.46511  1.0000
  H   H6        1.0  0.49028  0.05117  0.39571  1.0000
  H   H7        1.0  0.40339  0.06365  0.51189  1.0000
  H   H8        1.0  0.39620  0.00689  0.40470  1.0000
  H   H9        1.0  0.37518  0.06079  0.48172  1.0000
  C   C7        1.0  0.48577  0.20940  0.47383  1.0000
  C   C8        1.0  0.44576  0.11440  0.48259  1.0000
  H   H10       1.0  0.45881  0.13826  0.47587  1.0000
  H   H11       1.0  0.38520  0.10355  0.43855  1.0000
  H   H12       1.0  0.41532  0.09948  0.42061  1.0000
  C   C9        1.0  0.40876  0.11043  0.44156  1.0000
  H   H13       1.0  0.45069  0.11023  0.51099  1.0000
  C   C10       1.0  0.40323  0.11670  0.50644  1.0000
  N   N1        1.0  0.41386  0.10311  0.47946  1.0000
  C   C11       1.0  0.41656  0.00622  0.40302  1.0000
  H   H14       1.0  0.50175  0.28498  0.42055  1.0000
  H   H15       1.0  0.43091  0.16104  0.48312  1.0000
  Fe  Fe2       1.0  0.47894  0.29450  0.55903  1.0000
  C   C12       1.0  0.50715  0.21795  0.53306  1.0000
  S   S3        1.0  0.48697  0.30627  0.61823  1.0000
  C   C13       1.0  0.49257  0.23335  0.54259  1.0000
  H   H16       1.0  0.49483  0.24209  0.56942  1.0000
  H   H17       1.0  0.41451  0.18434  0.52760  1.0000
  C   C14       1.0  0.38446  0.14432  0.55781  1.0000
  C   C15       1.0  0.40537  0.16084  0.52970  1.0000
  H   H18       1.0  0.35641  0.10144  0.58266  1.0000
  H   H19       1.0  0.37740  0.15497  0.57740  1.0000
  C   C16       1.0  0.38188  0.10043  0.53550  1.0000
  C   C17       1.0  0.37271  0.11419  0.56069  1.0000
  H   H20       1.0  0.37191  0.07706  0.53943  1.0000
  S   S4        1.0  0.47297  0.33272  0.54193  1.0000
  S   S5        1.0  0.45280  0.25232  0.53191  1.0000
  C   C18       1.0  0.47372  0.23599  0.51832  1.0000
  Fe  Fe3       1.0  0.17499  0.47406  0.38674  1.0000
  S   S6        1.0  0.15592  0.43200  0.42183  1.0000
  S   S7        1.0  0.20717  0.48316  0.33841  1.0000
  Fe  Fe4       1.0  0.14559  0.49825  0.43459  1.0000
  S   S8        1.0  0.12475  0.45914  0.47433  1.0000
  S   S9        1.0  0.13842  0.53640  0.43984  1.0000
  Fe  Fe5       1.0  0.16849  0.46062  0.46950  1.0000
  H   H21       1.0  0.37379  0.54049  0.47528  1.0000
  Fe  Fe6       1.0  0.11358  0.43393  0.42377  1.0000
  S   S10       1.0  0.06881  0.39314  0.42366  1.0000
  S   S11       1.0  0.19031  0.50245  0.43435  1.0000
  S   S12       1.0  0.13168  0.47326  0.38408  1.0000
  S   S13       1.0  0.45189  0.60742  0.44408  1.0000
  Fe  Fe7       1.0  0.31140  0.63113  0.22736  1.0000
  S   S14       1.0  0.33318  0.61811  0.18325  1.0000
  S   S15       1.0  0.26503  0.60784  0.25332  1.0000
  C   C19       1.0  0.44140  0.61800  0.27677  1.0000
  C   C20       1.0  0.46922  0.63266  0.29129  1.0000
  H   H22       1.0  0.42706  0.59523  0.28470  1.0000
  H   H23       1.0  0.47602  0.62117  0.31040  1.0000
  C   C21       1.0  0.45042  0.58702  0.48376  1.0000
  C   C22       1.0  0.42871  0.62552  0.04806  1.0000
  C   C23       1.0  0.29876  0.65224  0.36344  1.0000
  H   H24       1.0  0.34408  0.48531  0.40524  1.0000
  C   C24       1.0  0.22405  0.51843  0.31636  1.0000
  C   C25       1.0  0.21204  0.53684  0.32070  1.0000
  C   C26       1.0  0.22484  0.56415  0.30112  1.0000
  C   C27       1.0  0.25015  0.57360  0.27786  1.0000
  C   C28       1.0  0.26265  0.55553  0.27432  1.0000
  C   C29       1.0  0.24940  0.52787  0.29317  1.0000
  H   H25       1.0  0.19246  0.52972  0.33841  1.0000
  H   H26       1.0  0.21503  0.57801  0.30387  1.0000
  H   H27       1.0  0.28204  0.56256  0.25629  1.0000
  H   H28       1.0  0.25873  0.51368  0.28963  1.0000
  H   H29       1.0  0.31919  0.56188  0.30630  1.0000
  H   H30       1.0  0.15997  0.46541  0.28605  1.0000
  H   H31       1.0  0.23689  0.49065  0.47117  1.0000
  C   C30       1.0  0.03398  0.41434  0.39358  1.0000
  C   C31       1.0  0.03511  0.39128  0.41251  1.0000
  H   H32       1.0  0.21277  0.56897  0.43406  1.0000
  H   H33       1.0  0.05405  0.43432  0.38610  1.0000
  C   C32       1.0  0.13539  0.48747  0.28700  1.0000
  C   C33       1.0  0.27477  0.62544  0.35755  1.0000
  H   H34       1.0  0.42256  0.66684  0.36493  1.0000
  H   H35       1.0  0.22709  0.65280  0.46258  1.0000
  H   H36       1.0  0.08535  0.48835  0.48073  1.0000
  C   C34       1.0  0.06162  0.47724  0.48102  1.0000
  C   C35       1.0  0.21878  0.58521  0.45531  1.0000
  H   H37       1.0  0.21721  0.64768  0.32584  1.0000
  C   C36       1.0  0.13988  0.54422  0.48602  1.0000
  C   C37       1.0  0.27405  0.65470  0.41953  1.0000
  H   H38       1.0  0.07877  0.38460  0.34667  1.0000
  H   H39       1.0  0.14715  0.39231  0.30808  1.0000
  H   H40       1.0  0.37224  0.57847  0.30407  1.0000
  C   C38       1.0  0.19663  0.60867  0.42047  1.0000
  H   H41       1.0  0.07536  0.38171  0.28028  1.0000
  C   C39       1.0  0.09902  0.38805  0.27791  1.0000
  H   H42       1.0  0.45018  0.66766  0.33357  1.0000
  C   C40       1.0  0.10827  0.48595  0.29365  1.0000
  H   H43       1.0  0.11302  0.40799  0.36543  1.0000
  H   H44       1.0  0.10026  0.36752  0.27996  1.0000
  C   C41       1.0  0.49961  0.51054  0.49714  1.0000
  H   H45       1.0  0.49509  0.52741  0.48654  1.0000
  H   H46       1.0  0.29003  0.50773  0.47406  1.0000
  C   C42       1.0  0.13816  0.46240  0.29103  1.0000
  C   C43       1.0  0.49566  0.66638  0.51236  1.0000
  H   H47       1.0  0.32497  0.49275  0.44158  1.0000
  H   H48       1.0  0.31756  0.66180  0.34377  1.0000
  H   H49       1.0  0.10635  0.50552  0.29101  1.0000
  C   C44       1.0  0.04668  0.49306  0.48264  1.0000
  C   C45       1.0  0.42817  0.57972  0.51096  1.0000
  H   H50       1.0  0.39138  0.62788  0.15667  1.0000
  H   H51       1.0  0.34296  0.54264  0.45930  1.0000
  H   H52       1.0  0.25625  0.65364  0.28073  1.0000
  H   H53       1.0  0.39717  0.52477  0.38632  1.0000
  C   C46       1.0  0.44419  0.66923  0.12785  1.0000
  H   H54       1.0  0.20073  0.57519  0.47711  1.0000
  C   C47       1.0  0.43213  0.63261  0.25205  1.0000
  C   C48       1.0  0.35843  0.56489  0.32761  1.0000
  C   C49       1.0  0.11360  0.43487  0.30210  1.0000
  H   H55       1.0  0.15458  0.50830  0.27927  1.0000
  N   N2        1.0  0.11562  0.40781  0.30657  1.0000
  Fe  Fe8       1.0  0.35217  0.66427  0.15913  1.0000
  C   C50       1.0  0.22480  0.63134  0.47179  1.0000
  H   H56       1.0  0.40393  0.52850  0.43443  1.0000
  H   H57       1.0  0.23230  0.59212  0.37665  1.0000
  H   H58       1.0  0.15971  0.42767  0.32450  1.0000
  N   N3        1.0  0.22294  0.61363  0.44017  1.0000
  C   C51       1.0  0.42196  0.67077  0.01575  1.0000
  H   H59       1.0  0.05783  0.43496  0.47651  1.0000
  H   H60       1.0  0.48881  0.58396  0.46775  1.0000
  C   C52       1.0  0.14950  0.53071  0.51172  1.0000
  C   C53       1.0  0.14618  0.41285  0.30347  1.0000
  C   C54       1.0  0.36533  0.54677  0.45078  1.0000
  C   C55       1.0  0.48849  0.66179  0.28009  1.0000
  H   H61       1.0  0.43177  0.61785  0.15674  1.0000
  C   C56       1.0  0.47231  0.57948  0.48934  1.0000
  H   H62       1.0  0.34208  0.62169  0.07481  1.0000
  H   H63       1.0  0.28727  0.53120  0.35981  1.0000
  H   H64       1.0  0.19967  0.62917  0.40644  1.0000
  C   C57       1.0  0.13264  0.56512  0.49692  1.0000
  H   H65       1.0  0.24337  0.63499  0.48899  1.0000
  H   H66       1.0  0.41141  0.58581  0.50689  1.0000
  H   H67       1.0  0.15693  0.42235  0.27574  1.0000
  C   C58       1.0  0.35292  0.53880  0.38747  1.0000
  H   H68       1.0  0.27513  0.61425  0.33335  1.0000
  S   S16       1.0  0.39758  0.61323  0.23306  1.0000
  C   C59       1.0  0.34701  0.49860  0.42934  1.0000
  H   H69       1.0  0.39399  0.56499  0.35371  1.0000
  Fe  Fe9       1.0  0.37212  0.63663  0.21890  1.0000
  H   H70       1.0  0.05901  0.51656  0.48339  1.0000
  C   C60       1.0  0.10279  0.39292  0.34328  1.0000
  C   C61       1.0  0.08372  0.45930  0.30409  1.0000
  C   C62       1.0  0.34705  0.63612  0.05051  1.0000
  H   H71       1.0  0.06648  0.41398  0.31630  1.0000
  N   N4        1.0  0.36515  0.53021  0.41881  1.0000
  C   C63       1.0  0.01553  0.43272  0.47848  1.0000
  C   C64       1.0  0.27494  0.49236  0.49519  1.0000
  C   C65       1.0  0.31061  0.53837  0.35898  1.0000
  H   H72       1.0  0.30781  0.51739  0.41105  1.0000
  H   H73       1.0  0.41132  0.55966  0.40626  1.0000
  C   C66       1.0  0.32259  0.53030  0.38806  1.0000
  H   H74       1.0  0.37946  0.57062  0.44454  1.0000
  C   C67       1.0  0.32850  0.55561  0.32880  1.0000
  H   H75       1.0  0.48650  0.41064  0.50427  1.0000
  C   C68       1.0  0.24911  0.62736  0.41419  1.0000
  C   C69       1.0  0.01608  0.47883  0.48217  1.0000
  N   N5        1.0  0.42410  0.64126  0.11207  1.0000
  C   C70       1.0  0.42555  0.64496  0.07140  1.0000
  H   H76       1.0  0.43109  0.60740  0.05865  1.0000
  H   H77       1.0  0.10769  0.39865  0.24986  1.0000
  C   C71       1.0  0.25030  0.61308  0.38245  1.0000
  C   C72       1.0  0.37063  0.55679  0.35645  1.0000
  C   C73       1.0  0.08621  0.43408  0.30808  1.0000
  C   C74       1.0  0.39564  0.53599  0.41084  1.0000
  H   H78       1.0  0.06265  0.45816  0.30953  1.0000
  H   H79       1.0  0.15566  0.51489  0.50335  1.0000
  H   H80       1.0  0.47342  0.66406  0.51060  1.0000
  H   H81       1.0  0.35697  0.49129  0.45114  1.0000
  H   H82       1.0  0.27528  0.66708  0.44296  1.0000
  H   H83       1.0  0.41610  0.59696  0.11850  1.0000
  S   S17       1.0  0.34848  0.64541  0.26456  1.0000
  Fe  Fe10      1.0  0.49771  0.62947  0.41912  1.0000
  H   H84       1.0  0.19105  0.59226  0.39950  1.0000
  C   C75       1.0  0.43207  0.61924  0.12602  1.0000
  C   C76       1.0  0.24481  0.48279  0.49357  1.0000
  H   H85       1.0  0.44507  0.66648  0.15816  1.0000
  C   C77       1.0  0.42195  0.66757  0.05401  1.0000
  C   C78       1.0  0.23845  0.66713  0.32523  1.0000
  H   H86       1.0  0.20466  0.62039  0.49065  1.0000
  H   H87       1.0  0.49541  0.64836  0.49712  1.0000
  H   H88       1.0  0.23898  0.58759  0.46764  1.0000
  H   H89       1.0  0.38699  0.64840  0.11936  1.0000
  C   C79       1.0  0.29848  0.66678  0.39441  1.0000
  H   H90       1.0  0.45450  0.62468  0.11558  1.0000
  C   C80       1.0  0.39377  0.63183  0.12621  1.0000
  H   H91       1.0  0.12485  0.57534  0.47718  1.0000
  H   H92       1.0  0.17677  0.60000  0.43958  1.0000
  H   H93       1.0  0.37778  0.61133  0.11427  1.0000
  C   C81       1.0  0.04610  0.44718  0.47880  1.0000
  C   C82       1.0  0.45110  0.66192  0.24151  1.0000
  H   H94       1.0  0.10596  0.37374  0.34897  1.0000
  H   H95       1.0  0.28949  0.63571  0.04330  1.0000
  C   C83       1.0  0.35477  0.66529  0.05423  1.0000
  C   C84       1.0  0.28570  0.64378  0.01729  1.0000
  C   C85       1.0  0.26041  0.67040  0.29969  1.0000
  H   H96       1.0  0.28843  0.61321  0.72280  1.0000
  H   H97       1.0  0.47347  0.45494  0.56230  1.0000
  H   H98       1.0  0.32376  0.59479  0.72717  1.0000
  H   H99       1.0  0.09843  0.57636  0.59098  1.0000
  H   H100      1.0  0.46143  0.42387  0.64331  1.0000
  Fe  Fe11      1.0  0.36419  0.44218  0.60820  1.0000
  S   S18       1.0  0.38808  0.47350  0.65110  1.0000
  S   S19       1.0  0.36354  0.39897  0.60220  1.0000
  Fe  Fe12      1.0  0.34340  0.48230  0.57169  1.0000
  S   S20       1.0  0.36662  0.51705  0.61070  1.0000
  N   N6        1.0  0.25702  0.61507  0.92448  1.0000
  Fe  Fe13      1.0  0.40335  0.50696  0.60381  1.0000
  S   S21       1.0  0.45014  0.54047  0.59147  1.0000
  Fe  Fe14      1.0  0.34911  0.48093  0.65452  1.0000
  S   S22       1.0  0.32824  0.48704  0.70635  1.0000
  S   S23       1.0  0.38210  0.47550  0.56061  1.0000
  S   S24       1.0  0.32305  0.44612  0.61604  1.0000
  Fe  Fe15      1.0  0.36874  0.63294  0.80065  1.0000
  C   C86       1.0  0.06616  0.62468  0.64359  1.0000
  S   S25       1.0  0.38924  0.61605  0.75926  1.0000
  C   C87       1.0  0.22630  0.64224  0.72217  1.0000
  H   H101      1.0  0.30736  0.39090  0.70153  1.0000
  Fe  Fe16      1.0  0.31475  0.63993  0.81588  1.0000
  S   S26       1.0  0.10635  0.66779  0.59382  1.0000
  S   S27       1.0  0.32976  0.60999  0.84059  1.0000
  H   H102      1.0  0.20767  0.63104  0.70555  1.0000
  H   H103      1.0  0.24800  0.59163  0.68092  1.0000
  S   S28       1.0  0.15165  0.63740  0.65025  1.0000
  C   C88       1.0  0.06553  0.51899  0.59721  1.0000
  H   H104      1.0  0.23622  0.63712  0.89784  1.0000
  Fe  Fe17      1.0  0.16685  0.61927  0.60511  1.0000
  S   S29       1.0  0.15191  0.57152  0.60388  1.0000
  H   H105      1.0  0.50171  0.44212  0.59542  1.0000
  H   H106      1.0  0.48980  0.56026  0.52752  1.0000
  S   S30       1.0  0.16044  0.64442  0.55876  1.0000
  C   C89       1.0  0.38013  0.45474  0.79374  1.0000
  C   C90       1.0  0.23504  0.62623  0.74551  1.0000
  C   C91       1.0  0.22504  0.46324  0.52109  1.0000
  H   H107      1.0  0.38277  0.38011  0.71578  1.0000
  C   C92       1.0  0.37157  0.65832  0.67817  1.0000
  S   S31       1.0  0.26831  0.61974  0.79801  1.0000
  H   H108      1.0  0.31313  0.55072  0.60496  1.0000
  C   C93       1.0  0.45032  0.55829  0.55003  1.0000
  H   H109      1.0  0.12981  0.58901  0.54123  1.0000
  H   H110      1.0  0.37495  0.35320  0.58079  1.0000
  C   C94       1.0  0.35078  0.43405  0.74169  1.0000
  C   C95       1.0  0.35198  0.64382  0.98298  1.0000
  C   C96       1.0  0.25897  0.64050  0.76752  1.0000
  H   H111      1.0  0.42489  0.66595  0.67384  1.0000
  H   H112      1.0  0.33753  0.43659  0.72124  1.0000
  C   C97       1.0  0.34567  0.52255  0.72222  1.0000
  C   C98       1.0  0.33246  0.52955  0.75140  1.0000
  C   C99       1.0  0.34553  0.55811  0.76329  1.0000
  C   C100      1.0  0.37202  0.57973  0.74619  1.0000
  C   C101      1.0  0.38530  0.57256  0.71737  1.0000
  C   C102      1.0  0.37222  0.54415  0.70544  1.0000
  H   H113      1.0  0.31195  0.51295  0.76465  1.0000
  H   H114      1.0  0.33517  0.56336  0.78566  1.0000
  H   H115      1.0  0.40594  0.58905  0.70429  1.0000
  H   H116      1.0  0.38296  0.53896  0.68351  1.0000
  C   C103      1.0  0.14615  0.56028  0.55888  1.0000
  S   S32       1.0  0.21436  0.65142  0.60802  1.0000
  S   S33       1.0  0.35170  0.66007  0.77340  1.0000
  C   C104      1.0  0.01035  0.52015  0.57434  1.0000
  H   H117      1.0  0.43003  0.61333  0.99241  1.0000
  H   H118      1.0  0.16027  0.52842  0.56796  1.0000
  H   H119      1.0  0.24182  0.55190  0.64409  1.0000
  H   H120      1.0  0.35814  0.47405  0.76446  1.0000
  H   H121      1.0  0.30793  0.35850  0.75354  1.0000
  C   C105      1.0  0.26579  0.46264  0.55156  1.0000
  C   C106      1.0  0.42801  0.56513  0.54397  1.0000
  C   C107      1.0  0.28552  0.48221  0.52400  1.0000
  C   C108      1.0  0.36978  0.38616  0.69738  1.0000
  H   H122      1.0  0.27368  0.45455  0.57376  1.0000
  H   H123      1.0  0.07801  0.58442  0.62454  1.0000
  C   C109      1.0  0.41766  0.36349  0.59907  1.0000
  C   C110      1.0  0.07112  0.63918  0.60893  1.0000
  C   C111      1.0  0.04725  0.63199  0.58682  1.0000
  H   H124      1.0  0.08421  0.63054  0.66127  1.0000
  H   H125      1.0  0.05079  0.64350  0.56026  1.0000
  C   C112      1.0  0.44191  0.38303  0.61744  1.0000
  C   C113      1.0  0.37436  0.40964  0.77161  1.0000
  C   C114      1.0  0.39416  0.36904  0.59362  1.0000
  C   C115      1.0  0.39511  0.39463  0.60522  1.0000
  C   C116      1.0  0.42008  0.41489  0.62181  1.0000
  C   C117      1.0  0.44296  0.40874  0.62872  1.0000
  C   C118      1.0  0.03898  0.52910  0.64485  1.0000
  H   H126      1.0  0.21322  0.59677  0.94883  1.0000
  H   H127      1.0  0.42122  0.43473  0.63077  1.0000
  S   S34       1.0  0.32354  0.49470  0.52445  1.0000
  H   H128      1.0  0.09609  0.56439  0.63764  1.0000
  H   H129      1.0  0.31919  0.37348  0.66913  1.0000
  H   H130      1.0  0.31882  0.55494  0.69085  1.0000
  C   C119      1.0  0.03773  0.60296  0.65578  1.0000
  N   N7        1.0  0.50324  0.66531  0.55119  1.0000
  S   S35       1.0  0.35095  0.62926  0.93922  1.0000
  H   H131      1.0  0.41115  0.56011  0.56519  1.0000
  C   C120      1.0  0.49070  0.41387  0.53394  1.0000
  N   N8        1.0  0.27642  0.52399  0.64306  1.0000
  C   C121      1.0  0.26781  0.49890  0.66992  1.0000
  C   C122      1.0  0.25362  0.51505  0.61560  1.0000
  C   C123      1.0  0.30434  0.53041  0.62306  1.0000
  C   C124      1.0  0.28018  0.54943  0.66313  1.0000
  C   C125      1.0  0.26035  0.56070  0.66118  1.0000
  C   C126      1.0  0.30331  0.56270  0.68723  1.0000
  C   C127      1.0  0.26364  0.58366  0.68224  1.0000
  C   C128      1.0  0.30634  0.58557  0.70820  1.0000
  C   C129      1.0  0.28648  0.59596  0.70581  1.0000
  H   H132      1.0  0.24674  0.49297  0.68530  1.0000
  H   H133      1.0  0.26528  0.47933  0.65621  1.0000
  H   H134      1.0  0.28446  0.50362  0.69070  1.0000
  H   H135      1.0  0.23133  0.50709  0.62882  1.0000
  H   H136      1.0  0.25208  0.49664  0.60004  1.0000
  H   H137      1.0  0.25850  0.53317  0.59488  1.0000
  H   H138      1.0  0.32152  0.53268  0.64199  1.0000
  H   H139      1.0  0.30152  0.51254  0.60531  1.0000
  C   C130      1.0  0.03007  0.57256  0.53275  1.0000
  H   H140      1.0  0.42347  0.65310  0.96411  1.0000
  C   C131      1.0  0.38600  0.43162  0.79633  1.0000
  H   H141      1.0  0.48744  0.63194  0.59622  1.0000
  H   H142      1.0  0.08003  0.51641  0.61712  1.0000
  C   C132      1.0  0.25130  0.62842  0.89120  1.0000
  C   C133      1.0  0.26961  0.63534  0.95413  1.0000
  C   C134      1.0  0.03836  0.54366  0.58083  1.0000
  H   H143      1.0  0.22037  0.43802  0.57140  1.0000
  C   C135      1.0  0.48222  0.63598  0.56800  1.0000
  H   H144      1.0  0.37561  0.64464  0.69887  1.0000
  C   C136      1.0  0.04794  0.56994  0.55877  1.0000
  Fe  Fe18      1.0  0.35464  0.64597  0.87869  1.0000
  H   H145      1.0  0.21803  0.57471  0.91575  1.0000
  H   H146      1.0  0.22304  0.60269  0.74673  1.0000
  H   H147      1.0  0.07822  0.52645  0.57013  1.0000
  H   H148      1.0  0.26990  0.60308  0.99355  1.0000
  H   H149      1.0  0.38502  0.40783  0.68350  1.0000
  C   C137      1.0  0.27760  0.60464  0.91307  1.0000
  C   C138      1.0  0.15238  0.53857  0.54825  1.0000
  H   H150      1.0  0.37973  0.39229  0.77454  1.0000
  H   H151      1.0  0.34023  0.60307  0.01274  1.0000
  C   C139      1.0  0.32625  0.35836  0.73727  1.0000
  C   C140      1.0  0.34584  0.62556  0.01517  1.0000
  H   H152      1.0  0.34018  0.41166  0.67182  1.0000
  Fe  Fe19      1.0  0.48520  0.34709  0.59891  1.0000
  H   H153      1.0  0.02064  0.50652  0.64431  1.0000
  H   H154      1.0  0.05262  0.52876  0.66755  1.0000
  H   H155      1.0  0.03410  0.59217  0.68286  1.0000
  S   S36       1.0  0.47071  0.37582  0.62855  1.0000
  H   H156      1.0  0.02936  0.54311  0.65267  1.0000
  H   H157      1.0  0.41646  0.34355  0.59039  1.0000
  C   C141      1.0  0.22872  0.58964  0.93801  1.0000
  H   H158      1.0  0.29950  0.62327  0.90451  1.0000
  H   H159      1.0  0.45942  0.63247  0.56931  1.0000
  N   N9        1.0  0.05634  0.54009  0.60912  1.0000
  H   H160      1.0  0.48234  0.61860  0.55182  1.0000
  C   C142      1.0  0.13581  0.57315  0.53325  1.0000
  S   S37       1.0  0.18722  0.45174  0.52073  1.0000
  C   C143      1.0  0.35646  0.41021  0.74339  1.0000
  C   C144      1.0  0.27802  0.66541  0.94968  1.0000
  H   H161      1.0  0.06886  0.58907  0.56158  1.0000
  H   H162      1.0  0.26984  0.59048  0.88944  1.0000
  C   C145      1.0  0.48226  0.49146  0.52643  1.0000
  H   H163      1.0  0.24091  0.61237  0.86995  1.0000
  H   H164      1.0  0.23138  0.57623  0.96032  1.0000
  C   C146      1.0  0.08326  0.56753  0.61577  1.0000
  C   C147      1.0  0.01395  0.59538  0.63344  1.0000
  H   H165      1.0  0.39981  0.43084  0.81745  1.0000
  H   H166      1.0  0.36409  0.64541  0.65350  1.0000
  C   C148      1.0  0.36255  0.45591  0.76654  1.0000
  H   H167      1.0  0.04655  0.49706  0.59426  1.0000
  H   H168      1.0  0.31652  0.34052  0.71806  1.0000
  C   C149      1.0  0.32707  0.39100  0.68892  1.0000
  C   C150      1.0  0.23562  0.45326  0.55012  1.0000
  C   C151      1.0  0.42471  0.65118  0.99369  1.0000
  C   C152      1.0  0.27435  0.62525  0.98864  1.0000
  H   H169      1.0  0.28122  0.59210  0.93568  1.0000
  H   H170      1.0  0.49376  0.39564  0.54526  1.0000
  N   N10       1.0  0.34495  0.38695  0.71712  1.0000
  H   H171      1.0  0.38931  0.47190  0.81272  1.0000
  H   H172      1.0  0.47040  0.41127  0.54825  1.0000
  C   C153      1.0  0.42820  0.62868  0.00978  1.0000
  H   H173      1.0  0.27193  0.64618  0.87741  1.0000
  H   H174      1.0  0.33872  0.35229  0.75660  1.0000
  Fe  Fe20      1.0  0.14746  0.66445  0.60388  1.0000
  H   H175      1.0  0.36224  0.37012  0.67569  1.0000
  C   C154      1.0  0.47261  0.56563  0.52283  1.0000
  C   C155      1.0  0.01883  0.60994  0.59880  1.0000
  H   H176      1.0  0.46435  0.49374  0.53885  1.0000
  S   S38       1.0  0.39544  0.66662  0.84008  1.0000
  H   H177      1.0  0.35336  0.66111  0.69037  1.0000
  C   C156      1.0  0.27427  0.67092  0.76590  1.0000
  C   C157      1.0  0.48782  0.46943  0.53982  1.0000
  C   C158      1.0  0.03231  0.66296  0.67414  1.0000
  H   H178      1.0  0.04428  0.65865  0.69504  1.0000
  H   H179      1.0  0.03753  0.59303  0.51687  1.0000
  C   C159      1.0  0.25836  0.78019  0.49924  1.0000
  Fe  Fe21      1.0  0.36593  0.68960  0.23586  1.0000
  H   H180      1.0  0.44593  0.73193  0.30004  1.0000
  S   S39       1.0  0.38584  0.72483  0.27637  1.0000
  H   H181      1.0  0.47798  0.71894  0.41297  1.0000
  H   H182      1.0  0.30698  0.75799  0.41722  1.0000
  H   H183      1.0  0.24595  0.71277  0.41856  1.0000
  H   H184      1.0  0.29723  0.72093  0.41207  1.0000
  H   H185      1.0  0.49523  0.74897  0.32753  1.0000
  H   H186      1.0  0.26945  0.76371  0.33367  1.0000
  Fe  Fe22      1.0  0.40393  0.89853  0.40040  1.0000
  S   S40       1.0  0.41516  0.86870  0.36921  1.0000
  S   S41       1.0  0.44263  0.94444  0.40318  1.0000
  Fe  Fe23      1.0  0.34506  0.84754  0.43048  1.0000
  S   S42       1.0  0.35227  0.81470  0.40188  1.0000
  S   S43       1.0  0.30361  0.83091  0.46709  1.0000
  Fe  Fe24      1.0  0.39769  0.83887  0.41986  1.0000
  S   S44       1.0  0.41942  0.81341  0.43846  1.0000
  Fe  Fe25      1.0  0.36857  0.84664  0.35335  1.0000
  S   S45       1.0  0.35375  0.82538  0.29964  1.0000
  S   S46       1.0  0.38977  0.86973  0.45270  1.0000
  S   S47       1.0  0.35801  0.87870  0.38017  1.0000
  C   C160      1.0  0.28736  0.79430  0.48428  1.0000
  H   H187      1.0  0.41795  0.68236  0.06985  1.0000
  H   H188      1.0  0.32328  0.74930  0.37977  1.0000
  C   C161      1.0  0.37604  0.75227  0.28189  1.0000
  C   C162      1.0  0.35844  0.75711  0.25750  1.0000
  C   C163      1.0  0.35179  0.77972  0.26282  1.0000
  C   C164      1.0  0.36251  0.79739  0.29266  1.0000
  C   C165      1.0  0.37968  0.79217  0.31725  1.0000
  C   C166      1.0  0.38654  0.76989  0.31172  1.0000
  H   H189      1.0  0.35035  0.74378  0.23426  1.0000
  H   H190      1.0  0.33846  0.78362  0.24370  1.0000
  H   H191      1.0  0.38823  0.80570  0.34018  1.0000
  H   H192      1.0  0.40040  0.76664  0.33050  1.0000
  N   N11       1.0  0.27789  0.73806  0.37413  1.0000
  H   H193      1.0  0.25867  0.75086  0.41818  1.0000
  H   H194      1.0  0.41573  0.69672  0.31561  1.0000
  C   C167      1.0  0.40813  0.82414  0.50836  1.0000
  H   H195      1.0  0.41717  0.73358  0.34815  1.0000
  H   H196      1.0  0.31486  0.73590  0.32064  1.0000
  H   H197      1.0  0.43419  0.76277  0.45632  1.0000
  H   H198      1.0  0.49166  0.93426  0.40534  1.0000
  H   H199      1.0  0.47853  0.89912  0.38866  1.0000
  C   C168      1.0  0.36085  0.68353  0.02204  1.0000
  C   C169      1.0  0.28885  0.74912  0.49387  1.0000
  H   H200      1.0  0.32555  0.78984  0.47287  1.0000
  H   H201      1.0  0.23376  0.73039  0.38482  1.0000
  C   C170      1.0  0.24367  0.68882  0.34960  1.0000
  C   C171      1.0  0.41586  0.97908  0.40335  1.0000
  C   C172      1.0  0.44202  0.97790  0.40115  1.0000
  H   H202      1.0  0.30080  0.73720  0.49177  1.0000
  H   H203      1.0  0.39510  0.95910  0.40545  1.0000
  H   H204      1.0  0.40930  0.75801  0.39874  1.0000
  C   C173      1.0  0.27134  0.71458  0.34888  1.0000
  H   H205      1.0  0.30491  0.69769  0.27867  1.0000
  H   H206      1.0  0.48269  0.86154  0.42142  1.0000
  H   H207      1.0  0.49651  0.86542  0.46587  1.0000
  S   S48       1.0  0.39251  0.68180  0.19243  1.0000
  C   C174      1.0  0.42893  0.73502  0.37253  1.0000
  C   C175      1.0  0.46268  0.72695  0.40889  1.0000
  C   C176      1.0  0.44879  0.72386  0.37516  1.0000
  H   H208      1.0  0.38940  0.82500  0.49810  1.0000
  C   C177      1.0  0.46636  0.89424  0.46078  1.0000
  C   C178      1.0  0.25284  0.73253  0.39989  1.0000
  C   C179      1.0  0.44000  0.70951  0.31078  1.0000
  H   H209      1.0  0.46868  0.74353  0.46310  1.0000
  C   C180      1.0  0.28666  0.76583  0.35249  1.0000
  H   H210      1.0  0.22567  0.68502  0.36846  1.0000
  C   C181      1.0  0.30242  0.74162  0.39663  1.0000
  N   N12       1.0  0.45533  0.70979  0.34458  1.0000
  H   H211      1.0  0.44867  0.87805  0.44466  1.0000
  H   H212      1.0  0.46224  0.91299  0.46323  1.0000
  C   C182      1.0  0.30282  0.77887  0.48276  1.0000
  H   H213      1.0  0.30721  0.77331  0.33518  1.0000
  H   H214      1.0  0.31741  0.68753  0.39886  1.0000
  S   S49       1.0  0.35750  0.68030  0.09803  1.0000
  C   C183      1.0  0.29326  0.71701  0.32272  1.0000
  H   H215      1.0  0.46197  0.80904  0.48138  1.0000
  H   H216      1.0  0.29089  0.78395  0.37047  1.0000
  S   S50       1.0  0.32733  0.67615  0.20101  1.0000
  C   C184      1.0  0.25961  0.73482  0.50778  1.0000
  C   C185      1.0  0.42393  0.74892  0.40159  1.0000
  C   C186      1.0  0.49599  0.91554  0.40492  1.0000
  C   C187      1.0  0.48729  0.72545  0.33455  1.0000
  H   H217      1.0  0.50045  0.72378  0.35693  1.0000
  H   H218      1.0  0.46351  0.88356  0.48870  1.0000
  H   H219      1.0  0.49419  0.69871  0.24583  1.0000
  C   C188      1.0  0.42523  0.81693  0.48528  1.0000
  C   C189      1.0  0.47939  0.67624  0.25483  1.0000
  N   N13       1.0  0.49562  0.90358  0.44271  1.0000
  C   C190      1.0  0.43810  0.75178  0.43410  1.0000
  C   C191      1.0  0.28779  0.69525  0.29852  1.0000
  H   H220      1.0  0.44566  0.69935  0.28808  1.0000
  C   C192      1.0  0.44858  0.81450  0.49909  1.0000
  H   H221      1.0  0.36681  0.70612  0.02445  1.0000
  C   C193      1.0  0.45741  0.74081  0.43782  1.0000
  H   H222      1.0  0.49290  0.71643  0.31040  1.0000
  C   C194      1.0  0.49931  0.87753  0.43904  1.0000
  H   H223      1.0  0.47867  0.98352  0.46758  1.0000
  C   C195      1.0  0.49487  0.99162  0.48823  1.0000
  H   H224      1.0  0.44421  0.67347  0.22262  1.0000
  C   C196      1.0  0.24455  0.75054  0.51124  1.0000
  H   H225      1.0  0.24636  0.79210  0.50089  1.0000
  H   H226      1.0  0.45867  0.67740  0.37960  1.0000
  C   C197      1.0  0.44630  0.67915  0.35628  1.0000
  H   H227      1.0  0.43713  0.68591  0.12378  1.0000
  H   H228      1.0  0.30284  0.68738  0.03432  1.0000
  H   H229      1.0  0.48917  0.00344  0.39648  1.0000
  H   H230      1.0  0.50744  0.89411  0.51329  1.0000
  C   C198      1.0  0.46882  0.00411  0.39846  1.0000
  H   H231      1.0  0.46689  0.67842  0.11540  1.0000
  H   H232      1.0  0.32023  0.77783  0.56335  1.0000
  S   S51       1.0  0.45135  0.84048  0.60187  1.0000
  H   H233      1.0  0.28742  0.78021  0.56878  1.0000
  H   H234      1.0  0.29331  0.72472  0.67530  1.0000
  Fe  Fe26      1.0  0.37577  0.69237  0.81475  1.0000
  S   S52       1.0  0.39930  0.73892  0.79066  1.0000
  H   H235      1.0  0.31870  0.80462  0.59173  1.0000
  H   H236      1.0  0.38466  0.75841  0.57070  1.0000
  S   S53       1.0  0.19385  0.70161  0.60630  1.0000
  H   H237      1.0  0.26850  0.75111  0.66535  1.0000
  H   H238      1.0  0.07153  0.69475  0.64347  1.0000
  H   H239      1.0  0.29124  0.72468  0.58452  1.0000
  C   C199      1.0  0.50783  0.86314  0.75759  1.0000
  C   C200      1.0  0.45587  0.82082  0.53534  1.0000
  C   C201      1.0  0.26495  0.68690  0.74347  1.0000
  H   H240      1.0  0.36403  0.68725  0.96234  1.0000
  C   C202      1.0  0.35106  0.78227  0.62758  1.0000
  H   H241      1.0  0.35774  0.79871  0.60524  1.0000
  S   S54       1.0  0.22923  0.69341  0.69472  1.0000
  H   H242      1.0  0.33305  0.72620  0.71018  1.0000
  H   H243      1.0  0.48479  0.82021  0.78466  1.0000
  C   C203      1.0  0.41371  0.75299  0.60656  1.0000
  C   C204      1.0  0.48629  0.77274  0.72277  1.0000
  C   C205      1.0  0.43990  0.82964  0.55793  1.0000
  H   H244      1.0  0.49195  0.74080  0.75509  1.0000
  H   H245      1.0  0.44316  0.70119  0.65051  1.0000
  H   H246      1.0  0.26004  0.73028  0.58680  1.0000
  H   H247      1.0  0.34773  0.67662  0.63221  1.0000
  H   H248      1.0  0.29264  0.68212  0.78292  1.0000
  H   H249      1.0  0.29133  0.78902  0.65249  1.0000
  C   C206      1.0  0.36368  0.71626  0.60017  1.0000
  C   C207      1.0  0.47783  0.75011  0.75007  1.0000
  C   C208      1.0  0.45113  0.73944  0.77101  1.0000
  C   C209      1.0  0.43302  0.75176  0.76521  1.0000
  C   C210      1.0  0.44160  0.77451  0.73805  1.0000
  C   C211      1.0  0.46789  0.78466  0.71650  1.0000
  C   C212      1.0  0.50770  0.68895  0.61111  1.0000
  H   H250      1.0  0.44474  0.72193  0.79192  1.0000
  H   H251      1.0  0.42783  0.78429  0.73359  1.0000
  Fe  Fe27      1.0  0.49442  0.84146  0.60557  1.0000
  H   H252      1.0  0.22198  0.73968  0.52205  1.0000
  H   H253      1.0  0.29628  0.70674  0.97443  1.0000
  H   H254      1.0  0.27618  0.71039  0.74348  1.0000
  C   C213      1.0  0.41555  0.83064  0.54477  1.0000
  C   C214      1.0  0.31548  0.74096  0.66655  1.0000
  H   H255      1.0  0.25955  0.76707  0.62735  1.0000
  H   H256      1.0  0.26737  0.71404  0.62554  1.0000
  S   S55       1.0  0.49454  0.79919  0.60570  1.0000
  H   H257      1.0  0.42938  0.72120  0.70088  1.0000
  C   C215      1.0  0.37349  0.78294  0.64825  1.0000
  H   H258      1.0  0.43835  0.74275  0.64383  1.0000
  C   C216      1.0  0.33809  0.74167  0.68682  1.0000
  C   C217      1.0  0.30637  0.78175  0.58368  1.0000
  C   C218      1.0  0.32121  0.76118  0.63624  1.0000
  C   C219      1.0  0.27821  0.73114  0.60278  1.0000
  C   C220      1.0  0.42159  0.68102  0.65459  1.0000
  C   C221      1.0  0.50374  0.73264  0.61566  1.0000
  H   H259      1.0  0.04481  0.70373  0.59446  1.0000
  C   C222      1.0  0.36704  0.76265  0.67770  1.0000
  H   H260      1.0  0.40301  0.83723  0.56227  1.0000
  H   H261      1.0  0.43160  0.77475  0.59946  1.0000
  H   H262      1.0  0.41867  0.68791  0.00318  1.0000
  C   C223      1.0  0.50558  0.83731  0.77244  1.0000
  N   N14       1.0  0.29668  0.76052  0.61615  1.0000
  S   S56       1.0  0.24237  0.69716  0.51927  1.0000
  C   C224      1.0  0.27828  0.76726  0.64138  1.0000
  C   C225      1.0  0.24091  0.67264  0.72158  1.0000
  N   N15       1.0  0.39829  0.68686  0.66931  1.0000
  C   C226      1.0  0.40760  0.70135  0.70424  1.0000
  H   H263      1.0  0.48867  0.86607  0.75847  1.0000
  Fe  Fe28      1.0  0.20679  0.67855  0.56537  1.0000
  C   C227      1.0  0.39390  0.70612  0.64245  1.0000
  C   C228      1.0  0.41721  0.73450  0.63209  1.0000
  C   C229      1.0  0.36684  0.69757  0.62580  1.0000
  H   H264      1.0  0.47424  0.80219  0.69566  1.0000
  H   H265      1.0  0.38450  0.76336  0.69371  1.0000
  H   H266      1.0  0.47430  0.81938  0.54533  1.0000
  H   H267      1.0  0.39174  0.70798  0.71530  1.0000
  H   H268      1.0  0.40967  0.68700  0.72596  1.0000
  C   C230      1.0  0.38712  0.74382  0.59040  1.0000
  H   H269      1.0  0.34285  0.70942  0.58795  1.0000
  C   C231      1.0  0.35927  0.67287  0.98668  1.0000
  H   H270      1.0  0.39610  0.79939  0.64141  1.0000
  H   H271      1.0  0.27620  0.67536  0.92412  1.0000
  C   C232      1.0  0.28967  0.68382  0.97845  1.0000
  C   C233      1.0  0.50826  0.71091  0.63201  1.0000
  C   C234      1.0  0.29332  0.67298  0.01224  1.0000
  C   C235      1.0  0.49834  0.73236  0.57845  1.0000
  C   C236      1.0  0.03262  0.68825  0.61739  1.0000
  C   C237      1.0  0.04774  0.68336  0.64510  1.0000
  Fe  Fe29      1.0  0.19907  0.67235  0.64887  1.0000
  S   S57       1.0  0.33683  0.67446  0.85593  1.0000
  H   H272      1.0  0.49552  0.74972  0.56557  1.0000
  H   H273      1.0  0.50498  0.75003  0.63180  1.0000
  C   C238      1.0  0.50245  0.68808  0.57301  1.0000
  H   H274      1.0  0.49460  0.71243  0.52831  1.0000
  C   C239      1.0  0.49781  0.71057  0.55723  1.0000
  H   H275      1.0  0.41604  0.67104  0.62762  1.0000
  H   H276      1.0  0.47894  0.94935  0.51581  1.0000
  C   C240      1.0  0.49495  0.97227  0.51538  1.0000
  S   S58       1.0  0.55518  0.18536  0.39151  1.0000
  S   S59       1.0  0.52642  0.20050  0.30473  1.0000
  S   S60       1.0  0.59180  0.13672  0.39534  1.0000
  Fe  Fe30      1.0  0.85578  0.29055  0.44103  1.0000
  S   S61       1.0  0.85076  0.24832  0.46572  1.0000
  S   S62       1.0  0.87167  0.30406  0.38161  1.0000
  Fe  Fe31      1.0  0.67102  0.29943  0.19615  1.0000
  S   S63       1.0  0.64688  0.25098  0.21023  1.0000
  H   H277      1.0  0.56622  0.17764  0.29174  1.0000
  S   S64       1.0  0.71072  0.32022  0.15641  1.0000
  H   H278      1.0  0.51397  0.03498  0.46574  1.0000
  C   C241      1.0  0.51536  0.02130  0.48764  1.0000
  C   C242      1.0  0.60320  0.23072  0.10568  1.0000
  C   C243      1.0  0.60952  0.27893  0.10117  1.0000
  S   S65       1.0  0.51739  0.12214  0.43816  1.0000
  C   C244      1.0  0.76292  0.32192  0.25933  1.0000
  S   S66       1.0  0.51966  0.12517  0.34704  1.0000
  C   C245      1.0  0.55068  0.27833  0.33680  1.0000
  C   C246      1.0  0.60475  0.17375  0.49239  1.0000
  H   H279      1.0  0.62436  0.30247  0.09317  1.0000
  Fe  Fe32      1.0  0.83562  0.31583  0.37936  1.0000
  C   C247      1.0  0.60578  0.14950  0.43769  1.0000
  C   C248      1.0  0.62660  0.26082  0.04920  1.0000
  H   H280      1.0  0.63625  0.13301  0.43630  1.0000
  C   C249      1.0  0.55995  0.21441  0.27865  1.0000
  C   C250      1.0  0.57147  0.24147  0.25893  1.0000
  C   C251      1.0  0.59848  0.25322  0.23856  1.0000
  C   C252      1.0  0.61344  0.23731  0.23647  1.0000
  C   C253      1.0  0.60152  0.20989  0.25534  1.0000
  C   C254      1.0  0.57519  0.19874  0.27707  1.0000
  H   H281      1.0  0.55948  0.25338  0.25946  1.0000
  H   H282      1.0  0.60736  0.27429  0.22394  1.0000
  H   H283      1.0  0.61265  0.19721  0.25314  1.0000
  C   C255      1.0  0.76892  0.30517  0.28513  1.0000
  N   N16       1.0  0.66345  0.23083  0.33972  1.0000
  C   C256      1.0  0.67834  0.25021  0.30616  1.0000
  C   C257      1.0  0.65316  0.20044  0.32992  1.0000
  C   C258      1.0  0.63751  0.23407  0.34998  1.0000
  C   C259      1.0  0.68253  0.23718  0.37118  1.0000
  C   C260      1.0  0.71268  0.25870  0.36871  1.0000
  C   C261      1.0  0.67112  0.22128  0.40564  1.0000
  C   C262      1.0  0.73008  0.26375  0.39891  1.0000
  C   C263      1.0  0.68865  0.22665  0.43572  1.0000
  C   C264      1.0  0.71812  0.24776  0.43231  1.0000
  H   H284      1.0  0.69717  0.24780  0.29545  1.0000
  H   H285      1.0  0.66332  0.24506  0.28323  1.0000
  H   H286      1.0  0.68618  0.27348  0.31124  1.0000
  H   H287      1.0  0.67191  0.19682  0.32261  1.0000
  H   H288      1.0  0.63898  0.19488  0.30606  1.0000
  H   H289      1.0  0.63975  0.18427  0.35277  1.0000
  H   H290      1.0  0.64425  0.25605  0.35982  1.0000
  H   H291      1.0  0.62358  0.23113  0.32623  1.0000
  H   H292      1.0  0.62284  0.21760  0.37186  1.0000
  H   H293      1.0  0.72347  0.27206  0.34386  1.0000
  H   H294      1.0  0.64846  0.20451  0.40952  1.0000
  H   H295      1.0  0.75304  0.28035  0.39634  1.0000
  H   H296      1.0  0.61293  0.21626  0.10225  1.0000
  H   H297      1.0  0.60558  0.27739  0.13161  1.0000
  H   H298      1.0  0.54167  0.28836  0.48200  1.0000
  H   H299      1.0  0.84177  0.19468  0.49663  1.0000
  S   S67       1.0  0.79994  0.29628  0.33862  1.0000
  S   S68       1.0  0.52314  0.18732  0.48821  1.0000
  C   C265      1.0  0.79354  0.31828  0.30635  1.0000
  H   H300      1.0  0.74394  0.31159  0.24307  1.0000
  H   H301      1.0  0.56959  0.28776  0.45216  1.0000
  H   H302      1.0  0.55759  0.07791  0.45899  1.0000
  H   H303      1.0  0.58166  0.29910  0.29034  1.0000
  C   C266      1.0  0.55756  0.30770  0.39014  1.0000
  C   C267      1.0  0.62758  0.14449  0.45189  1.0000
  H   H304      1.0  0.60318  0.25531  0.51241  1.0000
  H   H305      1.0  0.57756  0.16798  0.44762  1.0000
  C   C268      1.0  0.59453  0.16422  0.45795  1.0000
  S   S69       1.0  0.81849  0.29967  0.43778  1.0000
  N   N17       1.0  0.78610  0.20622  0.38442  1.0000
  C   C269      1.0  0.77831  0.20332  0.34540  1.0000
  C   C270      1.0  0.79583  0.23653  0.39371  1.0000
  C   C271      1.0  0.81148  0.20099  0.38763  1.0000
  C   C272      1.0  0.76028  0.18625  0.40889  1.0000
  C   C273      1.0  0.73387  0.18769  0.40774  1.0000
  C   C274      1.0  0.76070  0.16570  0.43512  1.0000
  C   C275      1.0  0.70939  0.16953  0.43108  1.0000
  C   C276      1.0  0.73603  0.14760  0.45823  1.0000
  C   C277      1.0  0.71049  0.14955  0.45631  1.0000
  H   H306      1.0  0.76209  0.21061  0.33940  1.0000
  H   H307      1.0  0.79777  0.21713  0.32633  1.0000
  H   H308      1.0  0.76908  0.18036  0.33789  1.0000
  H   H309      1.0  0.81543  0.25234  0.37623  1.0000
  H   H310      1.0  0.80161  0.23949  0.42291  1.0000
  H   H311      1.0  0.77880  0.24308  0.38965  1.0000
  H   H312      1.0  0.81967  0.20450  0.41584  1.0000
  H   H313      1.0  0.80580  0.17855  0.38069  1.0000
  H   H314      1.0  0.83055  0.21642  0.36900  1.0000
  H   H315      1.0  0.73213  0.20324  0.38916  1.0000
  H   H316      1.0  0.77997  0.16356  0.43910  1.0000
  H   H317      1.0  0.68958  0.17120  0.42987  1.0000
  H   H318      1.0  0.73702  0.13249  0.47861  1.0000
  Fe  Fe33      1.0  0.55150  0.14124  0.39155  1.0000
  S   S70       1.0  0.65005  0.32423  0.17244  1.0000
  H   H319      1.0  0.64949  0.27247  0.13628  1.0000
  C   C278      1.0  0.63693  0.24289  0.03374  1.0000
  H   H320      1.0  0.66666  0.29493  0.09487  1.0000
  C   C279      1.0  0.65151  0.27224  0.10585  1.0000
  Fe  Fe34      1.0  0.52043  0.16809  0.35098  1.0000
  N   N18       1.0  0.62263  0.26078  0.08965  1.0000
  C   C280      1.0  0.82219  0.19598  0.50375  1.0000
  H   H321      1.0  0.73172  0.25182  0.45562  1.0000
  N   N19       1.0  0.54832  0.31008  0.42813  1.0000
  C   C281      1.0  0.54199  0.28137  0.37230  1.0000
  H   H322      1.0  0.59898  0.23032  0.13599  1.0000
  H   H323      1.0  0.67933  0.21433  0.46185  1.0000
  H   H324      1.0  0.66233  0.25902  0.10013  1.0000
  H   H325      1.0  0.61497  0.29453  0.03318  1.0000
  H   H326      1.0  0.58168  0.22069  0.09286  1.0000
  H   H327      1.0  0.75464  0.28191  0.28829  1.0000
  C   C282      1.0  0.62153  0.27916  0.02416  1.0000
  H   H328      1.0  0.53855  0.25792  0.32383  1.0000
  C   C283      1.0  0.63766  0.15381  0.48670  1.0000
  H   H329      1.0  0.58798  0.27192  0.08912  1.0000
  C   C284      1.0  0.57488  0.30142  0.31787  1.0000
  C   C285      1.0  0.54784  0.28678  0.45300  1.0000
  H   H330      1.0  0.69172  0.13575  0.47483  1.0000
  H   H331      1.0  0.64223  0.22914  0.05102  1.0000
  Fe  Fe35      1.0  0.51837  0.16528  0.43480  1.0000
  H   H332      1.0  0.52292  0.26282  0.38561  1.0000
  C   C286      1.0  0.70130  0.32613  0.02544  1.0000
  H   H333      1.0  0.53146  0.26467  0.44563  1.0000
  S   S71       1.0  0.69229  0.33016  0.24003  1.0000
  C   C287      1.0  0.55405  0.08255  0.48772  1.0000
  C   C288      1.0  0.82039  0.22071  0.49248  1.0000
  H   H334      1.0  0.56978  0.10596  0.49033  1.0000
  H   H335      1.0  0.65467  0.15025  0.49761  1.0000
  H   H336      1.0  0.53175  0.08019  0.49124  1.0000
  H   H337      1.0  0.70786  0.31818  0.04916  1.0000
  H   H338      1.0  0.79305  0.24095  0.49304  1.0000
  C   C289      1.0  0.59036  0.32769  0.33424  1.0000
  S   S72       1.0  0.88722  0.33410  0.46094  1.0000
  H   H339      1.0  0.59017  0.05943  0.48100  1.0000
  C   C290      1.0  0.58194  0.33100  0.36978  1.0000
  C   C291      1.0  0.79478  0.22204  0.50190  1.0000
  C   C292      1.0  0.51843  0.30672  0.42876  1.0000
  C   C293      1.0  0.62595  0.16815  0.50701  1.0000
  H   H340      1.0  0.51768  0.32349  0.40985  1.0000
  H   H341      1.0  0.60530  0.09096  0.50770  1.0000
  H   H342      1.0  0.59558  0.18476  0.50807  1.0000
  C   C294      1.0  0.58825  0.06763  0.50805  1.0000
  H   H343      1.0  0.51100  0.30922  0.45678  1.0000
  C   C295      1.0  0.53657  0.03244  0.51471  1.0000
  C   C296      1.0  0.60059  0.18701  0.63807  1.0000
  Fe  Fe36      1.0  0.65453  0.15201  0.57804  1.0000
  S   S73       1.0  0.66166  0.11700  0.55479  1.0000
  S   S74       1.0  0.63692  0.17875  0.55100  1.0000
  Fe  Fe37      1.0  0.67321  0.14519  0.65341  1.0000
  S   S75       1.0  0.68237  0.10923  0.63738  1.0000
  S   S76       1.0  0.67435  0.16108  0.71065  1.0000
  Fe  Fe38      1.0  0.70310  0.13776  0.58507  1.0000
  H   H344      1.0  0.62260  0.29350  0.96754  1.0000
  Fe  Fe39      1.0  0.64032  0.09094  0.60806  1.0000
  S   S77       1.0  0.60123  0.04482  0.60838  1.0000
  S   S78       1.0  0.69759  0.17486  0.60377  1.0000
  S   S79       1.0  0.62955  0.12468  0.62852  1.0000
  H   H345      1.0  0.80799  0.27243  0.54792  1.0000
  H   H346      1.0  0.56391  0.23985  0.60390  1.0000
  H   H347      1.0  0.54046  0.30948  0.68712  1.0000
  H   H348      1.0  0.77385  0.28275  0.67203  1.0000
  C   C297      1.0  0.60152  0.01118  0.60881  1.0000
  H   H349      1.0  0.57564  0.22737  0.54402  1.0000
  Fe  Fe40      1.0  0.70484  0.31401  0.77501  1.0000
  S   S80       1.0  0.71939  0.29535  0.72892  1.0000
  S   S81       1.0  0.66607  0.29312  0.81592  1.0000
  N   N20       1.0  0.55845  0.06371  0.51539  1.0000
  C   C298      1.0  0.57233  0.26243  0.59194  1.0000
  C   C299      1.0  0.62410  0.19643  0.66062  1.0000
  H   H350      1.0  0.62986  0.30484  0.61810  1.0000
  C   C300      1.0  0.77607  0.25396  0.63440  1.0000
  C   C301      1.0  0.66932  0.26962  0.61714  1.0000
  H   H351      1.0  0.64833  0.02968  0.60180  1.0000
  C   C302      1.0  0.68673  0.19839  0.71582  1.0000
  C   C303      1.0  0.70031  0.21895  0.68620  1.0000
  C   C304      1.0  0.71015  0.24851  0.69086  1.0000
  C   C305      1.0  0.70625  0.25786  0.72500  1.0000
  C   C306      1.0  0.69241  0.23741  0.75470  1.0000
  C   C307      1.0  0.68283  0.20773  0.75013  1.0000
  H   H352      1.0  0.70357  0.21216  0.65979  1.0000
  H   H353      1.0  0.72087  0.26417  0.66783  1.0000
  H   H354      1.0  0.68959  0.24446  0.78128  1.0000
  H   H355      1.0  0.67247  0.19194  0.77324  1.0000
  H   H356      1.0  0.68751  0.26953  0.63042  1.0000
  H   H357      1.0  0.62089  0.23305  0.55425  1.0000
  C   C308      1.0  0.77128  0.19858  0.52289  1.0000
  S   S82       1.0  0.60884  0.31436  0.77998  1.0000
  H   H358      1.0  0.58866  0.30171  0.53362  1.0000
  H   H359      1.0  0.80083  0.15381  0.53256  1.0000
  C   C309      1.0  0.62150  0.26970  0.58228  1.0000
  H   H360      1.0  0.71267  0.30236  0.98722  1.0000
  C   C310      1.0  0.63646  0.28937  0.60956  1.0000
  C   C311      1.0  0.66022  0.28949  0.62635  1.0000
  H   H361      1.0  0.75147  0.19941  0.53000  1.0000
  C   C312      1.0  0.78557  0.25076  0.59963  1.0000
  C   C313      1.0  0.58558  0.25065  0.53388  1.0000
  H   H362      1.0  0.56354  0.06389  0.57434  1.0000
  C   C314      1.0  0.61356  0.33565  0.67020  1.0000
  H   H363      1.0  0.57248  0.09820  0.55301  1.0000
  S   S83       1.0  0.57584  0.33079  0.61719  1.0000
  S   S84       1.0  0.74503  0.14276  0.55868  1.0000
  H   H364      1.0  0.59899  0.17328  0.61587  1.0000
  H   H365      1.0  0.76455  0.23506  0.65364  1.0000
  H   H366      1.0  0.55374  0.26389  0.57979  1.0000
  C   C315      1.0  0.57080  0.31212  0.72795  1.0000
  H   H367      1.0  0.66183  0.23397  0.58435  1.0000
  S   S85       1.0  0.69985  0.31502  0.91476  1.0000
  C   C316      1.0  0.79896  0.17278  0.52421  1.0000
  C   C317      1.0  0.69603  0.32743  0.95856  1.0000
  H   H368      1.0  0.67162  0.30503  0.64672  1.0000
  N   N21       1.0  0.59690  0.27061  0.56426  1.0000
  H   H369      1.0  0.53459  0.07037  0.55977  1.0000
  C   C318      1.0  0.77347  0.17385  0.53408  1.0000
  H   H370      1.0  0.64065  0.18989  0.65593  1.0000
  C   C319      1.0  0.58442  0.32758  0.66316  1.0000
  N   N22       1.0  0.60718  0.24017  0.72847  1.0000
  C   C320      1.0  0.61126  0.22654  0.76271  1.0000
  C   C321      1.0  0.63292  0.26951  0.72132  1.0000
  C   C322      1.0  0.58101  0.24383  0.73548  1.0000
  C   C323      1.0  0.60470  0.22233  0.69695  1.0000
  C   C324      1.0  0.58126  0.21287  0.67290  1.0000
  C   C325      1.0  0.62635  0.21410  0.68931  1.0000
  C   C326      1.0  0.57933  0.19537  0.64400  1.0000
  C   C327      1.0  0.65483  0.24965  0.59106  1.0000
  H   H371      1.0  0.78162  0.22951  0.59192  1.0000
  H   H372      1.0  0.63266  0.22681  0.76218  1.0000
  H   H373      1.0  0.61102  0.23830  0.78737  1.0000
  H   H374      1.0  0.59368  0.20348  0.76747  1.0000
  H   H375      1.0  0.65377  0.26879  0.71761  1.0000
  H   H376      1.0  0.63559  0.28358  0.74448  1.0000
  H   H377      1.0  0.63051  0.28076  0.69630  1.0000
  H   H378      1.0  0.56071  0.22246  0.74035  1.0000
  H   H379      1.0  0.58294  0.25610  0.76040  1.0000
  H   H380      1.0  0.57817  0.25670  0.71251  1.0000
  H   H381      1.0  0.56401  0.21842  0.67610  1.0000
  H   H382      1.0  0.64518  0.22110  0.70567  1.0000
  H   H383      1.0  0.81690  0.32008  0.56380  1.0000
  C   C328      1.0  0.80033  0.27495  0.57485  1.0000
  H   H384      1.0  0.57890  0.27709  0.61508  1.0000
  H   H385      1.0  0.55413  0.30302  0.75030  1.0000
  C   C329      1.0  0.60001  0.32028  0.73497  1.0000
  C   C330      1.0  0.53638  0.01193  0.54141  1.0000
  C   C331      1.0  0.62589  0.27886  0.98615  1.0000
  C   C332      1.0  0.79615  0.30645  0.61994  1.0000
  C   C333      1.0  0.78142  0.28137  0.64459  1.0000
  C   C334      1.0  0.55709  0.07440  0.55214  1.0000
  C   C335      1.0  0.70419  0.31732  0.99010  1.0000
  H   H386      1.0  0.64019  0.26157  0.94250  1.0000
  C   C336      1.0  0.63118  0.24945  0.57385  1.0000
  H   H387      1.0  0.56110  0.18791  0.62628  1.0000
  H   H388      1.0  0.76042  0.31836  0.66444  1.0000
  C   C337      1.0  0.56301  0.31584  0.69220  1.0000
  C   C338      1.0  0.63585  0.26087  0.97195  1.0000
  Fe  Fe41      1.0  0.69461  0.32683  0.85482  1.0000
  S   S86       1.0  0.52634  0.31636  0.54125  1.0000
  H   H389      1.0  0.55231  0.01861  0.56220  1.0000
  C   C339      1.0  0.80548  0.30241  0.58456  1.0000
  Fe  Fe42      1.0  0.65565  0.32742  0.79356  1.0000
  H   H390      1.0  0.61209  0.31658  0.56983  1.0000
  H   H391      1.0  0.59410  0.05596  0.52951  1.0000
  Fe  Fe43      1.0  0.53472  0.33101  0.59871  1.0000
  C   C340      1.0  0.60641  0.30051  0.54842  1.0000
  C   C341      1.0  0.64143  0.24298  0.99569  1.0000
  H   H392      1.0  0.64990  0.22958  0.98448  1.0000
  H   H393      1.0  0.80630  0.32794  0.68913  1.0000
  C   C342      1.0  0.62133  0.33209  0.70586  1.0000
  H   H394      1.0  0.75836  0.32659  0.61667  1.0000
  C   C343      1.0  0.62750  0.00979  0.60479  1.0000
  H   H395      1.0  0.52050  0.21470  0.55274  1.0000
  H   H396      1.0  0.62593  0.30826  0.52895  1.0000
  H   H397      1.0  0.56801  0.25268  0.51980  1.0000
  C   C344      1.0  0.77263  0.33373  0.64038  1.0000
  N   N23       1.0  0.80120  0.33512  0.63145  1.0000
  H   H398      1.0  0.57864  0.42915  0.42541  1.0000
  S   S87       1.0  0.86492  0.36183  0.39379  1.0000
  H   H399      1.0  0.56084  0.33952  0.47211  1.0000
  C   C345      1.0  0.59035  0.42780  0.44869  1.0000
  H   H400      1.0  0.97159  0.43605  0.41998  1.0000
  Fe  Fe44      1.0  0.90001  0.34887  0.40131  1.0000
  S   S88       1.0  0.53839  0.38155  0.47473  1.0000
  H   H401      1.0  0.83017  0.48185  0.38387  1.0000
  C   C346      1.0  0.89913  0.46253  0.49652  1.0000
  S   S89       1.0  0.57010  0.59502  0.40552  1.0000
  C   C347      1.0  0.81265  0.47917  0.36648  1.0000
  S   S90       1.0  0.71382  0.38263  0.17437  1.0000
  S   S91       1.0  0.94664  0.38330  0.38147  1.0000
  Fe  Fe45      1.0  0.67455  0.35709  0.21358  1.0000
  S   S92       1.0  0.65226  0.37193  0.25540  1.0000
  C   C348      1.0  0.98150  0.36279  0.41314  1.0000
  C   C349      1.0  0.99952  0.44811  0.48067  1.0000
  Fe  Fe46      1.0  0.69279  0.50569  0.43858  1.0000
  S   S93       1.0  0.72178  0.55212  0.45162  1.0000
  H   H402      1.0  0.92859  0.39120  0.48527  1.0000
  Fe  Fe47      1.0  0.71109  0.51652  0.35726  1.0000
  S   S94       1.0  0.74152  0.56381  0.36420  1.0000
  S   S95       1.0  0.71294  0.50302  0.29942  1.0000
  Fe  Fe48      1.0  0.75534  0.54902  0.41488  1.0000
  S   S96       1.0  0.80255  0.56061  0.42251  1.0000
  Fe  Fe49      1.0  0.70484  0.56249  0.39996  1.0000
  S   S97       1.0  0.69461  0.59982  0.39078  1.0000
  S   S98       1.0  0.72730  0.50188  0.40531  1.0000
  S   S99       1.0  0.67340  0.51604  0.38951  1.0000
  C   C350      1.0  0.57576  0.40594  0.47674  1.0000
  H   H403      1.0  0.83162  0.35854  0.31709  1.0000
  H   H404      1.0  0.77600  0.51450  0.33961  1.0000
  H   H405      1.0  0.92988  0.43040  0.51062  1.0000
  H   H406      1.0  0.96143  0.34284  0.42080  1.0000
  C   C351      1.0  0.65948  0.59746  0.39324  1.0000
  C   C352      1.0  0.65678  0.62166  0.38076  1.0000
  C   C353      1.0  0.62957  0.62122  0.38373  1.0000
  C   C354      1.0  0.60476  0.59659  0.39953  1.0000
  C   C355      1.0  0.60739  0.57222  0.41141  1.0000
  C   C356      1.0  0.63454  0.57259  0.40826  1.0000
  H   H407      1.0  0.67595  0.64103  0.36914  1.0000
  H   H408      1.0  0.95878  0.46634  0.50223  1.0000
  H   H409      1.0  0.58833  0.55299  0.42351  1.0000
  H   H410      1.0  0.63629  0.55384  0.41803  1.0000
  C   C357      1.0  0.84192  0.55853  0.46864  1.0000
  C   C358      1.0  0.81790  0.56342  0.46570  1.0000
  H   H411      1.0  0.85059  0.55315  0.44463  1.0000
  C   C359      1.0  0.66904  0.40847  0.26719  1.0000
  C   C360      1.0  0.69089  0.43074  0.24404  1.0000
  C   C361      1.0  0.70386  0.45967  0.25414  1.0000
  C   C362      1.0  0.69567  0.46645  0.28786  1.0000
  C   C363      1.0  0.67407  0.44417  0.31129  1.0000
  C   C364      1.0  0.66050  0.41531  0.30071  1.0000
  H   H412      1.0  0.69747  0.42572  0.21807  1.0000
  H   H413      1.0  0.72049  0.47687  0.23584  1.0000
  H   H414      1.0  0.66766  0.44923  0.33733  1.0000
  H   H415      1.0  0.64362  0.39821  0.31878  1.0000
  C   C365      1.0  0.52863  0.48604  0.49465  1.0000
  S   S100      1.0  0.51209  0.61624  0.36847  1.0000
  S   S101      1.0  0.68470  0.35638  0.07396  1.0000
  C   C366      1.0  0.87868  0.41782  0.46477  1.0000
  H   H416      1.0  0.91071  0.45991  0.44013  1.0000
  H   H417      1.0  0.87760  0.40666  0.44028  1.0000
  S   S102      1.0  0.83835  0.36464  0.49772  1.0000
  C   C367      1.0  0.67219  0.63075  0.46995  1.0000
  S   S103      1.0  0.77534  0.37338  0.22110  1.0000
  C   C368      1.0  0.78205  0.35184  0.25374  1.0000
  C   C369      1.0  0.95292  0.40136  0.48434  1.0000
  C   C370      1.0  0.89742  0.44796  0.46469  1.0000
  H   H418      1.0  0.78870  0.57466  0.49479  1.0000
  C   C371      1.0  0.56799  0.33841  0.44343  1.0000
  H   H419      1.0  0.00507  0.40953  0.47563  1.0000
  C   C372      1.0  0.96012  0.44101  0.44250  1.0000
  H   H420      1.0  0.56790  0.35688  0.42746  1.0000
  H   H421      1.0  0.59090  0.34241  0.44412  1.0000
  S   S104      1.0  0.53737  0.63764  0.44906  1.0000
  H   H422      1.0  0.63110  0.46522  0.42963  1.0000
  C   C373      1.0  0.65206  0.64102  0.47188  1.0000
  Fe  Fe50      1.0  0.73015  0.35348  0.19884  1.0000
  C   C374      1.0  0.86122  0.40242  0.49640  1.0000
  C   C375      1.0  0.80688  0.36491  0.27461  1.0000
  H   H423      1.0  0.72544  0.46332  0.47852  1.0000
  H   H424      1.0  0.62780  0.63987  0.37375  1.0000
  H   H425      1.0  0.53620  0.52296  0.45859  1.0000
  H   H426      1.0  0.60801  0.64970  0.50413  1.0000
  H   H427      1.0  0.75657  0.38262  0.29247  1.0000
  H   H428      1.0  0.60900  0.34560  0.31902  1.0000
  H   H429      1.0  0.75107  0.47175  0.30425  1.0000
  H   H430      1.0  0.54684  0.48522  0.48105  1.0000
  H   H431      1.0  0.81537  0.51993  0.37972  1.0000
  H   H432      1.0  0.53980  0.43882  0.49127  1.0000
  N   N24       1.0  0.96724  0.43359  0.47907  1.0000
  H   H433      1.0  0.93627  0.42826  0.43817  1.0000
  H   H434      1.0  0.62955  0.62487  0.47885  1.0000
  S   S105      1.0  0.67165  0.47264  0.48619  1.0000
  H   H435      1.0  0.80616  0.43864  0.34942  1.0000
  C   C376      1.0  0.98037  0.38564  0.39370  1.0000
  C   C377      1.0  0.95423  0.44362  0.50811  1.0000
  H   H436      1.0  0.96663  0.46447  0.43856  1.0000
  C   C378      1.0  0.60976  0.66034  0.47646  1.0000
  H   H437      1.0  0.95860  0.39167  0.46104  1.0000
  N   N25       1.0  0.66456  0.55477  0.27883  1.0000
  C   C379      1.0  0.68340  0.54902  0.25291  1.0000
  C   C380      1.0  0.64804  0.56555  0.25666  1.0000
  C   C381      1.0  0.68421  0.57813  0.30209  1.0000
  C   C382      1.0  0.64374  0.52889  0.30256  1.0000
  C   C383      1.0  0.64160  0.50103  0.30007  1.0000
  C   C384      1.0  0.62465  0.53115  0.32925  1.0000
  C   C385      1.0  0.62155  0.47710  0.32290  1.0000
  C   C386      1.0  0.60474  0.50710  0.35196  1.0000
  C   C387      1.0  0.60318  0.48012  0.34878  1.0000
  H   H438      1.0  0.67019  0.53195  0.23398  1.0000
  H   H439      1.0  0.69869  0.56880  0.23537  1.0000
  H   H440      1.0  0.69741  0.54211  0.26800  1.0000
  H   H441      1.0  0.63227  0.54820  0.23974  1.0000
  H   H442      1.0  0.66294  0.58460  0.23774  1.0000
  H   H443      1.0  0.63528  0.57281  0.27413  1.0000
  H   H444      1.0  0.69511  0.57005  0.32152  1.0000
  H   H445      1.0  0.70179  0.59721  0.28552  1.0000
  H   H446      1.0  0.67233  0.58667  0.31891  1.0000
  H   H447      1.0  0.65549  0.49715  0.28118  1.0000
  H   H448      1.0  0.62521  0.55167  0.33305  1.0000
  H   H449      1.0  0.62062  0.45618  0.32078  1.0000
  H   H450      1.0  0.59068  0.50955  0.37240  1.0000
  H   H451      1.0  0.58792  0.46157  0.36665  1.0000
  H   H452      1.0  0.87320  0.55650  0.50438  1.0000
  H   H453      1.0  0.98819  0.55165  0.50846  1.0000
  H   H454      1.0  0.82197  0.38797  0.27011  1.0000
  C   C388      1.0  0.63496  0.44682  0.48162  1.0000
  Fe  Fe51      1.0  0.55416  0.62833  0.39659  1.0000
  C   C389      1.0  0.52276  0.50790  0.48135  1.0000
  H   H455      1.0  0.71669  0.64117  0.45656  1.0000
  C   C390      1.0  0.80699  0.57055  0.49686  1.0000
  N   N26       1.0  0.75942  0.42402  0.30261  1.0000
  C   C391      1.0  0.76958  0.40229  0.30796  1.0000
  C   C392      1.0  0.72780  0.40931  0.31433  1.0000
  C   C393      1.0  0.76284  0.43243  0.26265  1.0000
  C   C394      1.0  0.77550  0.45032  0.32348  1.0000
  C   C395      1.0  0.79854  0.45431  0.34647  1.0000
  C   C396      1.0  0.76805  0.47293  0.32142  1.0000
  C   C397      1.0  0.68996  0.34513  0.02989  1.0000
  C   C398      1.0  0.78226  0.49762  0.34153  1.0000
  C   C399      1.0  0.80445  0.50070  0.36414  1.0000
  H   H456      1.0  0.76727  0.39449  0.33732  1.0000
  C   C400      1.0  0.61999  0.44825  0.45111  1.0000
  H   H457      1.0  0.79279  0.41124  0.29752  1.0000
  H   H458      1.0  0.72418  0.40227  0.34411  1.0000
  H   H459      1.0  0.71479  0.38980  0.29850  1.0000
  H   H460      1.0  0.71809  0.42371  0.30991  1.0000
  H   H461      1.0  0.75173  0.41304  0.24601  1.0000
  H   H462      1.0  0.75328  0.44666  0.25558  1.0000
  H   H463      1.0  0.78639  0.44416  0.25286  1.0000
  H   H464      1.0  0.79718  0.51056  0.51297  1.0000
  H   H465      1.0  0.78496  0.47493  0.49612  1.0000
  S   S106      1.0  0.92408  0.49960  0.49780  1.0000
  C   C401      1.0  0.81243  0.34827  0.30118  1.0000
  C   C402      1.0  0.85476  0.56040  0.50250  1.0000
  H   H466      1.0  0.60073  0.64329  0.45609  1.0000
  Fe  Fe52      1.0  0.85089  0.34440  0.45245  1.0000
  C   C403      1.0  0.77859  0.49188  0.50102  1.0000
  H   H467      1.0  0.66487  0.60774  0.47525  1.0000
  H   H468      1.0  0.59488  0.35208  0.38050  1.0000
  Fe  Fe53      1.0  0.69102  0.34721  0.13462  1.0000
  Fe  Fe54      1.0  0.53244  0.66371  0.35088  1.0000
  H   H469      1.0  0.00554  0.49212  0.48211  1.0000
  H   H470      1.0  0.77596  0.50015  0.47350  1.0000
  C   C404      1.0  0.70149  0.64959  0.45934  1.0000
  C   C405      1.0  0.59090  0.40405  0.50672  1.0000
  C   C406      1.0  0.62044  0.42456  0.50925  1.0000
  H   H471      1.0  0.74335  0.51370  0.50103  1.0000
  H   H472      1.0  0.00938  0.34754  0.43672  1.0000
  H   H473      1.0  0.73201  0.43754  0.50497  1.0000
  C   C407      1.0  0.72775  0.45621  0.50689  1.0000
  H   H474      1.0  0.00614  0.42926  0.36906  1.0000
  C   C408      1.0  0.00676  0.41141  0.38399  1.0000
  H   H475      1.0  0.95888  0.39436  0.51041  1.0000
  C   C409      1.0  0.00875  0.36553  0.42215  1.0000
  H   H476      1.0  0.59503  0.67004  0.47799  1.0000
  C   C410      1.0  0.76718  0.38851  0.93877  1.0000
  H   H477      1.0  0.57992  0.38689  0.52813  1.0000
  S   S107      1.0  0.75095  0.42284  0.77919  1.0000
  S   S108      1.0  0.68112  0.35951  0.83534  1.0000
  C   C411      1.0  0.82042  0.57328  0.53054  1.0000
  S   S109      1.0  0.93129  0.56075  0.56155  1.0000
  H   H478      1.0  0.63198  0.42332  0.53281  1.0000
  Fe  Fe55      1.0  0.87738  0.49080  0.62313  1.0000
  S   S110      1.0  0.89338  0.53594  0.64183  1.0000
  S   S111      1.0  0.84687  0.44631  0.65144  1.0000
  Fe  Fe56      1.0  0.88549  0.54682  0.58422  1.0000
  S   S112      1.0  0.86094  0.57184  0.57591  1.0000
  Fe  Fe57      1.0  0.93801  0.54635  0.61772  1.0000
  S   S113      1.0  0.97852  0.56865  0.65097  1.0000
  S   S114      1.0  0.86630  0.50110  0.56739  1.0000
  S   S115      1.0  0.92266  0.50016  0.60414  1.0000
  H   H479      1.0  0.72915  0.40193  0.90979  1.0000
  H   H480      1.0  0.77591  0.44125  0.93452  1.0000
  H   H481      1.0  0.97077  0.50538  0.54518  1.0000
  C   C412      1.0  0.81156  0.37171  0.85103  1.0000
  H   H482      1.0  0.70594  0.44805  0.52151  1.0000
  H   H483      1.0  0.54602  0.42478  0.53310  1.0000
  Fe  Fe58      1.0  0.71924  0.37524  0.79349  1.0000
  H   H484      1.0  0.53987  0.46695  0.58441  1.0000
  H   H485      1.0  0.81021  0.44417  0.91835  1.0000
  H   H486      1.0  0.79350  0.43422  0.83505  1.0000
  H   H487      1.0  0.80318  0.46227  0.61717  1.0000
  C   C413      1.0  0.75867  0.44944  0.63434  1.0000
  C   C414      1.0  0.77711  0.42952  0.74298  1.0000
  C   C415      1.0  0.77905  0.40649  0.72789  1.0000
  C   C416      1.0  0.80059  0.41210  0.69995  1.0000
  C   C417      1.0  0.82019  0.44069  0.68651  1.0000
  C   C418      1.0  0.81811  0.46379  0.70129  1.0000
  C   C419      1.0  0.79670  0.45819  0.72961  1.0000
  H   H488      1.0  0.76418  0.38433  0.73809  1.0000
  H   H489      1.0  0.80211  0.39419  0.68881  1.0000
  H   H490      1.0  0.83309  0.48591  0.69111  1.0000
  H   H491      1.0  0.79529  0.47611  0.74115  1.0000
  H   H492      1.0  0.78781  0.45118  0.88748  1.0000
  H   H493      1.0  0.56306  0.46327  0.52448  1.0000
  C   C420      1.0  0.93921  0.61306  0.67932  1.0000
  H   H494      1.0  0.95574  0.60371  0.61259  1.0000
  C   C421      1.0  0.68523  0.34687  0.96287  1.0000
  H   H495      1.0  0.81230  0.57940  0.55437  1.0000
  H   H496      1.0  0.84901  0.40566  0.55223  1.0000
  H   H497      1.0  0.94393  0.62406  0.70564  1.0000
  H   H498      1.0  0.82468  0.36517  0.67254  1.0000
  H   H499      1.0  0.88310  0.45800  0.55293  1.0000
  H   H500      1.0  0.96238  0.44207  0.53548  1.0000
  C   C422      1.0  0.81731  0.35921  0.60282  1.0000
  C   C423      1.0  0.52139  0.44523  0.57905  1.0000
  C   C424      1.0  0.00233  0.54935  0.52798  1.0000
  C   C425      1.0  0.81445  0.41180  0.81336  1.0000
  C   C426      1.0  0.00169  0.64702  0.67541  1.0000
  H   H501      1.0  0.73088  0.37459  0.88382  1.0000
  C   C427      1.0  0.81855  0.34278  0.66467  1.0000
  H   H502      1.0  0.91490  0.60058  0.67814  1.0000
  H   H503      1.0  0.78894  0.36209  0.90315  1.0000
  C   C428      1.0  0.54254  0.44258  0.52110  1.0000
  S   S116      1.0  0.73452  0.34476  0.81510  1.0000
  H   H504      1.0  0.78827  0.39303  0.95052  1.0000
  C   C429      1.0  0.86248  0.41723  0.52780  1.0000
  C   C430      1.0  0.75441  0.46983  0.56254  1.0000
  C   C431      1.0  0.78084  0.47108  0.57375  1.0000
  C   C432      1.0  0.73031  0.45800  0.58900  1.0000
  C   C433      1.0  0.78275  0.46097  0.60913  1.0000
  H   H505      1.0  0.94667  0.59649  0.68029  1.0000
  C   C434      1.0  0.79882  0.41710  0.84101  1.0000
  C   C435      1.0  0.99255  0.52319  0.54866  1.0000
  Fe  Fe59      1.0  0.52112  0.35518  0.52833  1.0000
  H   H506      1.0  0.70963  0.45661  0.58258  1.0000
  C   C436      1.0  0.94039  0.65404  0.64652  1.0000
  C   C437      1.0  0.53314  0.66876  0.55067  1.0000
  C   C438      1.0  0.88166  0.44711  0.52804  1.0000
  H   H507      1.0  0.53518  0.65306  0.53286  1.0000
  H   H508      1.0  0.76049  0.52191  0.54426  1.0000
  H   H509      1.0  0.95222  0.63183  0.58783  1.0000
  H   H510      1.0  0.80051  0.47998  0.55591  1.0000
  C   C439      1.0  0.74405  0.50405  0.52856  1.0000
  H   H511      1.0  0.82108  0.42498  0.78756  1.0000
  H   H512      1.0  0.75448  0.39339  0.95979  1.0000
  Fe  Fe60      1.0  0.91269  0.51383  0.54998  1.0000
  N   N27       1.0  0.77207  0.40564  0.90329  1.0000
  C   C440      1.0  0.74302  0.39801  0.88948  1.0000
  C   C441      1.0  0.78722  0.43689  0.91118  1.0000
  C   C442      1.0  0.78930  0.40000  0.87486  1.0000
  C   C443      1.0  0.79597  0.37688  0.87896  1.0000
  H   H513      1.0  0.76038  0.44181  0.66180  1.0000
  C   C444      1.0  0.73250  0.44797  0.62431  1.0000
  H   H514      1.0  0.75397  0.36473  0.93556  1.0000
  H   H515      1.0  0.67338  0.37026  0.00122  1.0000
  H   H516      1.0  0.74476  0.41066  0.86337  1.0000
  H   H517      1.0  0.92101  0.60328  0.61288  1.0000
  C   C445      1.0  0.98554  0.65142  0.64750  1.0000
  H   H518      1.0  0.71387  0.43919  0.64417  1.0000
  C   C446      1.0  0.82079  0.38915  0.81833  1.0000
  H   H519      1.0  0.83249  0.38485  0.79654  1.0000
  S   S117      1.0  0.69260  0.34614  0.75064  1.0000
  N   N28       1.0  0.51659  0.44249  0.53914  1.0000
  S   S118      1.0  0.53367  0.37232  0.58378  1.0000
  H   H520      1.0  0.67874  0.35484  0.93907  1.0000
  H   H521      1.0  0.83923  0.34187  0.65986  1.0000
  H   H522      1.0  0.81606  0.35374  0.85454  1.0000
  C   C447      1.0  0.68214  0.35553  0.99826  1.0000
  N   N29       1.0  0.95317  0.63430  0.64710  1.0000
  C   C448      1.0  0.84427  0.56811  0.53350  1.0000
  H   H523      1.0  0.83939  0.36201  0.59531  1.0000
  H   H524      1.0  0.72208  0.49635  0.54251  1.0000
  H   H525      1.0  0.80507  0.35553  0.57729  1.0000
  H   H526      1.0  0.77542  0.35525  0.64758  1.0000
  H   H527      1.0  0.52636  0.42831  0.59081  1.0000
  C   C449      1.0  0.94518  0.61763  0.61365  1.0000
  N   N30       1.0  0.75149  0.48035  0.52538  1.0000
  H   H528      1.0  0.53935  0.66520  0.57852  1.0000
  H   H529      1.0  0.00073  0.60447  0.58138  1.0000
  H   H530      1.0  0.94747  0.66884  0.62122  1.0000
  H   H531      1.0  0.63036  0.34525  0.64807  1.0000
  H   H532      1.0  0.91597  0.64163  0.64712  1.0000
  H   H533      1.0  0.99134  0.63072  0.69788  1.0000
  H   H534      1.0  0.82095  0.38054  0.61236  1.0000
  H   H535      1.0  0.64388  0.33876  0.71079  1.0000
  H   H536      1.0  0.00176  0.49936  0.58952  1.0000
  H   H537      1.0  0.94682  0.66775  0.67061  1.0000
  C   C450      1.0  0.51125  0.46606  0.52444  1.0000
  H   H538      1.0  0.53707  0.96279  0.42591  1.0000
  S   S119      1.0  0.57990  0.71636  0.46824  1.0000
  H   H539      1.0  0.52271  0.76685  0.44910  1.0000
  Fe  Fe61      1.0  0.55658  0.68355  0.42589  1.0000
  H   H540      1.0  0.66191  0.71483  0.41986  1.0000
  C   C451      1.0  0.51866  0.92457  0.46532  1.0000
  C   C452      1.0  0.56062  0.97266  0.47426  1.0000
  C   C453      1.0  0.54723  0.74416  0.45751  1.0000
  C   C454      1.0  0.53640  0.76284  0.46745  1.0000
  H   H541      1.0  0.69957  0.71258  0.44692  1.0000
  H   H542      1.0  0.62449  0.70477  0.42934  1.0000
  C   C455      1.0  0.56586  0.73967  0.48032  1.0000
  H   H543      1.0  0.67159  0.72440  0.48491  1.0000
  C   C456      1.0  0.66100  0.67094  0.46378  1.0000
  C   C457      1.0  0.53835  0.95387  0.45257  1.0000
  H   H544      1.0  0.57554  0.99482  0.46397  1.0000
  H   H545      1.0  0.73379  0.69348  0.44270  1.0000
  S   S120      1.0  0.52887  0.79972  0.51156  1.0000
  H   H546      1.0  0.54181  0.73393  0.43168  1.0000
  S   S121      1.0  0.52385  0.68081  0.29723  1.0000
  C   C458      1.0  0.54366  0.77687  0.50053  1.0000
  C   C459      1.0  0.71098  0.67899  0.45126  1.0000
  C   C460      1.0  0.52205  0.91581  0.50137  1.0000
  C   C461      1.0  0.64981  0.70534  0.49282  1.0000
  C   C462      1.0  0.57328  0.75378  0.51339  1.0000
  H   H547      1.0  0.52145  0.88363  0.42675  1.0000
  H   H548      1.0  0.51722  0.92251  0.38933  1.0000
  H   H549      1.0  0.63422  0.71407  0.49562  1.0000
  N   N31       1.0  0.64042  0.68274  0.46558  1.0000
  S   S122      1.0  0.51535  0.67602  0.40036  1.0000
  C   C463      1.0  0.69115  0.68962  0.45359  1.0000
  S   S123      1.0  0.57621  0.67534  0.37467  1.0000
  C   C464      1.0  0.64022  0.69616  0.42906  1.0000
  H   H550      1.0  0.51197  0.68687  0.49686  1.0000
  H   H551      1.0  0.63375  0.68001  0.40765  1.0000
  C   C465      1.0  0.56393  0.96297  0.50904  1.0000
  Fe  Fe62      1.0  0.56012  0.87738  0.60849  1.0000
  H   H552      1.0  0.51594  0.96723  0.56274  1.0000
  S   S124      1.0  0.59992  0.92273  0.60862  1.0000
  Fe  Fe63      1.0  0.53301  0.82196  0.56496  1.0000
  H   H553      1.0  0.58777  0.75054  0.53118  1.0000
  Fe  Fe64      1.0  0.52660  0.81745  0.64913  1.0000
  H   H554      1.0  0.53451  0.90432  0.72997  1.0000
  S   S125      1.0  0.52344  0.85835  0.65259  1.0000
  S   S126      1.0  0.56589  0.83734  0.60865  1.0000
  H   H555      1.0  0.55296  0.93793  0.61608  1.0000
  C   C466      1.0  0.62657  0.98256  0.60454  1.0000
  C   C467      1.0  0.58681  0.92858  0.70227  1.0000
  C   C468      1.0  0.57375  0.95781  0.61257  1.0000
  H   H556      1.0  0.64683  0.98178  0.60138  1.0000
  C   C469      1.0  0.57467  0.98502  0.61270  1.0000
  H   H557      1.0  0.54721  0.92716  0.54963  1.0000
  C   C470      1.0  0.59974  0.95643  0.60822  1.0000
  C   C471      1.0  0.55667  0.85485  0.75462  1.0000
  H   H558      1.0  0.57059  0.92072  0.68061  1.0000
  C   C472      1.0  0.55971  0.88133  0.73874  1.0000
  H   H559      1.0  0.65115  0.69639  0.52047  1.0000
  H   H560      1.0  0.60818  0.94450  0.68791  1.0000
  C   C473      1.0  0.51570  0.98239  0.54186  1.0000
  H   H561      1.0  0.62007  0.90825  0.67877  1.0000
  H   H562      1.0  0.61324  0.89914  0.76493  1.0000
  S   S127      1.0  0.52005  0.78612  0.69723  1.0000
  C   C474      1.0  0.00199  0.67266  0.61853  1.0000
  C   C475      1.0  0.59986  0.89129  0.69437  1.0000
  H   H563      1.0  0.54975  0.69107  0.53984  1.0000
  S   S128      1.0  0.53056  0.86351  0.56158  1.0000
  C   C476      1.0  0.60954  0.91607  0.75070  1.0000
  H   H564      1.0  0.63129  0.93357  0.73908  1.0000
  H   H565      1.0  0.58355  0.87992  0.67370  1.0000
  N   N32       1.0  0.58833  0.90400  0.72168  1.0000
  H   H566      1.0  0.57481  0.85045  0.75426  1.0000
  H   H567      1.0  0.58106  0.94118  0.72147  1.0000
  H   H568      1.0  0.60574  0.87544  0.70703  1.0000
  C   C477      1.0  0.53446  0.88499  0.74112  1.0000
  H   H569      1.0  0.60154  0.92554  0.77203  1.0000
  H   H570      1.0  0.55446  0.98582  0.61628  1.0000
  H   H571      1.0  0.56784  0.78293  0.54915  1.0000
  C   C478      1.0  0.56206  0.77218  0.52363  1.0000
  H   H572      1.0  0.58139  0.97742  0.52570  1.0000
  C   C479      1.0  0.54456  0.93466  0.52260  1.0000
  H   H573      1.0  0.51209  0.67303  0.62488  1.0000
  C   C480      1.0  0.52994  0.83318  0.77095  1.0000
  H   H574      1.0  0.99132  0.67686  0.59600  1.0000
  H   H575      1.0  0.51287  0.71154  0.66091  1.0000
  H   H576      1.0  0.52786  0.81270  0.78173  1.0000
