data_image0
_chemical_formula_structural       HCHC2H3CHNFeS2FeCFeS2HCH3CHFeSCHFeS2FeHFeCS2C2H2C2H2NSH2CH2SC6H4CFeC3FeC2H7CHC2H4C2HC2H2CHCHCSHCSHSHC2H2CHN2CHCH2CHCSH2CH2CH2CH2CH3CSFeHC2HCHCNFeHSHS2C4H2CSHSCHC4HC2H6CH4CH3NHFeS2FeSFeHFeHS2C2FeS2FeCHFeSFeHS2HC3HCNCHCH3C4H2C6H7CSH2CHC7H6CH2CSC2H4C2HCH7C2H3NC9H7CH3C2H2CH2C2NHCHSC2HSHSHCHCH3CH3C3HFeS2FeCSFeHFeHS2FeCFeS2FeCFeS3H2CH3C3SHC2H2C6H6C3HCHCHC4H2NC9H13C2HSC2H2C2HC2SCHNH3CH3C2HCHCHCH4CHCHC2H5CS2HCH5CSCHNH5SFeSCFeSCFeSCFeSFeSC2H2SCSHFeS2CFeCFeCSH2CHCSH3CH2CHC3SH2C6HSH5CNH3CHC2HCHCS2CHS2CHC3H4CH2C2NCHFeHC4H3CHC4HNSHNH5CH3CHCHCH6CH2C2SHC2H4CHCH3CSC2FeCH3CNHC3HCH4SCHSCH2CFeH3CH2C2H3C2H2CNC2NCH8C2H2NC2H3CHC4H2CHC3H2SCHCH2FeSCHC4HC5HCH2SH3SHCH3C2NCH5C4HCH2C2HCHCSC2HCH2CHC4H2CHFeSHFeS2FeSFeS3FeS2FeS2FeSFeCS2C4H3CH2CH3C8H5C4SCH2NHCH3CH3CH2CH2CHCNHNC9H10CHC2HC2H3C2H2CH2C2H2CH4C3H2CHCH5CH3CNCHSC3H2C2HNHC4H6SHCH2FeS2FeSHFeSFeCS2FeSCFeSCFeHFeSCSH3CH3SCH2C8H4C2H3C4H3CH2CH2CH4C2HCHCNHCHCNHNC2H8C2HCHCH5C2H2CNHCSHC2SHNCHSC3H5CH3C3HSCHC5H3CH2S2C2SCH4SCH4FeCHCNHCHC2H2CH5C3H2CH2CHNC9H3CH6C2HC2HCH7CH2CFeHSH2FeS2H2FeH2SFeSCNCSH2FeSFeCFeHFeCSCH2CHC2HCH2C3HCH2C2FeHC3S2H3C2H3CSH2C2HSFeHNCHC2H2CH2CHC2S2CHCHCH2FeHCHSNS2H4CHC4HC2FeH3C2HCH2C5H2S2HC3HCH4CH2FeSHFeSHFeSFeS2FeS2FeHFeHFeHS2C2HC2NSH4CHC2HC7H4C2HCHCHCHCHC2HSNC9H14C2HCHCNHCH2CHCNCH3CHCH3SCHCH3C2H2CH2SCSHCHSCH2CH3CH2C2SCSHC2H3C2HCHC2H2C2H2CSHCFeSHFeS2FeSFeCSCFeS2FeCFeCFeHS2H2SCHC2H2CHSCNC6H8CH3CH3CHSCNC9H11CH3SC2HC2HC2H6CHCSH2CHSCH2C2HCHC4H3C3H2CNH2N2CSHCHCH4CHCH4C2HC2HCHSCHCH3CHCHCH2SHCHC2HCFeS2H2FeHC3S2FeHSNCFe2SCFeSFeS2HSCFeS3CSC2HC3HC2HC2H3C3H2C2HC5H2C2FeH2C3H2CH2CH3C3FeHSH2C2H3SCH2C2H2C2H2C2NCHCHCH4CHCH2CH3CH5FeH2CHC3HSHNH2CHCH2SH3SC4HCFeHC3SH2CHCH2CSCH
_chemical_formula_sum              "H864 C720 N48 Fe96 S192"
_cell_length_a       60.602
_cell_length_b       47.6961
_cell_length_c       35.7268
_cell_angle_alpha    89.6352
_cell_angle_beta     89.6949
_cell_angle_gamma    89.424

_space_group_name_H-M_alt    "P 1"
_space_group_IT_number       1

loop_
  _space_group_symop_operation_xyz
  'x, y, z'

loop_
  _atom_site_type_symbol
  _atom_site_label
  _atom_site_symmetry_multiplicity
  _atom_site_fract_x
  _atom_site_fract_y
  _atom_site_fract_z
  _atom_site_occupancy
  H   H1        1.0  0.23003  0.13140  0.44898  1.0000
  C   C1        1.0  0.23680  0.30929  0.01330  1.0000
  H   H2        1.0  0.23772  0.49904  0.35397  1.0000
  C   C2        1.0  0.23729  0.43021  0.37989  1.0000
  C   C3        1.0  0.11448  0.48287  0.46140  1.0000
  H   H3        1.0  0.08878  0.46082  0.40241  1.0000
  H   H4        1.0  0.21594  0.37594  0.46134  1.0000
  H   H5        1.0  0.31239  0.05359  0.05572  1.0000
  C   C4        1.0  0.30796  0.03934  0.03363  1.0000
  H   H6        1.0  0.01081  0.37455  0.28272  1.0000
  N   N1        1.0  0.23935  0.40713  0.44343  1.0000
  Fe  Fe1       1.0  0.30322  0.17360  0.38852  1.0000
  S   S1        1.0  0.27070  0.15656  0.40829  1.0000
  S   S2        1.0  0.31027  0.19126  0.33015  1.0000
  Fe  Fe2       1.0  0.27515  0.18391  0.45912  1.0000
  C   C5        1.0  0.09482  0.49635  0.06014  1.0000
  Fe  Fe3       1.0  0.29133  0.12378  0.43854  1.0000
  S   S3        1.0  0.28227  0.07742  0.43548  1.0000
  S   S4        1.0  0.30643  0.20306  0.43764  1.0000
  H   H7        1.0  0.08891  0.36135  0.31938  1.0000
  C   C6        1.0  0.18237  0.25743  0.11375  1.0000
  H   H8        1.0  0.20935  0.19751  0.18090  1.0000
  H   H9        1.0  0.27970  0.26804  0.04502  1.0000
  H   H10       1.0  0.31653  0.20912  0.25399  1.0000
  C   C7        1.0  0.25602  0.21478  0.13390  1.0000
  H   H11       1.0  0.20433  0.41018  0.45235  1.0000
  Fe  Fe4       1.0  0.02232  0.39984  0.09163  1.0000
  S   S5        1.0  0.05325  0.37416  0.10263  1.0000
  C   C8        1.0  0.11011  0.37893  0.50427  1.0000
  H   H12       1.0  0.05955  0.45511  0.40556  1.0000
  Fe  Fe5       1.0  0.29125  0.14918  0.11602  1.0000
  S   S6        1.0  0.26791  0.14635  0.06750  1.0000
  S   S7        1.0  0.27806  0.14065  0.17481  1.0000
  Fe  Fe6       1.0  0.29428  0.12163  0.03764  1.0000
  H   H13       1.0  0.16451  0.25621  0.11415  1.0000
  Fe  Fe7       1.0  0.28419  0.18553  0.04578  1.0000
  C   C9        1.0  0.21864  0.23538  0.12483  1.0000
  S   S8        1.0  0.31610  0.12091  0.08787  1.0000
  S   S9        1.0  0.30640  0.18941  0.09622  1.0000
  C   C10       1.0  0.22680  0.20374  0.17664  1.0000
  C   C11       1.0  0.20041  0.10696  0.49590  1.0000
  H   H14       1.0  0.23003  0.22197  0.19507  1.0000
  H   H15       1.0  0.23714  0.18580  0.18697  1.0000
  C   C12       1.0  0.02806  0.37182  0.28939  1.0000
  C   C13       1.0  0.07123  0.37204  0.06364  1.0000
  H   H16       1.0  0.01987  0.35773  0.34515  1.0000
  H   H17       1.0  0.14932  0.48986  0.46907  1.0000
  N   N2        1.0  0.23182  0.21063  0.13695  1.0000
  S   S10       1.0  0.02230  0.44001  0.12357  1.0000
  H   H18       1.0  0.26160  0.23230  0.15183  1.0000
  H   H19       1.0  0.32973  0.14501  0.17575  1.0000
  C   C14       1.0  0.07190  0.36433  0.31080  1.0000
  H   H20       1.0  0.23548  0.41004  0.36677  1.0000
  H   H21       1.0  0.22652  0.05616  0.48634  1.0000
  S   S11       1.0  0.32366  0.13919  0.41535  1.0000
  C   C15       1.0  0.28706  0.15525  0.21764  1.0000
  C   C16       1.0  0.29976  0.17955  0.21870  1.0000
  C   C17       1.0  0.30658  0.19043  0.25336  1.0000
  C   C18       1.0  0.30067  0.17726  0.28730  1.0000
  C   C19       1.0  0.28775  0.15314  0.28619  1.0000
  C   C20       1.0  0.28096  0.14227  0.25154  1.0000
  H   H22       1.0  0.30411  0.19009  0.19289  1.0000
  H   H23       1.0  0.22981  0.19053  0.08333  1.0000
  H   H24       1.0  0.28307  0.14279  0.31204  1.0000
  H   H25       1.0  0.27101  0.12357  0.25104  1.0000
  C   C21       1.0  0.28779  0.05152  0.47026  1.0000
  Fe  Fe8       1.0  0.01273  0.46016  0.06971  1.0000
  C   C22       1.0  0.19244  0.28177  0.10074  1.0000
  C   C23       1.0  0.24058  0.46017  0.43402  1.0000
  C   C24       1.0  0.19490  0.49808  0.49779  1.0000
  Fe  Fe9       1.0  0.32985  0.16099  0.06435  1.0000
  C   C25       1.0  0.25032  0.25205  0.01965  1.0000
  C   C26       1.0  0.22836  0.26065  0.11163  1.0000
  H   H26       1.0  0.33434  0.12513  0.23457  1.0000
  H   H27       1.0  0.20866  0.18024  0.11579  1.0000
  H   H28       1.0  0.23598  0.16716  0.12188  1.0000
  H   H29       1.0  0.10091  0.37179  0.09669  1.0000
  H   H30       1.0  0.24599  0.26327  0.10934  1.0000
  H   H31       1.0  0.23519  0.45165  0.32663  1.0000
  H   H32       1.0  0.22308  0.30241  0.08960  1.0000
  C   C27       1.0  0.21704  0.39475  0.44274  1.0000
  H   H33       1.0  0.12760  0.37654  0.49895  1.0000
  C   C28       1.0  0.09423  0.37150  0.06869  1.0000
  C   C29       1.0  0.23950  0.43254  0.41932  1.0000
  H   H34       1.0  0.25657  0.36742  0.44898  1.0000
  H   H35       1.0  0.01262  0.41555  0.24908  1.0000
  H   H36       1.0  0.07714  0.49967  0.05978  1.0000
  H   H37       1.0  0.18251  0.29936  0.09092  1.0000
  C   C30       1.0  0.19521  0.23460  0.12580  1.0000
  C   C31       1.0  0.24002  0.48374  0.41056  1.0000
  H   H38       1.0  0.25107  0.37723  0.40208  1.0000
  C   C32       1.0  0.09513  0.37854  0.47434  1.0000
  C   C33       1.0  0.02749  0.41748  0.23109  1.0000
  H   H39       1.0  0.18664  0.21615  0.13549  1.0000
  H   H40       1.0  0.02171  0.42666  0.20409  1.0000
  C   C34       1.0  0.19384  0.49638  0.01945  1.0000
  H   H41       1.0  0.25391  0.11653  0.47136  1.0000
  C   C35       1.0  0.02403  0.37086  0.20594  1.0000
  H   H42       1.0  0.23426  0.09426  0.45007  1.0000
  C   C36       1.0  0.05828  0.39513  0.20089  1.0000
  S   S12       1.0  0.24671  0.20653  0.48979  1.0000
  H   H43       1.0  0.12632  0.37116  0.04153  1.0000
  C   C37       1.0  0.05435  0.46470  0.47740  1.0000
  S   S13       1.0  0.30924  0.16044  0.01221  1.0000
  H   H44       1.0  0.04511  0.37138  0.02313  1.0000
  S   S14       1.0  0.19350  0.46105  0.49341  1.0000
  H   H45       1.0  0.05450  0.44180  0.48380  1.0000
  C   C38       1.0  0.28236  0.02343  0.46315  1.0000
  C   C39       1.0  0.14041  0.48884  0.06497  1.0000
  H   H46       1.0  0.05876  0.35156  0.36442  1.0000
  H   H47       1.0  0.03878  0.46869  0.46188  1.0000
  C   C40       1.0  0.09483  0.47088  0.47594  1.0000
  H   H48       1.0  0.24132  0.46429  0.46369  1.0000
  N   N3        1.0  0.03897  0.39018  0.22581  1.0000
  N   N4        1.0  0.07389  0.47314  0.45492  1.0000
  C   C41       1.0  0.07231  0.38108  0.48079  1.0000
  H   H49       1.0  0.05314  0.40405  0.17333  1.0000
  C   C42       1.0  0.04485  0.37835  0.26295  1.0000
  H   H50       1.0  0.08473  0.42905  0.04938  1.0000
  H   H51       1.0  0.07834  0.43244  0.43027  1.0000
  C   C43       1.0  0.31449  0.01087  0.03558  1.0000
  H   H52       1.0  0.23225  0.42652  0.49660  1.0000
  C   C44       1.0  0.23828  0.48065  0.37197  1.0000
  S   S15       1.0  0.29285  0.14944  0.49075  1.0000
  H   H53       1.0  0.10125  0.37579  0.44609  1.0000
  H   H54       1.0  0.27235  0.39503  0.42735  1.0000
  C   C45       1.0  0.22628  0.18615  0.11350  1.0000
  H   H55       1.0  0.26109  0.21899  0.10437  1.0000
  H   H56       1.0  0.21227  0.38802  0.41421  1.0000
  C   C46       1.0  0.06705  0.37399  0.27462  1.0000
  H   H57       1.0  0.05351  0.50479  0.42810  1.0000
  H   H58       1.0  0.27532  0.01799  0.43642  1.0000
  C   C47       1.0  0.25282  0.29230  0.49138  1.0000
  H   H59       1.0  0.33322  0.22913  0.50127  1.0000
  H   H60       1.0  0.03839  0.43298  0.24471  1.0000
  C   C48       1.0  0.23596  0.11367  0.46683  1.0000
  H   H61       1.0  0.19461  0.47479  0.02886  1.0000
  H   H62       1.0  0.27111  0.25726  0.46775  1.0000
  H   H63       1.0  0.26537  0.19577  0.14319  1.0000
  C   C49       1.0  0.26391  0.27337  0.03278  1.0000
  S   S16       1.0  0.01533  0.42078  0.03664  1.0000
  Fe  Fe10      1.0  0.01896  0.39485  0.44121  1.0000
  H   H64       1.0  0.26439  0.30773  0.48124  1.0000
  C   C50       1.0  0.21535  0.28343  0.09998  1.0000
  C   C51       1.0  0.13441  0.48086  0.48079  1.0000
  H   H65       1.0  0.31083  0.25339  0.49286  1.0000
  C   C52       1.0  0.10863  0.37120  0.03753  1.0000
  H   H66       1.0  0.15810  0.48575  0.06722  1.0000
  C   C53       1.0  0.06982  0.50247  0.44214  1.0000
  N   N5        1.0  0.09186  0.46101  0.00846  1.0000
  Fe  Fe11      1.0  0.32400  0.16699  0.46590  1.0000
  H   H67       1.0  0.06390  0.45585  0.04598  1.0000
  S   S17       1.0  0.05421  0.37852  0.44237  1.0000
  H   H68       1.0  0.06990  0.41046  0.21303  1.0000
  S   S18       1.0  0.02978  0.49997  0.05398  1.0000
  S   S19       1.0  0.01393  0.41757  0.38664  1.0000
  C   C54       1.0  0.05497  0.35863  0.33620  1.0000
  C   C55       1.0  0.06276  0.37153  0.02737  1.0000
  C   C56       1.0  0.25555  0.38592  0.42972  1.0000
  C   C57       1.0  0.25678  0.26360  0.48386  1.0000
  H   H69       1.0  0.06726  0.37523  0.19447  1.0000
  H   H70       1.0  0.26787  0.31804  0.03975  1.0000
  C   C58       1.0  0.24495  0.41295  0.48304  1.0000
  S   S20       1.0  0.25803  0.21583  0.02156  1.0000
  H   H71       1.0  0.03172  0.34970  0.20283  1.0000
  S   S21       1.0  0.22937  0.34554  0.00966  1.0000
  C   C59       1.0  0.03308  0.36216  0.32538  1.0000
  H   H72       1.0  0.08095  0.37801  0.25642  1.0000
  C   C60       1.0  0.23687  0.45394  0.35666  1.0000
  C   C61       1.0  0.25715  0.30175  0.02964  1.0000
  C   C62       1.0  0.07523  0.45468  0.42178  1.0000
  C   C63       1.0  0.24218  0.24323  0.49719  1.0000
  H   H73       1.0  0.11477  0.49334  0.43454  1.0000
  C   C64       1.0  0.10522  0.47715  0.03525  1.0000
  C   C65       1.0  0.12854  0.47402  0.03823  1.0000
  H   H74       1.0  0.05309  0.47668  0.50397  1.0000
  H   H75       1.0  0.33282  0.09450  0.01432  1.0000
  H   H76       1.0  0.19795  0.08758  0.47938  1.0000
  H   H77       1.0  0.02003  0.37865  0.17722  1.0000
  H   H78       1.0  0.33268  0.12478  0.30219  1.0000
  H   H79       1.0  0.13807  0.46009  0.02049  1.0000
  C   C66       1.0  0.07600  0.44330  0.02947  1.0000
  H   H80       1.0  0.26128  0.42322  0.48538  1.0000
  H   H81       1.0  0.19262  0.12439  0.47959  1.0000
  H   H82       1.0  0.24564  0.39340  0.50026  1.0000
  H   H83       1.0  0.19351  0.50490  0.43810  1.0000
  C   C67       1.0  0.12967  0.50740  0.08900  1.0000
  H   H84       1.0  0.06611  0.43004  0.01043  1.0000
  H   H85       1.0  0.24057  0.50459  0.42255  1.0000
  H   H86       1.0  0.00797  0.36826  0.22056  1.0000
  N   N6        1.0  0.22407  0.11233  0.50314  1.0000
  H   H87       1.0  0.21841  0.15723  0.50243  1.0000
  Fe  Fe12      1.0  0.19526  0.40342  0.61961  1.0000
  S   S22       1.0  0.21849  0.40674  0.57032  1.0000
  S   S23       1.0  0.20322  0.41972  0.67783  1.0000
  Fe  Fe13      1.0  0.15735  0.38533  0.57080  1.0000
  S   S24       1.0  0.12055  0.37961  0.57952  1.0000
  Fe  Fe14      1.0  0.20447  0.36542  0.55133  1.0000
  H   H88       1.0  0.21918  0.24332  0.99343  1.0000
  Fe  Fe15      1.0  0.19052  0.42751  0.53928  1.0000
  H   H89       1.0  0.32914  0.29402  0.56340  1.0000
  S   S25       1.0  0.18312  0.36080  0.60339  1.0000
  S   S26       1.0  0.16847  0.42755  0.58977  1.0000
  C   C68       1.0  0.23346  0.08934  0.52640  1.0000
  C   C69       1.0  0.30109  0.21492  0.54633  1.0000
  Fe  Fe16      1.0  0.18846  0.37853  0.89463  1.0000
  S   S27       1.0  0.21378  0.39879  0.93114  1.0000
  S   S28       1.0  0.19488  0.35910  0.83715  1.0000
  Fe  Fe17      1.0  0.15369  0.37947  0.95792  1.0000
  C   C70       1.0  0.28356  0.24299  0.88818  1.0000
  H   H90       1.0  0.21208  0.23663  0.52835  1.0000
  Fe  Fe18      1.0  0.18634  0.42758  0.95127  1.0000
  S   S29       1.0  0.18601  0.47564  0.94794  1.0000
  Fe  Fe19      1.0  0.20227  0.36856  0.97610  1.0000
  H   H91       1.0  0.15303  0.41023  0.81461  1.0000
  S   S30       1.0  0.16198  0.40914  0.91105  1.0000
  S   S31       1.0  0.17828  0.34701  0.93861  1.0000
  H   H92       1.0  0.22050  0.30754  0.88220  1.0000
  C   C71       1.0  0.26373  0.34295  0.91865  1.0000
  C   C72       1.0  0.27234  0.28550  0.85556  1.0000
  C   C73       1.0  0.27520  0.25381  0.92150  1.0000
  H   H93       1.0  0.11718  0.45415  0.96642  1.0000
  C   C74       1.0  0.29413  0.00928  0.52557  1.0000
  N   N7        1.0  0.25272  0.32504  0.89065  1.0000
  C   C75       1.0  0.13547  0.46646  0.51473  1.0000
  H   H94       1.0  0.24473  0.11453  0.57386  1.0000
  C   C76       1.0  0.29987  0.03728  0.53246  1.0000
  H   H95       1.0  0.19106  0.10460  0.52264  1.0000
  H   H96       1.0  0.15102  0.46472  0.52941  1.0000
  H   H97       1.0  0.11440  0.33627  0.74456  1.0000
  C   C77       1.0  0.07927  0.48041  0.98374  1.0000
  C   C78       1.0  0.25165  0.07155  0.58330  1.0000
  C   C79       1.0  0.26549  0.28049  0.92208  1.0000
  C   C80       1.0  0.23300  0.06122  0.51356  1.0000
  H   H98       1.0  0.25914  0.28785  0.94854  1.0000
  H   H99       1.0  0.26198  0.33473  0.94770  1.0000
  C   C81       1.0  0.20057  0.40241  0.72178  1.0000
  C   C82       1.0  0.19763  0.37343  0.72467  1.0000
  C   C83       1.0  0.19586  0.36055  0.76020  1.0000
  C   C84       1.0  0.19682  0.37649  0.79317  1.0000
  C   C85       1.0  0.19966  0.40548  0.79026  1.0000
  C   C86       1.0  0.20160  0.41832  0.75474  1.0000
  H   H100      1.0  0.19721  0.36090  0.69959  1.0000
  H   H101      1.0  0.19376  0.33810  0.76218  1.0000
  H   H102      1.0  0.20056  0.41800  0.81536  1.0000
  H   H103      1.0  0.20400  0.44074  0.75281  1.0000
  H   H104      1.0  0.25763  0.02697  0.58618  1.0000
  H   H105      1.0  0.31128  0.19697  0.53619  1.0000
  H   H106      1.0  0.32547  0.07011  0.95084  1.0000
  C   C87       1.0  0.07953  0.38429  0.54748  1.0000
  S   S32       1.0  0.11696  0.37111  0.96085  1.0000
  H   H107      1.0  0.24458  0.36139  0.85670  1.0000
  H   H108      1.0  0.32940  0.11789  0.95459  1.0000
  C   C88       1.0  0.32398  0.24739  0.51314  1.0000
  H   H109      1.0  0.25929  0.07541  0.61012  1.0000
  C   C89       1.0  0.33262  0.23407  0.57670  1.0000
  C   C90       1.0  0.25285  0.34045  0.85433  1.0000
  C   C91       1.0  0.22353  0.25209  0.51787  1.0000
  C   C92       1.0  0.28985  0.03024  0.97494  1.0000
  C   C93       1.0  0.11675  0.45353  0.52912  1.0000
  C   C94       1.0  0.06456  0.38452  0.51743  1.0000
  C   C95       1.0  0.30145  0.26507  0.56422  1.0000
  H   H110      1.0  0.27607  0.24140  0.94709  1.0000
  H   H111      1.0  0.26994  0.34422  0.84415  1.0000
  H   H112      1.0  0.27158  0.29648  0.82908  1.0000
  H   H113      1.0  0.06942  0.46877  0.96277  1.0000
  H   H114      1.0  0.30638  0.04287  0.55951  1.0000
  H   H115      1.0  0.15797  0.35121  0.68790  1.0000
  C   C96       1.0  0.07708  0.37065  0.99638  1.0000
  H   H116      1.0  0.11810  0.33282  0.81256  1.0000
  H   H117      1.0  0.28027  0.03760  0.95129  1.0000
  C   C97       1.0  0.22562  0.14044  0.52063  1.0000
  S   S33       1.0  0.17664  0.39925  0.99929  1.0000
  C   C98       1.0  0.27850  0.26372  0.57267  1.0000
  C   C99       1.0  0.10233  0.38124  0.54102  1.0000
  H   H118      1.0  0.24311  0.14651  0.52511  1.0000
  H   H119      1.0  0.21656  0.14136  0.54776  1.0000
  H   H120      1.0  0.25643  0.36447  0.91937  1.0000
  H   H121      1.0  0.15053  0.41471  0.74723  1.0000
  C   C100      1.0  0.29976  0.31499  0.58094  1.0000
  C   C101      1.0  0.26370  0.29718  0.88918  1.0000
  H   H122      1.0  0.22762  0.31249  0.93050  1.0000
  C   C102      1.0  0.22936  0.32143  0.90192  1.0000
  H   H123      1.0  0.22040  0.34182  0.90216  1.0000
  H   H124      1.0  0.24915  0.28609  0.59017  1.0000
  H   H125      1.0  0.07338  0.38606  0.57585  1.0000
  H   H126      1.0  0.07031  0.37008  0.96844  1.0000
  H   H127      1.0  0.32615  0.22972  0.60534  1.0000
  H   H128      1.0  0.24338  0.32915  0.83254  1.0000
  H   H129      1.0  0.04701  0.38630  0.52272  1.0000
  C   C103      1.0  0.28217  0.25880  0.85530  1.0000
  C   C104      1.0  0.19031  0.50236  0.98159  1.0000
  H   H130      1.0  0.13738  0.36952  0.84781  1.0000
  H   H131      1.0  0.28167  0.34486  0.91249  1.0000
  H   H132      1.0  0.13945  0.35375  0.64881  1.0000
  N   N8        1.0  0.12958  0.37763  0.69735  1.0000
  C   C105      1.0  0.10588  0.37815  0.68712  1.0000
  C   C106      1.0  0.13986  0.40293  0.68051  1.0000
  C   C107      1.0  0.14026  0.35276  0.67997  1.0000
  C   C108      1.0  0.13178  0.37598  0.73862  1.0000
  C   C109      1.0  0.12281  0.35295  0.75879  1.0000
  C   C110      1.0  0.14264  0.39678  0.75993  1.0000
  C   C111      1.0  0.12474  0.35078  0.79771  1.0000
  C   C112      1.0  0.14424  0.39452  0.79890  1.0000
  C   C113      1.0  0.13548  0.37150  0.81770  1.0000
  H   H133      1.0  0.09732  0.35857  0.69537  1.0000
  H   H134      1.0  0.09709  0.39600  0.70076  1.0000
  H   H135      1.0  0.10362  0.38038  0.65627  1.0000
  H   H136      1.0  0.13232  0.42259  0.69149  1.0000
  H   H137      1.0  0.13783  0.40356  0.64955  1.0000
  H   H138      1.0  0.15794  0.40330  0.68568  1.0000
  H   H139      1.0  0.13229  0.33281  0.68838  1.0000
  C   C114      1.0  0.31175  0.29141  0.56914  1.0000
  H   H140      1.0  0.33595  0.26483  0.51414  1.0000
  H   H141      1.0  0.11790  0.44132  0.55480  1.0000
  H   H142      1.0  0.09051  0.49474  0.96829  1.0000
  C   C115      1.0  0.26675  0.28738  0.58479  1.0000
  C   C116      1.0  0.23419  0.30117  0.51213  1.0000
  H   H143      1.0  0.20728  0.29322  0.98844  1.0000
  H   H144      1.0  0.19660  0.49860  0.55791  1.0000
  C   C117      1.0  0.24321  0.09390  0.56199  1.0000
  H   H145      1.0  0.26903  0.24485  0.56925  1.0000
  H   H146      1.0  0.28768  0.21797  0.52550  1.0000
  C   C118      1.0  0.22989  0.25958  0.00362  1.0000
  C   C119      1.0  0.27726  0.31301  0.58850  1.0000
  N   N9        1.0  0.31439  0.24069  0.55041  1.0000
  H   H147      1.0  0.20512  0.28716  0.54123  1.0000
  C   C120      1.0  0.22311  0.28794  0.00059  1.0000
  H   H148      1.0  0.26782  0.33142  0.59679  1.0000
  S   S34       1.0  0.23071  0.33770  0.52194  1.0000
  C   C121      1.0  0.21950  0.28081  0.52521  1.0000
  C   C122      1.0  0.10527  0.44224  0.98406  1.0000
  H   H149      1.0  0.29376  0.20811  0.57346  1.0000
  S   S35       1.0  0.28755  0.08505  0.99843  1.0000
  H   H150      1.0  0.08302  0.44429  0.52231  1.0000
  S   S36       1.0  0.17746  0.38658  0.51790  1.0000
  H   H151      1.0  0.30787  0.33501  0.58391  1.0000
  C   C123      1.0  0.24136  0.03908  0.53520  1.0000
  H   H152      1.0  0.24126  0.01783  0.52453  1.0000
  C   C124      1.0  0.25063  0.04421  0.57001  1.0000
  H   H153      1.0  0.11464  0.42641  0.00078  1.0000
  H   H154      1.0  0.29103  0.22224  0.88788  1.0000
  H   H155      1.0  0.28864  0.25021  0.82940  1.0000
  C   C125      1.0  0.10003  0.37069  0.00124  1.0000
  H   H156      1.0  0.06716  0.49349  0.99952  1.0000
  H   H157      1.0  0.09481  0.42996  0.96463  1.0000
  H   H158      1.0  0.30104  0.07978  0.51088  1.0000
  C   C126      1.0  0.09670  0.45548  0.51005  1.0000
  C   C127      1.0  0.29681  0.05829  0.50496  1.0000
  C   C128      1.0  0.29549  0.04917  0.00331  1.0000
  H   H159      1.0  0.17372  0.77667  0.34981  1.0000
  Fe  Fe20      1.0  0.20137  0.65968  0.38743  1.0000
  S   S37       1.0  0.22369  0.65468  0.43751  1.0000
  S   S38       1.0  0.21686  0.65384  0.32930  1.0000
  Fe  Fe21      1.0  0.16196  0.67265  0.43728  1.0000
  C   C129      1.0  0.21997  0.78084  0.48602  1.0000
  S   S39       1.0  0.12489  0.67637  0.43053  1.0000
  Fe  Fe22      1.0  0.20757  0.69427  0.45942  1.0000
  H   H160      1.0  0.28540  0.72583  0.33987  1.0000
  Fe  Fe23      1.0  0.19629  0.63068  0.46507  1.0000
  H   H161      1.0  0.06991  0.59756  0.09542  1.0000
  S   S40       1.0  0.18674  0.70034  0.40772  1.0000
  S   S41       1.0  0.17533  0.63227  0.41351  1.0000
  Fe  Fe24      1.0  0.16449  0.66801  0.03272  1.0000
  C   C130      1.0  0.22366  0.80950  0.49362  1.0000
  Fe  Fe25      1.0  0.18281  0.67102  0.11279  1.0000
  S   S42       1.0  0.21502  0.65117  0.09563  1.0000
  S   S43       1.0  0.17455  0.68740  0.17124  1.0000
  Fe  Fe26      1.0  0.21327  0.68033  0.04547  1.0000
  C   C131      1.0  0.23656  0.76087  0.49294  1.0000
  Fe  Fe27      1.0  0.19421  0.62114  0.06234  1.0000
  S   S44       1.0  0.19784  0.57347  0.06769  1.0000
  S   S45       1.0  0.18206  0.70172  0.06425  1.0000
  S   S46       1.0  0.16196  0.63950  0.08273  1.0000
  H   H162      1.0  0.13494  0.58115  0.13758  1.0000
  H   H163      1.0  0.28151  0.81797  0.07517  1.0000
  C   C132      1.0  0.19467  0.51481  0.46516  1.0000
  H   H164      1.0  0.33197  0.96175  0.42277  1.0000
  H   H165      1.0  0.20417  0.77418  0.47548  1.0000
  H   H166      1.0  0.26881  0.75464  0.32260  1.0000
  C   C133      1.0  0.30865  0.99188  0.00735  1.0000
  C   C134      1.0  0.08427  0.66809  0.46220  1.0000
  C   C135      1.0  0.21916  0.73501  0.33894  1.0000
  S   S47       1.0  0.23288  0.72420  0.48550  1.0000
  H   H167      1.0  0.08265  0.59101  0.03197  1.0000
  C   C136      1.0  0.09472  0.58811  0.05385  1.0000
  C   C137      1.0  0.10247  0.66070  0.02778  1.0000
  H   H168      1.0  0.07314  0.64917  0.05850  1.0000
  H   H169      1.0  0.11291  0.66048  0.05226  1.0000
  C   C138      1.0  0.20440  0.66247  0.28565  1.0000
  C   C139      1.0  0.21497  0.65431  0.25218  1.0000
  C   C140      1.0  0.20586  0.66122  0.21695  1.0000
  C   C141      1.0  0.18622  0.67683  0.21481  1.0000
  C   C142      1.0  0.17582  0.68528  0.24827  1.0000
  C   C143      1.0  0.18470  0.67792  0.28348  1.0000
  H   H170      1.0  0.23017  0.64227  0.25353  1.0000
  H   H171      1.0  0.21403  0.65447  0.19153  1.0000
  H   H172      1.0  0.16062  0.69736  0.24697  1.0000
  H   H173      1.0  0.17631  0.68422  0.30892  1.0000
  H   H174      1.0  0.14778  0.54379  0.02268  1.0000
  H   H175      1.0  0.07962  0.66055  0.43487  1.0000
  C   C144      1.0  0.23352  0.74675  0.36585  1.0000
  C   C145      1.0  0.01684  0.53880  0.45969  1.0000
  C   C146      1.0  0.26933  0.75049  0.39885  1.0000
  H   H176      1.0  0.19774  0.79777  0.39765  1.0000
  C   C147      1.0  0.10585  0.67756  0.46804  1.0000
  H   H177      1.0  0.09851  0.52568  0.10522  1.0000
  C   C148      1.0  0.26815  0.73349  0.33588  1.0000
  H   H178      1.0  0.23456  0.77976  0.40856  1.0000
  C   C149      1.0  0.25362  0.70562  0.38666  1.0000
  C   C150      1.0  0.19637  0.51842  0.04525  1.0000
  C   C151      1.0  0.11730  0.58172  0.04632  1.0000
  C   C152      1.0  0.19617  0.54427  0.46720  1.0000
  H   H179      1.0  0.19622  0.55685  0.44188  1.0000
  H   H180      1.0  0.28097  0.98096  0.48491  1.0000
  N   N10       1.0  0.24569  0.72643  0.14052  1.0000
  C   C153      1.0  0.25719  0.69955  0.13182  1.0000
  C   C154      1.0  0.24477  0.72903  0.18189  1.0000
  C   C155      1.0  0.22287  0.72446  0.12625  1.0000
  C   C156      1.0  0.25638  0.75131  0.12357  1.0000
  C   C157      1.0  0.24783  0.77864  0.13058  1.0000
  C   C158      1.0  0.27466  0.74928  0.09853  1.0000
  C   C159      1.0  0.25701  0.80237  0.11365  1.0000
  C   C160      1.0  0.28379  0.77320  0.08199  1.0000
  C   C161      1.0  0.27494  0.79965  0.08938  1.0000
  H   H181      1.0  0.27461  0.69963  0.14148  1.0000
  H   H182      1.0  0.24904  0.68135  0.14567  1.0000
  H   H183      1.0  0.25697  0.69506  0.10122  1.0000
  H   H184      1.0  0.26157  0.73189  0.19361  1.0000
  H   H185      1.0  0.23744  0.71006  0.19532  1.0000
  H   H186      1.0  0.23424  0.74691  0.19113  1.0000
  H   H187      1.0  0.22293  0.72315  0.09517  1.0000
  H   H188      1.0  0.21438  0.70561  0.13750  1.0000
  H   H189      1.0  0.21238  0.74273  0.13421  1.0000
  H   H190      1.0  0.23358  0.78179  0.14840  1.0000
  H   H191      1.0  0.28178  0.72943  0.09015  1.0000
  H   H192      1.0  0.24986  0.82297  0.11852  1.0000
  H   H193      1.0  0.29725  0.77114  0.06203  1.0000
  C   C162      1.0  0.13139  0.57856  0.07774  1.0000
  C   C163      1.0  0.33855  0.98174  0.43397  1.0000
  H   H194      1.0  0.05201  0.66129  0.48646  1.0000
  S   S48       1.0  0.24343  0.70404  0.02273  1.0000
  C   C164      1.0  0.12362  0.58272  0.11422  1.0000
  C   C165      1.0  0.01814  0.55129  0.49499  1.0000
  H   H195      1.0  0.26058  0.71890  0.31558  1.0000
  H   H196      1.0  0.15696  0.58694  0.47187  1.0000
  C   C166      1.0  0.08708  0.59198  0.09049  1.0000
  C   C167      1.0  0.19034  0.76863  0.35394  1.0000
  H   H197      1.0  0.24393  0.70563  0.41314  1.0000
  C   C168      1.0  0.12629  0.61857  0.50042  1.0000
  C   C169      1.0  0.02105  0.51215  0.01030  1.0000
  S   S49       1.0  0.18142  0.66977  0.49055  1.0000
  C   C170      1.0  0.28563  0.00236  0.49053  1.0000
  H   H198      1.0  0.09562  0.59324  0.14883  1.0000
  N   N11       1.0  0.25581  0.73453  0.37186  1.0000
  H   H199      1.0  0.26183  0.75020  0.42737  1.0000
  H   H200      1.0  0.21894  0.75611  0.04116  1.0000
  H   H201      1.0  0.08199  0.50969  0.42099  1.0000
  C   C171      1.0  0.14233  0.57488  0.48168  1.0000
  H   H202      1.0  0.22392  0.71667  0.32305  1.0000
  H   H203      1.0  0.19903  0.51354  0.07451  1.0000
  H   H204      1.0  0.28614  0.74120  0.40217  1.0000
  C   C172      1.0  0.10152  0.58955  0.12057  1.0000
  C   C173      1.0  0.07994  0.65424  0.03126  1.0000
  H   H205      1.0  0.14870  0.57336  0.07433  1.0000
  C   C174      1.0  0.06864  0.66838  0.49141  1.0000
  H   H206      1.0  0.13904  0.51880  0.10962  1.0000
  C   C175      1.0  0.20387  0.78047  0.38085  1.0000
  H   H207      1.0  0.24499  0.69160  0.36693  1.0000
  C   C176      1.0  0.19799  0.74600  0.33295  1.0000
  H   H208      1.0  0.27140  0.77268  0.38978  1.0000
  H   H209      1.0  0.18723  0.73637  0.31265  1.0000
  H   H210      1.0  0.15922  0.59294  0.02036  1.0000
  H   H211      1.0  0.13125  0.57237  0.45723  1.0000
  C   C177      1.0  0.19556  0.54665  0.03354  1.0000
  H   H212      1.0  0.11484  0.61928  0.47615  1.0000
  C   C178      1.0  0.22516  0.76982  0.38684  1.0000
  H   H213      1.0  0.26991  0.69569  0.39277  1.0000
  C   C179      1.0  0.10691  0.51126  0.08646  1.0000
  C   C180      1.0  0.23371  0.76156  0.02582  1.0000
  H   H214      1.0  0.21056  0.82467  0.48885  1.0000
  H   H215      1.0  0.33769  0.91646  0.06550  1.0000
  H   H216      1.0  0.03698  0.55202  0.01649  1.0000
  H   H217      1.0  0.02462  0.54864  0.43571  1.0000
  H   H218      1.0  0.02694  0.57068  0.49803  1.0000
  C   C181      1.0  0.24815  0.74042  0.01345  1.0000
  S   S50       1.0  0.19573  0.64808  0.01070  1.0000
  S   S51       1.0  0.31724  0.95619  0.01144  1.0000
  H   H219      1.0  0.13979  0.61991  0.00829  1.0000
  C   C182      1.0  0.19811  0.55731  0.50198  1.0000
  H   H220      1.0  0.06992  0.51727  0.46614  1.0000
  H   H221      1.0  0.32392  0.00344  0.05932  1.0000
  H   H222      1.0  0.22737  0.80615  0.02889  1.0000
  H   H223      1.0  0.32422  0.99456  0.44388  1.0000
  H   H224      1.0  0.14891  0.55392  0.48980  1.0000
  C   C183      1.0  0.11171  0.68742  0.50335  1.0000
  S   S52       1.0  0.03793  0.64612  0.00550  1.0000
  C   C184      1.0  0.23856  0.79004  0.01887  1.0000
  H   H225      1.0  0.12090  0.53406  0.00714  1.0000
  N   N12       1.0  0.12625  0.57852  0.00790  1.0000
  H   H226      1.0  0.32750  0.96795  0.50295  1.0000
  H   H227      1.0  0.14161  0.62936  0.49103  1.0000
  H   H228      1.0  0.33916  0.93775  0.48178  1.0000
  H   H229      1.0  0.21205  0.73020  0.57249  1.0000
  H   H230      1.0  0.24403  0.71466  0.61014  1.0000
  S   S53       1.0  0.01864  0.62804  0.61005  1.0000
  Fe  Fe28      1.0  0.02273  0.65713  0.56087  1.0000
  S   S54       1.0  0.05483  0.68098  0.56325  1.0000
  C   C185      1.0  0.19885  0.76370  0.93842  1.0000
  Fe  Fe29      1.0  0.29743  0.93624  0.55872  1.0000
  S   S55       1.0  0.32924  0.91708  0.57990  1.0000
  C   C186      1.0  0.24051  0.73688  0.60697  1.0000
  Fe  Fe30      1.0  0.27781  0.87789  0.54103  1.0000
  S   S56       1.0  0.30850  0.85575  0.56030  1.0000
  C   C187      1.0  0.26077  0.79875  0.51370  1.0000
  Fe  Fe31      1.0  0.30777  0.88546  0.60946  1.0000
  S   S57       1.0  0.31451  0.86504  0.66676  1.0000
  Fe  Fe32      1.0  0.32699  0.88950  0.52953  1.0000
  S   S58       1.0  0.27595  0.90621  0.59175  1.0000
  C   C188      1.0  0.02144  0.55822  0.71783  1.0000
  C   C189      1.0  0.25699  0.77010  0.50663  1.0000
  H   H231      1.0  0.05331  0.75881  0.67379  1.0000
  H   H232      1.0  0.19962  0.55043  0.56163  1.0000
  S   S59       1.0  0.33278  0.91359  0.92082  1.0000
  C   C190      1.0  0.09593  0.68824  0.53240  1.0000
  S   S60       1.0  0.02606  0.61794  0.90527  1.0000
  H   H233      1.0  0.09571  0.56986  0.97940  1.0000
  Fe  Fe33      1.0  0.30358  0.89407  0.89255  1.0000
  S   S61       1.0  0.28075  0.90383  0.94133  1.0000
  S   S62       1.0  0.29549  0.90921  0.83298  1.0000
  C   C191      1.0  0.26678  0.80422  0.67467  1.0000
  Fe  Fe34      1.0  0.29019  0.86061  0.96322  1.0000
  C   C192      1.0  0.29637  0.00178  0.97689  1.0000
  Fe  Fe35      1.0  0.31079  0.92011  0.97086  1.0000
  C   C193      1.0  0.19708  0.79196  0.95074  1.0000
  S   S63       1.0  0.31120  0.85011  0.91267  1.0000
  H   H234      1.0  0.20264  0.72475  0.99248  1.0000
  H   H235      1.0  0.18334  0.72153  0.89477  1.0000
  C   C194      1.0  0.21785  0.77405  0.58145  1.0000
  H   H236      1.0  0.19229  0.57414  0.98587  1.0000
  C   C195      1.0  0.07270  0.54397  0.54782  1.0000
  S   S64       1.0  0.20056  0.59423  0.50657  1.0000
  H   H237      1.0  0.15134  0.59752  0.97288  1.0000
  H   H238      1.0  0.02397  0.71267  0.60839  1.0000
  H   H239      1.0  0.28699  0.78245  0.97154  1.0000
  C   C196      1.0  0.25074  0.78592  0.61781  1.0000
  H   H240      1.0  0.27244  0.78324  0.68454  1.0000
  H   H241      1.0  0.20391  0.78069  0.56455  1.0000
  C   C197      1.0  0.07096  0.57240  0.53910  1.0000
  H   H242      1.0  0.27871  0.73224  0.98414  1.0000
  C   C198      1.0  0.21299  0.81179  0.94088  1.0000
  C   C199      1.0  0.09742  0.66845  0.96141  1.0000
  C   C200      1.0  0.07497  0.66145  0.96479  1.0000
  S   S65       1.0  0.29672  0.98418  0.56230  1.0000
  H   H243      1.0  0.10406  0.67418  0.93429  1.0000
  H   H244      1.0  0.06444  0.66185  0.94041  1.0000
  C   C201      1.0  0.30793  0.87716  0.71261  1.0000
  C   C202      1.0  0.29845  0.90357  0.71900  1.0000
  C   C203      1.0  0.29449  0.91276  0.75597  1.0000
  C   C204      1.0  0.29978  0.89568  0.78703  1.0000
  C   C205      1.0  0.30863  0.86891  0.78056  1.0000
  C   C206      1.0  0.31282  0.85983  0.74362  1.0000
  H   H245      1.0  0.29452  0.91715  0.69554  1.0000
  S   S66       1.0  0.02299  0.66179  0.81723  1.0000
  H   H246      1.0  0.31222  0.85522  0.80398  1.0000
  H   H247      1.0  0.32007  0.83932  0.73904  1.0000
  H   H248      1.0  0.04387  0.68247  0.67646  1.0000
  H   H249      1.0  0.26998  0.75491  0.51203  1.0000
  H   H250      1.0  0.18192  0.70146  0.97563  1.0000
  C   C207      1.0  0.25440  0.75669  0.62301  1.0000
  N   N13       1.0  0.01588  0.56984  0.78590  1.0000
  H   H251      1.0  0.11934  0.63160  0.52344  1.0000
  H   H252      1.0  0.05824  0.53270  0.55738  1.0000
  H   H253      1.0  0.03569  0.65480  0.74072  1.0000
  C   C208      1.0  0.28898  0.80036  0.61867  1.0000
  H   H254      1.0  0.25006  0.80819  0.68669  1.0000
  C   C209      1.0  0.14562  0.59047  0.54566  1.0000
  C   C210      1.0  0.17152  0.73178  0.91439  1.0000
  H   H255      1.0  0.12734  0.53379  0.53270  1.0000
  C   C211      1.0  0.21725  0.75685  0.91531  1.0000
  H   H256      1.0  0.28915  0.80019  0.58753  1.0000
  C   C212      1.0  0.01809  0.55039  0.96572  1.0000
  S   S67       1.0  0.31864  0.87772  0.99609  1.0000
  S   S68       1.0  0.24734  0.85484  0.51903  1.0000
  C   C213      1.0  0.19806  0.54058  0.53458  1.0000
  H   H257      1.0  0.26833  0.74892  0.63887  1.0000
  S   S69       1.0  0.01159  0.55244  0.57092  1.0000
  S   S70       1.0  0.26295  0.83445  0.99186  1.0000
  C   C214      1.0  0.16505  0.75205  0.97476  1.0000
  H   H258      1.0  0.05063  0.57427  0.77283  1.0000
  C   C215      1.0  0.18969  0.53059  0.96981  1.0000
  C   C216      1.0  0.08947  0.58729  0.52701  1.0000
  C   C217      1.0  0.23180  0.79405  0.59683  1.0000
  H   H259      1.0  0.29174  0.98747  0.95496  1.0000
  H   H260      1.0  0.11717  0.58276  0.94966  1.0000
  H   H261      1.0  0.10043  0.69641  0.55945  1.0000
  H   H262      1.0  0.12827  0.69487  0.50805  1.0000
  C   C218      1.0  0.00887  0.53805  0.52632  1.0000
  H   H263      1.0  0.27822  0.81982  0.68707  1.0000
  H   H264      1.0  0.01402  0.65114  0.68235  1.0000
  C   C219      1.0  0.23312  0.77681  0.90587  1.0000
  C   C220      1.0  0.02669  0.53922  0.99892  1.0000
  N   N14       1.0  0.26645  0.80640  0.63325  1.0000
  C   C221      1.0  0.24401  0.81866  0.50780  1.0000
  H   H265      1.0  0.22774  0.81571  0.59069  1.0000
  Fe  Fe36      1.0  0.33890  0.87066  0.94436  1.0000
  H   H266      1.0  0.05190  0.73363  0.73271  1.0000
  C   C222      1.0  0.06610  0.65454  0.99983  1.0000
  C   C223      1.0  0.25780  0.79795  0.99929  1.0000
  C   C224      1.0  0.26736  0.74831  0.99381  1.0000
  C   C225      1.0  0.01786  0.65569  0.74185  1.0000
  H   H267      1.0  0.18728  0.53543  0.94048  1.0000
  H   H268      1.0  0.15331  0.73506  0.98241  1.0000
  H   H269      1.0  0.27307  0.85081  0.63525  1.0000
  C   C226      1.0  0.23099  0.80421  0.91866  1.0000
  H   H270      1.0  0.26111  0.83930  0.59256  1.0000
  C   C227      1.0  0.09307  0.53032  0.54496  1.0000
  C   C228      1.0  0.00844  0.57084  0.74647  1.0000
  C   C229      1.0  0.19382  0.71790  0.96703  1.0000
  C   C230      1.0  0.03725  0.58449  0.78929  1.0000
  H   H271      1.0  0.13691  0.59915  0.57060  1.0000
  N   N15       1.0  0.13073  0.58933  0.51292  1.0000
  S   S71       1.0  0.29629  0.91009  0.50674  1.0000
  H   H272      1.0  0.24455  0.84246  0.63465  1.0000
  N   N16       1.0  0.18253  0.74196  0.94861  1.0000
  H   H273      1.0  0.29564  0.77987  0.62850  1.0000
  H   H274      1.0  0.28748  0.93342  0.76056  1.0000
  H   H275      1.0  0.05517  0.58311  0.54230  1.0000
  H   H276      1.0  0.03689  0.54783  0.72420  1.0000
  H   H277      1.0  0.21974  0.73586  0.90483  1.0000
  C   C231      1.0  0.22237  0.74556  0.58600  1.0000
  H   H278      1.0  0.21188  0.83301  0.95159  1.0000
  H   H279      1.0  0.04290  0.58527  0.81890  1.0000
  H   H280      1.0  0.15491  0.76918  0.96207  1.0000
  C   C232      1.0  0.07434  0.67878  0.52649  1.0000
  H   H281      1.0  0.06366  0.70959  0.68376  1.0000
  C   C233      1.0  0.26095  0.83595  0.62341  1.0000
  H   H282      1.0  0.14139  0.54609  0.97419  1.0000
  C   C234      1.0  0.04965  0.70314  0.66605  1.0000
  H   H283      1.0  0.24364  0.81950  0.91231  1.0000
  H   H284      1.0  0.33949  0.88202  0.84519  1.0000
  H   H285      1.0  0.16329  0.74936  0.89909  1.0000
  H   H286      1.0  0.03547  0.73518  0.79518  1.0000
  H   H287      1.0  0.24740  0.77093  0.88920  1.0000
  H   H288      1.0  0.20617  0.70733  0.94876  1.0000
  C   C235      1.0  0.11123  0.66815  0.99287  1.0000
  H   H289      1.0  0.18385  0.79925  0.96862  1.0000
  H   H290      1.0  0.30105  0.81634  0.62785  1.0000
  C   C236      1.0  0.03425  0.73129  0.73505  1.0000
  C   C237      1.0  0.10979  0.58463  0.97816  1.0000
  S   S72       1.0  0.13928  0.67729  0.98737  1.0000
  H   H291      1.0  0.15870  0.71587  0.92127  1.0000
  C   C238      1.0  0.19243  0.55261  0.99553  1.0000
  C   C239      1.0  0.11176  0.54505  0.53331  1.0000
  H   H292      1.0  0.15241  0.56947  0.55334  1.0000
  H   H293      1.0  0.16007  0.60413  0.54011  1.0000
  H   H294      1.0  0.02182  0.57174  0.95792  1.0000
  H   H295      1.0  0.05679  0.69977  0.63762  1.0000
  C   C240      1.0  0.11052  0.57397  0.52365  1.0000
  H   H296      1.0  0.10322  0.60649  0.98040  1.0000
  C   C241      1.0  0.27214  0.77683  0.98663  1.0000
  H   H297      1.0  0.08685  0.60933  0.52100  1.0000
  H   H298      1.0  0.27659  0.80542  0.52399  1.0000
  H   H299      1.0  0.04796  0.75083  0.62577  1.0000
  C   C242      1.0  0.02499  0.73275  0.77093  1.0000
  S   S73       1.0  0.01140  0.62577  0.51865  1.0000
  C   C243      1.0  0.01481  0.55897  0.68036  1.0000
  C   C244      1.0  0.19635  0.51116  0.53257  1.0000
  Fe  Fe37      1.0  0.01534  0.64268  0.95530  1.0000
  C   C245      1.0  0.04034  0.75165  0.65425  1.0000
  H   H300      1.0  0.03209  0.52919  0.78279  1.0000
  H   H301      1.0  0.03577  0.60661  0.77933  1.0000
  H   H302      1.0  0.02711  0.76803  0.65373  1.0000
  C   C246      1.0  0.01564  0.71530  0.63605  1.0000
  N   N17       1.0  0.03132  0.72407  0.66548  1.0000
  H   H303      1.0  0.02496  0.54937  0.65873  1.0000
  C   C247      1.0  0.01874  0.54027  0.79833  1.0000
  C   C248      1.0  0.13438  0.54937  0.00274  1.0000
  C   C249      1.0  0.02103  0.72638  0.70307  1.0000
  H   H304      1.0  0.02302  0.53881  0.82864  1.0000
  C   C250      1.0  0.14492  0.59799  0.00212  1.0000
  H   H305      1.0  0.34079  0.92985  0.73625  1.0000
  H   H306      1.0  0.00797  0.69480  0.64322  1.0000
  H   H307      1.0  0.09448  0.50835  0.55258  1.0000
  H   H308      1.0  0.17223  0.75946  0.00153  1.0000
  S   S74       1.0  0.62193  0.19497  0.42887  1.0000
  C   C251      1.0  0.56511  0.19691  0.48917  1.0000
  H   H309      1.0  0.50214  0.06614  0.42245  1.0000
  S   S75       1.0  0.36707  0.16141  0.06955  1.0000
  C   C252      1.0  0.59308  0.02408  0.04914  1.0000
  H   H310      1.0  0.60983  0.15159  0.04352  1.0000
  H   H311      1.0  0.56921  0.14765  0.05206  1.0000
  C   C253      1.0  0.37451  0.17079  0.29127  1.0000
  Fe  Fe38      1.0  0.65660  0.17686  0.43112  1.0000
  H   H312      1.0  0.39878  0.16124  0.18649  1.0000
  H   H313      1.0  0.60999  0.11060  0.42050  1.0000
  H   H314      1.0  0.59137  0.13988  0.42252  1.0000
  C   C254      1.0  0.50922  0.05464  0.44576  1.0000
  H   H315      1.0  0.65152  0.24741  0.42510  1.0000
  H   H316      1.0  0.34887  0.14006  0.13825  1.0000
  C   C255      1.0  0.60315  0.19323  0.46675  1.0000
  C   C256      1.0  0.38401  0.16616  0.02966  1.0000
  H   H317      1.0  0.60933  0.08634  0.08566  1.0000
  H   H318      1.0  0.37250  0.20027  0.18502  1.0000
  H   H319      1.0  0.53405  0.01585  0.17156  1.0000
  C   C257      1.0  0.38713  0.16734  0.46233  1.0000
  C   C258      1.0  0.41002  0.16588  0.45544  1.0000
  H   H320      1.0  0.37567  0.16774  0.43922  1.0000
  H   H321      1.0  0.41610  0.16508  0.42694  1.0000
  C   C259      1.0  0.36174  0.15500  0.22977  1.0000
  N   N18       1.0  0.58231  0.10484  0.45813  1.0000
  C   C260      1.0  0.56844  0.09270  0.42828  1.0000
  C   C261      1.0  0.40619  0.15738  0.03088  1.0000
  N   N19       1.0  0.36327  0.15651  0.18841  1.0000
  C   C262      1.0  0.52623  0.01245  0.47079  1.0000
  H   H322      1.0  0.51556  0.11793  0.06848  1.0000
  H   H323      1.0  0.36003  0.10735  0.02326  1.0000
  H   H324      1.0  0.47885  0.05661  0.04826  1.0000
  H   H325      1.0  0.66535  0.17165  0.30001  1.0000
  H   H326      1.0  0.55390  0.08136  0.43968  1.0000
  H   H327      1.0  0.41258  0.14748  0.05594  1.0000
  H   H328      1.0  0.57813  0.07766  0.41086  1.0000
  H   H329      1.0  0.57506  0.20139  0.43141  1.0000
  C   C263      1.0  0.38560  0.14737  0.17597  1.0000
  C   C264      1.0  0.53050  0.01601  0.11180  1.0000
  H   H330      1.0  0.62283  0.25269  0.47573  1.0000
  H   H331      1.0  0.48799  0.10409  0.07565  1.0000
  N   N20       1.0  0.51092  0.07566  0.04860  1.0000
  C   C265      1.0  0.49309  0.06044  0.02916  1.0000
  C   C266      1.0  0.50251  0.10441  0.05648  1.0000
  H   H332      1.0  0.38512  0.18394  0.30787  1.0000
  H   H333      1.0  0.57794  0.01422  0.04058  1.0000
  H   H334      1.0  0.49868  0.03979  0.01829  1.0000
  C   C267      1.0  0.57606  0.15003  0.02422  1.0000
  H   H335      1.0  0.54333  0.09104  0.03536  1.0000
  C   C268      1.0  0.59196  0.08209  0.48143  1.0000
  C   C269      1.0  0.61505  0.07866  0.48697  1.0000
  C   C270      1.0  0.63276  0.02501  0.05658  1.0000
  C   C271      1.0  0.59907  0.15230  0.01946  1.0000
  H   H336      1.0  0.56166  0.10924  0.40927  1.0000
  H   H337      1.0  0.62683  0.28971  0.47516  1.0000
  C   C272      1.0  0.58060  0.19750  0.45975  1.0000
  H   H338      1.0  0.50220  0.08722  0.48554  1.0000
  C   C273      1.0  0.43160  0.08860  0.48989  1.0000
  C   C274      1.0  0.37489  0.02203  0.45723  1.0000
  C   C275      1.0  0.53006  0.07819  0.02282  1.0000
  H   H339      1.0  0.52372  0.06597  0.17799  1.0000
  H   H340      1.0  0.61746  0.01129  0.45484  1.0000
  S   S76       1.0  0.65991  0.12592  0.07024  1.0000
  C   C276      1.0  0.66707  0.31596  0.48506  1.0000
  H   H341      1.0  0.38935  0.12566  0.18585  1.0000
  C   C277      1.0  0.52399  0.05647  0.15049  1.0000
  H   H342      1.0  0.45608  0.07340  0.40679  1.0000
  H   H343      1.0  0.38001  0.01622  0.42931  1.0000
  Fe  Fe39      1.0  0.66205  0.15605  0.02228  1.0000
  S   S77       1.0  0.45368  0.16383  0.47573  1.0000
  C   C278      1.0  0.50927  0.06659  0.48147  1.0000
  H   H344      1.0  0.62713  0.09232  0.47423  1.0000
  C   C279      1.0  0.61016  0.18834  0.50349  1.0000
  C   C280      1.0  0.35068  0.09033  0.00938  1.0000
  C   C281      1.0  0.37595  0.17131  0.25219  1.0000
  C   C282      1.0  0.51774  0.06002  0.08265  1.0000
  H   H345      1.0  0.60958  0.13362  0.46056  1.0000
  C   C283      1.0  0.45417  0.04502  0.45387  1.0000
  C   C284      1.0  0.35943  0.18582  0.17557  1.0000
  C   C285      1.0  0.52451  0.03153  0.08012  1.0000
  C   C286      1.0  0.51803  0.07227  0.11888  1.0000
  C   C287      1.0  0.61051  0.06527  0.07445  1.0000
  H   H346      1.0  0.64866  0.17878  0.23716  1.0000
  C   C288      1.0  0.66281  0.23670  0.49403  1.0000
  H   H347      1.0  0.34927  0.11605  0.17658  1.0000
  H   H348      1.0  0.51355  0.09392  0.12365  1.0000
  S   S78       1.0  0.66483  0.17083  0.16233  1.0000
  H   H349      1.0  0.65511  0.32153  0.46390  1.0000
  H   H350      1.0  0.34340  0.19407  0.18630  1.0000
  H   H351      1.0  0.56068  0.14064  0.46554  1.0000
  S   S79       1.0  0.66408  0.13580  0.40296  1.0000
  H   H352      1.0  0.38711  0.14762  0.14481  1.0000
  C   C289      1.0  0.37922  0.16895  0.49911  1.0000
  H   H353      1.0  0.52491  0.02084  0.05361  1.0000
  H   H354      1.0  0.64584  0.06312  0.07948  1.0000
  H   H355      1.0  0.49718  0.11542  0.03048  1.0000
  C   C290      1.0  0.59909  0.12285  0.43968  1.0000
  C   C291      1.0  0.51717  0.02730  0.44060  1.0000
  N   N21       1.0  0.65690  0.26510  0.47985  1.0000
  C   C292      1.0  0.53000  0.02833  0.14698  1.0000
  H   H356      1.0  0.57556  0.06140  0.06657  1.0000
  H   H357      1.0  0.35915  0.18744  0.14440  1.0000
  H   H358      1.0  0.43653  0.11216  0.43908  1.0000
  H   H359      1.0  0.38807  0.18496  0.23963  1.0000
  H   H360      1.0  0.35467  0.07033  0.02409  1.0000
  C   C293      1.0  0.45015  0.07042  0.43523  1.0000
  C   C294      1.0  0.63106  0.05218  0.07091  1.0000
  C   C295      1.0  0.42508  0.16565  0.48524  1.0000
  C   C296      1.0  0.43910  0.09224  0.45330  1.0000
  H   H361      1.0  0.54778  0.20047  0.48346  1.0000
  C   C297      1.0  0.66043  0.26498  0.43868  1.0000
  H   H362      1.0  0.39090  0.06211  0.45215  1.0000
  H   H363      1.0  0.53731  0.05747  0.01549  1.0000
  C   C298      1.0  0.63308  0.26978  0.48761  1.0000
  C   C299      1.0  0.34703  0.13858  0.16916  1.0000
  H   H364      1.0  0.65433  0.28445  0.42488  1.0000
  C   C300      1.0  0.66998  0.28770  0.49700  1.0000
  H   H365      1.0  0.57929  0.02105  0.43608  1.0000
  C   C301      1.0  0.59155  0.05123  0.06361  1.0000
  S   S80       1.0  0.51404  0.01126  0.39714  1.0000
  C   C302      1.0  0.56823  0.12313  0.48195  1.0000
  C   C303      1.0  0.38107  0.04849  0.46991  1.0000
  H   H366      1.0  0.65287  0.22029  0.48023  1.0000
  C   C304      1.0  0.66521  0.17024  0.23940  1.0000
  H   H367      1.0  0.46308  0.02918  0.43821  1.0000
  H   H368      1.0  0.64922  0.01633  0.05455  1.0000
  C   C305      1.0  0.44742  0.04095  0.49172  1.0000
  H   H369      1.0  0.35742  0.15420  0.33940  1.0000
  C   C306      1.0  0.35906  0.15388  0.30915  1.0000
  C   C307      1.0  0.61373  0.00997  0.04554  1.0000
  C   C308      1.0  0.34512  0.13725  0.28808  1.0000
  C   C309      1.0  0.34626  0.13778  0.24897  1.0000
  H   H370      1.0  0.55433  0.11160  0.49514  1.0000
  H   H371      1.0  0.56032  0.06444  0.49778  1.0000
  C   C310      1.0  0.57800  0.06282  0.50022  1.0000
  H   H372      1.0  0.42311  0.10577  0.50384  1.0000
  Fe  Fe40      1.0  0.47696  0.15625  0.52416  1.0000
  S   S81       1.0  0.47017  0.12201  0.56583  1.0000
  H   H373      1.0  0.38017  0.04249  0.98869  1.0000
  Fe  Fe41      1.0  0.52149  0.17052  0.55880  1.0000
  S   S82       1.0  0.51785  0.13746  0.60325  1.0000
  S   S83       1.0  0.55326  0.19480  0.56368  1.0000
  Fe  Fe42      1.0  0.50570  0.11043  0.55714  1.0000
  S   S84       1.0  0.51815  0.06603  0.55655  1.0000
  Fe  Fe43      1.0  0.48289  0.15234  0.60824  1.0000
  S   S85       1.0  0.46451  0.15836  0.66282  1.0000
  S   S86       1.0  0.35077  0.17245  0.50928  1.0000
  S   S87       1.0  0.48710  0.18787  0.56722  1.0000
  Fe  Fe44      1.0  0.50204  0.15797  0.86707  1.0000
  S   S88       1.0  0.49581  0.18499  0.91765  1.0000
  S   S89       1.0  0.51880  0.16910  0.81252  1.0000
  Fe  Fe45      1.0  0.48517  0.10574  0.90520  1.0000
  S   S90       1.0  0.47728  0.12758  0.95881  1.0000
  S   S91       1.0  0.47714  0.06044  0.89784  1.0000
  Fe  Fe46      1.0  0.46354  0.16177  0.92229  1.0000
  S   S92       1.0  0.42932  0.18094  0.92822  1.0000
  Fe  Fe47      1.0  0.51016  0.14851  0.95026  1.0000
  C   C311      1.0  0.51812  0.04781  0.92535  1.0000
  S   S93       1.0  0.46888  0.13790  0.86892  1.0000
  S   S94       1.0  0.51895  0.12359  0.89941  1.0000
  C   C312      1.0  0.48610  0.08762  0.67670  1.0000
  C   C313      1.0  0.57087  0.15472  0.95739  1.0000
  C   C314      1.0  0.59384  0.15709  0.95264  1.0000
  C   C315      1.0  0.41711  0.16668  0.52200  1.0000
  H   H374      1.0  0.34468  0.25137  0.57872  1.0000
  H   H375      1.0  0.56011  0.15599  0.93336  1.0000
  H   H376      1.0  0.60062  0.16009  0.92485  1.0000
  C   C316      1.0  0.41225  0.17481  0.96761  1.0000
  H   H377      1.0  0.34228  0.21523  0.56756  1.0000
  H   H378      1.0  0.38828  0.12539  0.93904  1.0000
  C   C317      1.0  0.61974  0.07846  0.96690  1.0000
  H   H379      1.0  0.55415  0.28537  0.78465  1.0000
  H   H380      1.0  0.46778  0.11041  0.78465  1.0000
  H   H381      1.0  0.65957  0.23458  0.52460  1.0000
  C   C318      1.0  0.49616  0.03946  0.92211  1.0000
  C   C319      1.0  0.51401  0.06202  0.72881  1.0000
  C   C320      1.0  0.47938  0.15859  0.70500  1.0000
  C   C321      1.0  0.50202  0.15273  0.70563  1.0000
  C   C322      1.0  0.51389  0.15542  0.73900  1.0000
  C   C323      1.0  0.50315  0.16365  0.77202  1.0000
  C   C324      1.0  0.48035  0.16835  0.77183  1.0000
  C   C325      1.0  0.46851  0.16591  0.73832  1.0000
  H   H382      1.0  0.51046  0.14650  0.68037  1.0000
  H   H383      1.0  0.53150  0.15139  0.73918  1.0000
  H   H384      1.0  0.47197  0.17489  0.79718  1.0000
  H   H385      1.0  0.45097  0.17045  0.73804  1.0000
  H   H386      1.0  0.65714  0.10120  0.98682  1.0000
  C   C326      1.0  0.48920  0.01467  0.93937  1.0000
  C   C327      1.0  0.62575  0.03403  0.90973  1.0000
  C   C328      1.0  0.60916  0.03886  0.52829  1.0000
  C   C329      1.0  0.41681  0.10001  0.94447  1.0000
  S   S95       1.0  0.63671  0.15930  0.97600  1.0000
  C   C330      1.0  0.41258  0.05402  0.97181  1.0000
  H   H387      1.0  0.48066  0.04131  0.82355  1.0000
  H   H388      1.0  0.62746  0.18485  0.50927  1.0000
  N   N22       1.0  0.35589  0.08911  0.96884  1.0000
  H   H389      1.0  0.44357  0.07077  0.95298  1.0000
  C   C331      1.0  0.38989  0.05889  0.97593  1.0000
  H   H390      1.0  0.42856  0.16649  0.54514  1.0000
  H   H391      1.0  0.38827  0.16973  0.55738  1.0000
  H   H392      1.0  0.64374  0.11510  0.92595  1.0000
  C   C332      1.0  0.37593  0.17910  0.99724  1.0000
  H   H393      1.0  0.54430  0.28302  0.66662  1.0000
  H   H394      1.0  0.35510  0.04836  0.55425  1.0000
  H   H395      1.0  0.42919  0.06148  0.53703  1.0000
  C   C333      1.0  0.34766  0.11556  0.95141  1.0000
  H   H396      1.0  0.47363  0.03244  0.77636  1.0000
  H   H397      1.0  0.60027  0.18555  0.56158  1.0000
  C   C334      1.0  0.53301  0.03174  0.94649  1.0000
  H   H398      1.0  0.55752  0.30699  0.72175  1.0000
  H   H399      1.0  0.53316  0.01277  0.52987  1.0000
  C   C335      1.0  0.42600  0.07456  0.95610  1.0000
  H   H400      1.0  0.50187  0.03154  0.79151  1.0000
  C   C336      1.0  0.64234  0.04396  0.93411  1.0000
  N   N23       1.0  0.48818  0.07311  0.78221  1.0000
  H   H401      1.0  0.35483  0.13429  0.96494  1.0000
  N   N24       1.0  0.52392  0.23007  0.66396  1.0000
  C   C337      1.0  0.52601  0.24534  0.62774  1.0000
  C   C338      1.0  0.53643  0.20335  0.66027  1.0000
  C   C339      1.0  0.50017  0.22384  0.66958  1.0000
  C   C340      1.0  0.53230  0.24572  0.69654  1.0000
  C   C341      1.0  0.53081  0.23399  0.73313  1.0000
  C   C342      1.0  0.54226  0.27250  0.69323  1.0000
  C   C343      1.0  0.53859  0.24818  0.76440  1.0000
  C   C344      1.0  0.55001  0.28656  0.72479  1.0000
  C   C345      1.0  0.54815  0.27444  0.76027  1.0000
  H   H402      1.0  0.54360  0.24929  0.62038  1.0000
  H   H403      1.0  0.51937  0.23286  0.60408  1.0000
  H   H404      1.0  0.51669  0.26555  0.62802  1.0000
  H   H405      1.0  0.55426  0.20719  0.65482  1.0000
  H   H406      1.0  0.53025  0.19065  0.63661  1.0000
  H   H407      1.0  0.53530  0.19003  0.68570  1.0000
  H   H408      1.0  0.49020  0.24344  0.67233  1.0000
  H   H409      1.0  0.49330  0.21159  0.64597  1.0000
  H   H410      1.0  0.49706  0.21115  0.69514  1.0000
  H   H411      1.0  0.52362  0.21364  0.73803  1.0000
  C   C346      1.0  0.39005  0.18354  0.96642  1.0000
  H   H412      1.0  0.53715  0.23859  0.79199  1.0000
  C   C347      1.0  0.56187  0.15150  0.99324  1.0000
  C   C348      1.0  0.60799  0.15622  0.98363  1.0000
  H   H413      1.0  0.65969  0.08918  0.90130  1.0000
  C   C349      1.0  0.51972  0.06243  0.69082  1.0000
  C   C350      1.0  0.39415  0.10507  0.94833  1.0000
  H   H414      1.0  0.62977  0.27047  0.51827  1.0000
  H   H415      1.0  0.52531  0.05175  0.74787  1.0000
  H   H416      1.0  0.34911  0.06182  0.92254  1.0000
  C   C351      1.0  0.50577  0.07517  0.66483  1.0000
  C   C352      1.0  0.50571  0.08622  0.80488  1.0000
  H   H417      1.0  0.51027  0.07555  0.63542  1.0000
  H   H418      1.0  0.54993  0.03840  0.94921  1.0000
  C   C353      1.0  0.43543  0.06326  0.50877  1.0000
  H   H419      1.0  0.45288  0.07824  0.77659  1.0000
  H   H420      1.0  0.52531  0.08864  0.99599  1.0000
  C   C354      1.0  0.37993  0.08449  0.96398  1.0000
  C   C355      1.0  0.46705  0.08761  0.79150  1.0000
  H   H421      1.0  0.47546  0.09796  0.65641  1.0000
  H   H422      1.0  0.63024  0.09118  0.89585  1.0000
  C   C356      1.0  0.65881  0.07943  0.97592  1.0000
  H   H423      1.0  0.61571  0.02259  0.54656  1.0000
  H   H424      1.0  0.57533  0.02730  0.53744  1.0000
  H   H425      1.0  0.50133  0.08644  0.83518  1.0000
  H   H426      1.0  0.46501  0.09814  0.72175  1.0000
  C   C357      1.0  0.49408  0.07454  0.74195  1.0000
  C   C358      1.0  0.65978  0.02493  0.94308  1.0000
  C   C359      1.0  0.46227  0.02147  0.54961  1.0000
  H   H427      1.0  0.67342  0.03072  0.96054  1.0000
  H   H428      1.0  0.42732  0.11610  0.93251  1.0000
  C   C360      1.0  0.48026  0.08749  0.71464  1.0000
  H   H429      1.0  0.35139  0.11625  0.92089  1.0000
  C   C361      1.0  0.48603  0.04333  0.79379  1.0000
  H   H430      1.0  0.61641  0.06250  0.98898  1.0000
  H   H431      1.0  0.52373  0.06646  0.91129  1.0000
  H   H432      1.0  0.50843  0.10834  0.79605  1.0000
  H   H433      1.0  0.38380  0.19397  0.94161  1.0000
  H   H434      1.0  0.61225  0.04749  0.90098  1.0000
  C   C362      1.0  0.64383  0.09290  0.91643  1.0000
  H   H435      1.0  0.46311  0.08602  0.82197  1.0000
  H   H436      1.0  0.61922  0.09940  0.98060  1.0000
  H   H437      1.0  0.52178  0.07501  0.80274  1.0000
  C   C363      1.0  0.39427  0.16851  0.52886  1.0000
  N   N25       1.0  0.64134  0.07308  0.94828  1.0000
  C   C364      1.0  0.51781  0.05146  0.51183  1.0000
  H   H438      1.0  0.60571  0.07865  0.94702  1.0000
  S   S96       1.0  0.51195  0.14219  0.51195  1.0000
  C   C365      1.0  0.59473  0.18865  0.53310  1.0000
  C   C366      1.0  0.57215  0.19281  0.52601  1.0000
  C   C367      1.0  0.58649  0.04152  0.52316  1.0000
  H   H439      1.0  0.53504  0.05283  0.68135  1.0000
  H   H440      1.0  0.41922  0.01196  0.53593  1.0000
  C   C368      1.0  0.42024  0.16150  0.99987  1.0000
  C   C369      1.0  0.52646  0.02448  0.50643  1.0000
  H   H441      1.0  0.45065  0.03228  0.56892  1.0000
  N   N26       1.0  0.45220  0.01481  0.51292  1.0000
  H   H442      1.0  0.47689  0.03519  0.54580  1.0000
  C   C370      1.0  0.34354  0.06567  0.95181  1.0000
  C   C371      1.0  0.62336  0.05737  0.51018  1.0000
  C   C372      1.0  0.36100  0.04075  0.52741  1.0000
  C   C373      1.0  0.35486  0.01415  0.51515  1.0000
  H   H443      1.0  0.43732  0.15483  0.00114  1.0000
  H   H444      1.0  0.35895  0.18627  0.99618  1.0000
  H   H445      1.0  0.41983  0.03422  0.98079  1.0000
  H   H446      1.0  0.34522  0.04571  0.96783  1.0000
  H   H447      1.0  0.37836  0.07874  0.51417  1.0000
  H   H448      1.0  0.65802  0.06519  0.00067  1.0000
  S   S97       1.0  0.53304  0.14933  0.00033  1.0000
  H   H449      1.0  0.64096  0.05557  0.51448  1.0000
  C   C374      1.0  0.37406  0.05789  0.50487  1.0000
  H   H450      1.0  0.48691  0.07226  0.00426  1.0000
  H   H451      1.0  0.57795  0.13252  0.50500  1.0000
  Fe  Fe48      1.0  0.48424  0.91773  0.36168  1.0000
  S   S98       1.0  0.48725  0.88839  0.41105  1.0000
  S   S99       1.0  0.47001  0.90204  0.30739  1.0000
  Fe  Fe49      1.0  0.50478  0.96594  0.40336  1.0000
  S   S100      1.0  0.50963  0.94077  0.45587  1.0000
  H   H452      1.0  0.54858  0.80773  0.28806  1.0000
  Fe  Fe50      1.0  0.52124  0.90649  0.41753  1.0000
  S   S101      1.0  0.55230  0.87951  0.42026  1.0000
  Fe  Fe51      1.0  0.47522  0.92521  0.44499  1.0000
  C   C375      1.0  0.54105  0.88852  0.19516  1.0000
  S   S102      1.0  0.51897  0.93310  0.36562  1.0000
  S   S103      1.0  0.46965  0.95313  0.39505  1.0000
  Fe  Fe52      1.0  0.52527  0.89567  0.04558  1.0000
  S   S104      1.0  0.54079  0.93311  0.07139  1.0000
  C   C376      1.0  0.37700  0.89243  0.05777  1.0000
  Fe  Fe53      1.0  0.48096  0.92552  0.03489  1.0000
  S   S105      1.0  0.49402  0.96541  0.05944  1.0000
  C   C377      1.0  0.38058  0.92168  0.14910  1.0000
  Fe  Fe54      1.0  0.52428  0.95677  0.02544  1.0000
  H   H453      1.0  0.56958  0.85023  0.31327  1.0000
  Fe  Fe55      1.0  0.50920  0.93795  0.10348  1.0000
  S   S106      1.0  0.51262  0.95563  0.16164  1.0000
  C   C378      1.0  0.39575  0.92326  0.17847  1.0000
  S   S107      1.0  0.49443  0.89818  0.08180  1.0000
  H   H454      1.0  0.54211  0.89910  0.16823  1.0000
  H   H455      1.0  0.42349  0.99389  0.49246  1.0000
  H   H456      1.0  0.38966  0.87835  0.43443  1.0000
  C   C379      1.0  0.57405  0.87403  0.01461  1.0000
  H   H457      1.0  0.48323  0.00648  0.48567  1.0000
  H   H458      1.0  0.43009  0.92471  0.19389  1.0000
  H   H459      1.0  0.36450  0.94194  0.02912  1.0000
  S   S108      1.0  0.35364  0.88031  0.48641  1.0000
  C   C380      1.0  0.41096  0.92039  0.10478  1.0000
  H   H460      1.0  0.63762  0.94703  0.01884  1.0000
  H   H461      1.0  0.55317  0.84375  0.35453  1.0000
  C   C381      1.0  0.38081  0.89306  0.48950  1.0000
  C   C382      1.0  0.53359  0.81678  0.30170  1.0000
  C   C383      1.0  0.49932  0.94109  0.20106  1.0000
  C   C384      1.0  0.48662  0.91683  0.19878  1.0000
  C   C385      1.0  0.47739  0.90510  0.23150  1.0000
  C   C386      1.0  0.48100  0.91746  0.26650  1.0000
  C   C387      1.0  0.49348  0.94185  0.26858  1.0000
  C   C388      1.0  0.50250  0.95369  0.23596  1.0000
  H   H462      1.0  0.48421  0.90691  0.17200  1.0000
  H   H463      1.0  0.46774  0.88620  0.22978  1.0000
  H   H464      1.0  0.49606  0.95177  0.29530  1.0000
  H   H465      1.0  0.51226  0.97249  0.23786  1.0000
  C   C389      1.0  0.58152  0.95189  0.41537  1.0000
  C   C390      1.0  0.41682  0.89991  0.45986  1.0000
  H   H466      1.0  0.38999  0.92435  0.20722  1.0000
  H   H467      1.0  0.54492  0.92639  0.22633  1.0000
  H   H468      1.0  0.42781  0.89688  0.43622  1.0000
  C   C391      1.0  0.39522  0.88940  0.45895  1.0000
  C   C392      1.0  0.57221  0.88512  0.45541  1.0000
  C   C393      1.0  0.59272  0.87112  0.45342  1.0000
  C   C394      1.0  0.53697  0.86133  0.26582  1.0000
  H   H469      1.0  0.51163  0.84887  0.34959  1.0000
  H   H470      1.0  0.59606  0.85687  0.43060  1.0000
  H   H471      1.0  0.51393  0.88118  0.32464  1.0000
  C   C395      1.0  0.51403  0.85808  0.32114  1.0000
  H   H472      1.0  0.34495  0.89932  0.10838  1.0000
  H   H473      1.0  0.49929  0.85308  0.30400  1.0000
  C   C396      1.0  0.53547  0.84620  0.23171  1.0000
  H   H474      1.0  0.53252  0.82395  0.23097  1.0000
  H   H475      1.0  0.64648  0.92714  0.41325  1.0000
  C   C397      1.0  0.61717  0.96692  0.44035  1.0000
  H   H476      1.0  0.59593  0.84073  0.03262  1.0000
  H   H477      1.0  0.44355  0.92237  0.12849  1.0000
  H   H478      1.0  0.53598  0.84802  0.17122  1.0000
  H   H479      1.0  0.60845  0.92417  0.42355  1.0000
  C   C398      1.0  0.55358  0.85521  0.32724  1.0000
  C   C399      1.0  0.54265  0.90389  0.22800  1.0000
  H   H480      1.0  0.55361  0.87778  0.33490  1.0000
  C   C400      1.0  0.53746  0.85976  0.19699  1.0000
  H   H481      1.0  0.63883  0.91672  0.46049  1.0000
  C   C401      1.0  0.60318  0.94575  0.42621  1.0000
  N   N27       1.0  0.53462  0.84787  0.30312  1.0000
  H   H482      1.0  0.37125  0.96288  0.06899  1.0000
  C   C402      1.0  0.64806  0.93235  0.44342  1.0000
  H   H483      1.0  0.60152  0.94026  0.03889  1.0000
  C   C403      1.0  0.57306  0.97899  0.41862  1.0000
  N   N28       1.0  0.35444  0.97660  0.46471  1.0000
  H   H484      1.0  0.36863  0.93893  0.44081  1.0000
  N   N29       1.0  0.64038  0.96143  0.45124  1.0000
  C   C404      1.0  0.58614  0.00011  0.43312  1.0000
  C   C405      1.0  0.54032  0.89068  0.26281  1.0000
  H   H485      1.0  0.36558  0.89017  0.03363  1.0000
  H   H486      1.0  0.54065  0.90381  0.28736  1.0000
  H   H487      1.0  0.39254  0.94480  0.04375  1.0000
  H   H488      1.0  0.64944  0.98069  0.01285  1.0000
  H   H489      1.0  0.37535  0.87344  0.07576  1.0000
  H   H490      1.0  0.41774  0.91935  0.07677  1.0000
  H   H491      1.0  0.53280  0.99155  0.46691  1.0000
  H   H492      1.0  0.64364  0.96721  0.05951  1.0000
  C   C406      1.0  0.63744  0.96876  0.03029  1.0000
  C   C407      1.0  0.65523  0.98075  0.43055  1.0000
  H   H493      1.0  0.58210  0.96781  0.04480  1.0000
  C   C408      1.0  0.56802  0.90338  0.48509  1.0000
  H   H494      1.0  0.53248  0.80737  0.33030  1.0000
  C   C409      1.0  0.60790  0.99427  0.44381  1.0000
  H   H495      1.0  0.63938  0.98819  0.49994  1.0000
  H   H496      1.0  0.38124  0.97010  0.42481  1.0000
  H   H497      1.0  0.46044  0.98687  0.46730  1.0000
  H   H498      1.0  0.55626  0.98353  0.41006  1.0000
  H   H499      1.0  0.39393  0.89201  0.04578  1.0000
  C   C410      1.0  0.60888  0.87522  0.48105  1.0000
  C   C411      1.0  0.59979  0.96224  0.04905  1.0000
  H   H500      1.0  0.57109  0.93541  0.40477  1.0000
  H   H501      1.0  0.60298  0.96206  0.07969  1.0000
  C   C412      1.0  0.42594  0.92208  0.13428  1.0000
  N   N30       1.0  0.37235  0.91838  0.07925  1.0000
  H   H502      1.0  0.65212  0.98001  0.39990  1.0000
  C   C413      1.0  0.41837  0.92346  0.17108  1.0000
  S   S109      1.0  0.55052  0.86095  0.03800  1.0000
  H   H503      1.0  0.65341  0.00288  0.43976  1.0000
  C   C414      1.0  0.37533  0.94301  0.05422  1.0000
  C   C415      1.0  0.38779  0.92014  0.11119  1.0000
  S   S110      1.0  0.45124  0.92718  0.49413  1.0000
  H   H504      1.0  0.51865  0.80966  0.28660  1.0000
  N   N31       1.0  0.61497  0.98156  0.02904  1.0000
  C   C416      1.0  0.34869  0.91781  0.09040  1.0000
  H   H505      1.0  0.36334  0.92170  0.15681  1.0000
  S   S111      1.0  0.44598  0.93394  0.01464  1.0000
  C   C417      1.0  0.59448  0.85984  0.01631  1.0000
  C   C418      1.0  0.37356  0.96031  0.44985  1.0000
  C   C419      1.0  0.64284  0.96613  0.49197  1.0000
  H   H506      1.0  0.66578  0.92928  0.45078  1.0000
  H   H507      1.0  0.53503  0.99404  0.10922  1.0000
  H   H508      1.0  0.34614  0.99330  0.41013  1.0000
  H   H509      1.0  0.62446  0.86400  0.47966  1.0000
  H   H510      1.0  0.65994  0.96120  0.50135  1.0000
  C   C420      1.0  0.42423  0.91388  0.49159  1.0000
  H   H511      1.0  0.38654  0.95753  0.47152  1.0000
  H   H512      1.0  0.34360  0.93734  0.10515  1.0000
  H   H513      1.0  0.55232  0.91422  0.48701  1.0000
  C   C421      1.0  0.34341  0.95866  0.49321  1.0000
  C   C422      1.0  0.46775  0.99566  0.49315  1.0000
  C   C423      1.0  0.36170  0.00391  0.47956  1.0000
  H   H514      1.0  0.67293  0.97519  0.43486  1.0000
  S   S112      1.0  0.62342  0.89798  0.54792  1.0000
  C   C424      1.0  0.41472  0.86418  0.97726  1.0000
  H   H515      1.0  0.40512  0.94450  0.97850  1.0000
  C   C425      1.0  0.36363  0.89869  0.71608  1.0000
  C   C426      1.0  0.35352  0.86685  0.84696  1.0000
  C   C427      1.0  0.37857  0.87754  0.72584  1.0000
  C   C428      1.0  0.50400  0.99884  0.96111  1.0000
  C   C429      1.0  0.57230  0.89861  0.99337  1.0000
  H   H516      1.0  0.38874  0.83750  0.82752  1.0000
  H   H517      1.0  0.65393  0.82771  0.86637  1.0000
  H   H518      1.0  0.59018  0.88479  0.86679  1.0000
  C   C430      1.0  0.42757  0.91083  0.99275  1.0000
  H   H519      1.0  0.36549  0.91984  0.85500  1.0000
  H   H520      1.0  0.46796  0.00224  0.56472  1.0000
  S   S113      1.0  0.54372  0.98968  0.99517  1.0000
  S   S114      1.0  0.51039  0.91931  0.99702  1.0000
  C   C431      1.0  0.43138  0.99946  0.51946  1.0000
  C   C432      1.0  0.39460  0.87543  0.96435  1.0000
  S   S115      1.0  0.37372  0.85294  0.94830  1.0000
  C   C433      1.0  0.39233  0.85822  0.84014  1.0000
  H   H521      1.0  0.49836  0.98008  0.97520  1.0000
  H   H522      1.0  0.37722  0.91010  0.54485  1.0000
  H   H523      1.0  0.58044  0.92094  0.53617  1.0000
  H   H524      1.0  0.67383  0.98348  0.93597  1.0000
  S   S116      1.0  0.63348  0.91031  0.95169  1.0000
  C   C434      1.0  0.61106  0.89506  0.97571  1.0000
  H   H525      1.0  0.58858  0.92729  0.95628  1.0000
  H   H526      1.0  0.35491  0.86031  0.87677  1.0000
  H   H527      1.0  0.41551  0.92822  0.54690  1.0000
  H   H528      1.0  0.34889  0.84801  0.83067  1.0000
  Fe  Fe56      1.0  0.66061  0.89174  0.54955  1.0000
  C   C435      1.0  0.35284  0.91389  0.74394  1.0000
  H   H529      1.0  0.39435  0.85408  0.87075  1.0000
  C   C436      1.0  0.60448  0.89315  0.51109  1.0000
  N   N32       1.0  0.37437  0.87897  0.83280  1.0000
  H   H530      1.0  0.59734  0.79963  0.94593  1.0000
  C   C437      1.0  0.52583  0.00759  0.96502  1.0000
  H   H531      1.0  0.39422  0.91521  0.84346  1.0000
  C   C438      1.0  0.37165  0.88619  0.79269  1.0000
  C   C439      1.0  0.35653  0.90759  0.78165  1.0000
  H   H532      1.0  0.39418  0.85442  0.76904  1.0000
  H   H533      1.0  0.38667  0.86554  0.70395  1.0000
  C   C440      1.0  0.37938  0.90445  0.85475  1.0000
  H   H534      1.0  0.56250  0.87452  0.91474  1.0000
  H   H535      1.0  0.43440  0.97938  0.53490  1.0000
  H   H536      1.0  0.41742  0.84172  0.97693  1.0000
  H   H537      1.0  0.37598  0.91346  0.95494  1.0000
  H   H538      1.0  0.47224  0.00805  0.93682  1.0000
  C   C441      1.0  0.40785  0.92204  0.97833  1.0000
  C   C442      1.0  0.58403  0.90720  0.51290  1.0000
  C   C443      1.0  0.66023  0.99759  0.92909  1.0000
  H   H539      1.0  0.64389  0.96705  0.89535  1.0000
  H   H540      1.0  0.47258  0.97727  0.51075  1.0000
  C   C444      1.0  0.60831  0.98343  0.98928  1.0000
  H   H541      1.0  0.63147  0.95246  0.50843  1.0000
  H   H542      1.0  0.35421  0.95476  0.51784  1.0000
  C   C445      1.0  0.64347  0.98836  0.90584  1.0000
  H   H543      1.0  0.38254  0.89927  0.88473  1.0000
  N   N33       1.0  0.62664  0.85332  0.84676  1.0000
  C   C446      1.0  0.63859  0.87907  0.85706  1.0000
  C   C447      1.0  0.64326  0.83055  0.84132  1.0000
  C   C448      1.0  0.61563  0.85808  0.81018  1.0000
  C   C449      1.0  0.61005  0.84694  0.87617  1.0000
  C   C450      1.0  0.61166  0.82301  0.90006  1.0000
  C   C451      1.0  0.59194  0.86548  0.88248  1.0000
  C   C452      1.0  0.59570  0.81774  0.92761  1.0000
  C   C453      1.0  0.57603  0.85988  0.90994  1.0000
  C   C454      1.0  0.57786  0.83601  0.93236  1.0000
  H   H544      1.0  0.64628  0.87662  0.88508  1.0000
  H   H545      1.0  0.65200  0.88404  0.83664  1.0000
  H   H546      1.0  0.62752  0.89774  0.85874  1.0000
  C   C455      1.0  0.43112  0.88181  0.99178  1.0000
  H   H547      1.0  0.65479  0.83532  0.81778  1.0000
  H   H548      1.0  0.63531  0.81029  0.83459  1.0000
  H   H549      1.0  0.60474  0.87694  0.81017  1.0000
  H   H550      1.0  0.62787  0.86157  0.78722  1.0000
  H   H551      1.0  0.60542  0.83973  0.80247  1.0000
  H   H552      1.0  0.62523  0.80823  0.89843  1.0000
  C   C456      1.0  0.59056  0.90878  0.97358  1.0000
  C   C457      1.0  0.39132  0.90446  0.96476  1.0000
  H   H553      1.0  0.61111  0.96327  0.97447  1.0000
  C   C458      1.0  0.40981  0.91762  0.52214  1.0000
  C   C459      1.0  0.38813  0.90734  0.52108  1.0000
  H   H554      1.0  0.56575  0.83215  0.95427  1.0000
  C   C460      1.0  0.38267  0.87132  0.76354  1.0000
  H   H555      1.0  0.40850  0.86586  0.82948  1.0000
  H   H556      1.0  0.59053  0.98887  0.98606  1.0000
  H   H557      1.0  0.55671  0.90959  0.99143  1.0000
  H   H558      1.0  0.61338  0.99940  0.87761  1.0000
  H   H559      1.0  0.34427  0.00233  0.53374  1.0000
  H   H560      1.0  0.61795  0.99962  0.97427  1.0000
  H   H561      1.0  0.35993  0.90283  0.68686  1.0000
  C   C461      1.0  0.61306  0.87048  0.99712  1.0000
  H   H562      1.0  0.62880  0.85966  0.99881  1.0000
  H   H563      1.0  0.34668  0.91891  0.80202  1.0000
  C   C462      1.0  0.62631  0.00659  0.89601  1.0000
  Fe  Fe57      1.0  0.66844  0.89351  0.94690  1.0000
  H   H564      1.0  0.44626  0.87294  0.00283  1.0000
  S   S117      1.0  0.73915  0.20046  0.02529  1.0000
  H   H565      1.0  0.97217  0.43602  0.32258  1.0000
  H   H566      1.0  0.82851  0.48537  0.04768  1.0000
  Fe  Fe58      1.0  0.69416  0.15800  0.38072  1.0000
  S   S118      1.0  0.71527  0.14528  0.43027  1.0000
  S   S119      1.0  0.70938  0.15189  0.32262  1.0000
  H   H567      1.0  0.70123  0.20325  0.13019  1.0000
  H   H568      1.0  0.73037  0.30957  0.45609  1.0000
  Fe  Fe59      1.0  0.70416  0.18601  0.45634  1.0000
  H   H569      1.0  0.84958  0.41357  0.47504  1.0000
  H   H570      1.0  0.91003  0.38051  0.34944  1.0000
  S   S120      1.0  0.00635  0.49623  0.41246  1.0000
  Fe  Fe60      1.0  0.97185  0.40994  0.46797  1.0000
  S   S121      1.0  0.96416  0.43380  0.41520  1.0000
  C   C463      1.0  0.70744  0.01412  0.45799  1.0000
  N   N34       1.0  0.73255  0.22127  0.14437  1.0000
  C   C464      1.0  0.92040  0.38858  0.04206  1.0000
  S   S122      1.0  0.71104  0.14239  0.08971  1.0000
  H   H571      1.0  0.98618  0.48207  0.48333  1.0000
  H   H572      1.0  0.71853  0.26005  0.44926  1.0000
  Fe  Fe61      1.0  0.69377  0.11135  0.05240  1.0000
  S   S123      1.0  0.69529  0.06326  0.05519  1.0000
  Fe  Fe62      1.0  0.70927  0.17309  0.04089  1.0000
  C   C465      1.0  0.78725  0.48932  0.01115  1.0000
  Fe  Fe63      1.0  0.68447  0.12594  0.45392  1.0000
  H   H573      1.0  0.75086  0.11131  0.46433  1.0000
  Fe  Fe64      1.0  0.97943  0.41517  0.05179  1.0000
  C   C466      1.0  0.74478  0.22026  0.24880  1.0000
  S   S124      1.0  0.97654  0.45673  0.08053  1.0000
  C   C467      1.0  0.72804  0.28515  0.01036  1.0000
  H   H574      1.0  0.93510  0.46220  0.01435  1.0000
  H   H575      1.0  0.77995  0.50803  0.06472  1.0000
  C   C468      1.0  0.92887  0.39771  0.00769  1.0000
  H   H576      1.0  0.93098  0.38763  0.06634  1.0000
  C   C469      1.0  0.89830  0.38002  0.04481  1.0000
  C   C470      1.0  0.72939  0.26572  0.47181  1.0000
  H   H577      1.0  0.71476  0.22064  0.09214  1.0000
  C   C471      1.0  0.70535  0.22338  0.24132  1.0000
  H   H578      1.0  0.70432  0.05624  0.43549  1.0000
  H   H579      1.0  0.76172  0.19457  0.14571  1.0000
  C   C472      1.0  0.85891  0.44774  0.05410  1.0000
  C   C473      1.0  0.72370  0.22111  0.26445  1.0000
  C   C474      1.0  0.72471  0.25642  0.01867  1.0000
  H   H580      1.0  0.85928  0.45937  0.44794  1.0000
  C   C475      1.0  0.67706  0.16356  0.20659  1.0000
  H   H581      1.0  0.91190  0.34369  0.35604  1.0000
  H   H582      1.0  0.75899  0.21835  0.26697  1.0000
  C   C476      1.0  0.97159  0.44183  0.26263  1.0000
  C   C477      1.0  0.97076  0.42585  0.29574  1.0000
  Fe  Fe65      1.0  0.99805  0.45095  0.42130  1.0000
  H   H583      1.0  0.93153  0.37591  0.44516  1.0000
  C   C478      1.0  0.69619  0.15575  0.27843  1.0000
  C   C479      1.0  0.70799  0.14888  0.24562  1.0000
  C   C480      1.0  0.69847  0.15259  0.20991  1.0000
  S   S125      1.0  0.72724  0.20967  0.49567  1.0000
  S   S126      1.0  0.68526  0.20007  0.40534  1.0000
  H   H584      1.0  0.96645  0.38967  0.19885  1.0000
  H   H585      1.0  0.72468  0.14080  0.24785  1.0000
  H   H586      1.0  0.70779  0.14732  0.18503  1.0000
  C   C481      1.0  0.72917  0.22242  0.18544  1.0000
  C   C482      1.0  0.89262  0.39188  0.41874  1.0000
  H   H587      1.0  0.70842  0.24910  0.02611  1.0000
  H   H588      1.0  0.88528  0.36094  0.35796  1.0000
  H   H589      1.0  0.84223  0.44173  0.06444  1.0000
  C   C483      1.0  0.96784  0.39687  0.29401  1.0000
  S   S127      1.0  0.98637  0.37223  0.43842  1.0000
  H   H590      1.0  0.89193  0.37259  0.07140  1.0000
  H   H591      1.0  0.86802  0.45703  0.07788  1.0000
  C   C484      1.0  0.74571  0.24563  0.13159  1.0000
  C   C485      1.0  0.74429  0.09410  0.48228  1.0000
  H   H592      1.0  0.96377  0.36145  0.25756  1.0000
  S   S128      1.0  0.98654  0.39058  0.10493  1.0000
  Fe  Fe66      1.0  0.67720  0.15865  0.10408  1.0000
  H   H593      1.0  0.70190  0.24115  0.12780  1.0000
  N   N35       1.0  0.90532  0.36672  0.40683  1.0000
  C   C486      1.0  0.92903  0.37047  0.41526  1.0000
  H   H594      1.0  0.76245  0.24579  0.14406  1.0000
  C   C487      1.0  0.74465  0.19508  0.13464  1.0000
  C   C488      1.0  0.71165  0.22162  0.12286  1.0000
  H   H595      1.0  0.73594  0.17639  0.14602  1.0000
  H   H596      1.0  0.74813  0.24556  0.10057  1.0000
  C   C489      1.0  0.70051  0.04244  0.45874  1.0000
  H   H597      1.0  0.68049  0.23152  0.48835  1.0000
  H   H598      1.0  0.76423  0.22011  0.19910  1.0000
  C   C490      1.0  0.74231  0.23724  0.01636  1.0000
  H   H599      1.0  0.72150  0.21941  0.29454  1.0000
  C   C491      1.0  0.97032  0.42883  0.22760  1.0000
  C   C492      1.0  0.70789  0.22390  0.20239  1.0000
  S   S129      1.0  0.96688  0.37652  0.33526  1.0000
  S   S130      1.0  0.97249  0.44968  0.18699  1.0000
  C   C493      1.0  0.74756  0.22113  0.20991  1.0000
  H   H600      1.0  0.93649  0.38733  0.39802  1.0000
  C   C494      1.0  0.87479  0.39070  0.44480  1.0000
  H   H601      1.0  0.69283  0.22446  0.18634  1.0000
  C   C495      1.0  0.87953  0.47665  0.00797  1.0000
  H   H602      1.0  0.72708  0.09009  0.47327  1.0000
  H   H603      1.0  0.90006  0.34179  0.45659  1.0000
  Fe  Fe67      1.0  0.98622  0.43300  0.13250  1.0000
  H   H604      1.0  0.88060  0.33566  0.41932  1.0000
  C   C496      1.0  0.86305  0.41490  0.45499  1.0000
  H   H605      1.0  0.90019  0.44648  0.03926  1.0000
  S   S131      1.0  0.00506  0.42965  0.47604  1.0000
  N   N36       1.0  0.85765  0.46739  0.02170  1.0000
  S   S132      1.0  0.67472  0.16571  0.48349  1.0000
  S   S133      1.0  0.67610  0.19069  0.05708  1.0000
  H   H606      1.0  0.68895  0.22356  0.25360  1.0000
  H   H607      1.0  0.86965  0.37143  0.45814  1.0000
  H   H608      1.0  0.89961  0.49809  0.45815  1.0000
  H   H609      1.0  0.74623  0.19241  0.10377  1.0000
  C   C497      1.0  0.73636  0.24521  0.49747  1.0000
  H   H610      1.0  0.86701  0.42758  0.04637  1.0000
  C   C498      1.0  0.96607  0.38388  0.25901  1.0000
  C   C499      1.0  0.68873  0.05271  0.48958  1.0000
  C   C500      1.0  0.70324  0.03765  0.02174  1.0000
  C   C501      1.0  0.69684  0.00968  0.02772  1.0000
  H   H611      1.0  0.97365  0.46430  0.26414  1.0000
  C   C502      1.0  0.90294  0.36281  0.36587  1.0000
  C   C503      1.0  0.73628  0.29382  0.47563  1.0000
  Fe  Fe68      1.0  0.98069  0.39775  0.38613  1.0000
  H   H612      1.0  0.73734  0.26574  0.13902  1.0000
  H   H613      1.0  0.91122  0.42122  0.38393  1.0000
  H   H614      1.0  0.90811  0.32200  0.41645  1.0000
  C   C504      1.0  0.76334  0.24746  0.00668  1.0000
  C   C505      1.0  0.96765  0.39978  0.22579  1.0000
  H   H615      1.0  0.93899  0.35127  0.40905  1.0000
  C   C506      1.0  0.86860  0.44083  0.43980  1.0000
  H   H616      1.0  0.78307  0.46833  0.02017  1.0000
  H   H617      1.0  0.89023  0.46290  0.40220  1.0000
  C   C507      1.0  0.89813  0.34046  0.42567  1.0000
  C   C508      1.0  0.89786  0.41870  0.40383  1.0000
  C   C509      1.0  0.99566  0.50091  0.48660  1.0000
  C   C510      1.0  0.84409  0.49192  0.03365  1.0000
  C   C511      1.0  0.88597  0.44275  0.41422  1.0000
  H   H618      1.0  0.71418  0.29960  0.01159  1.0000
  H   H619      1.0  0.73455  0.01992  0.08884  1.0000
  S   S134      1.0  0.85664  0.37059  0.01889  1.0000
  S   S135      1.0  0.67993  0.08824  0.49293  1.0000
  H   H620      1.0  0.67829  0.26262  0.43170  1.0000
  C   C512      1.0  0.89967  0.46387  0.01976  1.0000
  C   C513      1.0  0.67993  0.33750  0.49955  1.0000
  C   C514      1.0  0.67463  0.16623  0.27511  1.0000
  H   H621      1.0  0.83873  0.50531  0.00973  1.0000
  C   C515      1.0  0.88441  0.38088  0.01343  1.0000
  H   H622      1.0  0.85325  0.50528  0.05358  1.0000
  H   H623      1.0  0.75932  0.01816  0.03384  1.0000
  H   H624      1.0  0.67796  0.35879  0.48920  1.0000
  H   H625      1.0  0.75424  0.07516  0.47542  1.0000
  C   C516      1.0  0.92001  0.47276  0.00558  1.0000
  H   H626      1.0  0.83801  0.50787  0.48466  1.0000
  H   H627      1.0  0.77718  0.23300  0.00523  1.0000
  Fe  Fe69      1.0  0.78428  0.35967  0.54368  1.0000
  S   S136      1.0  0.80325  0.34223  0.59298  1.0000
  H   H628      1.0  0.75629  0.23756  0.54637  1.0000
  Fe  Fe70      1.0  0.81013  0.41582  0.54333  1.0000
  S   S137      1.0  0.83047  0.40170  0.59240  1.0000
  H   H629      1.0  0.76169  0.23746  0.89273  1.0000
  Fe  Fe71      1.0  0.83295  0.36044  0.56337  1.0000
  S   S138      1.0  0.86604  0.33860  0.55689  1.0000
  Fe  Fe72      1.0  0.79929  0.38534  0.61810  1.0000
  S   S139      1.0  0.79212  0.40077  0.67759  1.0000
  S   S140      1.0  0.77836  0.40218  0.57059  1.0000
  Fe  Fe73      1.0  0.80929  0.36833  0.89682  1.0000
  S   S141      1.0  0.77700  0.38667  0.91615  1.0000
  S   S142      1.0  0.81315  0.34808  0.83900  1.0000
  Fe  Fe74      1.0  0.82971  0.37500  0.97529  1.0000
  H   H630      1.0  0.76576  0.33711  0.86244  1.0000
  Fe  Fe75      1.0  0.78112  0.35847  0.96707  1.0000
  H   H631      1.0  0.78690  0.27107  0.90208  1.0000
  Fe  Fe76      1.0  0.79741  0.41882  0.94663  1.0000
  H   H632      1.0  0.98851  0.49429  0.93694  1.0000
  S   S143      1.0  0.81282  0.33923  0.94679  1.0000
  S   S144      1.0  0.82963  0.40199  0.92363  1.0000
  C   C517      1.0  0.88778  0.36025  0.54173  1.0000
  C   C518      1.0  0.71090  0.24086  0.93192  1.0000
  H   H633      1.0  0.69098  0.27800  0.93803  1.0000
  C   C519      1.0  0.90158  0.50722  0.96694  1.0000
  C   C520      1.0  0.99934  0.50675  0.95400  1.0000
  N   N37       1.0  0.77968  0.48232  0.63468  1.0000
  S   S145      1.0  0.79519  0.46669  0.94039  1.0000
  H   H634      1.0  0.73746  0.32728  0.85890  1.0000
  H   H635      1.0  0.73347  0.02761  0.94207  1.0000
  H   H636      1.0  0.73925  0.14527  0.50889  1.0000
  H   H637      1.0  0.73469  0.20778  0.92433  1.0000
  C   C521      1.0  0.76124  0.46362  0.62461  1.0000
  H   H638      1.0  0.76624  0.48907  0.69028  1.0000
  C   C522      1.0  0.76814  0.10640  0.53328  1.0000
  C   C523      1.0  0.88470  0.38924  0.53861  1.0000
  H   H639      1.0  0.76854  0.28690  0.55266  1.0000
  C   C524      1.0  0.73092  0.22978  0.91938  1.0000
  C   C525      1.0  0.79720  0.38518  0.72226  1.0000
  C   C526      1.0  0.79443  0.40163  0.75458  1.0000
  C   C527      1.0  0.79882  0.39051  0.79053  1.0000
  C   C528      1.0  0.80618  0.36277  0.79460  1.0000
  C   C529      1.0  0.80860  0.34617  0.76234  1.0000
  C   C530      1.0  0.80399  0.35722  0.72643  1.0000
  H   H640      1.0  0.78896  0.42320  0.75186  1.0000
  H   H641      1.0  0.79680  0.40352  0.81505  1.0000
  H   H642      1.0  0.81419  0.32466  0.76516  1.0000
  H   H643      1.0  0.80554  0.34403  0.70207  1.0000
  C   C531      1.0  0.76362  0.28423  0.83987  1.0000
  C   C532      1.0  0.73600  0.07804  0.54552  1.0000
  H   H644      1.0  0.92140  0.40594  0.94969  1.0000
  C   C533      1.0  0.71852  0.08171  0.57185  1.0000
  H   H645      1.0  0.71745  0.30892  0.90872  1.0000
  C   C534      1.0  0.75070  0.25316  0.52637  1.0000
  H   H646      1.0  0.77575  0.29794  0.82508  1.0000
  C   C535      1.0  0.00773  0.49566  0.98757  1.0000
  H   H647      1.0  0.76438  0.44162  0.63413  1.0000
  C   C536      1.0  0.70631  0.26933  0.92719  1.0000
  H   H648      1.0  0.70631  0.34813  0.53692  1.0000
  C   C537      1.0  0.78596  0.49070  0.51121  1.0000
  C   C538      1.0  0.75777  0.28118  0.52996  1.0000
  H   H649      1.0  0.91688  0.47517  0.54139  1.0000
  S   S146      1.0  0.75684  0.33811  0.51042  1.0000
  N   N38       1.0  0.87070  0.35419  0.67305  1.0000
  C   C539      1.0  0.88583  0.33066  0.66297  1.0000
  C   C540      1.0  0.84831  0.34680  0.66018  1.0000
  C   C541      1.0  0.87823  0.37936  0.65210  1.0000
  C   C542      1.0  0.86981  0.36010  0.71370  1.0000
  C   C543      1.0  0.88055  0.34288  0.74087  1.0000
  C   C544      1.0  0.85700  0.38299  0.72734  1.0000
  C   C545      1.0  0.87830  0.34826  0.77919  1.0000
  C   C546      1.0  0.85510  0.38833  0.76565  1.0000
  C   C547      1.0  0.86552  0.37084  0.79154  1.0000
  H   H650      1.0  0.88027  0.31045  0.67536  1.0000
  H   H651      1.0  0.88645  0.32734  0.63206  1.0000
  H   H652      1.0  0.90304  0.33483  0.67197  1.0000
  H   H653      1.0  0.84174  0.32861  0.67627  1.0000
  H   H654      1.0  0.84830  0.34099  0.63008  1.0000
  H   H655      1.0  0.83632  0.36443  0.66344  1.0000
  H   H656      1.0  0.89461  0.38636  0.66224  1.0000
  H   H657      1.0  0.87985  0.37515  0.62154  1.0000
  H   H658      1.0  0.86652  0.39731  0.65452  1.0000
  H   H659      1.0  0.89049  0.32486  0.73338  1.0000
  H   H660      1.0  0.84767  0.39640  0.70859  1.0000
  H   H661      1.0  0.88620  0.33461  0.79960  1.0000
  H   H662      1.0  0.84479  0.40550  0.77549  1.0000
  H   H663      1.0  0.86326  0.37444  0.82129  1.0000
  C   C548      1.0  0.84612  0.45288  0.99105  1.0000
  C   C549      1.0  0.71617  0.04407  0.99036  1.0000
  H   H664      1.0  0.79308  0.30573  0.88690  1.0000
  C   C550      1.0  0.79376  0.49408  0.97405  1.0000
  H   H665      1.0  0.80325  0.44820  0.63044  1.0000
  C   C551      1.0  0.72178  0.28693  0.91011  1.0000
  N   N39       1.0  0.75917  0.29416  0.87846  1.0000
  H   H666      1.0  0.75879  0.46327  0.59371  1.0000
  C   C552      1.0  0.71108  0.05935  0.59396  1.0000
  H   H667      1.0  0.88219  0.39142  0.95491  1.0000
  H   H668      1.0  0.69753  0.06251  0.61345  1.0000
  C   C553      1.0  0.92099  0.49441  0.97932  1.0000
  H   H669      1.0  0.77729  0.30032  0.92895  1.0000
  C   C554      1.0  0.92625  0.36573  0.52267  1.0000
  N   N40       1.0  0.74491  0.10140  0.52258  1.0000
  C   C555      1.0  0.74635  0.24707  0.90171  1.0000
  H   H670      1.0  0.74820  0.28416  0.82307  1.0000
  H   H671      1.0  0.74534  0.47009  0.63768  1.0000
  H   H672      1.0  0.67565  0.07805  0.96340  1.0000
  C   C556      1.0  0.77999  0.29263  0.89997  1.0000
  H   H673      1.0  0.81503  0.48219  0.62643  1.0000
  C   C557      1.0  0.75262  0.32422  0.87590  1.0000
  H   H674      1.0  0.84348  0.46669  0.96621  1.0000
  H   H675      1.0  0.69920  0.22749  0.94637  1.0000
  H   H676      1.0  0.67487  0.04203  0.54348  1.0000
  S   S147      1.0  0.69522  0.14024  0.00249  1.0000
  C   C558      1.0  0.89274  0.39060  0.97922  1.0000
  H   H677      1.0  0.78607  0.46145  0.68745  1.0000
  C   C559      1.0  0.91495  0.39878  0.97634  1.0000
  H   H678      1.0  0.71487  0.12598  0.51933  1.0000
  H   H679      1.0  0.74977  0.33332  0.90422  1.0000
  H   H680      1.0  0.86871  0.39852  0.54418  1.0000
  C   C560      1.0  0.78181  0.48265  0.67605  1.0000
  C   C561      1.0  0.74233  0.27625  0.89667  1.0000
  H   H681      1.0  0.77075  0.26268  0.83949  1.0000
  H   H682      1.0  0.87602  0.47413  0.54591  1.0000
  C   C562      1.0  0.88446  0.49411  0.54454  1.0000
  H   H683      1.0  0.79942  0.46758  0.58820  1.0000
  H   H684      1.0  0.91110  0.32608  0.53618  1.0000
  S   S148      1.0  0.94537  0.41763  0.51172  1.0000
  C   C563      1.0  0.73253  0.12826  0.52714  1.0000
  S   S149      1.0  0.82335  0.45682  0.51857  1.0000
  H   H685      1.0  0.98999  0.50289  0.54613  1.0000
  C   C564      1.0  0.69850  0.30434  0.53996  1.0000
  H   H686      1.0  0.77896  0.08795  0.52749  1.0000
  S   S150      1.0  0.81450  0.37501  0.51272  1.0000
  C   C565      1.0  0.88113  0.49836  0.98070  1.0000
  H   H687      1.0  0.71125  0.29982  0.56041  1.0000
  H   H688      1.0  0.71002  0.10150  0.57543  1.0000
  C   C566      1.0  0.73754  0.02840  0.56458  1.0000
  H   H689      1.0  0.77524  0.12449  0.51758  1.0000
  H   H690      1.0  0.89993  0.42888  0.52669  1.0000
  H   H691      1.0  0.77661  0.47346  0.52276  1.0000
  C   C567      1.0  0.80028  0.46972  0.61917  1.0000
  H   H692      1.0  0.72138  0.06544  0.98554  1.0000
  H   H693      1.0  0.76938  0.11107  0.56371  1.0000
  C   C568      1.0  0.74897  0.29528  0.99979  1.0000
  C   C569      1.0  0.90241  0.40645  0.52848  1.0000
  S   S151      1.0  0.95667  0.40795  0.00267  1.0000
  C   C570      1.0  0.72305  0.02257  0.96581  1.0000
  S   S152      1.0  0.75180  0.33166  0.98759  1.0000
  H   H694      1.0  0.00334  0.47467  0.99627  1.0000
  C   C571      1.0  0.68369  0.03428  0.51921  1.0000
  C   C572      1.0  0.72054  0.03276  0.59029  1.0000
  H   H695      1.0  0.94238  0.35664  0.51724  1.0000
  H   H696      1.0  0.82950  0.44554  0.99997  1.0000
  H   H697      1.0  0.85572  0.43416  0.98156  1.0000
  C   C573      1.0  0.68594  0.28256  0.52539  1.0000
  C   C574      1.0  0.74535  0.05067  0.54276  1.0000
  H   H698      1.0  0.73340  0.13620  0.55630  1.0000
  C   C575      1.0  0.92323  0.39483  0.52051  1.0000
  H   H699      1.0  0.93680  0.50083  0.96797  1.0000
  C   C576      1.0  0.90858  0.34851  0.53364  1.0000
  C   C577      1.0  0.90741  0.49464  0.54184  1.0000
  H   H700      1.0  0.75869  0.04614  0.52351  1.0000
  H   H701      1.0  0.79495  0.49730  0.68490  1.0000
  C   C578      1.0  0.80868  0.48766  0.50537  1.0000
  C   C579      1.0  0.69575  0.33164  0.52670  1.0000
  H   H702      1.0  0.78303  0.28354  0.99166  1.0000
  H   H703      1.0  0.68970  0.26181  0.53598  1.0000
  C   C580      1.0  0.76669  0.27620  0.99868  1.0000
  S   S153      1.0  0.79816  0.39279  0.99925  1.0000
  H   H704      1.0  0.71437  0.01533  0.60682  1.0000
  C   C581      1.0  0.75042  0.30184  0.50483  1.0000
  Fe  Fe77      1.0  0.78907  0.61277  0.46172  1.0000
  S   S154      1.0  0.82412  0.61699  0.44217  1.0000
  H   H705      1.0  0.73530  0.89467  0.05017  1.0000
  Fe  Fe78      1.0  0.77961  0.67702  0.45526  1.0000
  S   S155      1.0  0.81437  0.68527  0.43574  1.0000
  S   S156      1.0  0.75200  0.71073  0.45468  1.0000
  Fe  Fe79      1.0  0.81049  0.64732  0.39903  1.0000
  S   S157      1.0  0.82531  0.64800  0.34013  1.0000
  Fe  Fe80      1.0  0.82486  0.65428  0.48009  1.0000
  C   C582      1.0  0.90897  0.57147  0.41366  1.0000
  S   S158      1.0  0.77520  0.64040  0.41581  1.0000
  C   C583      1.0  0.92757  0.55645  0.42786  1.0000
  Fe  Fe81      1.0  0.79302  0.65624  0.12413  1.0000
  S   S159      1.0  0.76975  0.64563  0.07742  1.0000
  S   S160      1.0  0.77716  0.65833  0.18209  1.0000
  Fe  Fe82      1.0  0.83247  0.65668  0.07046  1.0000
  C   C584      1.0  0.88690  0.65916  0.03201  1.0000
  Fe  Fe83      1.0  0.78786  0.67816  0.04324  1.0000
  C   C585      1.0  0.88445  0.53361  0.43084  1.0000
  Fe  Fe84      1.0  0.79560  0.61409  0.05909  1.0000
  H   H706      1.0  0.99349  0.56653  0.06847  1.0000
  S   S161      1.0  0.80945  0.69078  0.09134  1.0000
  S   S162      1.0  0.81783  0.62351  0.10755  1.0000
  H   H707      1.0  0.93678  0.51718  0.45579  1.0000
  H   H708      1.0  0.94952  0.58265  0.09861  1.0000
  S   S163      1.0  0.78708  0.56723  0.05800  1.0000
  C   C586      1.0  0.95262  0.56018  0.09181  1.0000
  H   H709      1.0  0.75336  0.80024  0.06150  1.0000
  C   C587      1.0  0.79897  0.58059  0.20232  1.0000
  C   C588      1.0  0.72728  0.75809  0.47119  1.0000
  H   H710      1.0  0.95012  0.51357  0.05057  1.0000
  H   H711      1.0  0.98184  0.55518  0.40193  1.0000
  C   C589      1.0  0.73339  0.97502  0.09528  1.0000
  H   H712      1.0  0.75136  0.56105  0.24704  1.0000
  S   S164      1.0  0.86965  0.66182  0.07189  1.0000
  C   C590      1.0  0.72237  0.78364  0.48950  1.0000
  N   N41       1.0  0.76323  0.92022  0.03490  1.0000
  C   C591      1.0  0.81153  0.65044  0.29643  1.0000
  C   C592      1.0  0.78866  0.64759  0.29340  1.0000
  C   C593      1.0  0.77844  0.64988  0.25816  1.0000
  C   C594      1.0  0.79098  0.65439  0.22548  1.0000
  C   C595      1.0  0.81390  0.65660  0.22835  1.0000
  C   C596      1.0  0.82408  0.65475  0.26369  1.0000
  H   H713      1.0  0.77886  0.64320  0.31807  1.0000
  H   H714      1.0  0.76072  0.64796  0.25615  1.0000
  H   H715      1.0  0.82374  0.66017  0.20345  1.0000
  H   H716      1.0  0.84180  0.65677  0.26568  1.0000
  H   H717      1.0  0.94861  0.58373  0.48181  1.0000
  H   H718      1.0  0.80659  0.58448  0.17539  1.0000
  H   H719      1.0  0.71575  0.74998  0.45106  1.0000
  H   H720      1.0  0.87404  0.65075  0.45224  1.0000
  C   C597      1.0  0.81156  0.58580  0.23415  1.0000
  H   H721      1.0  0.86240  0.56881  0.48476  1.0000
  H   H722      1.0  0.77376  0.57082  0.30137  1.0000
  H   H723      1.0  0.91676  0.66272  0.06409  1.0000
  C   C598      1.0  0.79042  0.53955  0.02504  1.0000
  H   H724      1.0  0.84050  0.73744  0.02990  1.0000
  H   H725      1.0  0.74203  0.53472  0.19462  1.0000
  H   H726      1.0  0.76893  0.75175  0.06100  1.0000
  C   C599      1.0  0.70235  0.99572  0.48770  1.0000
  H   H727      1.0  0.69864  0.96685  0.00824  1.0000
  S   S165      1.0  0.68537  0.88642  0.50271  1.0000
  C   C600      1.0  0.74150  0.55476  0.17850  1.0000
  N   N42       1.0  0.77583  0.72774  0.34469  1.0000
  C   C601      1.0  0.79272  0.73815  0.37111  1.0000
  C   C602      1.0  0.75559  0.74509  0.35035  1.0000
  C   C603      1.0  0.77091  0.69839  0.35505  1.0000
  C   C604      1.0  0.78306  0.72841  0.30501  1.0000
  C   C605      1.0  0.76778  0.72313  0.27592  1.0000
  C   C606      1.0  0.80552  0.73183  0.29420  1.0000
  C   C607      1.0  0.77447  0.72190  0.23846  1.0000
  C   C608      1.0  0.81202  0.73045  0.25661  1.0000
  C   C609      1.0  0.79653  0.72552  0.22882  1.0000
  H   H728      1.0  0.79775  0.75990  0.36391  1.0000
  H   H729      1.0  0.78644  0.73832  0.40056  1.0000
  H   H730      1.0  0.80765  0.72436  0.37164  1.0000
  H   H731      1.0  0.75094  0.74646  0.38061  1.0000
  H   H732      1.0  0.74090  0.73618  0.33653  1.0000
  H   H733      1.0  0.75797  0.76683  0.33969  1.0000
  H   H734      1.0  0.78607  0.68509  0.35361  1.0000
  H   H735      1.0  0.76433  0.69676  0.38398  1.0000
  H   H736      1.0  0.75842  0.68897  0.33639  1.0000
  H   H737      1.0  0.75069  0.71873  0.28195  1.0000
  H   H738      1.0  0.81851  0.73477  0.31428  1.0000
  C   C610      1.0  0.75444  0.99880  0.04751  1.0000
  H   H739      1.0  0.82929  0.73233  0.24906  1.0000
  H   H740      1.0  0.94208  0.61136  0.42242  1.0000
  H   H741      1.0  0.75295  0.60822  0.16459  1.0000
  S   S166      1.0  0.71071  0.96005  0.48490  1.0000
  C   C611      1.0  0.98072  0.57290  0.04768  1.0000
  C   C612      1.0  0.78720  0.53910  0.48776  1.0000
  H   H742      1.0  0.75761  0.89433  0.08396  1.0000
  C   C613      1.0  0.96512  0.52659  0.04679  1.0000
  C   C614      1.0  0.77582  0.54408  0.14800  1.0000
  H   H743      1.0  0.75236  0.58799  0.12204  1.0000
  C   C615      1.0  0.76146  0.76041  0.03599  1.0000
  C   C616      1.0  0.92348  0.52974  0.44416  1.0000
  H   H744      1.0  0.82822  0.59366  0.23125  1.0000
  H   H745      1.0  0.97791  0.51880  0.06675  1.0000
  H   H746      1.0  0.91031  0.59206  0.40111  1.0000
  H   H747      1.0  0.79611  0.93549  0.02389  1.0000
  H   H748      1.0  0.80172  0.72340  0.19987  1.0000
  H   H749      1.0  0.77902  0.52457  0.16440  1.0000
  C   C617      1.0  0.95195  0.59525  0.40729  1.0000
  H   H750      1.0  0.70723  0.79492  0.48332  1.0000
  C   C618      1.0  0.76164  0.59149  0.14843  1.0000
  S   S167      1.0  0.81203  0.64546  0.02056  1.0000
  H   H751      1.0  0.79436  0.89830  0.02922  1.0000
  H   H752      1.0  0.79207  0.92058  0.06962  1.0000
  C   C619      1.0  0.95939  0.57004  0.46419  1.0000
  H   H753      1.0  0.86037  0.60366  0.50239  1.0000
  S   S168      1.0  0.95302  0.64585  0.48199  1.0000
  C   C620      1.0  0.90885  0.64897  0.46535  1.0000
  H   H754      1.0  0.97607  0.57969  0.46396  1.0000
  H   H755      1.0  0.76627  0.53843  0.12260  1.0000
  C   C621      1.0  0.80252  0.58206  0.26969  1.0000
  C   C622      1.0  0.78082  0.57311  0.27357  1.0000
  H   H756      1.0  0.96921  0.60314  0.40697  1.0000
  C   C623      1.0  0.88629  0.65209  0.47407  1.0000
  H   H757      1.0  0.91384  0.64564  0.43663  1.0000
  C   C624      1.0  0.75489  0.94725  0.04989  1.0000
  C   C625      1.0  0.78750  0.91859  0.03961  1.0000
  C   C626      1.0  0.74043  0.94903  0.08134  1.0000
  C   C627      1.0  0.83428  0.72011  0.01228  1.0000
  H   H758      1.0  0.73248  0.55051  0.15204  1.0000
  H   H759      1.0  0.81215  0.58694  0.29429  1.0000
  H   H760      1.0  0.86800  0.52483  0.43174  1.0000
  C   C628      1.0  0.94365  0.56644  0.02445  1.0000
  C   C629      1.0  0.96453  0.54768  0.40425  1.0000
  C   C630      1.0  0.77686  0.57118  0.20515  1.0000
  H   H761      1.0  0.73133  0.57043  0.19409  1.0000
  H   H762      1.0  0.95818  0.54478  0.37536  1.0000
  C   C631      1.0  0.77529  0.51629  0.50236  1.0000
  N   N43       1.0  0.76404  0.56541  0.17088  1.0000
  H   H763      1.0  0.79194  0.55176  0.13724  1.0000
  H   H764      1.0  0.77779  0.60014  0.13972  1.0000
  N   N44       1.0  0.95036  0.56737  0.42584  1.0000
  N   N45       1.0  0.96007  0.55676  0.05240  1.0000
  C   C632      1.0  0.88779  0.56003  0.41506  1.0000
  S   S169      1.0  0.77333  0.57155  0.48004  1.0000
  H   H765      1.0  0.97759  0.59585  0.05061  1.0000
  C   C633      1.0  0.92297  0.57869  0.03453  1.0000
  H   H766      1.0  0.73418  0.93070  0.09555  1.0000
  C   C634      1.0  0.90988  0.66079  0.03635  1.0000
  H   H767      1.0  0.94637  0.59461  0.37768  1.0000
  H   H768      1.0  0.96554  0.52657  0.41743  1.0000
  H   H769      1.0  0.91783  0.58146  0.06325  1.0000
  H   H770      1.0  0.76269  0.71680  0.21681  1.0000
  C   C635      1.0  0.00601  0.51327  0.45569  1.0000
  H   H771      1.0  0.68738  0.00434  0.05243  1.0000
  C   C636      1.0  0.76808  0.56768  0.24191  1.0000
  H   H772      1.0  0.96131  0.54947  0.47864  1.0000
  H   H773      1.0  0.98838  0.56970  0.01977  1.0000
  H   H774      1.0  0.93737  0.54804  0.09763  1.0000
  H   H775      1.0  0.87389  0.57180  0.40371  1.0000
  C   C637      1.0  0.87009  0.58381  0.50435  1.0000
  C   C638      1.0  0.80985  0.53583  0.48117  1.0000
  H   H776      1.0  0.81911  0.55307  0.46945  1.0000
  C   C639      1.0  0.90224  0.51857  0.44558  1.0000
  C   C640      1.0  0.74681  0.74286  0.47893  1.0000
  H   H777      1.0  0.89285  0.59847  0.01553  1.0000
  C   C641      1.0  0.78547  0.51195  0.03636  1.0000
  H   H778      1.0  0.76000  0.87527  0.04146  1.0000
  S   S170      1.0  0.73169  0.83495  0.00614  1.0000
  C   C642      1.0  0.75357  0.89523  0.05365  1.0000
  H   H779      1.0  0.72222  0.97600  0.11905  1.0000
  C   C643      1.0  0.76162  0.97298  0.03339  1.0000
  H   H780      1.0  0.71663  0.00633  0.43410  1.0000
  H   H781      1.0  0.97179  0.52224  0.01844  1.0000
  H   H782      1.0  0.81639  0.71837  0.01884  1.0000
  C   C644      1.0  0.92488  0.65058  0.49352  1.0000
  H   H783      1.0  0.88701  0.58849  0.49395  1.0000
  C   C645      1.0  0.74043  0.99982  0.07849  1.0000
  H   H784      1.0  0.96531  0.55237  0.11195  1.0000
  C   C646      1.0  0.75258  0.78801  0.03616  1.0000
  H   H785      1.0  0.77227  0.97338  0.00904  1.0000
  H   H786      1.0  0.84225  0.70010  0.02152  1.0000
  S   S171      1.0  0.79037  0.64853  0.50245  1.0000
  H   H787      1.0  0.94166  0.66241  0.00852  1.0000
  C   C647      1.0  0.82050  0.51022  0.48990  1.0000
  H   H788      1.0  0.87583  0.72300  0.01832  1.0000
  C   C648      1.0  0.90831  0.58858  0.00723  1.0000
  C   C649      1.0  0.92402  0.66055  0.00495  1.0000
  H   H789      1.0  0.90237  0.52377  0.94604  1.0000
  C   C650      1.0  0.75196  0.80513  0.64125  1.0000
  Fe  Fe85      1.0  0.69589  0.90475  0.60797  1.0000
  S   S172      1.0  0.72293  0.90166  0.56477  1.0000
  S   S173      1.0  0.70404  0.92035  0.66666  1.0000
  H   H790      1.0  0.83752  0.68218  0.95543  1.0000
  H   H791      1.0  0.76234  0.89720  0.98289  1.0000
  Fe  Fe86      1.0  0.70607  0.86239  0.54508  1.0000
  H   H792      1.0  0.85619  0.73318  0.90185  1.0000
  C   C651      1.0  0.89222  0.65716  0.96466  1.0000
  C   C652      1.0  0.79740  0.54421  0.98816  1.0000
  C   C653      1.0  0.69215  0.87609  0.71368  1.0000
  S   S174      1.0  0.98906  0.67720  0.56761  1.0000
  S   S175      1.0  0.96710  0.65625  0.66829  1.0000
  Fe  Fe87      1.0  0.97721  0.64295  0.52986  1.0000
  H   H793      1.0  0.76903  0.79853  0.64879  1.0000
  S   S176      1.0  0.96980  0.61315  0.57672  1.0000
  N   N46       1.0  0.87024  0.57256  0.54306  1.0000
  C   C654      1.0  0.94842  0.56441  0.98559  1.0000
  Fe  Fe88      1.0  0.98440  0.64570  0.61398  1.0000
  Fe  Fe89      1.0  0.69984  0.87730  0.88316  1.0000
  S   S177      1.0  0.73015  0.88564  0.91757  1.0000
  C   C655      1.0  0.98876  0.72639  0.74507  1.0000
  Fe  Fe90      1.0  0.71245  0.86265  0.96406  1.0000
  S   S178      1.0  0.73178  0.82641  0.54042  1.0000
  Fe  Fe91      1.0  0.71187  0.92430  0.93807  1.0000
  S   S179      1.0  0.72671  0.96797  0.94147  1.0000
  S   S180      1.0  0.69607  0.90227  0.98666  1.0000
  H   H794      1.0  0.82686  0.75640  0.93140  1.0000
  S   S181      1.0  0.67978  0.86473  0.59062  1.0000
  C   C656      1.0  0.75326  0.85118  0.77049  1.0000
  Fe  Fe92      1.0  0.96795  0.64993  0.92689  1.0000
  S   S182      1.0  0.93193  0.66330  0.92867  1.0000
  S   S183      1.0  0.97528  0.62571  0.87453  1.0000
  S   S184      1.0  0.67498  0.93191  0.57050  1.0000
  C   C657      1.0  0.75317  0.81798  0.71945  1.0000
  S   S185      1.0  0.98412  0.61817  0.96453  1.0000
  C   C658      1.0  0.98265  0.65586  0.70980  1.0000
  C   C659      1.0  0.87224  0.51917  0.54548  1.0000
  H   H795      1.0  0.89682  0.60091  0.55707  1.0000
  C   C660      1.0  0.98404  0.65982  0.77774  1.0000
  C   C661      1.0  0.73699  0.79441  0.51584  1.0000
  C   C662      1.0  0.90115  0.72746  0.97809  1.0000
  H   H796      1.0  0.72035  0.83607  0.61361  1.0000
  C   C663      1.0  0.91518  0.65940  0.96893  1.0000
  C   C664      1.0  0.87968  0.65727  0.51097  1.0000
  H   H797      1.0  0.76041  0.58612  0.58168  1.0000
  C   C665      1.0  0.82817  0.70205  0.95082  1.0000
  C   C666      1.0  0.74166  0.78350  0.97167  1.0000
  H   H798      1.0  0.97116  0.72379  0.74917  1.0000
  H   H799      1.0  0.98637  0.72047  0.68679  1.0000
  H   H800      1.0  0.73404  0.79206  0.94674  1.0000
  C   C667      1.0  0.84693  0.56978  0.55564  1.0000
  C   C668      1.0  0.97185  0.65861  0.74443  1.0000
  C   C669      1.0  0.74251  0.79979  0.00411  1.0000
  H   H801      1.0  0.95403  0.66021  0.74544  1.0000
  H   H802      1.0  0.97561  0.66247  0.80426  1.0000
  C   C670      1.0  0.69969  0.90365  0.71068  1.0000
  C   C671      1.0  0.75658  0.77925  0.52341  1.0000
  H   H803      1.0  0.75368  0.79617  0.71165  1.0000
  C   C672      1.0  0.69726  0.87689  0.78168  1.0000
  C   C673      1.0  0.70373  0.90489  0.77894  1.0000
  C   C674      1.0  0.70513  0.91808  0.74356  1.0000
  C   C675      1.0  0.78383  0.55201  0.58126  1.0000
  C   C676      1.0  0.91381  0.58689  0.96940  1.0000
  H   H804      1.0  0.70839  0.91609  0.80387  1.0000
  H   H805      1.0  0.71087  0.93944  0.74158  1.0000
  C   C677      1.0  0.75075  0.83998  0.69264  1.0000
  C   C678      1.0  0.69126  0.86267  0.74894  1.0000
  Fe  Fe93      1.0  0.00461  0.59850  0.56849  1.0000
  H   H806      1.0  0.79422  0.56210  0.56048  1.0000
  H   H807      1.0  0.74669  0.88551  0.68833  1.0000
  C   C679      1.0  0.78907  0.52510  0.59456  1.0000
  C   C680      1.0  0.79887  0.52164  0.96281  1.0000
  C   C681      1.0  0.91823  0.65562  0.53041  1.0000
  H   H808      1.0  0.74450  0.51662  0.65249  1.0000
  H   H809      1.0  0.00228  0.73110  0.63151  1.0000
  C   C682      1.0  0.76465  0.56563  0.59310  1.0000
  H   H810      1.0  0.96387  0.55563  0.97568  1.0000
  H   H811      1.0  0.71261  0.82911  0.66117  1.0000
  C   C683      1.0  0.76196  0.85280  0.62909  1.0000
  H   H812      1.0  0.75029  0.80221  0.61041  1.0000
  H   H813      1.0  0.76708  0.93384  0.97704  1.0000
  H   H814      1.0  0.82764  0.70603  0.92021  1.0000
  C   C684      1.0  0.87896  0.72629  0.98882  1.0000
  C   C685      1.0  0.69033  0.00594  0.51824  1.0000
  C   C686      1.0  0.86829  0.73159  0.92387  1.0000
  Fe  Fe94      1.0  0.70044  0.92564  0.52598  1.0000
  H   H815      1.0  0.91525  0.56461  0.53601  1.0000
  S   S186      1.0  0.85154  0.65959  0.52361  1.0000
  H   H816      1.0  0.85455  0.51712  0.54768  1.0000
  H   H817      1.0  0.00628  0.58229  0.84163  1.0000
  C   C687      1.0  0.00710  0.65886  0.77640  1.0000
  C   C688      1.0  0.91821  0.52024  0.53931  1.0000
  H   H818      1.0  0.68734  0.86498  0.68882  1.0000
  H   H819      1.0  0.80378  0.52562  0.93411  1.0000
  H   H820      1.0  0.75556  0.80661  0.77791  1.0000
  S   S187      1.0  0.68295  0.85212  0.92855  1.0000
  C   C689      1.0  0.72416  0.84122  0.64310  1.0000
  H   H821      1.0  0.86058  0.65455  0.99265  1.0000
  H   H822      1.0  0.75341  0.85547  0.80027  1.0000
  C   C690      1.0  0.90611  0.54540  0.53938  1.0000
  C   C691      1.0  0.74971  0.86775  0.70665  1.0000
  H   H823      1.0  0.93608  0.52053  0.53699  1.0000
  H   H824      1.0  0.80115  0.56528  0.97890  1.0000
  C   C692      1.0  0.00231  0.73018  0.77594  1.0000
  C   C693      1.0  0.89572  0.65924  0.53900  1.0000
  H   H825      1.0  0.76072  0.84778  0.59871  1.0000
  H   H826      1.0  0.88529  0.65631  0.93685  1.0000
  C   C694      1.0  0.99786  0.72444  0.70911  1.0000
  C   C695      1.0  0.75077  0.55268  0.61898  1.0000
  N   N47       1.0  0.74742  0.83465  0.65228  1.0000
  C   C696      1.0  0.86179  0.72794  0.96183  1.0000
  H   H827      1.0  0.83339  0.77007  0.97670  1.0000
  C   C697      1.0  0.75063  0.75596  0.97145  1.0000
  H   H828      1.0  0.81077  0.69828  0.95961  1.0000
  C   C698      1.0  0.71675  0.99458  0.97196  1.0000
  H   H829      1.0  0.72022  0.86386  0.64679  1.0000
  H   H830      1.0  0.98381  0.57295  0.81242  1.0000
  H   H831      1.0  0.77953  0.85027  0.63737  1.0000
  H   H832      1.0  0.75743  0.87539  0.63097  1.0000
  C   C699      1.0  0.75123  0.87318  0.74494  1.0000
  H   H833      1.0  0.74987  0.89454  0.75495  1.0000
  C   C700      1.0  0.77508  0.51108  0.62061  1.0000
  H   H834      1.0  0.73993  0.79040  0.65410  1.0000
  H   H835      1.0  0.87042  0.61281  0.57086  1.0000
  C   C701      1.0  0.88071  0.59340  0.56798  1.0000
  H   H836      1.0  0.89072  0.66343  0.56756  1.0000
  H   H837      1.0  0.68615  0.84105  0.75078  1.0000
  H   H838      1.0  0.93044  0.65717  0.55226  1.0000
  C   C702      1.0  0.75811  0.91824  0.99445  1.0000
  H   H839      1.0  0.99013  0.57295  0.64126  1.0000
  H   H840      1.0  0.83832  0.59058  0.55683  1.0000
  H   H841      1.0  0.88336  0.58463  0.59655  1.0000
  H   H842      1.0  0.80380  0.51549  0.58310  1.0000
  H   H843      1.0  0.90278  0.59562  0.94846  1.0000
  Fe  Fe95      1.0  0.99380  0.59623  0.91172  1.0000
  H   H844      1.0  0.91400  0.72492  0.99891  1.0000
  H   H845      1.0  0.74972  0.74365  0.94618  1.0000
  C   C703      1.0  0.88276  0.54569  0.54341  1.0000
  H   H846      1.0  0.77659  0.74237  0.51141  1.0000
  C   C704      1.0  0.75433  0.82366  0.75779  1.0000
  C   C705      1.0  0.98849  0.58436  0.73517  1.0000
  C   C706      1.0  0.98204  0.58491  0.69764  1.0000
  H   H847      1.0  0.89521  0.73422  0.88421  1.0000
  S   S188      1.0  0.99840  0.67679  0.92150  1.0000
  H   H848      1.0  0.93831  0.57390  0.92917  1.0000
  N   N48       1.0  0.83812  0.72551  0.97181  1.0000
  H   H849      1.0  0.68648  0.99214  0.54145  1.0000
  H   H850      1.0  0.84592  0.56019  0.58407  1.0000
  C   C707      1.0  0.93380  0.57472  0.95859  1.0000
  H   H851      1.0  0.99529  0.73042  0.80392  1.0000
  C   C708      1.0  0.99514  0.57225  0.67034  1.0000
  H   H852      1.0  0.97768  0.59509  0.75460  1.0000
  H   H853      1.0  0.83707  0.55720  0.53589  1.0000
  S   S189      1.0  0.69745  0.85835  0.82493  1.0000
  H   H854      1.0  0.96696  0.59577  0.68955  1.0000
  H   H855      1.0  0.80838  0.75075  0.96973  1.0000
  H   H856      1.0  0.76813  0.78735  0.54352  1.0000
  S   S190      1.0  0.68357  0.91768  0.89932  1.0000
  C   C709      1.0  0.89055  0.73247  0.91346  1.0000
  C   C710      1.0  0.82624  0.75184  0.96191  1.0000
  C   C711      1.0  0.99751  0.51295  0.52205  1.0000
  C   C712      1.0  0.00564  0.65373  0.70874  1.0000
  H   H857      1.0  0.92420  0.72977  0.93228  1.0000
  C   C713      1.0  0.90694  0.73022  0.94051  1.0000
  Fe  Fe96      1.0  0.00677  0.64963  0.87190  1.0000
  H   H858      1.0  0.73581  0.56337  0.62804  1.0000
  C   C714      1.0  0.76049  0.74407  0.00360  1.0000
  C   C715      1.0  0.76148  0.75369  0.50515  1.0000
  C   C716      1.0  0.75589  0.52586  0.63269  1.0000
  S   S191      1.0  0.99122  0.54975  0.90479  1.0000
  H   H859      1.0  0.75775  0.51863  0.50744  1.0000
  H   H860      1.0  0.99790  0.60600  0.80581  1.0000
  C   C717      1.0  0.87816  0.65650  0.99612  1.0000
  H   H861      1.0  0.74026  0.92203  0.98960  1.0000
  C   C718      1.0  0.00416  0.53434  0.94352  1.0000
  H   H862      1.0  0.74448  0.00749  0.56115  1.0000
  H   H863      1.0  0.00320  0.52835  0.79453  1.0000
  C   C719      1.0  0.00017  0.58336  0.81234  1.0000
  S   S192      1.0  0.77173  0.70916  0.00118  1.0000
  C   C720      1.0  0.70334  0.98831  0.00282  1.0000
  H   H864      1.0  0.86650  0.50828  0.96928  1.0000
