data_image0
_chemical_formula_structural       HFeS2CFeS3FeSHFeS2Fe3S2FeS2FeS2FeSFeS3C6H4C3H2C2H3SC3HC6H4C2H3FeCNHCH3CH4CH2CHCH4NCH3NC9H5CH9C3H3CH3C2HC2H3C3H2CNHCH3C2HS2HCHCFeS2H2FeCHSFeS2FeSFeSFeHS2FeS2FeS2FeSFeS3CNCH3C2HCSC6H4C2HCHCHCH2C6H6NH2CNCHFeH6CH3CHCNC5HC2HCH9CH2CH2S2HCH2C2HCH2C2H3CH4CH2CH4C2H2CHC4H2NH2CHCH3C2H3CHC2HCH3FeNCH2FeS2FeS2FeSFeS3H3C6H4C6H4C3H2C7H2NC4H3CH12NCHCHCHCH2C2H5CHCH3C3SH3C2NH3CH2CHNH7CSH2FeS2FeS2FeSFeS4HSC6H4C6H4CH4C7H2C2HCNH2C3HCHC2H4CH3C2H3C2H2C6H3CHCH2CNCH3C2HC3NC3HSH3C2HCH4C2H2CH3C2HCHC2HFeS2FeS2FeSFeS3FeS2FeSFeSFeCS2FeHSHCFeHCSC2H2C7H4CHC7H5C4H3C2H3SH3C2H2C2H3SHCFeH2CHNC9H14NSCSCSCHCH9C2HCNCNH2CH5CHC2HCH3CFeHNCHCHC2H4C4H2C3HCH4CH2FeSHFeS2FeSFeS3FeS2CSFeSFeS3HS2FeSFeS3CHCH2C6H4CH3CH2C6H4CH4C3H4CH7NFeHCH4CH3C2HC2SCHNC9H15NH6CHC3FeCHCNHCHC2FeC2H2CH2CHCH2C3FeS2FeSCFeSFeS3CHFeS2FeS2FeSFeS3C6H3NC3H2C6H4C6H4C2H2CH2C2HNC9H14NC6H11CH2C2HCH2CHCSCSHCSH6C2HCHCH4SNH2NH2C3HCH5CHCH2C2H2C2FeS2FeS2FeSFeS5FeS2FeS2FeSFeS3CH4C6H4CHCH2C6H4C6H7CHC3H2CHC3H2CHC2NCHC2HCH2CH9CHC3NC3H2NHCH8CHCH2CH3CH2C2H2CH2NC9H13CHNSH3CHCH2C4HCHFeS2FeS2FeSFeS3H2SCH2C3HC2H4C5HCH2C7H4C2H5C3HC3H2CHCHCHNC2H4C3H5CHCHNHC3H6CHCH3NCH3FeHCNCH6CHC2HFeS2FeS2FeSFeS3CHSH3C3HC2H2CHC6H2CHC3H2C6H3CHCH2C2HNC9H14C2SH5C2H3FeCHC3H2C3HCH2C3HCHC2HSHCHCH2NHSFeSCFeSFeS2FeS2FeS2FeSFeS3C7H3C2H2SNCH2CHC6H4C5H3C3H2C2HC2H3C2H2C3H5CHCHC2SC3HCH2CH6CHCHC2HCH3CH2C2HCHC4HCH2CHCHCHC2NHCH3C2H2SCHCHC2HC2HCHSHSFeSFeSCFeS2FeS2FeSFeS3HC6H4CH3C2NC5H2C6H4C2HNHCHC2HNC2H3FeHCH3CNH2CH3CH2CHCHCHC2H3CHCHCH6CHCHCHC2H4CHCH2C2HSC3SHCHC2HCH5C2H2CH4C
_chemical_formula_sum              "H864 Fe96 S192 C720 N48"
_cell_length_a       51.5096
_cell_length_b       53.7523
_cell_length_c       42.9265
_cell_angle_alpha    91.0572
_cell_angle_beta     89.5205
_cell_angle_gamma    119.35

_space_group_name_H-M_alt    "P 1"
_space_group_IT_number       1

loop_
  _space_group_symop_operation_xyz
  'x, y, z'

loop_
  _atom_site_type_symbol
  _atom_site_label
  _atom_site_symmetry_multiplicity
  _atom_site_fract_x
  _atom_site_fract_y
  _atom_site_fract_z
  _atom_site_occupancy
  H   H1        1.0  0.22879  0.24716  0.37228  1.0000
  Fe  Fe1       1.0  0.43192  0.21990  0.15923  1.0000
  S   S1        1.0  0.44225  0.20451  0.11368  1.0000
  S   S2        1.0  0.38458  0.20263  0.17845  1.0000
  C   C1        1.0  0.20064  0.22812  0.42928  1.0000
  Fe  Fe2       1.0  0.46853  0.25067  0.10106  1.0000
  S   S3        1.0  0.47287  0.27069  0.05392  1.0000
  S   S4        1.0  0.47209  0.22364  0.18403  1.0000
  S   S5        1.0  0.45505  0.26586  0.14424  1.0000
  Fe  Fe3       1.0  0.04914  0.24945  0.35482  1.0000
  S   S6        1.0  0.07881  0.29692  0.35625  1.0000
  H   H2        1.0  0.24797  0.21946  0.44256  1.0000
  Fe  Fe4       1.0  0.10246  0.23871  0.34670  1.0000
  S   S7        1.0  0.13629  0.28581  0.34733  1.0000
  S   S8        1.0  0.10681  0.19905  0.35473  1.0000
  Fe  Fe5       1.0  0.10902  0.28909  0.38698  1.0000
  Fe  Fe6       1.0  0.48446  0.21244  0.13754  1.0000
  Fe  Fe7       1.0  0.10361  0.29053  0.31623  1.0000
  S   S9        1.0  0.07779  0.24243  0.38831  1.0000
  S   S10       1.0  0.07146  0.24280  0.31283  1.0000
  Fe  Fe8       1.0  0.28158  0.14447  0.33165  1.0000
  S   S11       1.0  0.23816  0.11464  0.30805  1.0000
  S   S12       1.0  0.32819  0.15714  0.31294  1.0000
  Fe  Fe9       1.0  0.24966  0.14685  0.39243  1.0000
  S   S13       1.0  0.20422  0.11755  0.37285  1.0000
  S   S14       1.0  0.25246  0.16684  0.44021  1.0000
  Fe  Fe10      1.0  0.22441  0.09143  0.35379  1.0000
  S   S15       1.0  0.20928  0.04531  0.36690  1.0000
  Fe  Fe11      1.0  0.22182  0.14342  0.32942  1.0000
  S   S16       1.0  0.20106  0.16473  0.30144  1.0000
  S   S17       1.0  0.26899  0.11967  0.37623  1.0000
  S   S18       1.0  0.26623  0.17451  0.35020  1.0000
  C   C2        1.0  0.17484  0.17411  0.31651  1.0000
  C   C3        1.0  0.15613  0.15952  0.34137  1.0000
  C   C4        1.0  0.13535  0.16740  0.35258  1.0000
  C   C5        1.0  0.13342  0.19024  0.33950  1.0000
  C   C6        1.0  0.15224  0.20497  0.31477  1.0000
  C   C7        1.0  0.17261  0.19668  0.30310  1.0000
  H   H3        1.0  0.15735  0.14188  0.35159  1.0000
  H   H4        1.0  0.12072  0.15576  0.37157  1.0000
  H   H5        1.0  0.15080  0.22240  0.30429  1.0000
  H   H6        1.0  0.18683  0.20793  0.28368  1.0000
  C   C8        1.0  0.29095  0.04237  0.28925  1.0000
  C   C9        1.0  0.18470  0.01168  0.34950  1.0000
  C   C10       1.0  0.26920  0.09506  0.21667  1.0000
  H   H7        1.0  0.41434  0.30109  0.21013  1.0000
  H   H8        1.0  0.32923  0.23516  0.25970  1.0000
  C   C11       1.0  0.26494  0.12948  0.47173  1.0000
  C   C12       1.0  0.25562  0.14991  0.47376  1.0000
  H   H9        1.0  0.23869  0.06734  0.24987  1.0000
  H   H10       1.0  0.26995  0.12348  0.44923  1.0000
  H   H11       1.0  0.23395  0.02801  0.27766  1.0000
  S   S19       1.0  0.12732  0.31596  0.43116  1.0000
  C   C13       1.0  0.11969  0.29777  0.46698  1.0000
  C   C14       1.0  0.11021  0.26857  0.46760  1.0000
  C   C15       1.0  0.19888  0.18457  0.41075  1.0000
  H   H12       1.0  0.10789  0.25689  0.44617  1.0000
  C   C16       1.0  0.36943  0.18995  0.21605  1.0000
  C   C17       1.0  0.33983  0.18320  0.22231  1.0000
  C   C18       1.0  0.32674  0.17293  0.25167  1.0000
  C   C19       1.0  0.34321  0.16941  0.27524  1.0000
  C   C20       1.0  0.37277  0.17605  0.26894  1.0000
  C   C21       1.0  0.38581  0.18618  0.23954  1.0000
  H   H13       1.0  0.32690  0.18592  0.20432  1.0000
  H   H14       1.0  0.30397  0.16786  0.25609  1.0000
  H   H15       1.0  0.38569  0.17336  0.28697  1.0000
  H   H16       1.0  0.40842  0.19084  0.23504  1.0000
  C   C22       1.0  0.44945  0.22080  0.01842  1.0000
  C   C23       1.0  0.46403  0.25066  0.01876  1.0000
  H   H17       1.0  0.33282  0.09725  0.26597  1.0000
  H   H18       1.0  0.20017  0.17706  0.43436  1.0000
  H   H19       1.0  0.44312  0.20942  0.04014  1.0000
  Fe  Fe12      1.0  0.49562  0.26855  0.16623  1.0000
  C   C24       1.0  0.01853  0.13020  0.35769  1.0000
  N   N1        1.0  0.21526  0.21614  0.40881  1.0000
  H   H20       1.0  0.47360  0.31960  0.23935  1.0000
  C   C25       1.0  0.28449  0.07833  0.26228  1.0000
  H   H21       1.0  0.28498  0.06979  0.34073  1.0000
  H   H22       1.0  0.04696  0.18270  0.33480  1.0000
  H   H23       1.0  0.31565  0.09396  0.31703  1.0000
  C   C26       1.0  0.02227  0.17287  0.33610  1.0000
  H   H24       1.0  0.28283  0.09696  0.31924  1.0000
  H   H25       1.0  0.17492  0.17579  0.40497  1.0000
  H   H26       1.0  0.48274  0.19103  0.02335  1.0000
  H   H27       1.0  0.24119  0.03048  0.31856  1.0000
  C   C27       1.0  0.18640  0.24306  0.41766  1.0000
  H   H28       1.0  0.04323  0.13937  0.35878  1.0000
  H   H29       1.0  0.20916  0.21241  0.47242  1.0000
  C   C28       1.0  0.26199  0.07886  0.24374  1.0000
  H   H30       1.0  0.28510  0.02852  0.31005  1.0000
  C   C29       1.0  0.17272  0.25394  0.43778  1.0000
  H   H31       1.0  0.20815  0.17456  0.39440  1.0000
  H   H32       1.0  0.25928  0.25053  0.41921  1.0000
  H   H33       1.0  0.23435  0.05644  0.30139  1.0000
  H   H34       1.0  0.30438  0.12405  0.18663  1.0000
  N   N2        1.0  0.27783  0.06154  0.29113  1.0000
  C   C30       1.0  0.32131  0.11119  0.22504  1.0000
  H   H35       1.0  0.18520  0.24646  0.39311  1.0000
  H   H36       1.0  0.49563  0.16574  0.01846  1.0000
  H   H37       1.0  0.04899  0.17774  0.39048  1.0000
  N   N3        1.0  0.43197  0.27989  0.23826  1.0000
  C   C31       1.0  0.44648  0.26232  0.23228  1.0000
  C   C32       1.0  0.42505  0.28753  0.20752  1.0000
  C   C33       1.0  0.45366  0.30682  0.25420  1.0000
  C   C34       1.0  0.40539  0.26402  0.25819  1.0000
  C   C35       1.0  0.37603  0.25632  0.24834  1.0000
  C   C36       1.0  0.40839  0.25552  0.28848  1.0000
  C   C37       1.0  0.35151  0.24147  0.26792  1.0000
  C   C38       1.0  0.38365  0.24037  0.30768  1.0000
  C   C39       1.0  0.35529  0.23346  0.29746  1.0000
  H   H38       1.0  0.43091  0.24188  0.22033  1.0000
  H   H39       1.0  0.46646  0.27353  0.21716  1.0000
  H   H40       1.0  0.02041  0.18710  0.39507  1.0000
  H   H41       1.0  0.41019  0.26807  0.19340  1.0000
  H   H42       1.0  0.01344  0.16256  0.31306  1.0000
  C   C40       1.0  0.10431  0.25442  0.49612  1.0000
  H   H43       1.0  0.46231  0.30294  0.27613  1.0000
  H   H44       1.0  0.49191  0.17774  0.05690  1.0000
  H   H45       1.0  0.00842  0.11367  0.37593  1.0000
  H   H46       1.0  0.37123  0.26084  0.22537  1.0000
  H   H47       1.0  0.42986  0.26005  0.29734  1.0000
  H   H48       1.0  0.28275  0.02822  0.26819  1.0000
  H   H49       1.0  0.22703  0.21412  0.36061  1.0000
  H   H50       1.0  0.25179  0.09558  0.20314  1.0000
  H   H51       1.0  0.19348  0.21533  0.36592  1.0000
  C   C41       1.0  0.19249  0.01985  0.45844  1.0000
  C   C42       1.0  0.21622  0.22366  0.37554  1.0000
  C   C43       1.0  0.29095  0.08126  0.31820  1.0000
  H   H52       1.0  0.44556  0.29990  0.19338  1.0000
  H   H53       1.0  0.17315  0.02781  0.30948  1.0000
  H   H54       1.0  0.34437  0.12448  0.21817  1.0000
  C   C44       1.0  0.29877  0.11106  0.20727  1.0000
  H   H55       1.0  0.45420  0.25697  0.25392  1.0000
  H   H56       1.0  0.38624  0.23320  0.33030  1.0000
  H   H57       1.0  0.22016  0.06510  0.46487  1.0000
  C   C45       1.0  0.24649  0.22680  0.41895  1.0000
  C   C46       1.0  0.31441  0.09539  0.25232  1.0000
  H   H58       1.0  0.19189  0.02110  0.43325  1.0000
  C   C47       1.0  0.26846  0.11726  0.49896  1.0000
  C   C48       1.0  0.17018  0.00894  0.32118  1.0000
  H   H59       1.0  0.27617  0.10184  0.49721  1.0000
  H   H60       1.0  0.25824  0.21874  0.40331  1.0000
  H   H61       1.0  0.33606  0.22091  0.31202  1.0000
  C   C49       1.0  0.19958  0.22424  0.46201  1.0000
  C   C50       1.0  0.24545  0.04337  0.29718  1.0000
  C   C51       1.0  0.17261  0.25019  0.46981  1.0000
  H   H62       1.0  0.01166  0.11930  0.33458  1.0000
  H   H63       1.0  0.31566  0.05435  0.28822  1.0000
  C   C52       1.0  0.02291  0.23798  0.47621  1.0000
  N   N4        1.0  0.00988  0.15262  0.36215  1.0000
  H   H64       1.0  0.44335  0.32031  0.26005  1.0000
  C   C53       1.0  0.20840  0.04464  0.47631  1.0000
  H   H65       1.0  0.01697  0.19048  0.33908  1.0000
  H   H66       1.0  0.16203  0.25874  0.48529  1.0000
  H   H67       1.0  0.09701  0.23180  0.49622  1.0000
  C   C54       1.0  0.12345  0.31273  0.49532  1.0000
  C   C55       1.0  0.02433  0.16862  0.39130  1.0000
  H   H68       1.0  0.04326  0.24859  0.46261  1.0000
  S   S20       1.0  0.11023  0.31782  0.27318  1.0000
  S   S21       1.0  0.00123  0.23002  0.37145  1.0000
  H   H69       1.0  0.01620  0.15464  0.41195  1.0000
  C   C56       1.0  0.18588  0.23526  0.48189  1.0000
  H   H70       1.0  0.16196  0.26525  0.42846  1.0000
  C   C57       1.0  0.02425  0.23342  0.50798  1.0000
  Fe  Fe13      1.0  0.43836  0.24160  0.82180  1.0000
  S   S22       1.0  0.44883  0.20697  0.83430  1.0000
  S   S23       1.0  0.39797  0.23689  0.79484  1.0000
  H   H71       1.0  0.38986  0.17996  0.78005  1.0000
  H   H72       1.0  0.19391  0.28068  0.78247  1.0000
  Fe  Fe14      1.0  0.45845  0.22718  0.88241  1.0000
  C   C58       1.0  0.34231  0.17003  0.57532  1.0000
  H   H73       1.0  0.16379  0.03100  0.56526  1.0000
  S   S24       1.0  0.44486  0.25962  0.87087  1.0000
  Fe  Fe15      1.0  0.10663  0.24421  0.67298  1.0000
  S   S25       1.0  0.13821  0.28012  0.64282  1.0000
  S   S26       1.0  0.12082  0.21668  0.69968  1.0000
  Fe  Fe16      1.0  0.05482  0.25584  0.66077  1.0000
  S   S27       1.0  0.08323  0.29269  0.62976  1.0000
  Fe  Fe17      1.0  0.09976  0.26431  0.60931  1.0000
  S   S28       1.0  0.09885  0.24959  0.55923  1.0000
  Fe  Fe18      1.0  0.11880  0.30528  0.66652  1.0000
  H   H74       1.0  0.32747  0.16656  0.52780  1.0000
  S   S29       1.0  0.06911  0.22658  0.63828  1.0000
  S   S30       1.0  0.08943  0.27024  0.69879  1.0000
  Fe  Fe19      1.0  0.26566  0.12827  0.67796  1.0000
  S   S31       1.0  0.21917  0.11943  0.69060  1.0000
  S   S32       1.0  0.30334  0.13348  0.71004  1.0000
  Fe  Fe20      1.0  0.25058  0.11676  0.60825  1.0000
  S   S33       1.0  0.20370  0.10731  0.61551  1.0000
  S   S34       1.0  0.26701  0.10918  0.56196  1.0000
  Fe  Fe21      1.0  0.22297  0.14533  0.64820  1.0000
  S   S35       1.0  0.20961  0.17900  0.63801  1.0000
  Fe  Fe22      1.0  0.20334  0.08201  0.65671  1.0000
  S   S36       1.0  0.16140  0.03871  0.66097  1.0000
  S   S37       1.0  0.27056  0.15666  0.63785  1.0000
  S   S38       1.0  0.24904  0.08887  0.64717  1.0000
  C   C59       1.0  0.26201  0.12483  0.52832  1.0000
  N   N5        1.0  0.35756  0.17441  0.63159  1.0000
  C   C60       1.0  0.25232  0.14497  0.53036  1.0000
  H   H75       1.0  0.37617  0.17012  0.90084  1.0000
  H   H76       1.0  0.24750  0.15111  0.55290  1.0000
  H   H77       1.0  0.38915  0.16811  0.60382  1.0000
  C   C61       1.0  0.10778  0.26922  0.52442  1.0000
  C   C62       1.0  0.11734  0.29848  0.52400  1.0000
  H   H78       1.0  0.34768  0.15315  0.57144  1.0000
  C   C63       1.0  0.18992  0.00625  0.66185  1.0000
  S   S39       1.0  0.00786  0.24921  0.66618  1.0000
  C   C64       1.0  0.14621  0.20687  0.68299  1.0000
  C   C65       1.0  0.16001  0.21776  0.65445  1.0000
  C   C66       1.0  0.17967  0.20925  0.64143  1.0000
  C   C67       1.0  0.18570  0.18971  0.65664  1.0000
  C   C68       1.0  0.17232  0.17916  0.68550  1.0000
  C   C69       1.0  0.15263  0.18771  0.69858  1.0000
  H   H79       1.0  0.15533  0.23249  0.64216  1.0000
  H   H80       1.0  0.19001  0.21763  0.61917  1.0000
  H   H81       1.0  0.17728  0.16463  0.69779  1.0000
  H   H82       1.0  0.14219  0.17932  0.72078  1.0000
  C   C70       1.0  0.14731  0.28245  0.75762  1.0000
  C   C71       1.0  0.19505  0.28430  0.75698  1.0000
  H   H83       1.0  0.34543  0.13617  0.65775  1.0000
  C   C72       1.0  0.16286  0.00634  0.66022  1.0000
  H   H84       1.0  0.21055  0.02620  0.66411  1.0000
  C   C73       1.0  0.45064  0.22021  0.96149  1.0000
  H   H85       1.0  0.40310  0.20348  0.61980  1.0000
  C   C74       1.0  0.46529  0.25005  0.96189  1.0000
  H   H86       1.0  0.39810  0.17466  0.64434  1.0000
  H   H87       1.0  0.47135  0.26151  0.94021  1.0000
  C   C75       1.0  0.37185  0.20781  0.77148  1.0000
  C   C76       1.0  0.34935  0.21041  0.75594  1.0000
  C   C77       1.0  0.32799  0.18785  0.73730  1.0000
  C   C78       1.0  0.32884  0.16232  0.73411  1.0000
  C   C79       1.0  0.35130  0.15970  0.74972  1.0000
  C   C80       1.0  0.37270  0.18229  0.76828  1.0000
  H   H88       1.0  0.34848  0.23007  0.75829  1.0000
  H   H89       1.0  0.31089  0.19023  0.72546  1.0000
  H   H90       1.0  0.35222  0.14007  0.74736  1.0000
  H   H91       1.0  0.20225  0.31168  0.70380  1.0000
  H   H92       1.0  0.31447  0.18662  0.90763  1.0000
  H   H93       1.0  0.31932  0.22841  0.58511  1.0000
  N   N6        1.0  0.19538  0.01605  0.55888  1.0000
  H   H94       1.0  0.13482  0.29394  0.75265  1.0000
  H   H95       1.0  0.18558  0.26286  0.74534  1.0000
  C   C81       1.0  0.37620  0.18468  0.88276  1.0000
  N   N7        1.0  0.35890  0.19895  0.89222  1.0000
  C   C82       1.0  0.32260  0.19859  0.55361  1.0000
  H   H96       1.0  0.07905  0.16566  0.64449  1.0000
  Fe  Fe23      1.0  0.49278  0.28764  0.85811  1.0000
  H   H97       1.0  0.38080  0.23177  0.85804  1.0000
  H   H98       1.0  0.08767  0.32622  0.70699  1.0000
  H   H99       1.0  0.12013  0.31011  0.54567  1.0000
  H   H100      1.0  0.02022  0.33182  0.72472  1.0000
  H   H101      1.0  0.16291  0.12215  0.65656  1.0000
  H   H102      1.0  0.05045  0.30163  0.69478  1.0000
  C   C83       1.0  0.01378  0.19695  0.56423  1.0000
  H   H103      1.0  0.34810  0.20157  0.84408  1.0000
  H   H104      1.0  0.31292  0.20378  0.53414  1.0000
  H   H105      1.0  0.18541  0.23210  0.50682  1.0000
  C   C84       1.0  0.08103  0.10656  0.66856  1.0000
  H   H106      1.0  0.36570  0.18134  0.94987  1.0000
  C   C85       1.0  0.35854  0.18935  0.66141  1.0000
  N   N8        1.0  0.11712  0.08858  0.65401  1.0000
  C   C86       1.0  0.14627  0.10363  0.67005  1.0000
  C   C87       1.0  0.09744  0.06287  0.67237  1.0000
  C   C88       1.0  0.12131  0.07842  0.62293  1.0000
  C   C89       1.0  0.10539  0.10865  0.65068  1.0000
  C   C90       1.0  0.11961  0.13227  0.63049  1.0000
  H   H107      1.0  0.06925  0.08982  0.68510  1.0000
  C   C91       1.0  0.10958  0.15203  0.62772  1.0000
  C   C92       1.0  0.38631  0.22033  0.97576  1.0000
  H   H108      1.0  0.15572  0.08921  0.67369  1.0000
  C   C93       1.0  0.22639  0.02516  0.56849  1.0000
  H   H109      1.0  0.09578  0.06845  0.69713  1.0000
  H   H110      1.0  0.10633  0.04766  0.67315  1.0000
  H   H111      1.0  0.07472  0.05106  0.66206  1.0000
  H   H112      1.0  0.10032  0.06886  0.60915  1.0000
  H   H113      1.0  0.13900  0.09575  0.60902  1.0000
  H   H114      1.0  0.12848  0.06201  0.62495  1.0000
  H   H115      1.0  0.13939  0.13640  0.61753  1.0000
  H   H116      1.0  0.36690  0.18185  0.68100  1.0000
  H   H117      1.0  0.12113  0.17013  0.61250  1.0000
  C   C94       1.0  0.38830  0.18040  0.62454  1.0000
  H   H118      1.0  0.37364  0.21280  0.66009  1.0000
  H   H119      1.0  0.33900  0.13004  0.61678  1.0000
  C   C95       1.0  0.33088  0.17765  0.55005  1.0000
  H   H120      1.0  0.16679  0.31103  0.70457  1.0000
  H   H121      1.0  0.33590  0.18517  0.66847  1.0000
  S   S40       1.0  0.48556  0.27301  0.80811  1.0000
  S   S41       1.0  0.44205  0.20078  0.92597  1.0000
  H   H122      1.0  0.36758  0.17192  0.86081  1.0000
  C   C96       1.0  0.34589  0.18330  0.60508  1.0000
  H   H123      1.0  0.31492  0.13770  0.64031  1.0000
  H   H124      1.0  0.33955  0.21635  0.62940  1.0000
  C   C97       1.0  0.33854  0.14331  0.63667  1.0000
  C   C98       1.0  0.33784  0.20509  0.60775  1.0000
  H   H125      1.0  0.40921  0.26248  0.99622  1.0000
  C   C99       1.0  0.32617  0.21236  0.58235  1.0000
  H   H126      1.0  0.48297  0.28825  0.99050  1.0000
  H   H127      1.0  0.12378  0.33176  0.74443  1.0000
  C   C100      1.0  0.07159  0.12684  0.66606  1.0000
  C   C101      1.0  0.08583  0.14951  0.64570  1.0000
  H   H128      1.0  0.16840  0.27850  0.70248  1.0000
  H   H129      1.0  0.22235  0.06301  0.52149  1.0000
  H   H130      1.0  0.39992  0.20063  0.87873  1.0000
  C   C102      1.0  0.17916  0.30036  0.71316  1.0000
  H   H131      1.0  0.31653  0.16388  0.87750  1.0000
  H   H132      1.0  0.05348  0.12536  0.68043  1.0000
  H   H133      1.0  0.20208  0.05863  0.56830  1.0000
  H   H134      1.0  0.43128  0.18253  0.98963  1.0000
  C   C103      1.0  0.19396  0.01684  0.52444  1.0000
  H   H135      1.0  0.14425  0.11203  0.69331  1.0000
  H   H136      1.0  0.14497  0.27771  0.78286  1.0000
  C   C104      1.0  0.39792  0.26317  0.94817  1.0000
  H   H137      1.0  0.23437  0.01112  0.55775  1.0000
  H   H138      1.0  0.21902  0.29670  0.75049  1.0000
  H   H139      1.0  0.01531  0.19275  0.58929  1.0000
  H   H140      1.0  0.38556  0.25885  0.90076  1.0000
  C   C105      1.0  0.37371  0.20401  0.94872  1.0000
  C   C106      1.0  0.38491  0.24702  0.92109  1.0000
  H   H141      1.0  0.01459  0.31908  0.68545  1.0000
  H   H142      1.0  0.32655  0.16135  0.91644  1.0000
  C   C107      1.0  0.32778  0.17675  0.89879  1.0000
  H   H143      1.0  0.34474  0.22620  0.87027  1.0000
  C   C108      1.0  0.39856  0.24986  0.97544  1.0000
  C   C109      1.0  0.35803  0.21540  0.86517  1.0000
  C   C110      1.0  0.01973  0.24351  0.57593  1.0000
  C   C111      1.0  0.37241  0.21680  0.92054  1.0000
  H   H144      1.0  0.05715  0.31573  0.73354  1.0000
  H   H145      1.0  0.13573  0.26137  0.74526  1.0000
  N   N9        1.0  0.17886  0.29945  0.74774  1.0000
  H   H146      1.0  0.40803  0.28624  0.94787  1.0000
  H   H147      1.0  0.03688  0.20667  0.55492  1.0000
  C   C112      1.0  0.47186  0.26517  0.99042  1.0000
  H   H148      1.0  0.24236  0.17356  0.50495  1.0000
  C   C113      1.0  0.18626  0.03588  0.57342  1.0000
  H   H149      1.0  0.38757  0.21017  0.99685  1.0000
  H   H150      1.0  0.04598  0.24061  0.51799  1.0000
  H   H151      1.0  0.18552  0.03456  0.59931  1.0000
  C   C114      1.0  0.44272  0.20562  0.98982  1.0000
  C   C115      1.0  0.24947  0.15770  0.50317  1.0000
  H   H152      1.0  0.22836  0.02460  0.59428  1.0000
  H   H153      1.0  0.18321  0.31217  0.81049  1.0000
  H   H154      1.0  0.05474  0.32988  0.65061  1.0000
  C   C116      1.0  0.20932  0.04322  0.50875  1.0000
  H   H155      1.0  0.04315  0.25372  0.56754  1.0000
  C   C117      1.0  0.19260  0.32808  0.76294  1.0000
  C   C118      1.0  0.19266  0.33075  0.79594  1.0000
  H   H156      1.0  0.24216  0.04742  0.56144  1.0000
  C   C119      1.0  0.06413  0.32130  0.70896  1.0000
  H   H157      1.0  0.02082  0.24116  0.60154  1.0000
  H   H158      1.0  0.01131  0.25875  0.57219  1.0000
  H   H159      1.0  0.99710  0.19044  0.66720  1.0000
  Fe  Fe24      1.0  0.49648  0.23969  0.82440  1.0000
  N   N10       1.0  0.00039  0.21563  0.56020  1.0000
  C   C120      1.0  0.99814  0.21997  0.52654  1.0000
  H   H160      1.0  0.00044  0.17605  0.55198  1.0000
  H   H161      1.0  0.16139  0.37900  0.41317  1.0000
  Fe  Fe25      1.0  0.20825  0.46751  0.17985  1.0000
  S   S42       1.0  0.23858  0.47126  0.13973  1.0000
  S   S43       1.0  0.20546  0.44106  0.22249  1.0000
  Fe  Fe26      1.0  0.19469  0.51207  0.15241  1.0000
  S   S44       1.0  0.22419  0.51926  0.11121  1.0000
  S   S45       1.0  0.16843  0.53545  0.14817  1.0000
  Fe  Fe27      1.0  0.20411  0.47203  0.10865  1.0000
  S   S46       1.0  0.19273  0.44973  0.06121  1.0000
  Fe  Fe28      1.0  0.25661  0.51847  0.14483  1.0000
  S   S47       1.0  0.30361  0.54891  0.13007  1.0000
  S   S48       1.0  0.17187  0.46399  0.14809  1.0000
  S   S49       1.0  0.22904  0.51559  0.18687  1.0000
  H   H162      1.0  0.13676  0.48342  0.11332  1.0000
  H   H163      1.0  0.12574  0.40952  0.27181  1.0000
  H   H164      1.0  0.19086  0.40236  0.38845  1.0000
  C   C121      1.0  0.36609  0.62674  0.18906  1.0000
  C   C122      1.0  0.37053  0.62568  0.15702  1.0000
  C   C123      1.0  0.35164  0.60125  0.13951  1.0000
  C   C124      1.0  0.32779  0.57794  0.15375  1.0000
  C   C125      1.0  0.32355  0.57864  0.18593  1.0000
  C   C126      1.0  0.34285  0.60305  0.20363  1.0000
  H   H165      1.0  0.38839  0.64377  0.14555  1.0000
  H   H166      1.0  0.35517  0.60072  0.11467  1.0000
  H   H167      1.0  0.30529  0.56055  0.19708  1.0000
  H   H168      1.0  0.33930  0.60380  0.22843  1.0000
  C   C127      1.0  0.18150  0.56967  0.16514  1.0000
  C   C128      1.0  0.19923  0.57822  0.19194  1.0000
  C   C129      1.0  0.20809  0.60518  0.20571  1.0000
  C   C130      1.0  0.19982  0.62394  0.19239  1.0000
  C   C131      1.0  0.18263  0.61562  0.16521  1.0000
  C   C132      1.0  0.17316  0.58841  0.15190  1.0000
  H   H169      1.0  0.20546  0.56378  0.20252  1.0000
  H   H170      1.0  0.22139  0.61154  0.22675  1.0000
  H   H171      1.0  0.17615  0.62992  0.15477  1.0000
  H   H172      1.0  0.15932  0.58187  0.13126  1.0000
  C   C133      1.0  0.16729  0.39534  0.39476  1.0000
  C   C134      1.0  0.25692  0.62705  0.12832  1.0000
  C   C135      1.0  0.20083  0.49624  0.02698  1.0000
  H   H173      1.0  0.46912  0.64751  0.26515  1.0000
  H   H174      1.0  0.20201  0.50687  0.04885  1.0000
  C   C136      1.0  0.13784  0.35139  0.25834  1.0000
  C   C137      1.0  0.13063  0.36293  0.23277  1.0000
  C   C138      1.0  0.15125  0.38989  0.22084  1.0000
  C   C139      1.0  0.17941  0.40581  0.23452  1.0000
  C   C140      1.0  0.18680  0.39404  0.25975  1.0000
  C   C141      1.0  0.16632  0.36692  0.27137  1.0000
  C   C142      1.0  0.17858  0.43238  0.34321  1.0000
  H   H175      1.0  0.14518  0.39856  0.20145  1.0000
  H   H176      1.0  0.20855  0.40604  0.27039  1.0000
  N   N11       1.0  0.30317  0.53606  0.03326  1.0000
  C   C143      1.0  0.28771  0.50692  0.04647  1.0000
  C   C144      1.0  0.33316  0.55165  0.04786  1.0000
  C   C145      1.0  0.28648  0.55099  0.04245  1.0000
  C   C146      1.0  0.15322  0.40457  0.34272  1.0000
  H   H177      1.0  0.11198  0.38892  0.38767  1.0000
  H   H178      1.0  0.26109  0.60404  0.18166  1.0000
  H   H179      1.0  0.34516  0.57456  0.04142  1.0000
  C   C147      1.0  0.14009  0.48510  0.08763  1.0000
  H   H180      1.0  0.08201  0.45837  0.10497  1.0000
  H   H181      1.0  0.34696  0.54161  0.04148  1.0000
  H   H182      1.0  0.28835  0.50755  0.07248  1.0000
  H   H183      1.0  0.24920  0.60836  0.11208  1.0000
  H   H184      1.0  0.32752  0.63819  0.13074  1.0000
  H   H185      1.0  0.33182  0.55151  0.07376  1.0000
  H   H186      1.0  0.13203  0.43286  0.07766  1.0000
  H   H187      1.0  0.28550  0.55298  0.06826  1.0000
  H   H188      1.0  0.29701  0.57285  0.03273  1.0000
  H   H189      1.0  0.10801  0.43228  0.10791  1.0000
  H   H190      1.0  0.25780  0.66557  0.16449  1.0000
  H   H191      1.0  0.26002  0.64567  0.11455  1.0000
  N   N12       1.0  0.11457  0.46161  0.07089  1.0000
  C   C148      1.0  0.13423  0.39701  0.31632  1.0000
  H   H192      1.0  0.29810  0.49407  0.03824  1.0000
  C   C149      1.0  0.11620  0.37162  0.37890  1.0000
  H   H193      1.0  0.09935  0.35939  0.36064  1.0000
  C   C150      1.0  0.11940  0.46529  0.03683  1.0000
  H   H194      1.0  0.06753  0.44606  0.06627  1.0000
  C   C151      1.0  0.29635  0.65858  0.16583  1.0000
  H   H195      1.0  0.19463  0.43993  0.36190  1.0000
  H   H196      1.0  0.16106  0.48470  0.08245  1.0000
  C   C152      1.0  0.14003  0.41613  0.29219  1.0000
  C   C153      1.0  0.12210  0.49004  0.02243  1.0000
  H   H197      1.0  0.14371  0.50659  0.08162  1.0000
  H   H198      1.0  0.08894  0.48358  0.07541  1.0000
  H   H199      1.0  0.11143  0.35636  0.39823  1.0000
  H   H200      1.0  0.13547  0.34861  0.33441  1.0000
  H   H201      1.0  0.26301  0.53938  0.03414  1.0000
  C   C154      1.0  0.30716  0.63701  0.12073  1.0000
  H   H202      1.0  0.20425  0.47198  0.31888  1.0000
  C   C155      1.0  0.19687  0.46857  0.02643  1.0000
  H   H203      1.0  0.29822  0.61081  0.17611  1.0000
  H   H204      1.0  0.17037  0.45726  0.27365  1.0000
  H   H205      1.0  0.16584  0.41357  0.40562  1.0000
  C   C156      1.0  0.18438  0.45118  0.31865  1.0000
  C   C157      1.0  0.08706  0.46242  0.07967  1.0000
  C   C158      1.0  0.16520  0.44305  0.29319  1.0000
  S   S50       1.0  0.38846  0.65836  0.21032  1.0000
  H   H206      1.0  0.10880  0.35103  0.22225  1.0000
  H   H207      1.0  0.17268  0.35800  0.29020  1.0000
  H   H208      1.0  0.11541  0.37578  0.31335  1.0000
  C   C159      1.0  0.11147  0.43431  0.08222  1.0000
  C   C160      1.0  0.15109  0.35985  0.35404  1.0000
  N   N13       1.0  0.14722  0.38345  0.36732  1.0000
  H   H209      1.0  0.12098  0.42589  0.02585  1.0000
  H   H210      1.0  0.43438  0.64730  0.25964  1.0000
  H   H211      1.0  0.23819  0.62135  0.14482  1.0000
  C   C161      1.0  0.27820  0.60789  0.16357  1.0000
  H   H212      1.0  0.17406  0.36791  0.34488  1.0000
  H   H213      1.0  0.29847  0.61875  0.10381  1.0000
  C   C162      1.0  0.12161  0.44486  0.01706  1.0000
  H   H214      1.0  0.13095  0.33537  0.49510  1.0000
  N   N14       1.0  0.28470  0.63317  0.14486  1.0000
  H   H215      1.0  0.14713  0.34354  0.37179  1.0000
  H   H216      1.0  0.12118  0.50673  0.03598  1.0000
  H   H217      1.0  0.31418  0.65698  0.10758  1.0000
  H   H218      1.0  0.26999  0.58813  0.14891  1.0000
  H   H219      1.0  0.33792  0.65906  0.17680  1.0000
  H   H220      1.0  0.09222  0.41552  0.07116  1.0000
  H   H221      1.0  0.26363  0.49483  0.04037  1.0000
  C   C163      1.0  0.45698  0.65946  0.27041  1.0000
  S   S51       1.0  0.21152  0.65772  0.20993  1.0000
  H   H222      1.0  0.45367  0.65912  0.29605  1.0000
  H   H223      1.0  0.09777  0.66365  0.10042  1.0000
  Fe  Fe29      1.0  0.25998  0.50882  0.84410  1.0000
  S   S52       1.0  0.23205  0.49799  0.80079  1.0000
  S   S53       1.0  0.30744  0.51744  0.84290  1.0000
  Fe  Fe30      1.0  0.20967  0.50224  0.88711  1.0000
  S   S54       1.0  0.17736  0.49095  0.84725  1.0000
  S   S55       1.0  0.20247  0.51502  0.93578  1.0000
  Fe  Fe31      1.0  0.19606  0.46307  0.82901  1.0000
  S   S56       1.0  0.16586  0.41636  0.81366  1.0000
  Fe  Fe32      1.0  0.21569  0.52643  0.82213  1.0000
  S   S57       1.0  0.21659  0.56224  0.79440  1.0000
  S   S58       1.0  0.22549  0.47188  0.87131  1.0000
  S   S59       1.0  0.24657  0.53966  0.86296  1.0000
  S   S60       1.0  0.16176  0.63421  0.85679  1.0000
  H   H224      1.0  0.25683  0.50441  0.93639  1.0000
  S   S61       1.0  0.42820  0.63418  0.86042  1.0000
  C   C164      1.0  0.33959  0.55068  0.85024  1.0000
  C   C165      1.0  0.33895  0.57633  0.85478  1.0000
  C   C166      1.0  0.36592  0.60247  0.85810  1.0000
  C   C167      1.0  0.39333  0.60269  0.85755  1.0000
  C   C168      1.0  0.39354  0.57687  0.85434  1.0000
  C   C169      1.0  0.36695  0.55115  0.85046  1.0000
  H   H225      1.0  0.31784  0.57603  0.85474  1.0000
  H   H226      1.0  0.36562  0.62235  0.86046  1.0000
  H   H227      1.0  0.41451  0.57678  0.85406  1.0000
  H   H228      1.0  0.36765  0.53148  0.84717  1.0000
  C   C170      1.0  0.20156  0.58225  0.81215  1.0000
  C   C171      1.0  0.18149  0.57131  0.83690  1.0000
  C   C172      1.0  0.16897  0.58723  0.84991  1.0000
  C   C173      1.0  0.17741  0.61469  0.83920  1.0000
  C   C174      1.0  0.19804  0.62593  0.81492  1.0000
  C   C175      1.0  0.20969  0.60954  0.80108  1.0000
  H   H229      1.0  0.17493  0.55023  0.84546  1.0000
  H   H230      1.0  0.15287  0.57834  0.86855  1.0000
  H   H231      1.0  0.34594  0.64380  0.89992  1.0000
  H   H232      1.0  0.22485  0.61802  0.78166  1.0000
  C   C176      1.0  0.20096  0.49675  0.97011  1.0000
  H   H233      1.0  0.22739  0.39986  0.74765  1.0000
  H   H234      1.0  0.35129  0.55946  0.93560  1.0000
  H   H235      1.0  0.19635  0.45879  0.94728  1.0000
  H   H236      1.0  0.25212  0.63894  0.84905  1.0000
  C   C177      1.0  0.15293  0.36937  0.71880  1.0000
  C   C178      1.0  0.13843  0.35453  0.74567  1.0000
  C   C179      1.0  0.14286  0.36925  0.77441  1.0000
  C   C180      1.0  0.16199  0.39895  0.77686  1.0000
  C   C181      1.0  0.17681  0.41375  0.75009  1.0000
  C   C182      1.0  0.17220  0.39904  0.72127  1.0000
  C   C183      1.0  0.30752  0.60522  0.91437  1.0000
  H   H237      1.0  0.13137  0.35759  0.79496  1.0000
  H   H238      1.0  0.19156  0.43658  0.75154  1.0000
  C   C184      1.0  0.38284  0.62279  0.78298  1.0000
  C   C185      1.0  0.09122  0.39467  0.76955  1.0000
  H   H239      1.0  0.23700  0.59340  0.91842  1.0000
  C   C186      1.0  0.27694  0.59153  0.91967  1.0000
  N   N15       1.0  0.25859  0.64999  0.89776  1.0000
  H   H240      1.0  0.44269  0.61938  0.92855  1.0000
  H   H241      1.0  0.30371  0.61114  0.83804  1.0000
  C   C187      1.0  0.22628  0.63336  0.90502  1.0000
  C   C188      1.0  0.27486  0.63413  0.90324  1.0000
  C   C189      1.0  0.31742  0.64915  0.79203  1.0000
  H   H242      1.0  0.21444  0.64551  0.89992  1.0000
  C   C190      1.0  0.27756  0.51697  0.94900  1.0000
  H   H243      1.0  0.09244  0.35428  0.66101  1.0000
  C   C191      1.0  0.20443  0.35746  0.81083  1.0000
  C   C192      1.0  0.21695  0.38226  0.79342  1.0000
  H   H244      1.0  0.31997  0.59416  0.91850  1.0000
  H   H245      1.0  0.40622  0.63855  0.78516  1.0000
  H   H246      1.0  0.20349  0.35905  0.83599  1.0000
  H   H247      1.0  0.20431  0.64688  0.80619  1.0000
  C   C193      1.0  0.07410  0.37084  0.75047  1.0000
  H   H248      1.0  0.22230  0.62756  0.93003  1.0000
  H   H249      1.0  0.02563  0.35597  0.69383  1.0000
  H   H250      1.0  0.21506  0.61351  0.89055  1.0000
  C   C194      1.0  0.33072  0.54807  0.94866  1.0000
  C   C195      1.0  0.30608  0.64741  0.89804  1.0000
  H   H251      1.0  0.29833  0.61615  0.73928  1.0000
  H   H252      1.0  0.27370  0.58387  0.75927  1.0000
  H   H253      1.0  0.33064  0.66091  0.77134  1.0000
  C   C196      1.0  0.12585  0.44898  0.98493  1.0000
  C   C197      1.0  0.33092  0.54964  0.98129  1.0000
  H   H254      1.0  0.18363  0.41079  0.70072  1.0000
  H   H255      1.0  0.26556  0.56972  0.92793  1.0000
  C   C198      1.0  0.19543  0.45523  0.99752  1.0000
  C   C199      1.0  0.21803  0.38047  0.76109  1.0000
  C   C200      1.0  0.12662  0.49404  0.99033  1.0000
  C   C201      1.0  0.06898  0.34955  0.66465  1.0000
  C   C202      1.0  0.11920  0.42090  0.72488  1.0000
  C   C203      1.0  0.11364  0.41967  0.75676  1.0000
  H   H256      1.0  0.06623  0.36704  0.65459  1.0000
  H   H257      1.0  0.39176  0.58781  0.77762  1.0000
  H   H258      1.0  0.36889  0.65352  0.78973  1.0000
  C   C204      1.0  0.19770  0.46933  0.96941  1.0000
  H   H259      1.0  0.27095  0.60957  0.82130  1.0000
  C   C205      1.0  0.30409  0.53174  0.93260  1.0000
  H   H260      1.0  0.10870  0.39936  0.68131  1.0000
  H   H261      1.0  0.12829  0.43356  0.97037  1.0000
  C   C206      1.0  0.45791  0.63991  0.93913  1.0000
  N   N16       1.0  0.06081  0.34563  0.69820  1.0000
  C   C207      1.0  0.07921  0.37126  0.71785  1.0000
  H   H262      1.0  0.27804  0.58071  0.81535  1.0000
  H   H263      1.0  0.13728  0.44019  0.71525  1.0000
  H   H264      1.0  0.12743  0.43782  0.77181  1.0000
  C   C208      1.0  0.36101  0.63102  0.78586  1.0000
  C   C209      1.0  0.28593  0.60756  0.76138  1.0000
  H   H265      1.0  0.13284  0.47708  0.94687  1.0000
  C   C210      1.0  0.28910  0.60435  0.81711  1.0000
  C   C211      1.0  0.33017  0.61045  0.78448  1.0000
  C   C212      1.0  0.32279  0.58147  0.77987  1.0000
  N   N17       1.0  0.30629  0.61801  0.78864  1.0000
  C   C213      1.0  0.34480  0.57355  0.77697  1.0000
  C   C214      1.0  0.10247  0.39709  0.70559  1.0000
  C   C215      1.0  0.37477  0.59415  0.77865  1.0000
  H   H266      1.0  0.08771  0.39367  0.79455  1.0000
  S   S62       1.0  0.14787  0.35204  0.68168  1.0000
  H   H267      1.0  0.29986  0.56451  0.77949  1.0000
  H   H268      1.0  0.30397  0.53044  0.90739  1.0000
  H   H269      1.0  0.33853  0.55115  0.77478  1.0000
  C   C216      1.0  0.32207  0.63312  0.90367  1.0000
  C   C217      1.0  0.26068  0.60556  0.91407  1.0000
  H   H270      1.0  0.22531  0.40293  0.80496  1.0000
  C   C218      1.0  0.20594  0.35388  0.74589  1.0000
  H   H271      1.0  0.26828  0.61378  0.76315  1.0000
  H   H272      1.0  0.29889  0.65412  0.79443  1.0000
  H   H273      1.0  0.20664  0.35423  0.72073  1.0000
  H   H274      1.0  0.05712  0.35193  0.76160  1.0000
  C   C219      1.0  0.27755  0.51826  0.98154  1.0000
  C   C220      1.0  0.12841  0.47351  0.97162  1.0000
  H   H275      1.0  0.33152  0.65821  0.81322  1.0000
  H   H276      1.0  0.48393  0.65553  0.89755  1.0000
  C   C221      1.0  0.48123  0.66036  0.92164  1.0000
  H   H277      1.0  0.12934  0.51339  0.97988  1.0000
  H   H278      1.0  0.20498  0.53128  0.99968  1.0000
  H   H279      1.0  0.35229  0.56280  0.99220  1.0000
  C   C222      1.0  0.02897  0.33785  0.70068  1.0000
  C   C223      1.0  0.45401  0.64606  0.96991  1.0000
  H   H280      1.0  0.43580  0.63012  0.98348  1.0000
  C   C224      1.0  0.20258  0.51012  0.99898  1.0000
  H   H281      1.0  0.19236  0.43381  0.99684  1.0000
  C   C225      1.0  0.26139  0.65816  0.86458  1.0000
  C   C226      1.0  0.30417  0.53449  0.99878  1.0000
  H   H282      1.0  0.25643  0.50650  0.99318  1.0000
  Fe  Fe33      1.0  0.11686  0.88299  0.33116  1.0000
  S   S63       1.0  0.15248  0.87556  0.35137  1.0000
  S   S64       1.0  0.12428  0.92272  0.30576  1.0000
  Fe  Fe34      1.0  0.06643  0.82703  0.35580  1.0000
  S   S65       1.0  0.09833  0.81542  0.37801  1.0000
  S   S66       1.0  0.01799  0.80267  0.37087  1.0000
  Fe  Fe35      1.0  0.12346  0.86104  0.39398  1.0000
  S   S67       1.0  0.14286  0.87828  0.44180  1.0000
  Fe  Fe36      1.0  0.12495  0.83022  0.33353  1.0000
  S   S68       1.0  0.15096  0.80748  0.31846  1.0000
  S   S69       1.0  0.09009  0.87186  0.37501  1.0000
  S   S70       1.0  0.09093  0.83853  0.30985  1.0000
  Fe  Fe37      1.0  0.18705  0.73374  0.17327  1.0000
  S   S71       1.0  0.21460  0.75205  0.12997  1.0000
  S   S72       1.0  0.15643  0.75181  0.18703  1.0000
  Fe  Fe38      1.0  0.20992  0.69115  0.18030  1.0000
  S   S73       1.0  0.23926  0.70650  0.13814  1.0000
  Fe  Fe39      1.0  0.25117  0.75006  0.15609  1.0000
  S   S74       1.0  0.29675  0.78900  0.15658  1.0000
  Fe  Fe40      1.0  0.20022  0.70687  0.11572  1.0000
  C   C227      1.0  0.18348  0.69041  0.00498  1.0000
  S   S75       1.0  0.22486  0.73516  0.20036  1.0000
  S   S76       1.0  0.16969  0.68811  0.15683  1.0000
  Fe  Fe41      1.0  0.42749  0.75104  0.15357  1.0000
  H   H283      1.0  0.17000  0.82833  0.38083  1.0000
  S   S77       1.0  0.42000  0.78885  0.15919  1.0000
  H   H284      1.0  0.48511  0.67432  0.21606  1.0000
  C   C228      1.0  0.18916  0.73131  0.03499  1.0000
  Fe  Fe42      1.0  0.43305  0.70884  0.10996  1.0000
  H   H285      1.0  0.13188  0.78127  0.38341  1.0000
  C   C229      1.0  0.15488  0.77705  0.47202  1.0000
  S   S78       1.0  0.44474  0.73870  0.19511  1.0000
  C   C230      1.0  0.43684  0.73354  0.02930  1.0000
  C   C231      1.0  0.42666  0.70417  0.02884  1.0000
  H   H286      1.0  0.15575  0.83705  0.41485  1.0000
  H   H287      1.0  0.44162  0.74510  0.05128  1.0000
  C   C232      1.0  0.18819  0.74436  0.00719  1.0000
  C   C233      1.0  0.32992  0.78687  0.15696  1.0000
  C   C234      1.0  0.35676  0.81236  0.16075  1.0000
  C   C235      1.0  0.38387  0.81229  0.16129  1.0000
  C   C236      1.0  0.38469  0.78676  0.15788  1.0000
  C   C237      1.0  0.35788  0.76102  0.15377  1.0000
  C   C238      1.0  0.33043  0.76109  0.15333  1.0000
  H   H288      1.0  0.35664  0.83236  0.16332  1.0000
  H   H289      1.0  0.40440  0.83224  0.16431  1.0000
  H   H290      1.0  0.35830  0.74119  0.15094  1.0000
  H   H291      1.0  0.30981  0.74133  0.14998  1.0000
  C   C239      1.0  0.18671  0.70421  0.03390  1.0000
  H   H292      1.0  0.19173  0.74216  0.05712  1.0000
  C   C240      1.0  0.16447  0.80259  0.45514  1.0000
  C   C241      1.0  0.15130  0.79132  0.28194  1.0000
  C   C242      1.0  0.17022  0.77949  0.27808  1.0000
  C   C243      1.0  0.17181  0.76704  0.24938  1.0000
  C   C244      1.0  0.15456  0.76640  0.22406  1.0000
  C   C245      1.0  0.13557  0.77816  0.22792  1.0000
  C   C246      1.0  0.13386  0.79048  0.25668  1.0000
  H   H293      1.0  0.18376  0.77994  0.29744  1.0000
  H   H294      1.0  0.18617  0.75774  0.24695  1.0000
  H   H295      1.0  0.12205  0.77774  0.20856  1.0000
  H   H296      1.0  0.11915  0.79942  0.25926  1.0000
  H   H297      1.0  0.48537  0.72526  0.01119  1.0000
  C   C247      1.0  0.17144  0.82967  0.40674  1.0000
  C   C248      1.0  0.14751  0.95682  0.32297  1.0000
  C   C249      1.0  0.16196  0.95964  0.35131  1.0000
  C   C250      1.0  0.15171  0.98160  0.30796  1.0000
  H   H298      1.0  0.15893  0.94079  0.36314  1.0000
  H   H299      1.0  0.14058  0.97962  0.28605  1.0000
  H   H300      1.0  0.09775  0.74266  0.05415  1.0000
  C   C251      1.0  0.12762  0.85746  0.47530  1.0000
  C   C252      1.0  0.10893  0.82791  0.47312  1.0000
  H   H301      1.0  0.35174  0.79414  0.05099  1.0000
  H   H302      1.0  0.10229  0.81754  0.45053  1.0000
  H   H303      1.0  0.18062  0.77200  0.41653  1.0000
  S   S79       1.0  0.39509  0.70612  0.13881  1.0000
  H   H304      1.0  0.11642  0.78424  0.42020  1.0000
  H   H305      1.0  0.20873  0.80894  0.41702  1.0000
  H   H306      1.0  0.12820  0.75818  0.41418  1.0000
  C   C253      1.0  0.17426  0.82823  0.47297  1.0000
  C   C254      1.0  0.31912  0.70622  0.20761  1.0000
  H   H307      1.0  0.08787  0.67830  0.13260  1.0000
  H   H308      1.0  0.05560  0.90003  0.35510  1.0000
  C   C255      1.0  0.48302  0.81665  0.22243  1.0000
  C   C256      1.0  0.11342  0.68817  0.04261  1.0000
  H   H309      1.0  0.27778  0.70597  0.20013  1.0000
  H   H310      1.0  0.19453  0.84652  0.41249  1.0000
  H   H311      1.0  0.00505  0.79337  0.30353  1.0000
  S   S80       1.0  0.45117  0.69323  0.14775  1.0000
  H   H312      1.0  0.18619  0.79306  0.38273  1.0000
  C   C257      1.0  0.18584  0.79357  0.40874  1.0000
  Fe  Fe43      1.0  0.41561  0.69393  0.17739  1.0000
  H   H313      1.0  0.04630  0.81743  0.45458  1.0000
  H   H314      1.0  0.32785  0.72452  0.22335  1.0000
  C   C258      1.0  0.10215  0.72696  0.04299  1.0000
  H   H315      1.0  0.46112  0.80589  0.21020  1.0000
  N   N18       1.0  0.25769  0.82710  0.21461  1.0000
  C   C259      1.0  0.28704  0.84991  0.20368  1.0000
  C   C260      1.0  0.26233  0.80623  0.23251  1.0000
  C   C261      1.0  0.23983  0.81190  0.18659  1.0000
  C   C262      1.0  0.24342  0.83965  0.23474  1.0000
  C   C263      1.0  0.25731  0.85416  0.26294  1.0000
  C   C264      1.0  0.21567  0.83787  0.22732  1.0000
  C   C265      1.0  0.24390  0.86548  0.28282  1.0000
  C   C266      1.0  0.20270  0.84960  0.24719  1.0000
  C   C267      1.0  0.21654  0.86303  0.27503  1.0000
  H   H316      1.0  0.30286  0.86078  0.22318  1.0000
  H   H317      1.0  0.29796  0.84116  0.18772  1.0000
  H   H318      1.0  0.28461  0.86643  0.19077  1.0000
  H   H319      1.0  0.27791  0.81625  0.25235  1.0000
  H   H320      1.0  0.27207  0.79562  0.21767  1.0000
  H   H321      1.0  0.24087  0.78923  0.24206  1.0000
  H   H322      1.0  0.23622  0.82641  0.17130  1.0000
  H   H323      1.0  0.25113  0.80275  0.17197  1.0000
  H   H324      1.0  0.21782  0.79370  0.19313  1.0000
  H   H325      1.0  0.27849  0.85653  0.27003  1.0000
  H   H326      1.0  0.20302  0.82685  0.20676  1.0000
  H   H327      1.0  0.25454  0.87591  0.30457  1.0000
  H   H328      1.0  0.18116  0.84737  0.24151  1.0000
  H   H329      1.0  0.20571  0.87110  0.29080  1.0000
  N   N19       1.0  0.16398  0.80182  0.42060  1.0000
  S   S81       1.0  0.46427  0.75498  0.12167  1.0000
  C   C268      1.0  0.13388  0.78047  0.40920  1.0000
  S   S82       1.0  0.42396  0.68575  0.06327  1.0000
  C   C269      1.0  0.29108  0.69594  0.19427  1.0000
  S   S83       1.0  0.18651  0.68622  0.06791  1.0000
  C   C270      1.0  0.27638  0.75657  0.05486  1.0000
  H   H330      1.0  0.06191  0.87728  0.30845  1.0000
  C   C271      1.0  0.03138  0.88406  0.35430  1.0000
  H   H331      1.0  0.11902  0.67358  0.05387  1.0000
  H   H332      1.0  0.18170  0.84874  0.46245  1.0000
  H   H333      1.0  0.09814  0.72550  0.13558  1.0000
  H   H334      1.0  0.14769  0.75684  0.46014  1.0000
  H   H335      1.0  0.08614  0.78859  0.49850  1.0000
  H   H336      1.0  0.19174  0.98875  0.38619  1.0000
  H   H337      1.0  0.14781  0.70367  0.09626  1.0000
  H   H338      1.0  0.05210  0.91827  0.30729  1.0000
  H   H339      1.0  0.31117  0.76779  0.08862  1.0000
  C   C272      1.0  0.09979  0.81156  0.50032  1.0000
  C   C273      1.0  0.18051  0.98690  0.36439  1.0000
  H   H340      1.0  0.01467  0.91185  0.31372  1.0000
  C   C274      1.0  0.10728  0.70737  0.06014  1.0000
  N   N20       1.0  0.10814  0.70762  0.09465  1.0000
  C   C275      1.0  0.09792  0.72647  0.10962  1.0000
  N   N21       1.0  0.02061  0.87557  0.32177  1.0000
  H   H341      1.0  0.45104  0.70297  0.29155  1.0000
  H   H342      1.0  0.46837  0.67629  0.00698  1.0000
  C   C276      1.0  0.13916  0.71786  0.10481  1.0000
  H   H343      1.0  0.11295  0.74932  0.10410  1.0000
  H   H344      1.0  0.03288  0.84278  0.32003  1.0000
  H   H345      1.0  0.14101  0.71886  0.13065  1.0000
  H   H346      1.0  0.15437  0.73963  0.09601  1.0000
  H   H347      1.0  0.43476  0.69431  0.25390  1.0000
  C   C277      1.0  0.02886  0.80156  0.46904  1.0000
  H   H348      1.0  0.48048  0.82925  0.24179  1.0000
  C   C278      1.0  0.02803  0.90207  0.30480  1.0000
  C   C279      1.0  0.47434  0.68691  0.22396  1.0000
  H   H349      1.0  0.06597  0.66891  0.09741  1.0000
  C   C280      1.0  0.26955  0.75890  0.02398  1.0000
  H   H350      1.0  0.00504  0.77452  0.42996  1.0000
  H   H351      1.0  0.46928  0.72678  0.26004  1.0000
  H   H352      1.0  0.25859  0.74472  0.07134  1.0000
  C   C281      1.0  0.32450  0.66918  0.18051  1.0000
  Fe  Fe44      1.0  0.47909  0.73920  0.16243  1.0000
  H   H353      1.0  0.48730  0.70353  0.32032  1.0000
  N   N22       1.0  0.47352  0.68893  0.25848  1.0000
  C   C282      1.0  0.10320  0.72716  0.01038  1.0000
  H   H354      1.0  0.48287  0.80801  0.16173  1.0000
  C   C283      1.0  0.33578  0.69279  0.20081  1.0000
  H   H355      1.0  0.03158  0.85638  0.28267  1.0000
  C   C284      1.0  0.45652  0.70392  0.26639  1.0000
  C   C285      1.0  0.27980  0.67256  0.17360  1.0000
  H   H356      1.0  0.02864  0.86542  0.36789  1.0000
  H   H357      1.0  0.02399  0.89824  0.27935  1.0000
  H   H358      1.0  0.07477  0.72025  0.10249  1.0000
  H   H359      1.0  0.01945  0.89392  0.36653  1.0000
  C   C286      1.0  0.30594  0.76942  0.06455  1.0000
  C   C287      1.0  0.11393  0.68829  0.01005  1.0000
  C   C288      1.0  0.32212  0.78672  0.01224  1.0000
  C   C289      1.0  0.32875  0.78435  0.04328  1.0000
  H   H360      1.0  0.16538  0.97422  0.45887  1.0000
  H   H361      1.0  0.35744  0.70045  0.21150  1.0000
  C   C290      1.0  0.02979  0.80540  0.50144  1.0000
  C   C291      1.0  0.17752  0.99351  0.47297  1.0000
  C   C292      1.0  0.08907  0.67837  0.10665  1.0000
  H   H362      1.0  0.18987  0.76523  0.00809  1.0000
  C   C293      1.0  0.00568  0.77734  0.45508  1.0000
  H   H363      1.0  0.48638  0.70846  0.21342  1.0000
  H   H364      1.0  0.45153  0.67587  0.21374  1.0000
  H   H365      1.0  0.48650  0.79976  0.23289  1.0000
  H   H366      1.0  0.24634  0.74867  0.01763  1.0000
  C   C294      1.0  0.03743  0.86245  0.30754  1.0000
  H   H367      1.0  0.48232  0.85081  0.17802  1.0000
  H   H368      1.0  0.18122  0.66930  0.00401  1.0000
  Fe  Fe45      1.0  0.05991  0.83296  0.65376  1.0000
  S   S84       1.0  0.06788  0.79606  0.64582  1.0000
  H   H369      1.0  0.44883  0.81556  0.73813  1.0000
  Fe  Fe46      1.0  0.12679  0.87648  0.65351  1.0000
  S   S85       1.0  0.13936  0.84200  0.64515  1.0000
  S   S86       1.0  0.16578  0.92195  0.65798  1.0000
  Fe  Fe47      1.0  0.10157  0.82412  0.61058  1.0000
  S   S87       1.0  0.09876  0.80346  0.56330  1.0000
  Fe  Fe48      1.0  0.10471  0.81706  0.68132  1.0000
  S   S88       1.0  0.10549  0.79142  0.72311  1.0000
  S   S89       1.0  0.09157  0.86011  0.61630  1.0000
  S   S90       1.0  0.09437  0.85261  0.69177  1.0000
  Fe  Fe49      1.0  0.20197  0.74011  0.82651  1.0000
  S   S91       1.0  0.23109  0.76406  0.86770  1.0000
  S   S92       1.0  0.20320  0.76616  0.78413  1.0000
  C   C295      1.0  0.44153  0.79332  0.74542  1.0000
  S   S93       1.0  0.21257  0.70206  0.89722  1.0000
  Fe  Fe50      1.0  0.19427  0.73196  0.89747  1.0000
  S   S94       1.0  0.18552  0.74804  0.94362  1.0000
  Fe  Fe51      1.0  0.24746  0.73243  0.86501  1.0000
  S   S95       1.0  0.29344  0.74376  0.88157  1.0000
  S   S96       1.0  0.16348  0.71007  0.85673  1.0000
  S   S97       1.0  0.22179  0.71060  0.82166  1.0000
  H   H370      1.0  0.03381  0.76812  0.56199  1.0000
  S   S98       1.0  0.45070  0.75598  0.84873  1.0000
  S   S99       1.0  0.40224  0.69163  0.87272  1.0000
  Fe  Fe52      1.0  0.41344  0.71595  0.82819  1.0000
  S   S100      1.0  0.37794  0.71596  0.79814  1.0000
  Fe  Fe53      1.0  0.44246  0.73036  0.89195  1.0000
  S   S101      1.0  0.44482  0.75283  0.93769  1.0000
  S   S102      1.0  0.44338  0.69998  0.80897  1.0000
  S   S103      1.0  0.47486  0.71569  0.87806  1.0000
  C   C296      1.0  0.43622  0.73345  0.97246  1.0000
  H   H371      1.0  0.24529  0.78018  0.98242  1.0000
  C   C297      1.0  0.42553  0.70401  0.97201  1.0000
  H   H372      1.0  0.02925  0.81876  0.59261  1.0000
  H   H373      1.0  0.42147  0.69256  0.94999  1.0000
  C   C298      1.0  0.35406  0.72342  0.82098  1.0000
  C   C299      1.0  0.32767  0.72046  0.80830  1.0000
  C   C300      1.0  0.30862  0.72647  0.82669  1.0000
  C   C301      1.0  0.31617  0.73568  0.85765  1.0000
  C   C302      1.0  0.34242  0.73838  0.87028  1.0000
  C   C303      1.0  0.36124  0.73215  0.85205  1.0000
  H   H374      1.0  0.32206  0.71378  0.78422  1.0000
  H   H375      1.0  0.28841  0.72445  0.81679  1.0000
  H   H376      1.0  0.34840  0.74555  0.89419  1.0000
  H   H377      1.0  0.38164  0.73470  0.86199  1.0000
  C   C304      1.0  0.18538  0.73066  0.97819  1.0000
  H   H378      1.0  0.17983  0.84755  0.51867  1.0000
  H   H379      1.0  0.05325  0.82007  0.56198  1.0000
  H   H380      1.0  0.01323  0.76856  0.59575  1.0000
  C   C305      1.0  0.18290  0.70359  0.97725  1.0000
  H   H381      1.0  0.46100  0.77118  0.69564  1.0000
  H   H382      1.0  0.17995  0.69251  0.95519  1.0000
  C   C306      1.0  0.13267  0.78369  0.73874  1.0000
  C   C307      1.0  0.12597  0.76784  0.76627  1.0000
  C   C308      1.0  0.14710  0.76208  0.78036  1.0000
  C   C309      1.0  0.17536  0.77224  0.76715  1.0000
  C   C310      1.0  0.18211  0.78821  0.73967  1.0000
  C   C311      1.0  0.16091  0.79383  0.72546  1.0000
  H   H383      1.0  0.10423  0.75988  0.77678  1.0000
  H   H384      1.0  0.14152  0.74976  0.80144  1.0000
  H   H385      1.0  0.20384  0.79605  0.72915  1.0000
  H   H386      1.0  0.16635  0.80579  0.70416  1.0000
  C   C312      1.0  0.10862  0.82473  0.52982  1.0000
  H   H387      1.0  0.25891  0.68809  0.91495  1.0000
  H   H388      1.0  0.16085  0.80217  0.54651  1.0000
  H   H389      1.0  0.13324  0.86472  0.55466  1.0000
  H   H390      1.0  0.15211  0.97906  0.56537  1.0000
  C   C313      1.0  0.16378  0.95399  0.65858  1.0000
  C   C314      1.0  0.13669  0.95405  0.65674  1.0000
  C   C315      1.0  0.19034  0.98023  0.66114  1.0000
  H   H391      1.0  0.11608  0.93401  0.65481  1.0000
  H   H392      1.0  0.21139  0.98041  0.66271  1.0000
  H   H393      1.0  0.42971  0.77874  0.72548  1.0000
  H   H394      1.0  0.49103  0.73996  0.95466  1.0000
  C   C316      1.0  0.12622  0.85441  0.53203  1.0000
  H   H395      1.0  0.42430  0.78768  0.76395  1.0000
  H   H396      1.0  0.43846  0.75203  0.78097  1.0000
  H   H397      1.0  0.30294  0.79321  0.92419  1.0000
  H   H398      1.0  0.11079  0.70865  0.96873  1.0000
  H   H399      1.0  0.09985  0.74260  0.99766  1.0000
  H   H400      1.0  0.44979  0.77090  0.00158  1.0000
  H   H401      1.0  0.29483  0.69169  0.91100  1.0000
  N   N23       1.0  0.28398  0.77656  0.96929  1.0000
  Fe  Fe54      1.0  0.48039  0.73849  0.83291  1.0000
  H   H402      1.0  0.24424  0.73496  0.96799  1.0000
  C   C317      1.0  0.45659  0.76010  0.76337  1.0000
  H   H403      1.0  0.27934  0.81346  0.98013  1.0000
  H   H404      1.0  0.09171  0.91471  0.75342  1.0000
  H   H405      1.0  0.25891  0.74914  0.93105  1.0000
  H   H406      1.0  0.32439  0.81467  0.95651  1.0000
  C   C318      1.0  0.31002  0.79222  0.94844  1.0000
  H   H407      1.0  0.26000  0.79412  0.94532  1.0000
  H   H408      1.0  0.18284  0.97156  0.56404  1.0000
  H   H409      1.0  0.11923  0.67378  0.99719  1.0000
  C   C319      1.0  0.26652  0.79180  0.96937  1.0000
  C   C320      1.0  0.13627  0.98011  0.65765  1.0000
  H   H410      1.0  0.45947  0.80034  0.80349  1.0000
  C   C321      1.0  0.49650  0.69460  0.96556  1.0000
  C   C322      1.0  0.27147  0.67630  0.91747  1.0000
  S   S104      1.0  0.01351  0.82816  0.65577  1.0000
  C   C323      1.0  0.13600  0.87066  0.50482  1.0000
  H   H411      1.0  0.27765  0.73548  0.95455  1.0000
  N   N24       1.0  0.17105  0.87636  0.75469  1.0000
  C   C324      1.0  0.20111  0.89944  0.76397  1.0000
  C   C325      1.0  0.16314  0.85193  0.77563  1.0000
  C   C326      1.0  0.17260  0.86681  0.72245  1.0000
  C   C327      1.0  0.14943  0.88703  0.75569  1.0000
  C   C328      1.0  0.15514  0.91175  0.73894  1.0000
  C   C329      1.0  0.12181  0.87285  0.77185  1.0000
  C   C330      1.0  0.13464  0.92167  0.73840  1.0000
  C   C331      1.0  0.10146  0.88300  0.77120  1.0000
  C   C332      1.0  0.10783  0.90731  0.75447  1.0000
  H   H412      1.0  0.21068  0.91702  0.74691  1.0000
  H   H413      1.0  0.20037  0.90879  0.78710  1.0000
  H   H414      1.0  0.21733  0.89143  0.76553  1.0000
  H   H415      1.0  0.14149  0.83312  0.76898  1.0000
  H   H416      1.0  0.16182  0.85770  0.80037  1.0000
  H   H417      1.0  0.17967  0.84421  0.77431  1.0000
  H   H418      1.0  0.17955  0.88424  0.70530  1.0000
  H   H419      1.0  0.18852  0.85847  0.72046  1.0000
  H   H420      1.0  0.15044  0.84934  0.71482  1.0000
  H   H421      1.0  0.17510  0.92312  0.72516  1.0000
  H   H422      1.0  0.11500  0.85345  0.78453  1.0000
  H   H423      1.0  0.13930  0.94016  0.72469  1.0000
  H   H424      1.0  0.08026  0.87150  0.78309  1.0000
  H   H425      1.0  0.24908  0.66989  0.85952  1.0000
  H   H426      1.0  0.28487  0.67243  0.85762  1.0000
  N   N25       1.0  0.46721  0.79047  0.75641  1.0000
  H   H427      1.0  0.32363  0.78132  0.94642  1.0000
  H   H428      1.0  0.11519  0.97989  0.65638  1.0000
  H   H429      1.0  0.48676  0.83028  0.78242  1.0000
  H   H430      1.0  0.02814  0.83425  0.55648  1.0000
  H   H431      1.0  0.47497  0.75720  0.77278  1.0000
  H   H432      1.0  0.00392  0.76989  0.65557  1.0000
  C   C333      1.0  0.26543  0.74774  0.95531  1.0000
  H   H433      1.0  0.15052  0.89350  0.50664  1.0000
  C   C334      1.0  0.16272  0.80236  0.52130  1.0000
  C   C335      1.0  0.47778  0.80705  0.78611  1.0000
  C   C336      1.0  0.17585  0.98726  0.57184  1.0000
  Fe  Fe55      1.0  0.18533  0.68238  0.85440  1.0000
  C   C337      1.0  0.17815  0.99185  0.50547  1.0000
  H   H434      1.0  0.31844  0.66909  0.88980  1.0000
  C   C338      1.0  0.03047  0.81663  0.56684  1.0000
  N   N26       1.0  0.00712  0.78825  0.55520  1.0000
  H   H435      1.0  0.44751  0.74593  0.74250  1.0000
  C   C339      1.0  0.00713  0.78491  0.52085  1.0000
  H   H436      1.0  0.04865  0.82448  0.51065  1.0000
  C   C340      1.0  0.49051  0.79982  0.73202  1.0000
  C   C341      1.0  0.17337  0.82793  0.50554  1.0000
  Fe  Fe56      1.0  0.43501  0.67862  0.85542  1.0000
  C   C342      1.0  0.10916  0.70793  0.99397  1.0000
  C   C343      1.0  0.01227  0.76629  0.56986  1.0000
  H   H437      1.0  0.17665  0.98753  0.59776  1.0000
  H   H438      1.0  0.27119  0.67122  0.94252  1.0000
  C   C344      1.0  0.48333  0.78758  0.70154  1.0000
  H   H439      1.0  0.16615  0.97073  0.51506  1.0000
  H   H440      1.0  0.14540  0.75715  0.51704  1.0000
  C   C345      1.0  0.47304  0.67291  0.98315  1.0000
  H   H441      1.0  0.49527  0.80374  0.79739  1.0000
  C   C346      1.0  0.29212  0.77409  0.00168  1.0000
  H   H442      1.0  0.34086  0.79852  0.99703  1.0000
  H   H443      1.0  0.41238  0.66663  0.99971  1.0000
  C   C347      1.0  0.44152  0.74811  0.00114  1.0000
  C   C348      1.0  0.42046  0.68938  0.00016  1.0000
  C   C349      1.0  0.15375  0.77700  0.50459  1.0000
  Fe  Fe57      1.0  0.71797  0.22294  0.16461  1.0000
  S   S105      1.0  0.67005  0.19625  0.14967  1.0000
  S   S106      1.0  0.73980  0.19777  0.18293  1.0000
  Fe  Fe58      1.0  0.72016  0.27775  0.14139  1.0000
  S   S107      1.0  0.67257  0.25490  0.12612  1.0000
  C   C350      1.0  0.77605  0.00487  0.45532  1.0000
  Fe  Fe59      1.0  0.66418  0.23154  0.17079  1.0000
  S   S108      1.0  0.62577  0.22441  0.20184  1.0000
  Fe  Fe60      1.0  0.68319  0.22219  0.10608  1.0000
  S   S109      1.0  0.66388  0.20403  0.05846  1.0000
  S   S110      1.0  0.71125  0.25714  0.18841  1.0000
  S   S111      1.0  0.73156  0.24618  0.11879  1.0000
  C   C351      1.0  0.73140  0.32841  0.04990  1.0000
  H   H444      1.0  0.78014  0.02884  0.33060  1.0000
  Fe  Fe61      1.0  0.83625  0.13094  0.33469  1.0000
  S   S112      1.0  0.83227  0.16652  0.35776  1.0000
  S   S113      1.0  0.87838  0.14223  0.30729  1.0000
  Fe  Fe62      1.0  0.77471  0.08588  0.35634  1.0000
  S   S114      1.0  0.76665  0.11900  0.38102  1.0000
  S   S115      1.0  0.73637  0.04044  0.36181  1.0000
  Fe  Fe63      1.0  0.78591  0.14547  0.33809  1.0000
  S   S116      1.0  0.76956  0.17537  0.32056  1.0000
  Fe  Fe64      1.0  0.81353  0.13704  0.39822  1.0000
  S   S117      1.0  0.83201  0.15583  0.44597  1.0000
  S   S118      1.0  0.79076  0.11127  0.31209  1.0000
  S   S119      1.0  0.82068  0.10256  0.37646  1.0000
  C   C352      1.0  0.96754  0.20694  0.35191  1.0000
  C   C353      1.0  0.94071  0.19781  0.36820  1.0000
  C   C354      1.0  0.91332  0.17841  0.35448  1.0000
  C   C355      1.0  0.91249  0.16779  0.32434  1.0000
  C   C356      1.0  0.93924  0.17731  0.30771  1.0000
  C   C357      1.0  0.96672  0.19697  0.32137  1.0000
  H   H445      1.0  0.94111  0.20546  0.39177  1.0000
  H   H446      1.0  0.89293  0.17115  0.36762  1.0000
  H   H447      1.0  0.93874  0.16925  0.28432  1.0000
  N   N27       1.0  0.52997  0.20820  0.03079  1.0000
  C   C358      1.0  0.77549  0.16887  0.48394  1.0000
  C   C359      1.0  0.81495  0.13549  0.47932  1.0000
  C   C360      1.0  0.78755  0.11035  0.47736  1.0000
  H   H448      1.0  0.73062  0.13440  0.48671  1.0000
  H   H449      1.0  0.77687  0.10266  0.45494  1.0000
  C   C361      1.0  0.59272  0.21377  0.18084  1.0000
  C   C362      1.0  0.57114  0.22012  0.19264  1.0000
  C   C363      1.0  0.54491  0.21223  0.17577  1.0000
  C   C364      1.0  0.53955  0.19678  0.14774  1.0000
  C   C365      1.0  0.56085  0.18984  0.13636  1.0000
  C   C366      1.0  0.58770  0.19892  0.15248  1.0000
  H   H450      1.0  0.57477  0.23132  0.21476  1.0000
  H   H451      1.0  0.52847  0.21742  0.18486  1.0000
  H   H452      1.0  0.55667  0.17737  0.11510  1.0000
  H   H453      1.0  0.60417  0.19376  0.14333  1.0000
  C   C367      1.0  0.76127  0.18104  0.28207  1.0000
  C   C368      1.0  0.75936  0.16326  0.25694  1.0000
  C   C369      1.0  0.75253  0.16859  0.22686  1.0000
  C   C370      1.0  0.74723  0.19150  0.22157  1.0000
  C   C371      1.0  0.74910  0.20922  0.24672  1.0000
  C   C372      1.0  0.75602  0.20396  0.27676  1.0000
  H   H454      1.0  0.76304  0.14538  0.26068  1.0000
  H   H455      1.0  0.75127  0.15482  0.20755  1.0000
  H   H456      1.0  0.74579  0.22731  0.24296  1.0000
  H   H457      1.0  0.75750  0.21786  0.29602  1.0000
  C   C373      1.0  0.71658  0.23834  0.02781  1.0000
  C   C374      1.0  0.68570  0.22088  0.02552  1.0000
  H   H458      1.0  0.52878  0.22786  0.07471  1.0000
  H   H459      1.0  0.72749  0.24159  0.05009  1.0000
  C   C375      1.0  0.88475  0.27974  0.23530  1.0000
  H   H460      1.0  0.85503  0.29098  0.21224  1.0000
  H   H461      1.0  0.58055  0.30645  0.16385  1.0000
  C   C376      1.0  0.96113  0.14400  0.38729  1.0000
  C   C377      1.0  0.73571  0.00853  0.34929  1.0000
  H   H462      1.0  0.55496  0.25187  0.04686  1.0000
  N   N28       1.0  0.65228  0.16807  0.24632  1.0000
  C   C378      1.0  0.62993  0.17046  0.26639  1.0000
  C   C379      1.0  0.67616  0.19717  0.23873  1.0000
  C   C380      1.0  0.63707  0.15376  0.21673  1.0000
  C   C381      1.0  0.66548  0.15292  0.26278  1.0000
  C   C382      1.0  0.66732  0.12945  0.24925  1.0000
  C   C383      1.0  0.67816  0.16231  0.29288  1.0000
  C   C384      1.0  0.68053  0.11608  0.26527  1.0000
  C   C385      1.0  0.69121  0.14871  0.30868  1.0000
  C   C386      1.0  0.69237  0.12563  0.29493  1.0000
  H   H463      1.0  0.64013  0.18440  0.28720  1.0000
  H   H464      1.0  0.61838  0.18022  0.25372  1.0000
  H   H465      1.0  0.61268  0.14910  0.27451  1.0000
  H   H466      1.0  0.68863  0.20956  0.25970  1.0000
  H   H467      1.0  0.66706  0.20972  0.22743  1.0000
  H   H468      1.0  0.69260  0.19631  0.22240  1.0000
  H   H469      1.0  0.61895  0.13156  0.22073  1.0000
  H   H470      1.0  0.62678  0.16536  0.20535  1.0000
  H   H471      1.0  0.65301  0.15325  0.19937  1.0000
  H   H472      1.0  0.65929  0.12135  0.22609  1.0000
  H   H473      1.0  0.67895  0.18082  0.30409  1.0000
  H   H474      1.0  0.68231  0.09862  0.25434  1.0000
  H   H475      1.0  0.70171  0.15681  0.33119  1.0000
  H   H476      1.0  0.70348  0.11584  0.30689  1.0000
  N   N29       1.0  0.86670  0.20762  0.26807  1.0000
  C   C387      1.0  0.83857  0.17998  0.27027  1.0000
  C   C388      1.0  0.88838  0.20232  0.25026  1.0000
  C   C389      1.0  0.87810  0.21684  0.30026  1.0000
  C   C390      1.0  0.86301  0.23019  0.25279  1.0000
  C   C391      1.0  0.83540  0.22529  0.24022  1.0000
  C   C392      1.0  0.88767  0.25809  0.24970  1.0000
  H   H477      1.0  0.82918  0.17090  0.24689  1.0000
  H   H478      1.0  0.84206  0.16355  0.28199  1.0000
  H   H479      1.0  0.82149  0.18224  0.28424  1.0000
  H   H480      1.0  0.88108  0.19618  0.22565  1.0000
  H   H481      1.0  0.89093  0.18471  0.26050  1.0000
  H   H482      1.0  0.91102  0.22130  0.25011  1.0000
  H   H483      1.0  0.86266  0.22155  0.31427  1.0000
  H   H484      1.0  0.88053  0.20001  0.31254  1.0000
  H   H485      1.0  0.90049  0.23610  0.30095  1.0000
  H   H486      1.0  0.81544  0.20486  0.24120  1.0000
  H   H487      1.0  0.90943  0.26334  0.25840  1.0000
  C   C393      1.0  0.63548  0.29228  0.18459  1.0000
  H   H488      1.0  0.67893  0.29914  0.01769  1.0000
  H   H489      1.0  0.65922  0.30500  0.19187  1.0000
  C   C394      1.0  0.54909  0.19832  0.04590  1.0000
  C   C395      1.0  0.60975  0.31428  0.23403  1.0000
  H   H490      1.0  0.77022  0.01214  0.40738  1.0000
  C   C396      1.0  0.97699  0.13962  0.36242  1.0000
  H   H491      1.0  0.62352  0.27721  0.20364  1.0000
  H   H492      1.0  0.59619  0.29133  0.23481  1.0000
  C   C397      1.0  0.91398  0.11481  0.36110  1.0000
  H   H493      1.0  0.71934  0.32201  0.18880  1.0000
  C   C398      1.0  0.92883  0.11038  0.33623  1.0000
  S   S120      1.0  0.50638  0.18589  0.12674  1.0000
  C   C399      1.0  0.59101  0.29305  0.16864  1.0000
  S   S121      1.0  0.74415  0.32392  0.12732  1.0000
  H   H494      1.0  0.97217  0.15757  0.40719  1.0000
  C   C400      1.0  0.93008  0.13154  0.38656  1.0000
  S   S122      1.0  0.51123  0.25760  0.12216  1.0000
  H   H495      1.0  0.89002  0.10615  0.36009  1.0000
  H   H496      1.0  0.77705  0.16655  0.45893  1.0000
  H   H497      1.0  0.78398  0.02691  0.46244  1.0000
  H   H498      1.0  0.54662  0.17845  0.03467  1.0000
  H   H499      1.0  0.60028  0.31883  0.28214  1.0000
  H   H500      1.0  0.71256  0.32817  0.06304  1.0000
  C   C401      1.0  0.76021  0.00874  0.33478  1.0000
  C   C402      1.0  0.83272  0.24703  0.22579  1.0000
  H   H501      1.0  0.90386  0.30092  0.23334  1.0000
  C   C403      1.0  0.95983  0.12249  0.33681  1.0000
  H   H502      1.0  0.91618  0.09812  0.31605  1.0000
  C   C404      1.0  0.85730  0.27421  0.22340  1.0000
  H   H503      1.0  0.81133  0.24267  0.21640  1.0000
  H   H504      1.0  0.69990  0.28072  0.01998  1.0000
  H   H505      1.0  0.73349  0.31005  0.05864  1.0000
  H   H506      1.0  0.57298  0.21506  0.04563  1.0000
  S   S123      1.0  0.52779  0.30430  0.19762  1.0000
  N   N30       1.0  0.62267  0.31103  0.17794  1.0000
  H   H507      1.0  0.75703  0.31000  0.01101  1.0000
  H   H508      1.0  0.58858  0.27988  0.14740  1.0000
  N   N31       1.0  0.72645  0.32646  0.01565  1.0000
  H   H509      1.0  0.91842  0.13575  0.40529  1.0000
  H   H510      1.0  0.57733  0.27778  0.18690  1.0000
  C   C405      1.0  0.53252  0.23286  0.04944  1.0000
  C   C406      1.0  0.63890  0.32868  0.15075  1.0000
  C   C407      1.0  0.69917  0.29890  0.00884  1.0000
  H   H511      1.0  0.98715  0.20425  0.30834  1.0000
  C   C408      1.0  0.74943  0.15070  0.49968  1.0000
  H   H512      1.0  0.99456  0.23286  0.43732  1.0000
  H   H513      1.0  0.63672  0.31524  0.12985  1.0000
  H   H514      1.0  0.63448  0.27898  0.16395  1.0000
  H   H515      1.0  0.97032  0.11886  0.31667  1.0000
  H   H516      1.0  0.54284  0.19301  0.07076  1.0000
  C   C409      1.0  0.62476  0.32805  0.20629  1.0000
  H   H517      1.0  0.51566  0.23909  0.04286  1.0000
  C   C410      1.0  0.96939  0.21559  0.47929  1.0000
  H   H518      1.0  0.82055  0.20271  0.48803  1.0000
  H   H519      1.0  0.52125  0.32723  0.13923  1.0000
  C   C411      1.0  0.99552  0.22912  0.46192  1.0000
  C   C412      1.0  0.49874  0.18466  0.03242  1.0000
  H   H520      1.0  0.94813  0.20873  0.46794  1.0000
  H   H521      1.0  0.75741  0.26444  0.00300  1.0000
  C   C413      1.0  0.61204  0.32983  0.26133  1.0000
  C   C414      1.0  0.80006  0.18932  0.50049  1.0000
  Fe  Fe65      1.0  0.70913  0.21542  0.83314  1.0000
  S   S124      1.0  0.68774  0.20481  0.88065  1.0000
  S   S125      1.0  0.71909  0.18048  0.81543  1.0000
  Fe  Fe66      1.0  0.70474  0.27019  0.83201  1.0000
  S   S126      1.0  0.68342  0.26368  0.87906  1.0000
  S   S127      1.0  0.70914  0.30673  0.80346  1.0000
  Fe  Fe67      1.0  0.71693  0.25086  0.89306  1.0000
  S   S128      1.0  0.74129  0.26428  0.93918  1.0000
  Fe  Fe68      1.0  0.65608  0.21841  0.86271  1.0000
  S   S129      1.0  0.60742  0.19373  0.87478  1.0000
  S   S130      1.0  0.74107  0.26112  0.84699  1.0000
  S   S131      1.0  0.67469  0.22545  0.81425  1.0000
  S   S132      1.0  0.51948  0.33227  0.87808  1.0000
  S   S133      1.0  0.53137  0.23438  0.79784  1.0000
  Fe  Fe69      1.0  0.84074  0.12062  0.66156  1.0000
  S   S134      1.0  0.82327  0.14455  0.63404  1.0000
  S   S135      1.0  0.88839  0.12876  0.66635  1.0000
  Fe  Fe70      1.0  0.77833  0.07350  0.67868  1.0000
  S   S136      1.0  0.75617  0.09413  0.65334  1.0000
  S   S137      1.0  0.74888  0.03210  0.70361  1.0000
  Fe  Fe71      1.0  0.78918  0.10135  0.61530  1.0000
  S   S138      1.0  0.76874  0.08617  0.56736  1.0000
  Fe  Fe72      1.0  0.79124  0.13549  0.67436  1.0000
  S   S139      1.0  0.78001  0.17043  0.68844  1.0000
  S   S140      1.0  0.80900  0.07800  0.63941  1.0000
  S   S141      1.0  0.81114  0.11439  0.70318  1.0000
  C   C415      1.0  0.78711  0.10543  0.53382  1.0000
  H   H522      1.0  0.78464  0.01624  0.66309  1.0000
  H   H523      1.0  0.81266  0.24039  0.92954  1.0000
  H   H524      1.0  0.82523  0.13826  0.55819  1.0000
  H   H525      1.0  0.81517  0.05468  0.69761  1.0000
  C   C416      1.0  0.92130  0.16249  0.66544  1.0000
  C   C417      1.0  0.92041  0.18806  0.66444  1.0000
  C   C418      1.0  0.94711  0.21441  0.66471  1.0000
  C   C419      1.0  0.97494  0.21550  0.66578  1.0000
  C   C420      1.0  0.97586  0.18993  0.66631  1.0000
  C   C421      1.0  0.94915  0.16359  0.66622  1.0000
  H   H526      1.0  0.89915  0.18753  0.66389  1.0000
  H   H527      1.0  0.94616  0.23406  0.66428  1.0000
  H   H528      1.0  0.69491  0.17480  0.99280  1.0000
  H   H529      1.0  0.95005  0.14392  0.66703  1.0000
  C   C422      1.0  0.71959  0.24719  0.97205  1.0000
  H   H530      1.0  0.84960  0.16498  0.51019  1.0000
  C   C423      1.0  0.68874  0.22969  0.96969  1.0000
  H   H531      1.0  0.77643  0.01179  0.76328  1.0000
  H   H532      1.0  0.67783  0.22629  0.94735  1.0000
  C   C424      1.0  0.73620  0.17833  0.77994  1.0000
  C   C425      1.0  0.74052  0.15469  0.77456  1.0000
  C   C426      1.0  0.75392  0.15197  0.74682  1.0000
  C   C427      1.0  0.76313  0.17288  0.72398  1.0000
  C   C428      1.0  0.75868  0.19645  0.72931  1.0000
  C   C429      1.0  0.74533  0.19922  0.75710  1.0000
  H   H533      1.0  0.73353  0.13836  0.79198  1.0000
  H   H534      1.0  0.75711  0.13368  0.74309  1.0000
  H   H535      1.0  0.76574  0.21280  0.71188  1.0000
  H   H536      1.0  0.74223  0.21755  0.76083  1.0000
  C   C430      1.0  0.58683  0.20657  0.85489  1.0000
  C   C431      1.0  0.59967  0.22543  0.83026  1.0000
  C   C432      1.0  0.58248  0.23394  0.81296  1.0000
  C   C433      1.0  0.55270  0.22447  0.82090  1.0000
  C   C434      1.0  0.54016  0.20658  0.84639  1.0000
  C   C435      1.0  0.55709  0.19724  0.86305  1.0000
  H   H537      1.0  0.62257  0.23277  0.82382  1.0000
  H   H538      1.0  0.59220  0.24757  0.79311  1.0000
  H   H539      1.0  0.51714  0.19920  0.85260  1.0000
  H   H540      1.0  0.54708  0.18269  0.88214  1.0000
  H   H541      1.0  0.77116  0.17327  0.88592  1.0000
  H   H542      1.0  0.96023  0.21554  0.57529  1.0000
  H   H543      1.0  0.74865  0.32065  0.97522  1.0000
  C   C436      1.0  0.79002  0.22670  0.93933  1.0000
  H   H544      1.0  0.72231  0.16140  0.88527  1.0000
  C   C437      1.0  0.79883  0.19161  0.53294  1.0000
  C   C438      1.0  0.71740  0.16458  0.90910  1.0000
  C   C439      1.0  0.59293  0.32837  0.88206  1.0000
  H   H545      1.0  0.59288  0.29463  0.79917  1.0000
  H   H546      1.0  0.74585  0.18425  0.61859  1.0000
  C   C440      1.0  0.97049  0.21101  0.51116  1.0000
  H   H547      1.0  0.53926  0.15903  0.79970  1.0000
  C   C441      1.0  0.63737  0.30661  0.83843  1.0000
  C   C442      1.0  0.73926  0.18658  0.92828  1.0000
  C   C443      1.0  0.97122  0.20217  0.57656  1.0000
  H   H548      1.0  0.76162  0.14691  0.62339  1.0000
  H   H549      1.0  0.57832  0.31466  0.81873  1.0000
  C   C444      1.0  0.55947  0.21195  0.98125  1.0000
  H   H550      1.0  0.81445  0.05556  0.78379  1.0000
  C   C445      1.0  0.72212  0.00308  0.51688  1.0000
  C   C446      1.0  0.76804  0.22108  0.88897  1.0000
  N   N32       1.0  0.83361  0.05097  0.74061  1.0000
  C   C447      1.0  0.86356  0.06155  0.75455  1.0000
  H   H551      1.0  0.51753  0.24408  0.93742  1.0000
  C   C448      1.0  0.81806  0.06321  0.75940  1.0000
  C   C449      1.0  0.81745  0.01934  0.73908  1.0000
  H   H552      1.0  0.85024  0.05556  0.69327  1.0000
  C   C450      1.0  0.57173  0.18245  0.76474  1.0000
  H   H553      1.0  0.95588  0.18044  0.56703  1.0000
  H   H554      1.0  0.74506  0.20596  0.97515  1.0000
  C   C451      1.0  0.78324  0.18766  0.90596  1.0000
  H   H555      1.0  0.50640  0.23191  0.99190  1.0000
  H   H556      1.0  0.87813  0.05631  0.73984  1.0000
  H   H557      1.0  0.87569  0.08526  0.75726  1.0000
  H   H558      1.0  0.60847  0.20452  0.73351  1.0000
  H   H559      1.0  0.85160  0.01578  0.71197  1.0000
  H   H560      1.0  0.69608  0.29360  0.98348  1.0000
  H   H561      1.0  0.57138  0.31405  0.87206  1.0000
  H   H562      1.0  0.83098  0.08698  0.76044  1.0000
  H   H563      1.0  0.79613  0.05779  0.74898  1.0000
  C   C452      1.0  0.73034  0.18960  0.95895  1.0000
  H   H564      1.0  0.86185  0.05223  0.77793  1.0000
  C   C453      1.0  0.53796  0.21636  0.99786  1.0000
  C   C454      1.0  0.52958  0.23545  0.94973  1.0000
  C   C455      1.0  0.68044  0.15049  0.95002  1.0000
  N   N33       1.0  0.77052  0.17460  0.58419  1.0000
  C   C456      1.0  0.76196  0.14633  0.59743  1.0000
  C   C457      1.0  0.79887  0.19569  0.59942  1.0000
  C   C458      1.0  0.74749  0.18245  0.59278  1.0000
  H   H565      1.0  0.57167  0.20273  0.99185  1.0000
  H   H566      1.0  0.73270  0.32493  0.86590  1.0000
  N   N34       1.0  0.62126  0.32303  0.83572  1.0000
  H   H567      1.0  0.55541  0.23635  0.90974  1.0000
  C   C459      1.0  0.83725  0.06223  0.70871  1.0000
  H   H568      1.0  0.81893  0.20753  0.54421  1.0000
  H   H569      1.0  0.77792  0.13910  0.58997  1.0000
  H   H570      1.0  0.75511  0.20673  0.86930  1.0000
  H   H571      1.0  0.73950  0.12940  0.59000  1.0000
  H   H572      1.0  0.81703  0.19063  0.59433  1.0000
  H   H573      1.0  0.79670  0.19567  0.62533  1.0000
  H   H574      1.0  0.80598  0.21784  0.59203  1.0000
  H   H575      1.0  0.72499  0.16628  0.58444  1.0000
  C   C460      1.0  0.82847  0.14546  0.50858  1.0000
  H   H576      1.0  0.75272  0.20331  0.58263  1.0000
  C   C461      1.0  0.70135  0.17174  0.96949  1.0000
  H   H577      1.0  0.57828  0.28483  0.83749  1.0000
  H   H578      1.0  0.67207  0.13052  0.90466  1.0000
  C   C462      1.0  0.77261  0.17322  0.54980  1.0000
  H   H579      1.0  0.62596  0.28874  0.85501  1.0000
  H   H580      1.0  0.73384  0.02581  0.51234  1.0000
  H   H581      1.0  0.72982  0.01005  0.56529  1.0000
  C   C463      1.0  0.56568  0.21922  0.94983  1.0000
  H   H582      1.0  0.78326  0.17414  0.92529  1.0000
  H   H583      1.0  0.84919  0.08599  0.70876  1.0000
  C   C464      1.0  0.59139  0.30350  0.82234  1.0000
  C   C465      1.0  0.52327  0.22833  0.98105  1.0000
  H   H584      1.0  0.58190  0.21542  0.93736  1.0000
  H   H585      1.0  0.66063  0.32007  0.84673  1.0000
  C   C466      1.0  0.81463  0.13045  0.53578  1.0000
  H   H586      1.0  0.56004  0.19343  0.75704  1.0000
  H   H587      1.0  0.75713  0.23384  0.89557  1.0000
  N   N35       1.0  0.61845  0.13972  0.79794  1.0000
  C   C467      1.0  0.59903  0.10852  0.79325  1.0000
  C   C468      1.0  0.64714  0.14788  0.78185  1.0000
  C   C469      1.0  0.62486  0.14581  0.83170  1.0000
  C   C470      1.0  0.60301  0.15490  0.78646  1.0000
  C   C471      1.0  0.61456  0.17518  0.76215  1.0000
  C   C472      1.0  0.57533  0.14941  0.79960  1.0000
  C   C473      1.0  0.59904  0.18871  0.75162  1.0000
  C   C474      1.0  0.55996  0.16293  0.78875  1.0000
  C   C475      1.0  0.68847  0.14684  0.91991  1.0000
  H   H588      1.0  0.57806  0.10012  0.80691  1.0000
  H   H589      1.0  0.59277  0.10319  0.76826  1.0000
  H   H590      1.0  0.61030  0.09642  0.80065  1.0000
  H   H591      1.0  0.64398  0.14294  0.75643  1.0000
  H   H592      1.0  0.65840  0.13637  0.79115  1.0000
  H   H593      1.0  0.66332  0.17098  0.78521  1.0000
  H   H594      1.0  0.63760  0.16914  0.83638  1.0000
  H   H595      1.0  0.60435  0.13758  0.84612  1.0000
  H   H596      1.0  0.63828  0.13643  0.84084  1.0000
  H   H597      1.0  0.63574  0.18134  0.75117  1.0000
  H   H598      1.0  0.56558  0.13503  0.81883  1.0000
  H   H599      1.0  0.72721  0.13810  0.54320  1.0000
  H   H600      1.0  0.79273  0.21631  0.96029  1.0000
  C   C476      1.0  0.55077  0.23097  0.93413  1.0000
  H   H601      1.0  0.63900  0.29728  0.81558  1.0000
  N   N36       1.0  0.76966  0.20526  0.91612  1.0000
  S   S142      1.0  0.50688  0.25647  0.87339  1.0000
  H   H602      1.0  0.80666  0.20114  0.89806  1.0000
  H   H603      1.0  0.79047  0.23611  0.87959  1.0000
  H   H604      1.0  0.78174  0.24155  0.94682  1.0000
  C   C477      1.0  0.74784  0.15289  0.53208  1.0000
  H   H605      1.0  0.97376  0.19944  0.60180  1.0000
  C   C478      1.0  0.67187  0.21645  0.99634  1.0000
  H   H606      1.0  0.64802  0.20281  0.99436  1.0000
  H   H607      1.0  0.94938  0.20049  0.52314  1.0000
  C   C479      1.0  0.78861  0.00250  0.75210  1.0000
  C   C480      1.0  0.83020  0.00445  0.72330  1.0000
  C   C481      1.0  0.73348  0.25128  0.00111  1.0000
  C   C482      1.0  0.75230  0.32613  0.00054  1.0000
  H   H608      1.0  0.65790  0.13706  0.95824  1.0000
  C   C483      1.0  0.77360  0.09548  0.50457  1.0000
  H   H609      1.0  0.75215  0.07637  0.50292  1.0000
  Fe  Fe73      1.0  0.71336  0.46621  0.10723  1.0000
  S   S143      1.0  0.74240  0.48122  0.14992  1.0000
  S   S144      1.0  0.73191  0.46573  0.05928  1.0000
  Fe  Fe74      1.0  0.65665  0.44677  0.14475  1.0000
  S   S145      1.0  0.68061  0.46096  0.19080  1.0000
  S   S146      1.0  0.60767  0.42332  0.13280  1.0000
  Fe  Fe75      1.0  0.71416  0.50057  0.16580  1.0000
  S   S147      1.0  0.73927  0.54826  0.17920  1.0000
  Fe  Fe76      1.0  0.70728  0.44108  0.17169  1.0000
  S   S148      1.0  0.71523  0.41090  0.20053  1.0000
  S   S149      1.0  0.68736  0.48795  0.12107  1.0000
  S   S150      1.0  0.68096  0.42430  0.12779  1.0000
  H   H610      1.0  0.76340  0.60245  0.39547  1.0000
  H   H611      1.0  0.65826  0.39670  0.23561  1.0000
  S   S151      1.0  0.75885  0.61501  0.31007  1.0000
  C   C484      1.0  0.60065  0.39518  0.01328  1.0000
  H   H612      1.0  0.81781  0.57988  0.07912  1.0000
  H   H613      1.0  0.76518  0.53864  0.12065  1.0000
  C   C485      1.0  0.58596  0.39006  0.15067  1.0000
  C   C486      1.0  0.55931  0.36959  0.13655  1.0000
  C   C487      1.0  0.82383  0.61476  0.46193  1.0000
  H   H614      1.0  0.64963  0.38985  0.01876  1.0000
  C   C488      1.0  0.57628  0.35774  0.19349  1.0000
  C   C489      1.0  0.59462  0.38390  0.17900  1.0000
  H   H615      1.0  0.55219  0.37435  0.11491  1.0000
  H   H616      1.0  0.62944  0.39459  0.08544  1.0000
  H   H617      1.0  0.58249  0.35344  0.21590  1.0000
  H   H618      1.0  0.61497  0.39965  0.19021  1.0000
  C   C490      1.0  0.73420  0.34698  0.14721  1.0000
  C   C491      1.0  0.73876  0.37204  0.13282  1.0000
  C   C492      1.0  0.73215  0.39137  0.14870  1.0000
  C   C493      1.0  0.72180  0.38613  0.17941  1.0000
  C   C494      1.0  0.71690  0.36091  0.19368  1.0000
  H   H619      1.0  0.80409  0.59022  0.11240  1.0000
  C   C495      1.0  0.78385  0.54850  0.02857  1.0000
  H   H620      1.0  0.73615  0.41085  0.13761  1.0000
  H   H621      1.0  0.70888  0.35680  0.21743  1.0000
  C   C496      1.0  0.61293  0.38592  0.06610  1.0000
  C   C497      1.0  0.74518  0.56603  0.21621  1.0000
  C   C498      1.0  0.76558  0.59550  0.21845  1.0000
  C   C499      1.0  0.77050  0.61071  0.24699  1.0000
  C   C500      1.0  0.75473  0.59669  0.27371  1.0000
  C   C501      1.0  0.73428  0.56724  0.27148  1.0000
  C   C502      1.0  0.72967  0.55195  0.24302  1.0000
  H   H622      1.0  0.77772  0.60669  0.19794  1.0000
  H   H623      1.0  0.78626  0.63332  0.24820  1.0000
  H   H624      1.0  0.72186  0.55611  0.29189  1.0000
  H   H625      1.0  0.71383  0.52936  0.24175  1.0000
  C   C503      1.0  0.83474  0.61529  0.39649  1.0000
  C   C504      1.0  0.71895  0.47453  0.02556  1.0000
  H   H626      1.0  0.73211  0.57056  0.03805  1.0000
  H   H627      1.0  0.69230  0.48947  0.04974  1.0000
  H   H628      1.0  0.79132  0.61556  0.36614  1.0000
  H   H629      1.0  0.80609  0.60611  0.07521  1.0000
  H   H630      1.0  0.84761  0.60566  0.40638  1.0000
  C   C505      1.0  0.69936  0.48554  0.02730  1.0000
  C   C506      1.0  0.76665  0.55840  0.04524  1.0000
  C   C507      1.0  0.74648  0.56344  0.02754  1.0000
  H   H631      1.0  0.63461  0.45012  0.03340  1.0000
  C   C508      1.0  0.77045  0.58695  0.45437  1.0000
  C   C509      1.0  0.54165  0.34294  0.15041  1.0000
  C   C510      1.0  0.79941  0.60049  0.44102  1.0000
  H   H632      1.0  0.84587  0.63836  0.40323  1.0000
  H   H633      1.0  0.72561  0.41356  0.02394  1.0000
  C   C511      1.0  0.74927  0.57175  0.09364  1.0000
  H   H634      1.0  0.78152  0.52994  0.08853  1.0000
  C   C512      1.0  0.76473  0.53648  0.09475  1.0000
  H   H635      1.0  0.72975  0.37480  0.04685  1.0000
  C   C513      1.0  0.70664  0.65436  0.34467  1.0000
  H   H636      1.0  0.83675  0.61464  0.37064  1.0000
  N   N37       1.0  0.70211  0.66213  0.31292  1.0000
  C   C514      1.0  0.76623  0.58795  0.48650  1.0000
  C   C515      1.0  0.81933  0.61536  0.49406  1.0000
  H   H637      1.0  0.79280  0.56933  0.36930  1.0000
  H   H638      1.0  0.75229  0.57483  0.11940  1.0000
  H   H639      1.0  0.79650  0.63609  0.40146  1.0000
  H   H640      1.0  0.60435  0.43098  0.05994  1.0000
  C   C516      1.0  0.62592  0.43334  0.05136  1.0000
  C   C517      1.0  0.78788  0.61408  0.39185  1.0000
  C   C518      1.0  0.78970  0.57023  0.39497  1.0000
  H   H641      1.0  0.66131  0.42630  0.01004  1.0000
  H   H642      1.0  0.64181  0.44183  0.07131  1.0000
  H   H643      1.0  0.74392  0.57830  0.49613  1.0000
  H   H644      1.0  0.79940  0.54389  0.04041  1.0000
  H   H645      1.0  0.68017  0.63879  0.27073  1.0000
  C   C519      1.0  0.68222  0.63522  0.29579  1.0000
  H   H646      1.0  0.74190  0.66204  0.29701  1.0000
  C   C520      1.0  0.72269  0.34117  0.17747  1.0000
  H   H647      1.0  0.69083  0.61979  0.29643  1.0000
  N   N38       1.0  0.80313  0.60011  0.40677  1.0000
  H   H648      1.0  0.63143  0.37152  0.28311  1.0000
  C   C521      1.0  0.57337  0.36887  0.01409  1.0000
  C   C522      1.0  0.54993  0.33712  0.17914  1.0000
  C   C523      1.0  0.80088  0.58582  0.08681  1.0000
  H   H649      1.0  0.65943  0.62468  0.30599  1.0000
  H   H650      1.0  0.75287  0.59241  0.08444  1.0000
  H   H651      1.0  0.61046  0.36483  0.05921  1.0000
  H   H652      1.0  0.65422  0.37080  0.18788  1.0000
  H   H653      1.0  0.76529  0.55800  0.39904  1.0000
  H   H654      1.0  0.71621  0.63969  0.34384  1.0000
  C   C524      1.0  0.72552  0.37334  0.02209  1.0000
  H   H655      1.0  0.74267  0.51848  0.08790  1.0000
  C   C525      1.0  0.64447  0.37363  0.23516  1.0000
  H   H656      1.0  0.79992  0.55870  0.40644  1.0000
  H   H657      1.0  0.75080  0.57608  0.43995  1.0000
  H   H658      1.0  0.84661  0.62655  0.45405  1.0000
  N   N39       1.0  0.77013  0.56311  0.07944  1.0000
  C   C526      1.0  0.77642  0.65887  0.49439  1.0000
  H   H659      1.0  0.66323  0.34177  0.15554  1.0000
  H   H660      1.0  0.72563  0.55505  0.08985  1.0000
  H   H661      1.0  0.74786  0.37676  0.10952  1.0000
  Fe  Fe77      1.0  0.79365  0.66039  0.32522  1.0000
  H   H662      1.0  0.56659  0.35503  0.03396  1.0000
  C   C527      1.0  0.64209  0.35830  0.20766  1.0000
  N   N40       1.0  0.62221  0.40570  0.03943  1.0000
  C   C528      1.0  0.65152  0.41000  0.02848  1.0000
  H   H663      1.0  0.75242  0.34792  0.05681  1.0000
  H   H664      1.0  0.59164  0.38276  0.07643  1.0000
  H   H665      1.0  0.63018  0.34322  0.14435  1.0000
  H   H666      1.0  0.68530  0.64332  0.35773  1.0000
  H   H667      1.0  0.75237  0.64849  0.49365  1.0000
  H   H668      1.0  0.78132  0.66184  0.44431  1.0000
  C   C529      1.0  0.62948  0.35946  0.26192  1.0000
  H   H669      1.0  0.66823  0.41765  0.04773  1.0000
  C   C530      1.0  0.72313  0.35027  0.00315  1.0000
  C   C531      1.0  0.72308  0.39585  0.00920  1.0000
  H   H670      1.0  0.77281  0.34728  0.00299  1.0000
  Fe  Fe78      1.0  0.73275  0.50081  0.82828  1.0000
  S   S152      1.0  0.68764  0.49397  0.84288  1.0000
  S   S153      1.0  0.76469  0.53309  0.79289  1.0000
  Fe  Fe79      1.0  0.72401  0.44769  0.86402  1.0000
  S   S154      1.0  0.67837  0.43697  0.88020  1.0000
  S   S155      1.0  0.74022  0.41861  0.88252  1.0000
  Fe  Fe80      1.0  0.67168  0.44764  0.83188  1.0000
  S   S156      1.0  0.63221  0.41947  0.80143  1.0000
  Fe  Fe81      1.0  0.69871  0.48383  0.89029  1.0000
  S   S157      1.0  0.68690  0.49700  0.93644  1.0000
  S   S158      1.0  0.71592  0.45469  0.81462  1.0000
  S   S159      1.0  0.74521  0.49440  0.87683  1.0000
  C   C532      1.0  0.83017  0.64364  0.77370  1.0000
  H   H671      1.0  0.71219  0.37431  0.93340  1.0000
  S   S160      1.0  0.76148  0.63238  0.71560  1.0000
  H   H672      1.0  0.72987  0.56282  0.80020  1.0000
  H   H673      1.0  0.70792  0.35786  0.78804  1.0000
  H   H674      1.0  0.66841  0.36132  0.87173  1.0000
  C   C533      1.0  0.73275  0.38820  0.85978  1.0000
  C   C534      1.0  0.72233  0.38498  0.82918  1.0000
  C   C535      1.0  0.71582  0.36019  0.81176  1.0000
  H   H675      1.0  0.81625  0.59295  0.82753  1.0000
  C   C536      1.0  0.71917  0.33831  0.82505  1.0000
  C   C537      1.0  0.73672  0.36656  0.87281  1.0000
  H   H676      1.0  0.71952  0.40166  0.81883  1.0000
  H   H677      1.0  0.74369  0.46175  0.99474  1.0000
  C   C538      1.0  0.60657  0.41157  0.98589  1.0000
  H   H678      1.0  0.74539  0.36916  0.89620  1.0000
  C   C539      1.0  0.60047  0.39566  0.82244  1.0000
  C   C540      1.0  0.59744  0.40088  0.85389  1.0000
  C   C541      1.0  0.57210  0.38161  0.87042  1.0000
  C   C542      1.0  0.55011  0.35663  0.85598  1.0000
  C   C543      1.0  0.86857  0.63000  0.77257  1.0000
  C   C544      1.0  0.57811  0.37104  0.80765  1.0000
  H   H679      1.0  0.61439  0.41997  0.86538  1.0000
  H   H680      1.0  0.56972  0.38592  0.89455  1.0000
  C   C545      1.0  0.55314  0.35135  0.82451  1.0000
  H   H681      1.0  0.58028  0.36699  0.78326  1.0000
  C   C546      1.0  0.69848  0.48719  0.97047  1.0000
  C   C547      1.0  0.71794  0.35113  0.97084  1.0000
  C   C548      1.0  0.71775  0.47583  0.96880  1.0000
  H   H682      1.0  0.71700  0.41383  0.96719  1.0000
  H   H683      1.0  0.72522  0.47232  0.94634  1.0000
  C   C549      1.0  0.76147  0.55896  0.77030  1.0000
  C   C550      1.0  0.77892  0.56934  0.74324  1.0000
  C   C551      1.0  0.77856  0.59113  0.72569  1.0000
  C   C552      1.0  0.76143  0.60350  0.73553  1.0000
  C   C553      1.0  0.74353  0.59271  0.76225  1.0000
  C   C554      1.0  0.74330  0.57042  0.77938  1.0000
  H   H684      1.0  0.79294  0.56054  0.73590  1.0000
  H   H685      1.0  0.79156  0.59835  0.70463  1.0000
  H   H686      1.0  0.72996  0.60190  0.76996  1.0000
  C   C555      1.0  0.76089  0.54879  0.97974  1.0000
  H   H687      1.0  0.82723  0.65093  0.71047  1.0000
  C   C556      1.0  0.81620  0.62493  0.79821  1.0000
  H   H688      1.0  0.59147  0.41534  0.94048  1.0000
  H   H689      1.0  0.79538  0.62226  0.80755  1.0000
  C   C557      1.0  0.64687  0.35492  0.88206  1.0000
  C   C558      1.0  0.74380  0.55868  0.99527  1.0000
  H   H690      1.0  0.72766  0.56173  0.98220  1.0000
  N   N41       1.0  0.66705  0.49121  0.74268  1.0000
  C   C559      1.0  0.64902  0.46504  0.72359  1.0000
  C   C560      1.0  0.69061  0.48819  0.75885  1.0000
  C   C561      1.0  0.64718  0.49278  0.76703  1.0000
  C   C562      1.0  0.68093  0.51649  0.72241  1.0000
  C   C563      1.0  0.70039  0.51802  0.69795  1.0000
  C   C564      1.0  0.67607  0.54024  0.72638  1.0000
  C   C565      1.0  0.71416  0.54181  0.67878  1.0000
  C   C566      1.0  0.68992  0.56388  0.70697  1.0000
  C   C567      1.0  0.70890  0.56467  0.68327  1.0000
  H   H691      1.0  0.66286  0.46042  0.70704  1.0000
  H   H692      1.0  0.63727  0.44578  0.73843  1.0000
  H   H693      1.0  0.63184  0.46695  0.70990  1.0000
  H   H694      1.0  0.70605  0.48557  0.74264  1.0000
  H   H695      1.0  0.68095  0.46921  0.77404  1.0000
  H   H696      1.0  0.70439  0.50725  0.77376  1.0000
  H   H697      1.0  0.62829  0.49424  0.75660  1.0000
  H   H698      1.0  0.63715  0.47341  0.78182  1.0000
  H   H699      1.0  0.65965  0.51124  0.78328  1.0000
  H   H700      1.0  0.70554  0.50103  0.69384  1.0000
  H   H701      1.0  0.66221  0.54142  0.74467  1.0000
  H   H702      1.0  0.72951  0.54284  0.66075  1.0000
  H   H703      1.0  0.68685  0.58227  0.71096  1.0000
  H   H704      1.0  0.72030  0.58350  0.66902  1.0000
  C   C568      1.0  0.85415  0.61107  0.79686  1.0000
  C   C569      1.0  0.63727  0.34638  0.81326  1.0000
  S   S161      1.0  0.81253  0.65251  0.63599  1.0000
  H   H705      1.0  0.62676  0.43189  0.98353  1.0000
  H   H706      1.0  0.61909  0.37014  0.94732  1.0000
  H   H707      1.0  0.86290  0.59780  0.80548  1.0000
  H   H708      1.0  0.66076  0.36082  0.82008  1.0000
  H   H709      1.0  0.67447  0.50087  0.00123  1.0000
  C   C570      1.0  0.82795  0.60842  0.80952  1.0000
  C   C571      1.0  0.71551  0.37372  0.95826  1.0000
  H   H710      1.0  0.88845  0.63056  0.76353  1.0000
  H   H711      1.0  0.75791  0.54420  0.95488  1.0000
  H   H712      1.0  0.79354  0.53528  0.98424  1.0000
  Fe  Fe82      1.0  0.78804  0.66088  0.67482  1.0000
  C   C572      1.0  0.72962  0.34152  0.85564  1.0000
  H   H713      1.0  0.81905  0.65458  0.76457  1.0000
  C   C573      1.0  0.55349  0.35972  0.98897  1.0000
  C   C574      1.0  0.72816  0.46981  0.99626  1.0000
  C   C575      1.0  0.71820  0.39608  0.97734  1.0000
  H   H714      1.0  0.62649  0.35987  0.81148  1.0000
  H   H715      1.0  0.84461  0.62980  0.70111  1.0000
  C   C576      1.0  0.58646  0.40227  0.96102  1.0000
  C   C577      1.0  0.64642  0.36724  0.91088  1.0000
  C   C578      1.0  0.68918  0.49186  0.99981  1.0000
  H   H716      1.0  0.66720  0.38284  0.92163  1.0000
  C   C579      1.0  0.61940  0.36020  0.92527  1.0000
  H   H717      1.0  0.89727  0.64776  0.71474  1.0000
  H   H718      1.0  0.54428  0.36918  0.94324  1.0000
  C   C580      1.0  0.55996  0.37638  0.96253  1.0000
  C   C581      1.0  0.84903  0.65194  0.70603  1.0000
  C   C582      1.0  0.78085  0.54368  0.99635  1.0000
  H   H719      1.0  0.78724  0.60379  0.53108  1.0000
  C   C583      1.0  0.59275  0.34072  0.91096  1.0000
  H   H720      1.0  0.63789  0.33803  0.78951  1.0000
  C   C584      1.0  0.85684  0.64680  0.76009  1.0000
  C   C585      1.0  0.79102  0.66436  0.52326  1.0000
  H   H721      1.0  0.83818  0.62717  0.50950  1.0000
  S   S162      1.0  0.76981  0.65287  0.55779  1.0000
  H   H722      1.0  0.71627  0.33456  0.95492  1.0000
  C   C586      1.0  0.79062  0.60217  0.50629  1.0000
  H   H723      1.0  0.53271  0.33967  0.99011  1.0000
  C   C587      1.0  0.62012  0.33525  0.86659  1.0000
  H   H724      1.0  0.57163  0.33564  0.92175  1.0000
  H   H725      1.0  0.85812  0.66421  0.68440  1.0000
  N   N42       1.0  0.86985  0.66502  0.73253  1.0000
  H   H726      1.0  0.53612  0.33230  0.81306  1.0000
  S   S163      1.0  0.80714  0.70243  0.30226  1.0000
  Fe  Fe83      1.0  0.82811  0.69021  0.38562  1.0000
  S   S164      1.0  0.84398  0.73400  0.36702  1.0000
  C   C588      1.0  0.53023  0.71312  0.25567  1.0000
  Fe  Fe84      1.0  0.79742  0.71664  0.34858  1.0000
  S   S165      1.0  0.76955  0.73679  0.36415  1.0000
  Fe  Fe85      1.0  0.85272  0.71634  0.32288  1.0000
  S   S166      1.0  0.89573  0.74051  0.29568  1.0000
  S   S167      1.0  0.78109  0.67389  0.37037  1.0000
  Fe  Fe86      1.0  0.63540  0.82719  0.31953  1.0000
  S   S168      1.0  0.67530  0.84693  0.28789  1.0000
  S   S169      1.0  0.58725  0.81246  0.30565  1.0000
  Fe  Fe87      1.0  0.67284  0.83185  0.37648  1.0000
  S   S170      1.0  0.71514  0.85165  0.34886  1.0000
  S   S171      1.0  0.67969  0.82175  0.42572  1.0000
  Fe  Fe88      1.0  0.69777  0.87843  0.32747  1.0000
  S   S172      1.0  0.73371  0.92466  0.32078  1.0000
  Fe  Fe89      1.0  0.68955  0.81873  0.31230  1.0000
  S   S173      1.0  0.70914  0.79453  0.28638  1.0000
  S   S174      1.0  0.65690  0.86085  0.35776  1.0000
  S   S175      1.0  0.64804  0.79672  0.34112  1.0000
  C   C589      1.0  0.56067  0.84225  0.20529  1.0000
  C   C590      1.0  0.54415  0.77187  0.21119  1.0000
  C   C591      1.0  0.57465  0.78177  0.21604  1.0000
  C   C592      1.0  0.58818  0.79409  0.24488  1.0000
  C   C593      1.0  0.57128  0.79670  0.26911  1.0000
  C   C594      1.0  0.54076  0.78673  0.26423  1.0000
  C   C595      1.0  0.52726  0.77432  0.23545  1.0000
  H   H727      1.0  0.58793  0.77997  0.19739  1.0000
  H   H728      1.0  0.61170  0.80170  0.24833  1.0000
  H   H729      1.0  0.52757  0.78869  0.28286  1.0000
  C   C596      1.0  0.92641  0.81575  0.31383  1.0000
  C   C597      1.0  0.73319  0.95651  0.33093  1.0000
  H   H730      1.0  0.92618  0.81370  0.36364  1.0000
  H   H731      1.0  0.76409  0.90468  0.46176  1.0000
  S   S176      1.0  0.52803  0.75684  0.17446  1.0000
  N   N43       1.0  0.74418  0.91735  0.42564  1.0000
  C   C598      1.0  0.70866  0.95626  0.34544  1.0000
  H   H732      1.0  0.76467  0.92791  0.37990  1.0000
  H   H733      1.0  0.70446  0.88274  0.40541  1.0000
  C   C599      1.0  0.81228  0.74136  0.49915  1.0000
  H   H734      1.0  0.68874  0.93616  0.34965  1.0000
  C   C600      1.0  0.75515  0.75464  0.34176  1.0000
  C   C601      1.0  0.74044  0.76739  0.35735  1.0000
  C   C602      1.0  0.72716  0.78050  0.34065  1.0000
  C   C603      1.0  0.72813  0.78067  0.30809  1.0000
  C   C604      1.0  0.74322  0.76830  0.29246  1.0000
  C   C605      1.0  0.75691  0.75552  0.30921  1.0000
  H   H735      1.0  0.73900  0.76686  0.38250  1.0000
  H   H736      1.0  0.71555  0.78988  0.35294  1.0000
  H   H737      1.0  0.74413  0.76846  0.26728  1.0000
  H   H738      1.0  0.76857  0.74624  0.29692  1.0000
  C   C606      1.0  0.98435  0.78340  0.31633  1.0000
  C   C607      1.0  0.95699  0.76958  0.30019  1.0000
  C   C608      1.0  0.92983  0.75618  0.31648  1.0000
  C   C609      1.0  0.93026  0.75645  0.34904  1.0000
  C   C610      1.0  0.95753  0.77055  0.36515  1.0000
  H   H739      1.0  0.95680  0.76936  0.27499  1.0000
  H   H740      1.0  0.90956  0.74618  0.36186  1.0000
  H   H741      1.0  0.95753  0.77099  0.39036  1.0000
  C   C611      1.0  0.70954  0.98357  0.49226  1.0000
  C   C612      1.0  0.67107  0.83399  0.46058  1.0000
  C   C613      1.0  0.65796  0.85145  0.46078  1.0000
  H   H742      1.0  0.57827  0.73528  0.25636  1.0000
  H   H743      1.0  0.65211  0.85727  0.43902  1.0000
  C   C614      1.0  0.68331  0.69267  0.34067  1.0000
  C   C615      1.0  0.98467  0.78423  0.34895  1.0000
  H   H744      1.0  0.83636  0.73585  0.46066  1.0000
  C   C616      1.0  0.71409  0.90575  0.41182  1.0000
  C   C617      1.0  0.50655  0.71013  0.30552  1.0000
  H   H745      1.0  0.78792  0.92680  0.41019  1.0000
  H   H746      1.0  0.55903  0.83077  0.18382  1.0000
  H   H747      1.0  0.58205  0.74678  0.31262  1.0000
  C   C618      1.0  0.97413  0.84646  0.29000  1.0000
  C   C619      1.0  0.50837  0.72846  0.01024  1.0000
  H   H748      1.0  0.73020  0.68128  0.27269  1.0000
  H   H749      1.0  0.60509  0.84905  0.21261  1.0000
  C   C620      1.0  0.67167  0.71131  0.33963  1.0000
  C   C621      1.0  0.50348  0.70410  0.27297  1.0000
  C   C622      1.0  0.76462  0.91667  0.40146  1.0000
  H   H750      1.0  0.80772  0.74428  0.42036  1.0000
  H   H751      1.0  0.75802  0.89442  0.39387  1.0000
  H   H752      1.0  0.90301  0.79999  0.31161  1.0000
  H   H753      1.0  0.73403  0.87564  0.44175  1.0000
  H   H754      1.0  0.68831  0.68813  0.36353  1.0000
  C   C623      1.0  0.56032  0.73424  0.30186  1.0000
  H   H755      1.0  0.96550  0.73779  0.46242  1.0000
  C   C624      1.0  0.82382  0.67893  0.46721  1.0000
  H   H756      1.0  0.50758  0.79790  0.17934  1.0000
  C   C625      1.0  0.77350  0.75220  0.48496  1.0000
  C   C626      1.0  0.54184  0.86093  0.24603  1.0000
  S   S177      1.0  0.84519  0.68637  0.43279  1.0000
  C   C627      1.0  0.56858  0.87086  0.26239  1.0000
  C   C628      1.0  0.78013  0.75101  0.45345  1.0000
  C   C629      1.0  0.59128  0.86659  0.25030  1.0000
  H   H757      1.0  0.66842  0.71692  0.26147  1.0000
  C   C630      1.0  0.98342  0.75666  0.47344  1.0000
  H   H758      1.0  0.51014  0.71393  0.02719  1.0000
  H   H759      1.0  0.61165  0.87353  0.26347  1.0000
  C   C631      1.0  0.68312  0.69046  0.28424  1.0000
  H   H760      1.0  0.64132  0.87402  0.48947  1.0000
  H   H761      1.0  0.98666  0.85408  0.26869  1.0000
  H   H762      1.0  0.97883  0.84694  0.36958  1.0000
  H   H763      1.0  0.68532  0.93921  0.47883  1.0000
  H   H764      1.0  0.57168  0.88154  0.28484  1.0000
  H   H765      1.0  0.77804  0.98321  0.31456  1.0000
  C   C632      1.0  0.94368  0.82706  0.28730  1.0000
  H   H766      1.0  0.74701  0.69633  0.30958  1.0000
  C   C633      1.0  0.75501  0.94716  0.43645  1.0000
  H   H767      1.0  0.52175  0.82892  0.15493  1.0000
  C   C634      1.0  0.75892  0.98284  0.32566  1.0000
  C   C635      1.0  0.93956  0.82354  0.34318  1.0000
  H   H768      1.0  0.65836  0.73524  0.31047  1.0000
  C   C636      1.0  0.67177  0.70934  0.28352  1.0000
  H   H769      1.0  0.66828  0.72042  0.36101  1.0000
  H   H770      1.0  0.93344  0.82003  0.26453  1.0000
  H   H771      1.0  0.76073  0.94174  0.48611  1.0000
  C   C637      1.0  0.98824  0.85516  0.31957  1.0000
  H   H772      1.0  0.72269  0.67360  0.35833  1.0000
  H   H773      1.0  0.69843  0.90765  0.42843  1.0000
  C   C638      1.0  0.76269  0.95624  0.46801  1.0000
  C   C639      1.0  0.70998  0.98218  0.35461  1.0000
  H   H774      1.0  0.68781  0.68355  0.26216  1.0000
  C   C640      1.0  0.65183  0.86084  0.48935  1.0000
  H   H775      1.0  0.75283  0.96292  0.39068  1.0000
  C   C641      1.0  0.53678  0.84574  0.21727  1.0000
  C   C642      1.0  0.69489  0.95440  0.49803  1.0000
  C   C643      1.0  0.66598  0.71968  0.31115  1.0000
  C   C644      1.0  0.55812  0.72779  0.27011  1.0000
  H   H776      1.0  0.53040  0.70993  0.23077  1.0000
  C   C645      1.0  0.58748  0.85271  0.22163  1.0000
  H   H777      1.0  0.72574  0.89603  0.46908  1.0000
  H   H778      1.0  0.71427  0.91674  0.39004  1.0000
  C   C646      1.0  0.74206  0.89781  0.45083  1.0000
  H   H779      1.0  0.52324  0.75063  0.01893  1.0000
  C   C647      1.0  0.80279  0.74526  0.44482  1.0000
  H   H780      1.0  0.76761  0.75445  0.43541  1.0000
  C   C648      1.0  0.50388  0.85859  0.19063  1.0000
  H   H781      1.0  0.50387  0.76675  0.23194  1.0000
  C   C649      1.0  0.97003  0.84278  0.34619  1.0000
  C   C650      1.0  0.53459  0.72528  0.31957  1.0000
  N   N44       1.0  0.50780  0.83449  0.20101  1.0000
  H   H782      1.0  0.68832  0.81272  0.48895  1.0000
  C   C651      1.0  0.73151  0.67602  0.29731  1.0000
  H   H783      1.0  0.52502  0.86493  0.25634  1.0000
  H   H784      1.0  0.53654  0.73063  0.34425  1.0000
  H   H785      1.0  0.52216  0.87260  0.17460  1.0000
  C   C652      1.0  0.50504  0.81659  0.17310  1.0000
  C   C653      1.0  0.67818  0.82622  0.48896  1.0000
  H   H786      1.0  0.71142  0.99107  0.46861  1.0000
  H   H787      1.0  0.86243  0.69467  0.49687  1.0000
  S   S178      1.0  0.83983  0.67335  0.34255  1.0000
  C   C654      1.0  0.81890  0.74055  0.46760  1.0000
  H   H788      1.0  0.75557  0.75663  0.48986  1.0000
  C   C655      1.0  0.83842  0.68491  0.49612  1.0000
  H   H789      1.0  0.50384  0.87212  0.21050  1.0000
  C   C656      1.0  0.75817  0.96824  0.41499  1.0000
  C   C657      1.0  0.68931  0.68155  0.31286  1.0000
  H   H790      1.0  0.69094  0.98185  0.36585  1.0000
  C   C658      1.0  0.79277  0.66636  0.46642  1.0000
  C   C659      1.0  0.77325  0.98477  0.47709  1.0000
  H   H791      1.0  0.77899  0.99131  0.50125  1.0000
  C   C660      1.0  0.76834  0.99656  0.42435  1.0000
  H   H792      1.0  0.99439  0.74426  0.56418  1.0000
  S   S179      1.0  0.83030  0.71627  0.60882  1.0000
  H   H793      1.0  0.82014  0.79085  0.54913  1.0000
  S   S180      1.0  0.82534  0.70555  0.68462  1.0000
  Fe  Fe90      1.0  0.80380  0.71985  0.64888  1.0000
  S   S181      1.0  0.80162  0.76082  0.65526  1.0000
  Fe  Fe91      1.0  0.84862  0.69834  0.64383  1.0000
  S   S182      1.0  0.89633  0.70654  0.64581  1.0000
  C   C661      1.0  0.78713  0.95880  0.73429  1.0000
  Fe  Fe92      1.0  0.69854  0.87118  0.65505  1.0000
  S   S183      1.0  0.65403  0.86662  0.64290  1.0000
  S   S184      1.0  0.73917  0.91245  0.67042  1.0000
  Fe  Fe93      1.0  0.68248  0.81170  0.63034  1.0000
  S   S185      1.0  0.63738  0.80376  0.61514  1.0000
  S   S186      1.0  0.68835  0.77287  0.62141  1.0000
  Fe  Fe94      1.0  0.66022  0.84838  0.59768  1.0000
  S   S187      1.0  0.65021  0.86418  0.55325  1.0000
  Fe  Fe95      1.0  0.63467  0.82201  0.66182  1.0000
  S   S188      1.0  0.58852  0.79273  0.68217  1.0000
  S   S189      1.0  0.70561  0.85508  0.60871  1.0000
  S   S190      1.0  0.67900  0.82802  0.67796  1.0000
  H   H794      1.0  0.60361  0.73700  0.66653  1.0000
  C   C662      1.0  0.57253  0.78663  0.71999  1.0000
  C   C663      1.0  0.58735  0.80418  0.74563  1.0000
  C   C664      1.0  0.57306  0.79894  0.77488  1.0000
  C   C665      1.0  0.54405  0.77595  0.77892  1.0000
  C   C666      1.0  0.52958  0.75797  0.75342  1.0000
  C   C667      1.0  0.54369  0.76344  0.72411  1.0000
  H   H795      1.0  0.60952  0.82208  0.74283  1.0000
  H   H796      1.0  0.58450  0.81291  0.79449  1.0000
  H   H797      1.0  0.53209  0.74969  0.70441  1.0000
  H   H798      1.0  0.68054  0.92183  0.53177  1.0000
  C   C668      1.0  0.97793  0.78456  0.56588  1.0000
  H   H799      1.0  0.95138  0.81188  0.65332  1.0000
  H   H800      1.0  0.67711  0.82894  0.53916  1.0000
  H   H801      1.0  0.62255  0.75635  0.74913  1.0000
  C   C669      1.0  0.98096  0.79420  0.65458  1.0000
  C   C670      1.0  0.77259  0.71983  0.55583  1.0000
  N   N45       1.0  0.69988  0.95300  0.58641  1.0000
  C   C671      1.0  0.92838  0.74064  0.64937  1.0000
  C   C672      1.0  0.95643  0.74237  0.65122  1.0000
  C   C673      1.0  0.98257  0.76897  0.65391  1.0000
  C   C674      1.0  0.95286  0.79248  0.65285  1.0000
  C   C675      1.0  0.92665  0.76581  0.65028  1.0000
  H   H802      1.0  0.95799  0.72301  0.65064  1.0000
  H   H803      1.0  0.90517  0.76477  0.64891  1.0000
  C   C676      1.0  0.76975  0.76365  0.64628  1.0000
  C   C677      1.0  0.77077  0.79012  0.65036  1.0000
  C   C678      1.0  0.74597  0.79332  0.64303  1.0000
  C   C679      1.0  0.72002  0.77005  0.63132  1.0000
  C   C680      1.0  0.71900  0.74357  0.62722  1.0000
  C   C681      1.0  0.74368  0.74030  0.63486  1.0000
  H   H804      1.0  0.79085  0.80826  0.65925  1.0000
  H   H805      1.0  0.74697  0.81377  0.64633  1.0000
  H   H806      1.0  0.69894  0.72545  0.61826  1.0000
  H   H807      1.0  0.74249  0.71976  0.63194  1.0000
  C   C682      1.0  0.73898  0.94505  0.67541  1.0000
  C   C683      1.0  0.76322  0.97028  0.66443  1.0000
  H   H808      1.0  0.64085  0.76615  0.66479  1.0000
  N   N46       1.0  0.63151  0.74090  0.70578  1.0000
  H   H809      1.0  0.80614  0.77114  0.58453  1.0000
  C   C684      1.0  0.71695  0.94674  0.69308  1.0000
  H   H810      1.0  0.78054  0.96915  0.65110  1.0000
  C   C685      1.0  0.78961  0.74757  0.50889  1.0000
  C   C686      1.0  0.54224  0.82845  0.71425  1.0000
  H   H811      1.0  0.69845  0.92747  0.70206  1.0000
  N   N47       1.0  0.78316  0.74845  0.54250  1.0000
  C   C687      1.0  0.50501  0.79569  0.67826  1.0000
  C   C688      1.0  0.82212  0.67790  0.52408  1.0000
  H   H812      1.0  0.49921  0.78569  0.65532  1.0000
  H   H813      1.0  0.90878  0.68311  0.70283  1.0000
  H   H814      1.0  0.95947  0.76229  0.56295  1.0000
  Fe  Fe96      1.0  0.79254  0.67140  0.60410  1.0000
  H   H815      1.0  0.83356  0.68213  0.54619  1.0000
  C   C689      1.0  0.70765  0.74536  0.70527  1.0000
  H   H816      1.0  0.63413  0.73083  0.65716  1.0000
  H   H817      1.0  0.52376  0.74575  0.93417  1.0000
  H   H818      1.0  0.50757  0.73986  0.75620  1.0000
  C   C690      1.0  0.71213  0.78631  0.73376  1.0000
  N   N48       1.0  0.51623  0.72376  0.97810  1.0000
  H   H819      1.0  0.76658  0.77823  0.53921  1.0000
  H   H820      1.0  0.97194  0.79890  0.55317  1.0000
  C   C691      1.0  0.98418  0.76020  0.50585  1.0000
  H   H821      1.0  0.52882  0.82990  0.76053  1.0000
  H   H822      1.0  0.67350  0.79039  0.73835  1.0000
  H   H823      1.0  0.66351  0.92748  0.61743  1.0000
  C   C692      1.0  0.71960  0.99360  0.54747  1.0000
  H   H824      1.0  0.55586  0.72853  0.95498  1.0000
  H   H825      1.0  0.82813  0.76290  0.55889  1.0000
  C   C693      1.0  0.71280  0.97593  0.61068  1.0000
  H   H826      1.0  0.88840  0.70407  0.75962  1.0000
  C   C694      1.0  0.71994  0.97358  0.70093  1.0000
  H   H827      1.0  0.71793  0.73350  0.69563  1.0000
  C   C695      1.0  0.61939  0.75690  0.72360  1.0000
  H   H828      1.0  0.56539  0.84356  0.71929  1.0000
  C   C696      1.0  0.65854  0.85261  0.51773  1.0000
  C   C697      1.0  0.67190  0.83543  0.51744  1.0000
  H   H829      1.0  0.66562  0.71740  0.68494  1.0000
  H   H830      1.0  0.88510  0.70849  0.71859  1.0000
  H   H831      1.0  0.96666  0.74336  0.51912  1.0000
  C   C698      1.0  0.87420  0.69411  0.73869  1.0000
  H   H832      1.0  0.54931  0.71317  0.99295  1.0000
  C   C699      1.0  0.76006  0.75685  0.54877  1.0000
  H   H833      1.0  0.82486  0.73670  0.51584  1.0000
  C   C700      1.0  0.61348  0.71040  0.71428  1.0000
  H   H834      1.0  0.61808  0.69611  0.69899  1.0000
  H   H835      1.0  0.58916  0.70262  0.71196  1.0000
  H   H836      1.0  0.75659  0.75844  0.57418  1.0000
  H   H837      1.0  0.70346  0.97478  0.71572  1.0000
  H   H838      1.0  0.75153  0.96027  0.75895  1.0000
  H   H839      1.0  0.55135  0.82176  0.66678  1.0000
  C   C701      1.0  0.72496  0.77052  0.72203  1.0000
  H   H840      1.0  0.71164  0.92660  0.61376  1.0000
  C   C702      1.0  0.71403  0.93487  0.58967  1.0000
  H   H841      1.0  0.77512  0.93573  0.73155  1.0000
  C   C703      1.0  0.51454  0.74502  0.95783  1.0000
  H   H842      1.0  0.59507  0.74792  0.71948  1.0000
  C   C704      1.0  0.69227  0.94467  0.52850  1.0000
  C   C705      1.0  0.67755  0.73611  0.69967  1.0000
  H   H843      1.0  0.76669  0.71925  0.58092  1.0000
  H   H844      1.0  0.73800  0.74090  0.53905  1.0000
  H   H845      1.0  0.73825  0.94701  0.58436  1.0000
  H   H846      1.0  0.73742  0.98909  0.60831  1.0000
  C   C706      1.0  0.66352  0.75129  0.71184  1.0000
  H   H847      1.0  0.70386  0.91572  0.57402  1.0000
  C   C707      1.0  0.70413  0.96394  0.55426  1.0000
  H   H848      1.0  0.65587  0.94802  0.58989  1.0000
  H   H849      1.0  0.78983  0.71313  0.55448  1.0000
  C   C708      1.0  0.81058  0.76924  0.55933  1.0000
  C   C709      1.0  0.62721  0.74365  0.67219  1.0000
  H   H850      1.0  0.82495  0.96367  0.70821  1.0000
  S   S191      1.0  0.52687  0.77109  0.81608  1.0000
  C   C710      1.0  0.54740  0.72931  0.97868  1.0000
  C   C711      1.0  0.89917  0.66837  0.72288  1.0000
  C   C712      1.0  0.66758  0.93550  0.59313  1.0000
  S   S192      1.0  0.76478  0.67610  0.64208  1.0000
  H   H851      1.0  0.70283  0.99020  0.61000  1.0000
  C   C713      1.0  0.77388  0.97269  0.74976  1.0000
  H   H852      1.0  0.72585  0.80620  0.74627  1.0000
  C   C714      1.0  0.76571  0.99705  0.67145  1.0000
  C   C715      1.0  0.53438  0.81613  0.68459  1.0000
  H   H853      1.0  0.70857  0.96698  0.63451  1.0000
  C   C716      1.0  0.68185  0.77691  0.72895  1.0000
  H   H854      1.0  0.52695  0.76708  0.96774  1.0000
  H   H855      1.0  0.61790  0.70713  0.73879  1.0000
  H   H856      1.0  0.62976  0.77953  0.71625  1.0000
  H   H857      1.0  0.75266  0.70315  0.54320  1.0000
  H   H858      1.0  0.74854  0.77806  0.72529  1.0000
  C   C717      1.0  0.81519  0.97464  0.72102  1.0000
  C   C718      1.0  0.52083  0.82034  0.73781  1.0000
  H   H859      1.0  0.85288  0.69420  0.74238  1.0000
  H   H860      1.0  0.65647  0.91620  0.57782  1.0000
  C   C719      1.0  0.50036  0.68725  0.93459  1.0000
  H   H861      1.0  0.51777  0.70248  0.91981  1.0000
  H   H862      1.0  0.91571  0.67746  0.74217  1.0000
  H   H863      1.0  0.97819  0.78963  0.59116  1.0000
  H   H864      1.0  0.56282  0.75083  0.98872  1.0000
  C   C720      1.0  0.74447  0.99885  0.69045  1.0000
